MODEL 1
REMARK VINA RESULT:    -6.446      0.000      0.000
REMARK INTER + INTRA:         -16.207
REMARK INTER:                 -13.983
REMARK INTRA:                  -2.224
REMARK UNBOUND:                -2.224
REMARK SMILES CCCCCCCCCCCCCCCCCCCCCC(=O)[O-]
REMARK SMILES IDX 12 1 11 2 10 3 9 4 8 5 7 6 6 7 5 8 4 9 3 10 2 11 1 12 13 13
REMARK SMILES IDX 14 14 15 15 16 16 17 17 18 18 19 19 20 20 21 21 22 22 23 23
REMARK SMILES IDX 24 24
REMARK H PARENT
REMARK Flexibility Score: inf
ROOT
ATOM      1  C   UNL     1     -13.222 -10.114  -6.880  1.00  0.00     0.000 C 
ENDROOT
BRANCH   1   2
ATOM      2  C   UNL     1     -14.018 -10.589  -8.108  1.00  0.00     0.000 C 
BRANCH   2   3
ATOM      3  C   UNL     1     -14.435 -12.071  -8.067  1.00  0.00     0.000 C 
BRANCH   3   4
ATOM      4  C   UNL     1     -15.163 -12.547  -9.345  1.00  0.00    -0.000 C 
BRANCH   4   5
ATOM      5  C   UNL     1     -15.433 -11.402 -10.336  1.00  0.00    -0.000 C 
BRANCH   5   6
ATOM      6  C   UNL     1     -16.892 -11.364 -10.816  1.00  0.00    -0.000 C 
BRANCH   6   7
ATOM      7  C   UNL     1     -17.671 -10.168 -10.248  1.00  0.00    -0.000 C 
BRANCH   7   8
ATOM      8  C   UNL     1     -16.724  -9.015  -9.891  1.00  0.00    -0.000 C 
BRANCH   8   9
ATOM      9  C   UNL     1     -17.120  -8.370  -8.556  1.00  0.00    -0.000 C 
BRANCH   9  10
ATOM     10  C   UNL     1     -17.889  -9.333  -7.637  1.00  0.00    -0.000 C 
BRANCH  10  11
ATOM     11  C   UNL     1     -17.075  -9.757  -6.405  1.00  0.00    -0.003 C 
ATOM     12  C   UNL     1     -17.198 -11.256  -6.157  1.00  0.00     0.004 C 
ENDBRANCH  10  11
ENDBRANCH   9  10
ENDBRANCH   8   9
ENDBRANCH   7   8
ENDBRANCH   6   7
ENDBRANCH   5   6
ENDBRANCH   4   5
ENDBRANCH   3   4
ENDBRANCH   2   3
ENDBRANCH   1   2
BRANCH   1  13
ATOM     13  C   UNL     1     -13.145 -11.168  -5.751  1.00  0.00     0.000 C 
BRANCH  13  14
ATOM     14  C   UNL     1     -11.937 -10.948  -4.825  1.00  0.00     0.000 C 
BRANCH  14  15
ATOM     15  C   UNL     1     -11.781 -12.061  -3.777  1.00  0.00     0.000 C 
BRANCH  15  16
ATOM     16  C   UNL     1     -11.795 -11.520  -2.338  1.00  0.00     0.000 C 
BRANCH  16  17
ATOM     17  C   UNL     1     -11.219 -12.549  -1.355  1.00  0.00     0.000 C 
BRANCH  17  18
ATOM     18  C   UNL     1      -9.904 -13.182  -1.847  1.00  0.00     0.000 C 
BRANCH  18  19
ATOM     19  C   UNL     1      -8.950 -13.651  -0.734  1.00  0.00     0.000 C 
BRANCH  19  20
ATOM     20  C   UNL     1      -7.832 -14.573  -1.251  1.00  0.00     0.006 C 
BRANCH  20  21
ATOM     21  C   UNL     1      -8.358 -15.617  -2.245  1.00  0.00     0.053 C 
BRANCH  21  22
ATOM     22  C   UNL     1      -7.917 -17.002  -1.876  1.00  0.00     0.041 C 
ATOM     23  O   UNL     1      -7.384 -17.750  -2.738  1.00  0.00    -0.550 OA
ATOM     24  O   UNL     1      -8.057 -17.450  -0.569  1.00  0.00    -0.550 OA
ENDBRANCH  21  22
ENDBRANCH  20  21
ENDBRANCH  19  20
ENDBRANCH  18  19
ENDBRANCH  17  18
ENDBRANCH  16  17
ENDBRANCH  15  16
ENDBRANCH  14  15
ENDBRANCH  13  14
ENDBRANCH   1  13
TORSDOF 20
ENDMDL
MODEL 2
REMARK VINA RESULT:    -6.326      0.923      2.542
REMARK INTER + INTRA:         -15.948
REMARK INTER:                 -14.050
REMARK INTRA:                  -1.898
REMARK UNBOUND:                -2.224
REMARK SMILES CCCCCCCCCCCCCCCCCCCCCC(=O)[O-]
REMARK SMILES IDX 12 1 11 2 10 3 9 4 8 5 7 6 6 7 5 8 4 9 3 10 2 11 1 12 13 13
REMARK SMILES IDX 14 14 15 15 16 16 17 17 18 18 19 19 20 20 21 21 22 22 23 23
REMARK SMILES IDX 24 24
REMARK H PARENT
REMARK Flexibility Score: inf
ROOT
ATOM      1  C   UNL     1     -13.329 -10.632  -6.545  1.00  0.00     0.000 C 
ENDROOT
BRANCH   1   2
ATOM      2  C   UNL     1     -13.713  -9.312  -7.235  1.00  0.00     0.000 C 
BRANCH   2   3
ATOM      3  C   UNL     1     -15.077  -8.739  -6.808  1.00  0.00     0.000 C 
BRANCH   3   4
ATOM      4  C   UNL     1     -16.148  -9.821  -6.538  1.00  0.00    -0.000 C 
BRANCH   4   5
ATOM      5  C   UNL     1     -17.484  -9.523  -7.239  1.00  0.00    -0.000 C 
BRANCH   5   6
ATOM      6  C   UNL     1     -17.384  -8.358  -8.237  1.00  0.00    -0.000 C 
BRANCH   6   7
ATOM      7  C   UNL     1     -16.873  -8.803  -9.615  1.00  0.00    -0.000 C 
BRANCH   7   8
ATOM      8  C   UNL     1     -17.742  -9.931 -10.186  1.00  0.00    -0.000 C 
BRANCH   8   9
ATOM      9  C   UNL     1     -16.879 -11.121 -10.630  1.00  0.00    -0.000 C 
BRANCH   9  10
ATOM     10  C   UNL     1     -15.464 -11.085 -10.029  1.00  0.00    -0.000 C 
BRANCH  10  11
ATOM     11  C   UNL     1     -14.882 -12.487  -9.797  1.00  0.00    -0.003 C 
ATOM     12  C   UNL     1     -15.108 -12.942  -8.358  1.00  0.00     0.004 C 
ENDBRANCH  10  11
ENDBRANCH   9  10
ENDBRANCH   8   9
ENDBRANCH   7   8
ENDBRANCH   6   7
ENDBRANCH   5   6
ENDBRANCH   4   5
ENDBRANCH   3   4
ENDBRANCH   2   3
ENDBRANCH   1   2
BRANCH   1  13
ATOM     13  C   UNL     1     -12.267 -10.461  -5.434  1.00  0.00     0.000 C 
BRANCH  13  14
ATOM     14  C   UNL     1     -12.049 -11.751  -4.627  1.00  0.00     0.000 C 
BRANCH  14  15
ATOM     15  C   UNL     1     -12.071 -11.513  -3.109  1.00  0.00     0.000 C 
BRANCH  15  16
ATOM     16  C   UNL     1     -11.312 -12.600  -2.332  1.00  0.00     0.000 C 
BRANCH  16  17
ATOM     17  C   UNL     1     -10.923 -12.108  -0.930  1.00  0.00     0.000 C 
BRANCH  17  18
ATOM     18  C   UNL     1      -9.936 -13.048  -0.215  1.00  0.00     0.000 C 
BRANCH  18  19
ATOM     19  C   UNL     1      -8.448 -12.702  -0.410  1.00  0.00     0.000 C 
BRANCH  19  20
ATOM     20  C   UNL     1      -7.657 -13.825  -1.104  1.00  0.00     0.006 C 
BRANCH  20  21
ATOM     21  C   UNL     1      -8.579 -14.886  -1.719  1.00  0.00     0.053 C 
BRANCH  21  22
ATOM     22  C   UNL     1      -7.942 -16.243  -1.708  1.00  0.00     0.041 C 
ATOM     23  O   UNL     1      -7.966 -16.948  -0.665  1.00  0.00    -0.550 OA
ATOM     24  O   UNL     1      -7.361 -16.747  -2.865  1.00  0.00    -0.550 OA
ENDBRANCH  21  22
ENDBRANCH  20  21
ENDBRANCH  19  20
ENDBRANCH  18  19
ENDBRANCH  17  18
ENDBRANCH  16  17
ENDBRANCH  15  16
ENDBRANCH  14  15
ENDBRANCH  13  14
ENDBRANCH   1  13
TORSDOF 20
ENDMDL
MODEL 3
REMARK VINA RESULT:    -6.205      1.046      2.687
REMARK INTER + INTRA:         -15.685
REMARK INTER:                 -13.901
REMARK INTRA:                  -1.784
REMARK UNBOUND:                -2.224
REMARK SMILES CCCCCCCCCCCCCCCCCCCCCC(=O)[O-]
REMARK SMILES IDX 12 1 11 2 10 3 9 4 8 5 7 6 6 7 5 8 4 9 3 10 2 11 1 12 13 13
REMARK SMILES IDX 14 14 15 15 16 16 17 17 18 18 19 19 20 20 21 21 22 22 23 23
REMARK SMILES IDX 24 24
REMARK H PARENT
REMARK Flexibility Score: inf
ROOT
ATOM      1  C   UNL     1     -12.886 -10.874  -5.394  1.00  0.00     0.000 C 
ENDROOT
BRANCH   1   2
ATOM      2  C   UNL     1     -12.442  -9.904  -6.502  1.00  0.00     0.000 C 
BRANCH   2   3
ATOM      3  C   UNL     1     -13.599  -9.241  -7.274  1.00  0.00     0.000 C 
BRANCH   3   4
ATOM      4  C   UNL     1     -14.987  -9.476  -6.635  1.00  0.00    -0.000 C 
BRANCH   4   5
ATOM      5  C   UNL     1     -16.019  -8.414  -7.050  1.00  0.00    -0.000 C 
BRANCH   5   6
ATOM      6  C   UNL     1     -17.367  -9.025  -7.461  1.00  0.00    -0.000 C 
BRANCH   6   7
ATOM      7  C   UNL     1     -17.651  -8.875  -8.963  1.00  0.00    -0.000 C 
BRANCH   7   8
ATOM      8  C   UNL     1     -16.517  -9.480  -9.800  1.00  0.00    -0.000 C 
BRANCH   8   9
ATOM      9  C   UNL     1     -16.736 -10.983 -10.021  1.00  0.00    -0.000 C 
BRANCH   9  10
ATOM     10  C   UNL     1     -15.472 -11.701 -10.519  1.00  0.00    -0.000 C 
BRANCH  10  11
ATOM     11  C   UNL     1     -14.481 -12.012  -9.388  1.00  0.00    -0.003 C 
ATOM     12  C   UNL     1     -15.153 -12.808  -8.274  1.00  0.00     0.004 C 
ENDBRANCH  10  11
ENDBRANCH   9  10
ENDBRANCH   8   9
ENDBRANCH   7   8
ENDBRANCH   6   7
ENDBRANCH   5   6
ENDBRANCH   4   5
ENDBRANCH   3   4
ENDBRANCH   2   3
ENDBRANCH   1   2
BRANCH   1  13
ATOM     13  C   UNL     1     -11.709 -11.459  -4.579  1.00  0.00     0.000 C 
BRANCH  13  14
ATOM     14  C   UNL     1     -12.086 -11.729  -3.114  1.00  0.00     0.000 C 
BRANCH  14  15
ATOM     15  C   UNL     1     -10.982 -12.470  -2.343  1.00  0.00     0.000 C 
BRANCH  15  16
ATOM     16  C   UNL     1     -10.974 -12.121  -0.846  1.00  0.00     0.000 C 
BRANCH  16  17
ATOM     17  C   UNL     1      -9.884 -12.905  -0.101  1.00  0.00     0.000 C 
BRANCH  17  18
ATOM     18  C   UNL     1      -8.472 -12.331  -0.321  1.00  0.00     0.000 C 
BRANCH  18  19
ATOM     19  C   UNL     1      -7.419 -13.350  -0.792  1.00  0.00     0.000 C 
BRANCH  19  20
ATOM     20  C   UNL     1      -8.041 -14.654  -1.322  1.00  0.00     0.006 C 
BRANCH  20  21
ATOM     21  C   UNL     1      -6.986 -15.742  -1.560  1.00  0.00     0.053 C 
BRANCH  21  22
ATOM     22  C   UNL     1      -7.587 -17.115  -1.504  1.00  0.00     0.041 C 
ATOM     23  O   UNL     1      -8.241 -17.481  -0.493  1.00  0.00    -0.550 OA
ATOM     24  O   UNL     1      -7.459 -17.973  -2.589  1.00  0.00    -0.550 OA
ENDBRANCH  21  22
ENDBRANCH  20  21
ENDBRANCH  19  20
ENDBRANCH  18  19
ENDBRANCH  17  18
ENDBRANCH  16  17
ENDBRANCH  15  16
ENDBRANCH  14  15
ENDBRANCH  13  14
ENDBRANCH   1  13
TORSDOF 20
ENDMDL
MODEL 4
REMARK VINA RESULT:    -6.074      3.973     10.834
REMARK INTER + INTRA:         -15.399
REMARK INTER:                 -13.872
REMARK INTRA:                  -1.528
REMARK UNBOUND:                -2.224
REMARK SMILES CCCCCCCCCCCCCCCCCCCCCC(=O)[O-]
REMARK SMILES IDX 12 1 11 2 10 3 9 4 8 5 7 6 6 7 5 8 4 9 3 10 2 11 1 12 13 13
REMARK SMILES IDX 14 14 15 15 16 16 17 17 18 18 19 19 20 20 21 21 22 22 23 23
REMARK SMILES IDX 24 24
REMARK H PARENT
REMARK Flexibility Score: inf
ROOT
ATOM      1  C   UNL     1     -12.621 -10.234  -5.845  1.00  0.00     0.000 C 
ENDROOT
BRANCH   1   2
ATOM      2  C   UNL     1     -12.118 -11.446  -5.040  1.00  0.00     0.000 C 
BRANCH   2   3
ATOM      3  C   UNL     1     -12.129 -11.250  -3.513  1.00  0.00     0.000 C 
BRANCH   3   4
ATOM      4  C   UNL     1     -11.447 -12.398  -2.734  1.00  0.00    -0.000 C 
BRANCH   4   5
ATOM      5  C   UNL     1     -11.346 -12.114  -1.226  1.00  0.00    -0.000 C 
BRANCH   5   6
ATOM      6  C   UNL     1     -10.148 -12.817  -0.569  1.00  0.00    -0.000 C 
BRANCH   6   7
ATOM      7  C   UNL     1      -9.054 -13.191  -1.580  1.00  0.00    -0.000 C 
BRANCH   7   8
ATOM      8  C   UNL     1      -7.729 -13.495  -0.870  1.00  0.00    -0.000 C 
BRANCH   8   9
ATOM      9  C   UNL     1      -7.222 -14.899  -1.227  1.00  0.00    -0.000 C 
BRANCH   9  10
ATOM     10  C   UNL     1      -8.259 -15.725  -2.005  1.00  0.00    -0.000 C 
BRANCH  10  11
ATOM     11  C   UNL     1      -8.021 -17.238  -1.890  1.00  0.00    -0.003 C 
ATOM     12  C   UNL     1      -7.004 -17.712  -2.923  1.00  0.00     0.004 C 
ENDBRANCH  10  11
ENDBRANCH   9  10
ENDBRANCH   8   9
ENDBRANCH   7   8
ENDBRANCH   6   7
ENDBRANCH   5   6
ENDBRANCH   4   5
ENDBRANCH   3   4
ENDBRANCH   2   3
ENDBRANCH   1   2
BRANCH   1  13
ATOM     13  C   UNL     1     -13.387 -10.623  -7.131  1.00  0.00     0.000 C 
BRANCH  13  14
ATOM     14  C   UNL     1     -14.459 -11.694  -6.874  1.00  0.00     0.000 C 
BRANCH  14  15
ATOM     15  C   UNL     1     -14.936 -12.379  -8.164  1.00  0.00     0.000 C 
BRANCH  15  16
ATOM     16  C   UNL     1     -14.850 -11.454  -9.388  1.00  0.00     0.000 C 
BRANCH  16  17
ATOM     17  C   UNL     1     -16.149 -11.496 -10.206  1.00  0.00     0.000 C 
BRANCH  17  18
ATOM     18  C   UNL     1     -16.693 -10.096 -10.543  1.00  0.00     0.000 C 
BRANCH  18  19
ATOM     19  C   UNL     1     -18.219  -9.939 -10.405  1.00  0.00     0.000 C 
BRANCH  19  20
ATOM     20  C   UNL     1     -18.629  -9.141  -9.155  1.00  0.00     0.006 C 
BRANCH  20  21
ATOM     21  C   UNL     1     -17.447  -8.381  -8.540  1.00  0.00     0.053 C 
BRANCH  21  22
ATOM     22  C   UNL     1     -17.018  -8.988  -7.238  1.00  0.00     0.041 C 
ATOM     23  O   UNL     1     -16.078  -8.474  -6.576  1.00  0.00    -0.550 OA
ATOM     24  O   UNL     1     -17.688 -10.095  -6.734  1.00  0.00    -0.550 OA
ENDBRANCH  21  22
ENDBRANCH  20  21
ENDBRANCH  19  20
ENDBRANCH  18  19
ENDBRANCH  17  18
ENDBRANCH  16  17
ENDBRANCH  15  16
ENDBRANCH  14  15
ENDBRANCH  13  14
ENDBRANCH   1  13
TORSDOF 20
ENDMDL
MODEL 5
REMARK VINA RESULT:    -6.074      5.274     11.717
REMARK INTER + INTRA:         -15.399
REMARK INTER:                 -14.274
REMARK INTRA:                  -1.125
REMARK UNBOUND:                -2.224
REMARK SMILES CCCCCCCCCCCCCCCCCCCCCC(=O)[O-]
REMARK SMILES IDX 12 1 11 2 10 3 9 4 8 5 7 6 6 7 5 8 4 9 3 10 2 11 1 12 13 13
REMARK SMILES IDX 14 14 15 15 16 16 17 17 18 18 19 19 20 20 21 21 22 22 23 23
REMARK SMILES IDX 24 24
REMARK H PARENT
REMARK Flexibility Score: inf
ROOT
ATOM      1  C   UNL     1     -12.496 -10.509  -5.436  1.00  0.00     0.000 C 
ENDROOT
BRANCH   1   2
ATOM      2  C   UNL     1     -11.893 -11.652  -4.601  1.00  0.00     0.000 C 
BRANCH   2   3
ATOM      3  C   UNL     1     -12.132 -11.531  -3.084  1.00  0.00     0.000 C 
BRANCH   3   4
ATOM      4  C   UNL     1     -11.285 -12.513  -2.242  1.00  0.00    -0.000 C 
BRANCH   4   5
ATOM      5  C   UNL     1     -10.975 -11.975  -0.835  1.00  0.00    -0.000 C 
BRANCH   5   6
ATOM      6  C   UNL     1      -9.791 -12.695  -0.171  1.00  0.00    -0.000 C 
BRANCH   6   7
ATOM      7  C   UNL     1      -9.122 -13.716  -1.104  1.00  0.00    -0.000 C 
BRANCH   7   8
ATOM      8  C   UNL     1      -7.613 -13.795  -0.840  1.00  0.00    -0.000 C 
BRANCH   8   9
ATOM      9  C   UNL     1      -7.010 -15.061  -1.466  1.00  0.00    -0.000 C 
BRANCH   9  10
ATOM     10  C   UNL     1      -8.050 -15.903  -2.222  1.00  0.00    -0.000 C 
BRANCH  10  11
ATOM     11  C   UNL     1      -7.900 -17.409  -1.958  1.00  0.00    -0.003 C 
ATOM     12  C   UNL     1      -8.103 -17.729  -0.481  1.00  0.00     0.004 C 
ENDBRANCH  10  11
ENDBRANCH   9  10
ENDBRANCH   8   9
ENDBRANCH   7   8
ENDBRANCH   6   7
ENDBRANCH   5   6
ENDBRANCH   4   5
ENDBRANCH   3   4
ENDBRANCH   2   3
ENDBRANCH   1   2
BRANCH   1  13
ATOM     13  C   UNL     1     -13.447 -10.998  -6.553  1.00  0.00     0.000 C 
BRANCH  13  14
ATOM     14  C   UNL     1     -14.072  -9.836  -7.342  1.00  0.00     0.000 C 
BRANCH  14  15
ATOM     15  C   UNL     1     -15.501  -9.506  -6.883  1.00  0.00     0.000 C 
BRANCH  15  16
ATOM     16  C   UNL     1     -16.027  -8.197  -7.494  1.00  0.00     0.000 C 
BRANCH  16  17
ATOM     17  C   UNL     1     -16.530  -8.420  -8.928  1.00  0.00     0.000 C 
BRANCH  17  18
ATOM     18  C   UNL     1     -17.380  -9.694  -9.077  1.00  0.00     0.000 C 
BRANCH  18  19
ATOM     19  C   UNL     1     -16.795 -10.763 -10.017  1.00  0.00     0.000 C 
BRANCH  19  20
ATOM     20  C   UNL     1     -17.800 -11.246 -11.077  1.00  0.00     0.006 C 
BRANCH  20  21
ATOM     21  C   UNL     1     -18.833 -10.168 -11.427  1.00  0.00     0.053 C 
BRANCH  21  22
ATOM     22  C   UNL     1     -19.938 -10.717 -12.279  1.00  0.00     0.041 C 
ATOM     23  O   UNL     1     -19.890 -11.905 -12.692  1.00  0.00    -0.550 OA
ATOM     24  O   UNL     1     -21.040  -9.928 -12.580  1.00  0.00    -0.550 OA
ENDBRANCH  21  22
ENDBRANCH  20  21
ENDBRANCH  19  20
ENDBRANCH  18  19
ENDBRANCH  17  18
ENDBRANCH  16  17
ENDBRANCH  15  16
ENDBRANCH  14  15
ENDBRANCH  13  14
ENDBRANCH   1  13
TORSDOF 20
ENDMDL
MODEL 6
REMARK VINA RESULT:    -6.045      1.037      2.644
REMARK INTER + INTRA:         -15.336
REMARK INTER:                 -13.784
REMARK INTRA:                  -1.553
REMARK UNBOUND:                -2.224
REMARK SMILES CCCCCCCCCCCCCCCCCCCCCC(=O)[O-]
REMARK SMILES IDX 12 1 11 2 10 3 9 4 8 5 7 6 6 7 5 8 4 9 3 10 2 11 1 12 13 13
REMARK SMILES IDX 14 14 15 15 16 16 17 17 18 18 19 19 20 20 21 21 22 22 23 23
REMARK SMILES IDX 24 24
REMARK H PARENT
REMARK Flexibility Score: inf
ROOT
ATOM      1  C   UNL     1     -12.506  -9.880  -6.129  1.00  0.00     0.000 C 
ENDROOT
BRANCH   1   2
ATOM      2  C   UNL     1     -13.625 -10.007  -7.177  1.00  0.00     0.000 C 
BRANCH   2   3
ATOM      3  C   UNL     1     -14.340 -11.371  -7.189  1.00  0.00     0.000 C 
BRANCH   3   4
ATOM      4  C   UNL     1     -15.845 -11.287  -6.847  1.00  0.00    -0.000 C 
BRANCH   4   5
ATOM      5  C   UNL     1     -16.283  -9.870  -6.439  1.00  0.00    -0.000 C 
BRANCH   5   6
ATOM      6  C   UNL     1     -17.360  -9.290  -7.368  1.00  0.00    -0.000 C 
BRANCH   6   7
ATOM      7  C   UNL     1     -16.782  -8.325  -8.414  1.00  0.00    -0.000 C 
BRANCH   7   8
ATOM      8  C   UNL     1     -16.944  -8.889  -9.831  1.00  0.00    -0.000 C 
BRANCH   8   9
ATOM      9  C   UNL     1     -17.945 -10.053  -9.849  1.00  0.00    -0.000 C 
BRANCH   9  10
ATOM     10  C   UNL     1     -17.669 -11.055 -10.982  1.00  0.00    -0.000 C 
BRANCH  10  11
ATOM     11  C   UNL     1     -18.956 -11.601 -11.618  1.00  0.00    -0.003 C 
ATOM     12  C   UNL     1     -19.849 -10.466 -12.110  1.00  0.00     0.004 C 
ENDBRANCH  10  11
ENDBRANCH   9  10
ENDBRANCH   8   9
ENDBRANCH   7   8
ENDBRANCH   6   7
ENDBRANCH   5   6
ENDBRANCH   4   5
ENDBRANCH   3   4
ENDBRANCH   2   3
ENDBRANCH   1   2
BRANCH   1  13
ATOM     13  C   UNL     1     -12.210 -11.201  -5.381  1.00  0.00     0.000 C 
BRANCH  13  14
ATOM     14  C   UNL     1     -12.132 -11.008  -3.858  1.00  0.00     0.000 C 
BRANCH  14  15
ATOM     15  C   UNL     1     -11.796 -12.309  -3.111  1.00  0.00     0.000 C 
BRANCH  15  16
ATOM     16  C   UNL     1     -11.773 -12.122  -1.586  1.00  0.00     0.000 C 
BRANCH  16  17
ATOM     17  C   UNL     1     -10.333 -12.091  -1.054  1.00  0.00     0.000 C 
BRANCH  17  18
ATOM     18  C   UNL     1      -9.491 -13.291  -1.525  1.00  0.00     0.000 C 
BRANCH  18  19
ATOM     19  C   UNL     1      -8.084 -13.383  -0.908  1.00  0.00     0.000 C 
BRANCH  19  20
ATOM     20  C   UNL     1      -7.470 -14.790  -1.020  1.00  0.00     0.006 C 
BRANCH  20  21
ATOM     21  C   UNL     1      -8.050 -15.581  -2.200  1.00  0.00     0.053 C 
BRANCH  21  22
ATOM     22  C   UNL     1      -7.804 -17.052  -2.052  1.00  0.00     0.041 C 
ATOM     23  O   UNL     1      -8.064 -17.634  -0.966  1.00  0.00    -0.550 OA
ATOM     24  O   UNL     1      -7.327 -17.788  -3.129  1.00  0.00    -0.550 OA
ENDBRANCH  21  22
ENDBRANCH  20  21
ENDBRANCH  19  20
ENDBRANCH  18  19
ENDBRANCH  17  18
ENDBRANCH  16  17
ENDBRANCH  15  16
ENDBRANCH  14  15
ENDBRANCH  13  14
ENDBRANCH   1  13
TORSDOF 20
ENDMDL
MODEL 7
REMARK VINA RESULT:    -5.996      3.310     10.074
REMARK INTER + INTRA:         -15.230
REMARK INTER:                 -13.810
REMARK INTRA:                  -1.420
REMARK UNBOUND:                -2.224
REMARK SMILES CCCCCCCCCCCCCCCCCCCCCC(=O)[O-]
REMARK SMILES IDX 12 1 11 2 10 3 9 4 8 5 7 6 6 7 5 8 4 9 3 10 2 11 1 12 13 13
REMARK SMILES IDX 14 14 15 15 16 16 17 17 18 18 19 19 20 20 21 21 22 22 23 23
REMARK SMILES IDX 24 24
REMARK H PARENT
REMARK Flexibility Score: inf
ROOT
ATOM      1  C   UNL     1     -12.478  -9.889  -6.528  1.00  0.00     0.000 C 
ENDROOT
BRANCH   1   2
ATOM      2  C   UNL     1     -12.896 -10.980  -5.528  1.00  0.00     0.000 C 
BRANCH   2   3
ATOM      3  C   UNL     1     -11.751 -11.516  -4.649  1.00  0.00     0.000 C 
BRANCH   3   4
ATOM      4  C   UNL     1     -12.079 -11.529  -3.139  1.00  0.00    -0.000 C 
BRANCH   4   5
ATOM      5  C   UNL     1     -11.223 -12.536  -2.353  1.00  0.00    -0.000 C 
BRANCH   5   6
ATOM      6  C   UNL     1     -11.106 -12.180  -0.863  1.00  0.00    -0.000 C 
BRANCH   6   7
ATOM      7  C   UNL     1     -10.030 -13.005  -0.140  1.00  0.00    -0.000 C 
BRANCH   7   8
ATOM      8  C   UNL     1      -8.645 -12.368  -0.308  1.00  0.00    -0.000 C 
BRANCH   8   9
ATOM      9  C   UNL     1      -7.627 -13.391  -0.834  1.00  0.00    -0.000 C 
BRANCH   9  10
ATOM     10  C   UNL     1      -8.293 -14.666  -1.375  1.00  0.00    -0.000 C 
BRANCH  10  11
ATOM     11  C   UNL     1      -7.308 -15.835  -1.518  1.00  0.00    -0.003 C 
ATOM     12  C   UNL     1      -8.022 -17.098  -1.990  1.00  0.00     0.004 C 
ENDBRANCH  10  11
ENDBRANCH   9  10
ENDBRANCH   8   9
ENDBRANCH   7   8
ENDBRANCH   6   7
ENDBRANCH   5   6
ENDBRANCH   4   5
ENDBRANCH   3   4
ENDBRANCH   2   3
ENDBRANCH   1   2
BRANCH   1  13
ATOM     13  C   UNL     1     -13.676  -9.178  -7.201  1.00  0.00     0.000 C 
BRANCH  13  14
ATOM     14  C   UNL     1     -15.025  -9.604  -6.599  1.00  0.00     0.000 C 
BRANCH  14  15
ATOM     15  C   UNL     1     -16.145  -8.588  -6.873  1.00  0.00     0.000 C 
BRANCH  15  16
ATOM     16  C   UNL     1     -15.999  -7.906  -8.242  1.00  0.00     0.000 C 
BRANCH  16  17
ATOM     17  C   UNL     1     -17.029  -8.450  -9.243  1.00  0.00     0.000 C 
BRANCH  17  18
ATOM     18  C   UNL     1     -17.218  -9.975  -9.144  1.00  0.00     0.000 C 
BRANCH  18  19
ATOM     19  C   UNL     1     -17.459 -10.690 -10.485  1.00  0.00     0.000 C 
BRANCH  19  20
ATOM     20  C   UNL     1     -16.426 -11.794 -10.772  1.00  0.00     0.006 C 
BRANCH  20  21
ATOM     21  C   UNL     1     -15.130 -11.592  -9.976  1.00  0.00     0.053 C 
BRANCH  21  22
ATOM     22  C   UNL     1     -14.854 -12.751  -9.067  1.00  0.00     0.041 C 
ATOM     23  O   UNL     1     -14.389 -13.826  -9.531  1.00  0.00    -0.550 OA
ATOM     24  O   UNL     1     -15.070 -12.629  -7.701  1.00  0.00    -0.550 OA
ENDBRANCH  21  22
ENDBRANCH  20  21
ENDBRANCH  19  20
ENDBRANCH  18  19
ENDBRANCH  17  18
ENDBRANCH  16  17
ENDBRANCH  15  16
ENDBRANCH  14  15
ENDBRANCH  13  14
ENDBRANCH   1  13
TORSDOF 20
ENDMDL
MODEL 8
REMARK VINA RESULT:    -5.956      4.480     11.161
REMARK INTER + INTRA:         -15.145
REMARK INTER:                 -13.959
REMARK INTRA:                  -1.186
REMARK UNBOUND:                -2.224
REMARK SMILES CCCCCCCCCCCCCCCCCCCCCC(=O)[O-]
REMARK SMILES IDX 12 1 11 2 10 3 9 4 8 5 7 6 6 7 5 8 4 9 3 10 2 11 1 12 13 13
REMARK SMILES IDX 14 14 15 15 16 16 17 17 18 18 19 19 20 20 21 21 22 22 23 23
REMARK SMILES IDX 24 24
REMARK H PARENT
REMARK Flexibility Score: inf
ROOT
ATOM      1  C   UNL     1     -12.647 -11.266  -5.263  1.00  0.00     0.000 C 
ENDROOT
BRANCH   1   2
ATOM      2  C   UNL     1     -11.568 -11.692  -4.252  1.00  0.00     0.000 C 
BRANCH   2   3
ATOM      3  C   UNL     1     -12.032 -11.694  -2.783  1.00  0.00     0.000 C 
BRANCH   3   4
ATOM      4  C   UNL     1     -11.061 -12.423  -1.827  1.00  0.00    -0.000 C 
BRANCH   4   5
ATOM      5  C   UNL     1     -10.732 -11.598  -0.571  1.00  0.00    -0.000 C 
BRANCH   5   6
ATOM      6  C   UNL     1      -9.510 -12.135   0.189  1.00  0.00    -0.000 C 
BRANCH   6   7
ATOM      7  C   UNL     1      -8.971 -13.445  -0.406  1.00  0.00    -0.000 C 
BRANCH   7   8
ATOM      8  C   UNL     1      -7.501 -13.297  -0.819  1.00  0.00    -0.000 C 
BRANCH   8   9
ATOM      9  C   UNL     1      -6.890 -14.660  -1.174  1.00  0.00    -0.000 C 
BRANCH   9  10
ATOM     10  C   UNL     1      -7.940 -15.780  -1.253  1.00  0.00    -0.000 C 
BRANCH  10  11
ATOM     11  C   UNL     1      -8.094 -16.350  -2.671  1.00  0.00    -0.003 C 
ATOM     12  C   UNL     1      -7.154 -17.530  -2.892  1.00  0.00     0.004 C 
ENDBRANCH  10  11
ENDBRANCH   9  10
ENDBRANCH   8   9
ENDBRANCH   7   8
ENDBRANCH   6   7
ENDBRANCH   5   6
ENDBRANCH   4   5
ENDBRANCH   3   4
ENDBRANCH   2   3
ENDBRANCH   1   2
BRANCH   1  13
ATOM     13  C   UNL     1     -12.232 -10.058  -6.135  1.00  0.00     0.000 C 
BRANCH  13  14
ATOM     14  C   UNL     1     -13.273  -9.731  -7.218  1.00  0.00     0.000 C 
BRANCH  14  15
ATOM     15  C   UNL     1     -14.648 -10.354  -6.928  1.00  0.00     0.000 C 
BRANCH  15  16
ATOM     16  C   UNL     1     -15.628  -9.351  -6.300  1.00  0.00     0.000 C 
BRANCH  16  17
ATOM     17  C   UNL     1     -15.727  -8.072  -7.145  1.00  0.00     0.000 C 
BRANCH  17  18
ATOM     18  C   UNL     1     -16.192  -8.338  -8.588  1.00  0.00     0.000 C 
BRANCH  18  19
ATOM     19  C   UNL     1     -17.719  -8.377  -8.784  1.00  0.00     0.000 C 
BRANCH  19  20
ATOM     20  C   UNL     1     -18.248  -9.785  -9.104  1.00  0.00     0.006 C 
BRANCH  20  21
ATOM     21  C   UNL     1     -18.687  -9.920 -10.568  1.00  0.00     0.053 C 
BRANCH  21  22
ATOM     22  C   UNL     1     -18.181 -11.190 -11.183  1.00  0.00     0.041 C 
ATOM     23  O   UNL     1     -16.982 -11.540 -11.021  1.00  0.00    -0.550 OA
ATOM     24  O   UNL     1     -19.046 -12.008 -11.897  1.00  0.00    -0.550 OA
ENDBRANCH  21  22
ENDBRANCH  20  21
ENDBRANCH  19  20
ENDBRANCH  18  19
ENDBRANCH  17  18
ENDBRANCH  16  17
ENDBRANCH  15  16
ENDBRANCH  14  15
ENDBRANCH  13  14
ENDBRANCH   1  13
TORSDOF 20
ENDMDL
MODEL 9
REMARK VINA RESULT:    -5.913      1.416      2.672
REMARK INTER + INTRA:         -15.050
REMARK INTER:                 -12.884
REMARK INTRA:                  -2.166
REMARK UNBOUND:                -2.224
REMARK SMILES CCCCCCCCCCCCCCCCCCCCCC(=O)[O-]
REMARK SMILES IDX 12 1 11 2 10 3 9 4 8 5 7 6 6 7 5 8 4 9 3 10 2 11 1 12 13 13
REMARK SMILES IDX 14 14 15 15 16 16 17 17 18 18 19 19 20 20 21 21 22 22 23 23
REMARK SMILES IDX 24 24
REMARK H PARENT
REMARK Flexibility Score: inf
ROOT
ATOM      1  C   UNL     1     -15.198 -12.554  -8.675  1.00  0.00     0.000 C 
ENDROOT
BRANCH   1   2
ATOM      2  C   UNL     1     -14.686 -11.721  -9.862  1.00  0.00     0.000 C 
BRANCH   2   3
ATOM      3  C   UNL     1     -15.740 -11.437 -10.948  1.00  0.00     0.000 C 
BRANCH   3   4
ATOM      4  C   UNL     1     -17.070 -12.197 -10.736  1.00  0.00    -0.000 C 
BRANCH   4   5
ATOM      5  C   UNL     1     -18.257 -11.526 -11.447  1.00  0.00    -0.000 C 
BRANCH   5   6
ATOM      6  C   UNL     1     -18.316 -10.011 -11.202  1.00  0.00    -0.000 C 
BRANCH   6   7
ATOM      7  C   UNL     1     -19.090  -9.648  -9.926  1.00  0.00    -0.000 C 
BRANCH   7   8
ATOM      8  C   UNL     1     -18.162  -9.636  -8.705  1.00  0.00    -0.000 C 
BRANCH   8   9
ATOM      9  C   UNL     1     -17.398  -8.308  -8.606  1.00  0.00    -0.000 C 
BRANCH   9  10
ATOM     10  C   UNL     1     -15.877  -8.487  -8.732  1.00  0.00    -0.000 C 
BRANCH  10  11
ATOM     11  C   UNL     1     -15.118  -8.013  -7.484  1.00  0.00    -0.003 C 
ATOM     12  C   UNL     1     -15.822  -8.466  -6.209  1.00  0.00     0.004 C 
ENDBRANCH  10  11
ENDBRANCH   9  10
ENDBRANCH   8   9
ENDBRANCH   7   8
ENDBRANCH   6   7
ENDBRANCH   5   6
ENDBRANCH   4   5
ENDBRANCH   3   4
ENDBRANCH   2   3
ENDBRANCH   1   2
BRANCH   1  13
ATOM     13  C   UNL     1     -14.966 -11.880  -7.303  1.00  0.00     0.000 C 
BRANCH  13  14
ATOM     14  C   UNL     1     -13.553 -11.288  -7.171  1.00  0.00     0.000 C 
BRANCH  14  15
ATOM     15  C   UNL     1     -13.278 -10.711  -5.774  1.00  0.00     0.000 C 
BRANCH  15  16
ATOM     16  C   UNL     1     -12.089 -11.393  -5.079  1.00  0.00     0.000 C 
BRANCH  16  17
ATOM     17  C   UNL     1     -12.132 -11.167  -3.561  1.00  0.00     0.000 C 
BRANCH  17  18
ATOM     18  C   UNL     1     -11.699 -12.405  -2.755  1.00  0.00     0.000 C 
BRANCH  18  19
ATOM     19  C   UNL     1     -11.415 -12.147  -1.264  1.00  0.00     0.000 C 
BRANCH  19  20
ATOM     20  C   UNL     1     -10.034 -12.659  -0.819  1.00  0.00     0.006 C 
BRANCH  20  21
ATOM     21  C   UNL     1      -9.236 -13.258  -1.985  1.00  0.00     0.053 C 
BRANCH  21  22
ATOM     22  C   UNL     1      -8.253 -14.286  -1.511  1.00  0.00     0.041 C 
ATOM     23  O   UNL     1      -8.392 -15.495  -1.835  1.00  0.00    -0.550 OA
ATOM     24  O   UNL     1      -7.159 -13.900  -0.748  1.00  0.00    -0.550 OA
ENDBRANCH  21  22
ENDBRANCH  20  21
ENDBRANCH  19  20
ENDBRANCH  18  19
ENDBRANCH  17  18
ENDBRANCH  16  17
ENDBRANCH  15  16
ENDBRANCH  14  15
ENDBRANCH  13  14
ENDBRANCH   1  13
TORSDOF 20
ENDMDL
