MODEL 1
REMARK VINA RESULT:    -3.677      0.000      0.000
REMARK INTER + INTRA:          -3.911
REMARK INTER:                  -3.892
REMARK INTRA:                  -0.019
REMARK UNBOUND:                -0.019
REMARK SMILES O=C([O-])c1cccnc1
REMARK SMILES IDX 4 1 5 2 9 3 6 4 8 5 7 6 2 7 1 8 3 9
REMARK H PARENT
REMARK Flexibility Score: inf
ROOT
ATOM      1  C   UNL     1       2.630 -20.975   0.433  1.00  0.00     0.016 A 
ATOM      2  C   UNL     1       3.680 -21.408   1.260  1.00  0.00     0.013 A 
ATOM      3  C   UNL     1       2.878 -19.921  -0.463  1.00  0.00     0.120 A 
ATOM      4  C   UNL     1       4.932 -20.796   1.183  1.00  0.00     0.021 A 
ATOM      5  N   UNL     1       4.107 -19.340  -0.518  1.00  0.00    -0.264 NA
ATOM      6  C   UNL     1       5.129 -19.752   0.279  1.00  0.00     0.111 A 
ENDROOT
BRANCH   1   7
ATOM      7  C   UNL     1       1.297 -21.611   0.498  1.00  0.00     0.073 C 
ATOM      8  O   UNL     1       1.182 -22.865   0.453  1.00  0.00    -0.545 OA
ATOM      9  O   UNL     1       0.151 -20.832   0.611  1.00  0.00    -0.545 OA
ENDBRANCH   1   7
TORSDOF 1
ENDMDL
MODEL 2
REMARK VINA RESULT:    -3.654      9.058      9.889
REMARK INTER + INTRA:          -3.886
REMARK INTER:                  -3.866
REMARK INTRA:                  -0.020
REMARK UNBOUND:                -0.019
REMARK SMILES O=C([O-])c1cccnc1
REMARK SMILES IDX 4 1 5 2 9 3 6 4 8 5 7 6 2 7 1 8 3 9
REMARK H PARENT
REMARK Flexibility Score: inf
ROOT
ATOM      1  C   UNL     1      -2.008 -25.242  -7.020  1.00  0.00     0.016 A 
ATOM      2  C   UNL     1      -0.809 -25.693  -7.597  1.00  0.00     0.013 A 
ATOM      3  C   UNL     1      -1.984 -24.805  -5.685  1.00  0.00     0.120 A 
ATOM      4  C   UNL     1       0.369 -25.702  -6.849  1.00  0.00     0.021 A 
ATOM      5  N   UNL     1      -0.822 -24.824  -4.977  1.00  0.00    -0.264 NA
ATOM      6  C   UNL     1       0.343 -25.259  -5.526  1.00  0.00     0.111 A 
ENDROOT
BRANCH   1   7
ATOM      7  C   UNL     1      -3.267 -25.224  -7.796  1.00  0.00     0.073 C 
ATOM      8  O   UNL     1      -4.352 -25.581  -7.264  1.00  0.00    -0.545 OA
ATOM      9  O   UNL     1      -3.269 -24.813  -9.124  1.00  0.00    -0.545 OA
ENDBRANCH   1   7
TORSDOF 1
ENDMDL
MODEL 3
REMARK VINA RESULT:    -3.622      9.156     10.299
REMARK INTER + INTRA:          -3.853
REMARK INTER:                  -3.829
REMARK INTRA:                  -0.024
REMARK UNBOUND:                -0.019
REMARK SMILES O=C([O-])c1cccnc1
REMARK SMILES IDX 4 1 5 2 9 3 6 4 8 5 7 6 2 7 1 8 3 9
REMARK H PARENT
REMARK Flexibility Score: inf
ROOT
ATOM      1  C   UNL     1      -1.172 -25.377  -6.822  1.00  0.00     0.016 A 
ATOM      2  C   UNL     1      -2.499 -25.057  -6.492  1.00  0.00     0.013 A 
ATOM      3  C   UNL     1      -0.892 -25.796  -8.134  1.00  0.00     0.120 A 
ATOM      4  C   UNL     1      -3.505 -25.159  -7.455  1.00  0.00     0.021 A 
ATOM      5  N   UNL     1      -1.891 -25.889  -9.053  1.00  0.00    -0.264 NA
ATOM      6  C   UNL     1      -3.178 -25.582  -8.744  1.00  0.00     0.111 A 
ENDROOT
BRANCH   1   7
ATOM      7  C   UNL     1      -0.092 -25.275  -5.817  1.00  0.00     0.073 C 
ATOM      8  O   UNL     1       1.069 -25.690  -6.079  1.00  0.00    -0.545 OA
ATOM      9  O   UNL     1      -0.343 -24.717  -4.568  1.00  0.00    -0.545 OA
ENDBRANCH   1   7
TORSDOF 1
ENDMDL
MODEL 4
REMARK VINA RESULT:    -3.600      9.016      9.851
REMARK INTER + INTRA:          -3.829
REMARK INTER:                  -3.809
REMARK INTRA:                  -0.020
REMARK UNBOUND:                -0.019
REMARK SMILES O=C([O-])c1cccnc1
REMARK SMILES IDX 4 1 5 2 9 3 6 4 8 5 7 6 2 7 1 8 3 9
REMARK H PARENT
REMARK Flexibility Score: inf
ROOT
ATOM      1  C   UNL     1      -2.036 -25.120  -7.054  1.00  0.00     0.016 A 
ATOM      2  C   UNL     1      -1.992 -24.740  -5.702  1.00  0.00     0.013 A 
ATOM      3  C   UNL     1      -0.839 -25.512  -7.677  1.00  0.00     0.120 A 
ATOM      4  C   UNL     1      -0.780 -24.756  -5.009  1.00  0.00     0.021 A 
ATOM      5  N   UNL     1       0.329 -25.517  -6.979  1.00  0.00    -0.264 NA
ATOM      6  C   UNL     1       0.382 -25.151  -5.671  1.00  0.00     0.111 A 
ENDROOT
BRANCH   1   7
ATOM      7  C   UNL     1      -3.309 -25.111  -7.806  1.00  0.00     0.073 C 
ATOM      8  O   UNL     1      -4.377 -25.501  -7.263  1.00  0.00    -0.545 OA
ATOM      9  O   UNL     1      -3.344 -24.671  -9.125  1.00  0.00    -0.545 OA
ENDBRANCH   1   7
TORSDOF 1
ENDMDL
MODEL 5
REMARK VINA RESULT:    -3.492     14.274     15.199
REMARK INTER + INTRA:          -3.715
REMARK INTER:                  -3.693
REMARK INTRA:                  -0.022
REMARK UNBOUND:                -0.019
REMARK SMILES O=C([O-])c1cccnc1
REMARK SMILES IDX 4 1 5 2 9 3 6 4 8 5 7 6 2 7 1 8 3 9
REMARK H PARENT
REMARK Flexibility Score: inf
ROOT
ATOM      1  C   UNL     1      -6.420 -12.731   8.585  1.00  0.00     0.016 A 
ATOM      2  C   UNL     1      -7.423 -13.206   9.447  1.00  0.00     0.013 A 
ATOM      3  C   UNL     1      -6.364 -13.246   7.280  1.00  0.00     0.120 A 
ATOM      4  C   UNL     1      -8.332 -14.168   9.002  1.00  0.00     0.021 A 
ATOM      5  N   UNL     1      -7.261 -14.183   6.871  1.00  0.00    -0.264 NA
ATOM      6  C   UNL     1      -8.234 -14.650   7.697  1.00  0.00     0.111 A 
ENDROOT
BRANCH   1   7
ATOM      7  C   UNL     1      -5.448 -11.713   9.037  1.00  0.00     0.073 C 
ATOM      8  O   UNL     1      -4.829 -11.002   8.201  1.00  0.00    -0.545 OA
ATOM      9  O   UNL     1      -5.204 -11.525  10.393  1.00  0.00    -0.545 OA
ENDBRANCH   1   7
TORSDOF 1
ENDMDL
MODEL 6
REMARK VINA RESULT:    -3.488      2.907      3.758
REMARK INTER + INTRA:          -3.711
REMARK INTER:                  -3.692
REMARK INTRA:                  -0.019
REMARK UNBOUND:                -0.019
REMARK SMILES O=C([O-])c1cccnc1
REMARK SMILES IDX 4 1 5 2 9 3 6 4 8 5 7 6 2 7 1 8 3 9
REMARK H PARENT
REMARK Flexibility Score: inf
ROOT
ATOM      1  C   UNL     1       3.342 -19.588   0.580  1.00  0.00     0.016 A 
ATOM      2  C   UNL     1       3.164 -18.221   0.853  1.00  0.00     0.013 A 
ATOM      3  C   UNL     1       2.268 -20.303   0.025  1.00  0.00     0.120 A 
ATOM      4  C   UNL     1       1.943 -17.604   0.574  1.00  0.00     0.021 A 
ATOM      5  N   UNL     1       1.088 -19.678  -0.237  1.00  0.00    -0.264 NA
ATOM      6  C   UNL     1       0.905 -18.357   0.024  1.00  0.00     0.111 A 
ENDROOT
BRANCH   1   7
ATOM      7  C   UNL     1       4.627 -20.260   0.867  1.00  0.00     0.073 C 
ATOM      8  O   UNL     1       5.707 -19.800   0.410  1.00  0.00    -0.545 OA
ATOM      9  O   UNL     1       4.661 -21.411   1.647  1.00  0.00    -0.545 OA
ENDBRANCH   1   7
TORSDOF 1
ENDMDL
MODEL 7
REMARK VINA RESULT:    -3.448      2.289      2.982
REMARK INTER + INTRA:          -3.669
REMARK INTER:                  -3.650
REMARK INTRA:                  -0.019
REMARK UNBOUND:                -0.019
REMARK SMILES O=C([O-])c1cccnc1
REMARK SMILES IDX 4 1 5 2 9 3 6 4 8 5 7 6 2 7 1 8 3 9
REMARK H PARENT
REMARK Flexibility Score: inf
ROOT
ATOM      1  C   UNL     1       4.442 -19.791   0.801  1.00  0.00     0.016 A 
ATOM      2  C   UNL     1       3.553 -18.757   1.142  1.00  0.00     0.013 A 
ATOM      3  C   UNL     1       5.553 -19.479  -0.000  1.00  0.00     0.120 A 
ATOM      4  C   UNL     1       3.782 -17.457   0.687  1.00  0.00     0.021 A 
ATOM      5  N   UNL     1       5.752 -18.204  -0.432  1.00  0.00    -0.264 NA
ATOM      6  C   UNL     1       4.898 -17.197  -0.108  1.00  0.00     0.111 A 
ENDROOT
BRANCH   1   7
ATOM      7  C   UNL     1       4.218 -21.173   1.274  1.00  0.00     0.073 C 
ATOM      8  O   UNL     1       5.151 -21.824   1.819  1.00  0.00    -0.545 OA
ATOM      9  O   UNL     1       2.974 -21.776   1.124  1.00  0.00    -0.545 OA
ENDBRANCH   1   7
TORSDOF 1
ENDMDL
MODEL 8
REMARK VINA RESULT:    -3.443      2.581      3.576
REMARK INTER + INTRA:          -3.664
REMARK INTER:                  -3.641
REMARK INTRA:                  -0.022
REMARK UNBOUND:                -0.019
REMARK SMILES O=C([O-])c1cccnc1
REMARK SMILES IDX 4 1 5 2 9 3 6 4 8 5 7 6 2 7 1 8 3 9
REMARK H PARENT
REMARK Flexibility Score: inf
ROOT
ATOM      1  C   UNL     1       3.306 -20.383   0.611  1.00  0.00     0.016 A 
ATOM      2  C   UNL     1       2.341 -21.404   0.621  1.00  0.00     0.013 A 
ATOM      3  C   UNL     1       2.897 -19.080   0.280  1.00  0.00     0.120 A 
ATOM      4  C   UNL     1       1.012 -21.115   0.305  1.00  0.00     0.021 A 
ATOM      5  N   UNL     1       1.595 -18.826  -0.025  1.00  0.00    -0.264 NA
ATOM      6  C   UNL     1       0.654 -19.807  -0.019  1.00  0.00     0.111 A 
ENDROOT
BRANCH   1   7
ATOM      7  C   UNL     1       4.718 -20.667   0.943  1.00  0.00     0.073 C 
ATOM      8  O   UNL     1       5.635 -19.892   0.562  1.00  0.00    -0.545 OA
ATOM      9  O   UNL     1       5.054 -21.797   1.682  1.00  0.00    -0.545 OA
ENDBRANCH   1   7
TORSDOF 1
ENDMDL
MODEL 9
REMARK VINA RESULT:    -3.432     13.303     14.213
REMARK INTER + INTRA:          -3.652
REMARK INTER:                  -3.629
REMARK INTRA:                  -0.024
REMARK UNBOUND:                -0.019
REMARK SMILES O=C([O-])c1cccnc1
REMARK SMILES IDX 4 1 5 2 9 3 6 4 8 5 7 6 2 7 1 8 3 9
REMARK H PARENT
REMARK Flexibility Score: inf
ROOT
ATOM      1  C   UNL     1      -7.511 -14.445   6.997  1.00  0.00     0.016 A 
ATOM      2  C   UNL     1      -8.291 -14.643   8.149  1.00  0.00     0.013 A 
ATOM      3  C   UNL     1      -6.530 -13.439   7.020  1.00  0.00     0.120 A 
ATOM      4  C   UNL     1      -8.086 -13.851   9.280  1.00  0.00     0.021 A 
ATOM      5  N   UNL     1      -6.351 -12.680   8.135  1.00  0.00    -0.264 NA
ATOM      6  C   UNL     1      -7.101 -12.864   9.254  1.00  0.00     0.111 A 
ENDROOT
BRANCH   1   7
ATOM      7  C   UNL     1      -7.712 -15.274   5.790  1.00  0.00     0.073 C 
ATOM      8  O   UNL     1      -8.383 -16.339   5.847  1.00  0.00    -0.545 OA
ATOM      9  O   UNL     1      -7.162 -14.889   4.572  1.00  0.00    -0.545 OA
ENDBRANCH   1   7
TORSDOF 1
ENDMDL
