MODEL 1
REMARK VINA RESULT:    14.983      0.000      0.000
REMARK INTER + INTRA:          15.636
REMARK INTER:                  15.859
REMARK INTRA:                  -0.223
REMARK UNBOUND:                -0.223
REMARK SMILES CC1=CC[C@H]2[C@@H]3[C@@H](C(C)C)CC[C@@]2(C)[C@H]13
REMARK SMILES IDX 1 1 2 2 3 3 4 4 5 5 6 6 15 7 13 8 12 9 11 10 7 11 14 12 8 13
REMARK SMILES IDX 9 14 10 15
REMARK H PARENT
REMARK Flexibility Score: inf
ROOT
ATOM      1  C   UNL     1       1.500   2.468  -9.275  1.00  0.00     0.039 C 
ATOM      2  C   UNL     1       1.375   3.923  -9.613  1.00  0.00    -0.073 C 
ATOM      3  C   UNL     1       2.459   4.742  -9.617  1.00  0.00    -0.027 C 
ATOM      4  C   UNL     1       2.266   6.226  -9.950  1.00  0.00     0.031 C 
ATOM      5  C   UNL     1       0.765   6.520 -10.276  1.00  0.00     0.003 C 
ATOM      6  C   UNL     1       0.275   5.418 -11.243  1.00  0.00     0.004 C 
ATOM      7  C   UNL     1       0.027   4.550  -9.986  1.00  0.00     0.024 C 
ATOM      8  C   UNL     1      -0.174   5.886  -9.223  1.00  0.00    -0.022 C 
ATOM      9  C   UNL     1      -1.611   6.441  -9.443  1.00  0.00     0.008 C 
ATOM     10  C   UNL     1      -2.170   6.096 -10.846  1.00  0.00     0.005 C 
ATOM     11  C   UNL     1      -1.062   5.856 -11.926  1.00  0.00    -0.005 C 
ATOM     12  C   UNL     1       0.223   5.961  -7.730  1.00  0.00     0.012 C 
ENDROOT
BRANCH  11  13
ATOM     13  C   UNL     1      -1.541   4.845 -13.017  1.00  0.00    -0.014 C 
ATOM     14  C   UNL     1      -3.071   4.895 -13.189  1.00  0.00     0.007 C 
ATOM     15  C   UNL     1      -0.883   5.105 -14.386  1.00  0.00     0.007 C 
ENDBRANCH  11  13
TORSDOF 1
ENDMDL
MODEL 2
REMARK VINA RESULT:    16.080      1.204      2.886
REMARK INTER + INTRA:          16.798
REMARK INTER:                  17.067
REMARK INTRA:                  -0.269
REMARK UNBOUND:                -0.223
REMARK SMILES CC1=CC[C@H]2[C@@H]3[C@@H](C(C)C)CC[C@@]2(C)[C@H]13
REMARK SMILES IDX 1 1 2 2 3 3 4 4 5 5 6 6 15 7 13 8 12 9 11 10 7 11 14 12 8 13
REMARK SMILES IDX 9 14 10 15
REMARK H PARENT
REMARK Flexibility Score: inf
ROOT
ATOM      1  C   UNL     1      -0.990   7.341  -8.025  1.00  0.00     0.039 C 
ATOM      2  C   UNL     1      -0.452   6.294  -8.953  1.00  0.00    -0.073 C 
ATOM      3  C   UNL     1       0.285   5.252  -8.489  1.00  0.00    -0.027 C 
ATOM      4  C   UNL     1       0.827   4.224  -9.487  1.00  0.00     0.031 C 
ATOM      5  C   UNL     1       0.365   4.578 -10.939  1.00  0.00     0.003 C 
ATOM      6  C   UNL     1      -1.144   4.910 -10.878  1.00  0.00     0.004 C 
ATOM      7  C   UNL     1      -0.722   6.339 -10.461  1.00  0.00     0.024 C 
ATOM      8  C   UNL     1       0.587   6.077 -11.250  1.00  0.00    -0.022 C 
ATOM      9  C   UNL     1       0.374   6.304 -12.774  1.00  0.00     0.008 C 
ATOM     10  C   UNL     1      -1.059   5.932 -13.232  1.00  0.00     0.005 C 
ATOM     11  C   UNL     1      -1.761   4.876 -12.314  1.00  0.00    -0.005 C 
ATOM     12  C   UNL     1       1.895   6.750 -10.771  1.00  0.00     0.012 C 
ENDROOT
BRANCH  11  13
ATOM     13  C   UNL     1      -3.312   5.069 -12.309  1.00  0.00    -0.014 C 
ATOM     14  C   UNL     1      -3.712   6.386 -13.000  1.00  0.00     0.007 C 
ATOM     15  C   UNL     1      -4.050   3.906 -13.000  1.00  0.00     0.007 C 
ENDBRANCH  11  13
TORSDOF 1
ENDMDL
MODEL 3
REMARK VINA RESULT:    17.018      1.530      5.110
REMARK INTER + INTRA:          17.790
REMARK INTER:                  18.015
REMARK INTRA:                  -0.225
REMARK UNBOUND:                -0.223
REMARK SMILES CC1=CC[C@H]2[C@@H]3[C@@H](C(C)C)CC[C@@]2(C)[C@H]13
REMARK SMILES IDX 1 1 2 2 3 3 4 4 5 5 6 6 15 7 13 8 12 9 11 10 7 11 14 12 8 13
REMARK SMILES IDX 9 14 10 15
REMARK H PARENT
REMARK Flexibility Score: inf
ROOT
ATOM      1  C   UNL     1      -4.125   3.141 -12.457  1.00  0.00     0.039 C 
ATOM      2  C   UNL     1      -3.460   4.476 -12.620  1.00  0.00    -0.073 C 
ATOM      3  C   UNL     1      -4.105   5.517 -13.209  1.00  0.00    -0.027 C 
ATOM      4  C   UNL     1      -3.367   6.851 -13.368  1.00  0.00     0.031 C 
ATOM      5  C   UNL     1      -1.934   6.759 -12.747  1.00  0.00     0.003 C 
ATOM      6  C   UNL     1      -2.071   6.084 -11.362  1.00  0.00     0.004 C 
ATOM      7  C   UNL     1      -2.036   4.733 -12.116  1.00  0.00     0.024 C 
ATOM      8  C   UNL     1      -1.208   5.471 -13.200  1.00  0.00    -0.022 C 
ATOM      9  C   UNL     1       0.288   5.574 -12.784  1.00  0.00     0.008 C 
ATOM     10  C   UNL     1       0.466   5.705 -11.250  1.00  0.00     0.005 C 
ATOM     11  C   UNL     1      -0.775   6.320 -10.520  1.00  0.00    -0.005 C 
ATOM     12  C   UNL     1      -1.338   5.022 -14.675  1.00  0.00     0.012 C 
ENDROOT
BRANCH  11  13
ATOM     13  C   UNL     1      -0.900   5.780  -9.058  1.00  0.00    -0.014 C 
ATOM     14  C   UNL     1       0.467   5.319  -8.516  1.00  0.00     0.007 C 
ATOM     15  C   UNL     1      -1.484   6.829  -8.094  1.00  0.00     0.007 C 
ENDBRANCH  11  13
TORSDOF 1
ENDMDL
MODEL 4
REMARK VINA RESULT:    17.484      1.512      4.345
REMARK INTER + INTRA:          18.283
REMARK INTER:                  18.363
REMARK INTRA:                  -0.080
REMARK UNBOUND:                -0.223
REMARK SMILES CC1=CC[C@H]2[C@@H]3[C@@H](C(C)C)CC[C@@]2(C)[C@H]13
REMARK SMILES IDX 1 1 2 2 3 3 4 4 5 5 6 6 15 7 13 8 12 9 11 10 7 11 14 12 8 13
REMARK SMILES IDX 9 14 10 15
REMARK H PARENT
REMARK Flexibility Score: inf
ROOT
ATOM      1  C   UNL     1      -2.403   4.906 -11.714  1.00  0.00     0.039 C 
ATOM      2  C   UNL     1      -1.086   5.476 -11.276  1.00  0.00    -0.073 C 
ATOM      3  C   UNL     1      -0.247   6.072 -12.162  1.00  0.00    -0.027 C 
ATOM      4  C   UNL     1       1.095   6.617 -11.660  1.00  0.00     0.031 C 
ATOM      5  C   UNL     1       1.229   6.398 -10.117  1.00  0.00     0.003 C 
ATOM      6  C   UNL     1      -0.102   6.840  -9.468  1.00  0.00     0.004 C 
ATOM      7  C   UNL     1      -0.636   5.429  -9.813  1.00  0.00     0.024 C 
ATOM      8  C   UNL     1       0.838   4.955  -9.718  1.00  0.00    -0.022 C 
ATOM      9  C   UNL     1       1.254   4.721  -8.238  1.00  0.00     0.008 C 
ATOM     10  C   UNL     1       0.542   5.693  -7.263  1.00  0.00     0.005 C 
ATOM     11  C   UNL     1       0.089   7.035  -7.928  1.00  0.00    -0.005 C 
ATOM     12  C   UNL     1       1.305   3.783 -10.613  1.00  0.00     0.012 C 
ENDROOT
BRANCH  11  13
ATOM     13  C   UNL     1      -1.185   7.614  -7.231  1.00  0.00    -0.014 C 
ATOM     14  C   UNL     1      -1.027   9.119  -6.943  1.00  0.00     0.007 C 
ATOM     15  C   UNL     1      -2.459   7.405  -8.072  1.00  0.00     0.007 C 
ENDBRANCH  11  13
TORSDOF 1
ENDMDL
