MODEL 1
REMARK VINA RESULT:    -4.706      0.000      0.000
REMARK INTER + INTRA:         -10.926
REMARK INTER:                  -9.107
REMARK INTRA:                  -1.819
REMARK UNBOUND:                -1.819
REMARK SMILES CCCCCCCCCCCCCCCCCC(=O)[O-]
REMARK SMILES IDX 10 1 11 2 12 3 13 4 14 5 15 6 16 7 17 8 18 9 19 10 20 11
REMARK SMILES IDX 9 12 8 13 7 14 6 15 5 16 4 17 3 18 2 19 1 20
REMARK H PARENT
REMARK Flexibility Score: inf
ROOT
ATOM      1  C   UNL     1       3.210 -12.650 -14.949  1.00  0.00     0.000 C 
ENDROOT
BRANCH   1   2
ATOM      2  C   UNL     1       2.134 -13.354 -15.790  1.00  0.00     0.000 C 
BRANCH   2   3
ATOM      3  C   UNL     1       2.664 -13.682 -17.194  1.00  0.00     0.000 C 
BRANCH   3   4
ATOM      4  C   UNL     1       1.543 -14.032 -18.190  1.00  0.00     0.000 C 
BRANCH   4   5
ATOM      5  C   UNL     1       0.905 -15.421 -17.987  1.00  0.00     0.000 C 
BRANCH   5   6
ATOM      6  C   UNL     1      -0.503 -15.589 -18.592  1.00  0.00     0.000 C 
BRANCH   6   7
ATOM      7  C   UNL     1      -0.832 -17.009 -19.094  1.00  0.00     0.006 C 
BRANCH   7   8
ATOM      8  C   UNL     1       0.303 -18.027 -18.905  1.00  0.00     0.053 C 
BRANCH   8   9
ATOM      9  C   UNL     1      -0.108 -19.172 -18.032  1.00  0.00     0.041 C 
ATOM     10  O   UNL     1      -1.325 -19.472 -17.912  1.00  0.00    -0.550 OA
ATOM     11  O   UNL     1       0.849 -19.885 -17.322  1.00  0.00    -0.550 OA
ENDBRANCH   8   9
ENDBRANCH   7   8
ENDBRANCH   6   7
ENDBRANCH   5   6
ENDBRANCH   4   5
ENDBRANCH   3   4
ENDBRANCH   2   3
ENDBRANCH   1   2
BRANCH   1  12
ATOM     12  C   UNL     1       4.613 -12.755 -15.568  1.00  0.00     0.000 C 
BRANCH  12  13
ATOM     13  C   UNL     1       5.111 -11.413 -16.133  1.00  0.00    -0.000 C 
BRANCH  13  14
ATOM     14  C   UNL     1       4.323 -10.213 -15.584  1.00  0.00    -0.000 C 
BRANCH  14  15
ATOM     15  C   UNL     1       3.714  -9.343 -16.694  1.00  0.00    -0.000 C 
BRANCH  15  16
ATOM     16  C   UNL     1       2.447  -9.992 -17.266  1.00  0.00    -0.000 C 
BRANCH  16  17
ATOM     17  C   UNL     1       2.661 -10.421 -18.726  1.00  0.00    -0.000 C 
BRANCH  17  18
ATOM     18  C   UNL     1       4.048 -10.031 -19.269  1.00  0.00    -0.000 C 
BRANCH  18  19
ATOM     19  C   UNL     1       4.957 -11.218 -19.633  1.00  0.00    -0.003 C 
ATOM     20  C   UNL     1       6.243 -10.792 -20.338  1.00  0.00     0.004 C 
ENDBRANCH  18  19
ENDBRANCH  17  18
ENDBRANCH  16  17
ENDBRANCH  15  16
ENDBRANCH  14  15
ENDBRANCH  13  14
ENDBRANCH  12  13
ENDBRANCH   1  12
TORSDOF 16
ENDMDL
MODEL 2
REMARK VINA RESULT:    -4.677      0.907      1.763
REMARK INTER + INTRA:         -10.870
REMARK INTER:                  -9.445
REMARK INTRA:                  -1.425
REMARK UNBOUND:                -1.819
REMARK SMILES CCCCCCCCCCCCCCCCCC(=O)[O-]
REMARK SMILES IDX 10 1 11 2 12 3 13 4 14 5 15 6 16 7 17 8 18 9 19 10 20 11
REMARK SMILES IDX 9 12 8 13 7 14 6 15 5 16 4 17 3 18 2 19 1 20
REMARK H PARENT
REMARK Flexibility Score: inf
ROOT
ATOM      1  C   UNL     1       1.987 -13.953 -16.447  1.00  0.00     0.000 C 
ENDROOT
BRANCH   1   2
ATOM      2  C   UNL     1       1.703 -14.120 -17.948  1.00  0.00     0.000 C 
BRANCH   2   3
ATOM      3  C   UNL     1       0.983 -15.447 -18.226  1.00  0.00     0.000 C 
BRANCH   3   4
ATOM      4  C   UNL     1      -0.461 -15.252 -18.724  1.00  0.00     0.000 C 
BRANCH   4   5
ATOM      5  C   UNL     1      -1.339 -16.518 -18.680  1.00  0.00     0.000 C 
BRANCH   5   6
ATOM      6  C   UNL     1      -1.160 -17.481 -19.871  1.00  0.00     0.000 C 
BRANCH   6   7
ATOM      7  C   UNL     1      -0.784 -18.927 -19.489  1.00  0.00     0.006 C 
BRANCH   7   8
ATOM      8  C   UNL     1       0.595 -19.071 -18.827  1.00  0.00     0.053 C 
BRANCH   8   9
ATOM      9  C   UNL     1       0.503 -19.686 -17.466  1.00  0.00     0.041 C 
ATOM     10  O   UNL     1      -0.600 -20.114 -17.037  1.00  0.00    -0.550 OA
ATOM     11  O   UNL     1       1.630 -19.754 -16.655  1.00  0.00    -0.550 OA
ENDBRANCH   8   9
ENDBRANCH   7   8
ENDBRANCH   6   7
ENDBRANCH   5   6
ENDBRANCH   4   5
ENDBRANCH   3   4
ENDBRANCH   2   3
ENDBRANCH   1   2
BRANCH   1  12
ATOM     12  C   UNL     1       3.308 -13.218 -16.169  1.00  0.00     0.000 C 
BRANCH  12  13
ATOM     13  C   UNL     1       3.261 -12.394 -14.870  1.00  0.00    -0.000 C 
BRANCH  13  14
ATOM     14  C   UNL     1       4.235 -11.205 -14.891  1.00  0.00    -0.000 C 
BRANCH  14  15
ATOM     15  C   UNL     1       4.576 -10.740 -16.316  1.00  0.00    -0.000 C 
BRANCH  15  16
ATOM     16  C   UNL     1       3.599  -9.655 -16.786  1.00  0.00    -0.000 C 
BRANCH  16  17
ATOM     17  C   UNL     1       2.853 -10.098 -18.053  1.00  0.00    -0.000 C 
BRANCH  17  18
ATOM     18  C   UNL     1       3.721 -10.958 -18.990  1.00  0.00    -0.000 C 
BRANCH  18  19
ATOM     19  C   UNL     1       4.571 -10.161 -19.995  1.00  0.00    -0.003 C 
ATOM     20  C   UNL     1       5.914 -10.824 -20.300  1.00  0.00     0.004 C 
ENDBRANCH  18  19
ENDBRANCH  17  18
ENDBRANCH  16  17
ENDBRANCH  15  16
ENDBRANCH  14  15
ENDBRANCH  13  14
ENDBRANCH  12  13
ENDBRANCH   1  12
TORSDOF 16
ENDMDL
MODEL 3
REMARK VINA RESULT:    -4.674      3.622      7.677
REMARK INTER + INTRA:         -10.864
REMARK INTER:                  -9.150
REMARK INTRA:                  -1.714
REMARK UNBOUND:                -1.819
REMARK SMILES CCCCCCCCCCCCCCCCCC(=O)[O-]
REMARK SMILES IDX 10 1 11 2 12 3 13 4 14 5 15 6 16 7 17 8 18 9 19 10 20 11
REMARK SMILES IDX 9 12 8 13 7 14 6 15 5 16 4 17 3 18 2 19 1 20
REMARK H PARENT
REMARK Flexibility Score: inf
ROOT
ATOM      1  C   UNL     1       2.024 -13.340 -15.394  1.00  0.00     0.000 C 
ENDROOT
BRANCH   1   2
ATOM      2  C   UNL     1       2.988 -12.620 -14.438  1.00  0.00     0.000 C 
BRANCH   2   3
ATOM      3  C   UNL     1       4.228 -12.115 -15.189  1.00  0.00     0.000 C 
BRANCH   3   4
ATOM      4  C   UNL     1       4.404 -10.588 -15.095  1.00  0.00     0.000 C 
BRANCH   4   5
ATOM      5  C   UNL     1       4.221  -9.830 -16.425  1.00  0.00     0.000 C 
BRANCH   5   6
ATOM      6  C   UNL     1       2.847 -10.014 -17.099  1.00  0.00     0.000 C 
BRANCH   6   7
ATOM      7  C   UNL     1       2.899 -10.369 -18.598  1.00  0.00     0.006 C 
BRANCH   7   8
ATOM      8  C   UNL     1       4.058 -11.299 -18.990  1.00  0.00     0.053 C 
BRANCH   8   9
ATOM      9  C   UNL     1       4.962 -10.672 -20.006  1.00  0.00     0.041 C 
ATOM     10  O   UNL     1       6.208 -10.837 -19.935  1.00  0.00    -0.550 OA
ATOM     11  O   UNL     1       4.430  -9.875 -21.013  1.00  0.00    -0.550 OA
ENDBRANCH   8   9
ENDBRANCH   7   8
ENDBRANCH   6   7
ENDBRANCH   5   6
ENDBRANCH   4   5
ENDBRANCH   3   4
ENDBRANCH   2   3
ENDBRANCH   1   2
BRANCH   1  12
ATOM     12  C   UNL     1       2.682 -13.716 -16.732  1.00  0.00     0.000 C 
BRANCH  12  13
ATOM     13  C   UNL     1       1.657 -13.888 -17.866  1.00  0.00    -0.000 C 
BRANCH  13  14
ATOM     14  C   UNL     1       1.212 -15.349 -18.042  1.00  0.00    -0.000 C 
BRANCH  14  15
ATOM     15  C   UNL     1      -0.258 -15.476 -18.469  1.00  0.00    -0.000 C 
BRANCH  15  16
ATOM     16  C   UNL     1      -0.612 -16.933 -18.790  1.00  0.00    -0.000 C 
BRANCH  16  17
ATOM     17  C   UNL     1       0.657 -17.784 -18.948  1.00  0.00    -0.000 C 
BRANCH  17  18
ATOM     18  C   UNL     1       0.398 -19.290 -18.755  1.00  0.00    -0.000 C 
BRANCH  18  19
ATOM     19  C   UNL     1       0.204 -19.731 -17.293  1.00  0.00    -0.003 C 
ATOM     20  C   UNL     1       1.524 -19.962 -16.559  1.00  0.00     0.004 C 
ENDBRANCH  18  19
ENDBRANCH  17  18
ENDBRANCH  16  17
ENDBRANCH  15  16
ENDBRANCH  14  15
ENDBRANCH  13  14
ENDBRANCH  12  13
ENDBRANCH   1  12
TORSDOF 16
ENDMDL
MODEL 4
REMARK VINA RESULT:    -4.469      1.137      3.342
REMARK INTER + INTRA:         -10.469
REMARK INTER:                  -8.813
REMARK INTRA:                  -1.656
REMARK UNBOUND:                -1.819
REMARK SMILES CCCCCCCCCCCCCCCCCC(=O)[O-]
REMARK SMILES IDX 10 1 11 2 12 3 13 4 14 5 15 6 16 7 17 8 18 9 19 10 20 11
REMARK SMILES IDX 9 12 8 13 7 14 6 15 5 16 4 17 3 18 2 19 1 20
REMARK H PARENT
REMARK Flexibility Score: inf
ROOT
ATOM      1  C   UNL     1       2.132 -13.766 -18.900  1.00  0.00     0.000 C 
ENDROOT
BRANCH   1   2
ATOM      2  C   UNL     1       1.318 -14.468 -17.803  1.00  0.00     0.000 C 
BRANCH   2   3
ATOM      3  C   UNL     1       0.607 -15.710 -18.358  1.00  0.00     0.000 C 
BRANCH   3   4
ATOM      4  C   UNL     1      -0.906 -15.498 -18.552  1.00  0.00     0.000 C 
BRANCH   4   5
ATOM      5  C   UNL     1      -1.709 -16.781 -18.844  1.00  0.00     0.000 C 
BRANCH   5   6
ATOM      6  C   UNL     1      -1.185 -17.629 -20.019  1.00  0.00     0.000 C 
BRANCH   6   7
ATOM      7  C   UNL     1      -0.942 -19.116 -19.693  1.00  0.00     0.006 C 
BRANCH   7   8
ATOM      8  C   UNL     1       0.452 -19.421 -19.122  1.00  0.00     0.053 C 
BRANCH   8   9
ATOM      9  C   UNL     1       0.420 -19.612 -17.637  1.00  0.00     0.041 C 
ATOM     10  O   UNL     1       1.482 -19.537 -16.966  1.00  0.00    -0.550 OA
ATOM     11  O   UNL     1      -0.778 -19.908 -16.999  1.00  0.00    -0.550 OA
ENDBRANCH   8   9
ENDBRANCH   7   8
ENDBRANCH   6   7
ENDBRANCH   5   6
ENDBRANCH   4   5
ENDBRANCH   3   4
ENDBRANCH   2   3
ENDBRANCH   1   2
BRANCH   1  12
ATOM     12  C   UNL     1       2.444 -12.298 -18.563  1.00  0.00     0.000 C 
BRANCH  12  13
ATOM     13  C   UNL     1       3.799 -11.838 -19.129  1.00  0.00    -0.000 C 
BRANCH  13  14
ATOM     14  C   UNL     1       4.300 -10.539 -18.477  1.00  0.00    -0.000 C 
BRANCH  14  15
ATOM     15  C   UNL     1       3.175  -9.742 -17.799  1.00  0.00    -0.000 C 
BRANCH  15  16
ATOM     16  C   UNL     1       3.528  -9.430 -16.340  1.00  0.00    -0.000 C 
BRANCH  16  17
ATOM     17  C   UNL     1       4.642 -10.359 -15.833  1.00  0.00    -0.000 C 
BRANCH  17  18
ATOM     18  C   UNL     1       4.187 -11.263 -14.672  1.00  0.00    -0.000 C 
BRANCH  18  19
ATOM     19  C   UNL     1       3.840 -12.707 -15.076  1.00  0.00    -0.003 C 
ATOM     20  C   UNL     1       2.363 -13.044 -14.881  1.00  0.00     0.004 C 
ENDBRANCH  18  19
ENDBRANCH  17  18
ENDBRANCH  16  17
ENDBRANCH  15  16
ENDBRANCH  14  15
ENDBRANCH  13  14
ENDBRANCH  12  13
ENDBRANCH   1  12
TORSDOF 16
ENDMDL
MODEL 5
REMARK VINA RESULT:    -4.440      3.427      7.965
REMARK INTER + INTRA:         -10.411
REMARK INTER:                  -9.082
REMARK INTRA:                  -1.330
REMARK UNBOUND:                -1.819
REMARK SMILES CCCCCCCCCCCCCCCCCC(=O)[O-]
REMARK SMILES IDX 10 1 11 2 12 3 13 4 14 5 15 6 16 7 17 8 18 9 19 10 20 11
REMARK SMILES IDX 9 12 8 13 7 14 6 15 5 16 4 17 3 18 2 19 1 20
REMARK H PARENT
REMARK Flexibility Score: inf
ROOT
ATOM      1  C   UNL     1       2.726 -13.673 -17.147  1.00  0.00     0.000 C 
ENDROOT
BRANCH   1   2
ATOM      2  C   UNL     1       2.143 -13.392 -15.754  1.00  0.00     0.000 C 
BRANCH   2   3
ATOM      3  C   UNL     1       3.119 -12.562 -14.908  1.00  0.00     0.000 C 
BRANCH   3   4
ATOM      4  C   UNL     1       4.234 -11.911 -15.747  1.00  0.00     0.000 C 
BRANCH   4   5
ATOM      5  C   UNL     1       4.285 -10.371 -15.674  1.00  0.00     0.000 C 
BRANCH   5   6
ATOM      6  C   UNL     1       3.562  -9.637 -16.820  1.00  0.00     0.000 C 
BRANCH   6   7
ATOM      7  C   UNL     1       3.284 -10.495 -18.071  1.00  0.00     0.006 C 
BRANCH   7   8
ATOM      8  C   UNL     1       3.867  -9.924 -19.374  1.00  0.00     0.053 C 
BRANCH   8   9
ATOM      9  C   UNL     1       5.127 -10.624 -19.778  1.00  0.00     0.041 C 
ATOM     10  O   UNL     1       5.647 -10.394 -20.901  1.00  0.00    -0.550 OA
ATOM     11  O   UNL     1       5.709 -11.556 -18.928  1.00  0.00    -0.550 OA
ENDBRANCH   8   9
ENDBRANCH   7   8
ENDBRANCH   6   7
ENDBRANCH   5   6
ENDBRANCH   4   5
ENDBRANCH   3   4
ENDBRANCH   2   3
ENDBRANCH   1   2
BRANCH   1  12
ATOM     12  C   UNL     1       1.642 -13.913 -18.210  1.00  0.00     0.000 C 
BRANCH  12  13
ATOM     13  C   UNL     1       0.922 -15.260 -18.025  1.00  0.00    -0.000 C 
BRANCH  13  14
ATOM     14  C   UNL     1      -0.512 -15.243 -18.577  1.00  0.00    -0.000 C 
BRANCH  14  15
ATOM     15  C   UNL     1      -1.192 -16.620 -18.510  1.00  0.00    -0.000 C 
BRANCH  15  16
ATOM     16  C   UNL     1      -1.098 -17.343 -19.859  1.00  0.00    -0.000 C 
BRANCH  16  17
ATOM     17  C   UNL     1      -0.741 -18.825 -19.664  1.00  0.00    -0.000 C 
BRANCH  17  18
ATOM     18  C   UNL     1       0.543 -19.030 -18.840  1.00  0.00    -0.000 C 
BRANCH  18  19
ATOM     19  C   UNL     1       0.431 -20.078 -17.718  1.00  0.00    -0.003 C 
ATOM     20  C   UNL     1       1.422 -19.842 -16.579  1.00  0.00     0.004 C 
ENDBRANCH  18  19
ENDBRANCH  17  18
ENDBRANCH  16  17
ENDBRANCH  15  16
ENDBRANCH  14  15
ENDBRANCH  13  14
ENDBRANCH  12  13
ENDBRANCH   1  12
TORSDOF 16
ENDMDL
MODEL 6
REMARK VINA RESULT:    -4.194      2.799      7.852
REMARK INTER + INTRA:          -9.935
REMARK INTER:                  -8.272
REMARK INTRA:                  -1.662
REMARK UNBOUND:                -1.819
REMARK SMILES CCCCCCCCCCCCCCCCCC(=O)[O-]
REMARK SMILES IDX 10 1 11 2 12 3 13 4 14 5 15 6 16 7 17 8 18 9 19 10 20 11
REMARK SMILES IDX 9 12 8 13 7 14 6 15 5 16 4 17 3 18 2 19 1 20
REMARK H PARENT
REMARK Flexibility Score: inf
ROOT
ATOM      1  C   UNL     1       2.203 -13.816 -18.799  1.00  0.00     0.000 C 
ENDROOT
BRANCH   1   2
ATOM      2  C   UNL     1       2.407 -12.319 -18.524  1.00  0.00     0.000 C 
BRANCH   2   3
ATOM      3  C   UNL     1       3.734 -11.828 -19.123  1.00  0.00     0.000 C 
BRANCH   3   4
ATOM      4  C   UNL     1       4.238 -10.526 -18.475  1.00  0.00     0.000 C 
BRANCH   4   5
ATOM      5  C   UNL     1       3.169  -9.729 -17.702  1.00  0.00     0.000 C 
BRANCH   5   6
ATOM      6  C   UNL     1       3.546  -9.361 -16.253  1.00  0.00     0.000 C 
BRANCH   6   7
ATOM      7  C   UNL     1       4.642 -10.243 -15.620  1.00  0.00     0.006 C 
BRANCH   7   8
ATOM      8  C   UNL     1       4.149 -11.143 -14.477  1.00  0.00     0.053 C 
BRANCH   8   9
ATOM      9  C   UNL     1       3.510 -12.398 -14.985  1.00  0.00     0.041 C 
ATOM     10  O   UNL     1       2.327 -12.682 -14.665  1.00  0.00    -0.550 OA
ATOM     11  O   UNL     1       4.235 -13.273 -15.786  1.00  0.00    -0.550 OA
ENDBRANCH   8   9
ENDBRANCH   7   8
ENDBRANCH   6   7
ENDBRANCH   5   6
ENDBRANCH   4   5
ENDBRANCH   3   4
ENDBRANCH   2   3
ENDBRANCH   1   2
BRANCH   1  12
ATOM     12  C   UNL     1       1.257 -14.484 -17.787  1.00  0.00     0.000 C 
BRANCH  12  13
ATOM     13  C   UNL     1       0.569 -15.736 -18.359  1.00  0.00    -0.000 C 
BRANCH  13  14
ATOM     14  C   UNL     1      -0.937 -15.530 -18.583  1.00  0.00    -0.000 C 
BRANCH  14  15
ATOM     15  C   UNL     1      -1.687 -16.849 -18.829  1.00  0.00    -0.000 C 
BRANCH  15  16
ATOM     16  C   UNL     1      -0.957 -17.708 -19.869  1.00  0.00    -0.000 C 
BRANCH  16  17
ATOM     17  C   UNL     1      -0.899 -19.177 -19.425  1.00  0.00    -0.000 C 
BRANCH  17  18
ATOM     18  C   UNL     1      -1.213 -19.365 -17.929  1.00  0.00    -0.000 C 
BRANCH  18  19
ATOM     19  C   UNL     1      -0.056 -19.941 -17.093  1.00  0.00    -0.003 C 
ATOM     20  C   UNL     1       1.292 -19.297 -17.415  1.00  0.00     0.004 C 
ENDBRANCH  18  19
ENDBRANCH  17  18
ENDBRANCH  16  17
ENDBRANCH  15  16
ENDBRANCH  14  15
ENDBRANCH  13  14
ENDBRANCH  12  13
ENDBRANCH   1  12
TORSDOF 16
ENDMDL
MODEL 7
REMARK VINA RESULT:    -4.071      3.466      7.184
REMARK INTER + INTRA:          -9.698
REMARK INTER:                  -8.190
REMARK INTRA:                  -1.508
REMARK UNBOUND:                -1.819
REMARK SMILES CCCCCCCCCCCCCCCCCC(=O)[O-]
REMARK SMILES IDX 10 1 11 2 12 3 13 4 14 5 15 6 16 7 17 8 18 9 19 10 20 11
REMARK SMILES IDX 9 12 8 13 7 14 6 15 5 16 4 17 3 18 2 19 1 20
REMARK H PARENT
REMARK Flexibility Score: inf
ROOT
ATOM      1  C   UNL     1       4.214 -12.467 -14.259  1.00  0.00     0.000 C 
ENDROOT
BRANCH   1   2
ATOM      2  C   UNL     1       4.441 -10.948 -14.211  1.00  0.00     0.000 C 
BRANCH   2   3
ATOM      3  C   UNL     1       4.694 -10.387 -15.618  1.00  0.00     0.000 C 
BRANCH   3   4
ATOM      4  C   UNL     1       3.731  -9.246 -15.990  1.00  0.00     0.000 C 
BRANCH   4   5
ATOM      5  C   UNL     1       3.362  -9.170 -17.485  1.00  0.00     0.000 C 
BRANCH   5   6
ATOM      6  C   UNL     1       2.581 -10.382 -18.030  1.00  0.00     0.000 C 
BRANCH   6   7
ATOM      7  C   UNL     1       3.249 -11.109 -19.215  1.00  0.00     0.006 C 
BRANCH   7   8
ATOM      8  C   UNL     1       4.371 -10.311 -19.898  1.00  0.00     0.053 C 
BRANCH   8   9
ATOM      9  C   UNL     1       5.713 -10.942 -19.693  1.00  0.00     0.041 C 
ATOM     10  O   UNL     1       5.932 -11.649 -18.674  1.00  0.00    -0.550 OA
ATOM     11  O   UNL     1       6.734 -10.720 -20.609  1.00  0.00    -0.550 OA
ENDBRANCH   8   9
ENDBRANCH   7   8
ENDBRANCH   6   7
ENDBRANCH   5   6
ENDBRANCH   4   5
ENDBRANCH   3   4
ENDBRANCH   2   3
ENDBRANCH   1   2
BRANCH   1  12
ATOM     12  C   UNL     1       3.917 -12.980 -15.677  1.00  0.00     0.000 C 
BRANCH  12  13
ATOM     13  C   UNL     1       2.410 -13.058 -15.973  1.00  0.00    -0.000 C 
BRANCH  13  14
ATOM     14  C   UNL     1       2.003 -14.392 -16.619  1.00  0.00    -0.000 C 
BRANCH  14  15
ATOM     15  C   UNL     1       1.532 -14.230 -18.073  1.00  0.00    -0.000 C 
BRANCH  15  16
ATOM     16  C   UNL     1       0.368 -15.180 -18.380  1.00  0.00    -0.000 C 
BRANCH  16  17
ATOM     17  C   UNL     1       0.838 -16.642 -18.385  1.00  0.00    -0.000 C 
BRANCH  17  18
ATOM     18  C   UNL     1      -0.172 -17.596 -19.048  1.00  0.00    -0.000 C 
BRANCH  18  19
ATOM     19  C   UNL     1       0.214 -19.084 -18.995  1.00  0.00    -0.003 C 
ATOM     20  C   UNL     1       1.049 -19.442 -17.766  1.00  0.00     0.004 C 
ENDBRANCH  18  19
ENDBRANCH  17  18
ENDBRANCH  16  17
ENDBRANCH  15  16
ENDBRANCH  14  15
ENDBRANCH  13  14
ENDBRANCH  12  13
ENDBRANCH   1  12
TORSDOF 16
ENDMDL
MODEL 8
REMARK VINA RESULT:    -4.055      4.913      7.400
REMARK INTER + INTRA:          -9.667
REMARK INTER:                  -8.237
REMARK INTRA:                  -1.431
REMARK UNBOUND:                -1.819
REMARK SMILES CCCCCCCCCCCCCCCCCC(=O)[O-]
REMARK SMILES IDX 10 1 11 2 12 3 13 4 14 5 15 6 16 7 17 8 18 9 19 10 20 11
REMARK SMILES IDX 9 12 8 13 7 14 6 15 5 16 4 17 3 18 2 19 1 20
REMARK H PARENT
REMARK Flexibility Score: inf
ROOT
ATOM      1  C   UNL     1       2.720 -13.846 -16.644  1.00  0.00     0.000 C 
ENDROOT
BRANCH   1   2
ATOM      2  C   UNL     1       2.112 -13.352 -15.322  1.00  0.00     0.000 C 
BRANCH   2   3
ATOM      3  C   UNL     1       3.167 -12.635 -14.468  1.00  0.00     0.000 C 
BRANCH   3   4
ATOM      4  C   UNL     1       4.498 -12.424 -15.212  1.00  0.00     0.000 C 
BRANCH   4   5
ATOM      5  C   UNL     1       4.829 -10.956 -15.545  1.00  0.00     0.000 C 
BRANCH   5   6
ATOM      6  C   UNL     1       4.603  -9.956 -14.394  1.00  0.00     0.000 C 
BRANCH   6   7
ATOM      7  C   UNL     1       4.215  -8.530 -14.836  1.00  0.00     0.006 C 
BRANCH   7   8
ATOM      8  C   UNL     1       4.144  -7.509 -13.690  1.00  0.00     0.053 C 
BRANCH   8   9
ATOM      9  C   UNL     1       2.966  -6.595 -13.826  1.00  0.00     0.041 C 
ATOM     10  O   UNL     1       2.360  -6.185 -12.801  1.00  0.00    -0.550 OA
ATOM     11  O   UNL     1       2.515  -6.223 -15.087  1.00  0.00    -0.550 OA
ENDBRANCH   8   9
ENDBRANCH   7   8
ENDBRANCH   6   7
ENDBRANCH   5   6
ENDBRANCH   4   5
ENDBRANCH   3   4
ENDBRANCH   2   3
ENDBRANCH   1   2
BRANCH   1  12
ATOM     12  C   UNL     1       1.685 -13.941 -17.777  1.00  0.00     0.000 C 
BRANCH  12  13
ATOM     13  C   UNL     1       2.073 -13.096 -19.003  1.00  0.00    -0.000 C 
BRANCH  13  14
ATOM     14  C   UNL     1       3.208 -12.105 -18.701  1.00  0.00    -0.000 C 
BRANCH  14  15
ATOM     15  C   UNL     1       2.704 -10.667 -18.501  1.00  0.00    -0.000 C 
BRANCH  15  16
ATOM     16  C   UNL     1       3.753  -9.649 -18.967  1.00  0.00    -0.000 C 
BRANCH  16  17
ATOM     17  C   UNL     1       4.528 -10.177 -20.184  1.00  0.00    -0.000 C 
BRANCH  17  18
ATOM     18  C   UNL     1       5.888 -10.793 -19.807  1.00  0.00    -0.000 C 
BRANCH  18  19
ATOM     19  C   UNL     1       6.943 -10.763 -20.927  1.00  0.00    -0.003 C 
ATOM     20  C   UNL     1       8.226 -10.038 -20.521  1.00  0.00     0.004 C 
ENDBRANCH  18  19
ENDBRANCH  17  18
ENDBRANCH  16  17
ENDBRANCH  15  16
ENDBRANCH  14  15
ENDBRANCH  13  14
ENDBRANCH  12  13
ENDBRANCH   1  12
TORSDOF 16
ENDMDL
MODEL 9
REMARK VINA RESULT:    -3.863      1.334      3.427
REMARK INTER + INTRA:          -9.295
REMARK INTER:                  -8.323
REMARK INTRA:                  -0.972
REMARK UNBOUND:                -1.819
REMARK SMILES CCCCCCCCCCCCCCCCCC(=O)[O-]
REMARK SMILES IDX 10 1 11 2 12 3 13 4 14 5 15 6 16 7 17 8 18 9 19 10 20 11
REMARK SMILES IDX 9 12 8 13 7 14 6 15 5 16 4 17 3 18 2 19 1 20
REMARK H PARENT
REMARK Flexibility Score: inf
ROOT
ATOM      1  C   UNL     1       2.215 -12.598 -18.477  1.00  0.00     0.000 C 
ENDROOT
BRANCH   1   2
ATOM      2  C   UNL     1       2.080 -14.110 -18.715  1.00  0.00     0.000 C 
BRANCH   2   3
ATOM      3  C   UNL     1       1.198 -14.758 -17.639  1.00  0.00     0.000 C 
BRANCH   3   4
ATOM      4  C   UNL     1       0.203 -15.781 -18.216  1.00  0.00     0.000 C 
BRANCH   4   5
ATOM      5  C   UNL     1       0.842 -17.082 -18.741  1.00  0.00     0.000 C 
BRANCH   5   6
ATOM      6  C   UNL     1      -0.150 -18.119 -19.303  1.00  0.00     0.000 C 
BRANCH   6   7
ATOM      7  C   UNL     1       0.086 -19.569 -18.835  1.00  0.00     0.006 C 
BRANCH   7   8
ATOM      8  C   UNL     1      -0.544 -19.908 -17.475  1.00  0.00     0.053 C 
BRANCH   8   9
ATOM      9  C   UNL     1       0.475 -19.947 -16.379  1.00  0.00     0.041 C 
ATOM     10  O   UNL     1       0.116 -20.125 -15.185  1.00  0.00    -0.550 OA
ATOM     11  O   UNL     1       1.819 -19.751 -16.670  1.00  0.00    -0.550 OA
ENDBRANCH   8   9
ENDBRANCH   7   8
ENDBRANCH   6   7
ENDBRANCH   5   6
ENDBRANCH   4   5
ENDBRANCH   3   4
ENDBRANCH   2   3
ENDBRANCH   1   2
BRANCH   1  12
ATOM     12  C   UNL     1       3.449 -11.994 -19.167  1.00  0.00     0.000 C 
BRANCH  12  13
ATOM     13  C   UNL     1       3.695 -10.530 -18.760  1.00  0.00    -0.000 C 
BRANCH  13  14
ATOM     14  C   UNL     1       2.937 -10.138 -17.482  1.00  0.00    -0.000 C 
BRANCH  14  15
ATOM     15  C   UNL     1       3.777  -9.265 -16.537  1.00  0.00    -0.000 C 
BRANCH  15  16
ATOM     16  C   UNL     1       4.500 -10.127 -15.494  1.00  0.00    -0.000 C 
BRANCH  16  17
ATOM     17  C   UNL     1       4.647 -11.575 -15.984  1.00  0.00    -0.000 C 
BRANCH  17  18
ATOM     18  C   UNL     1       4.600 -12.604 -14.840  1.00  0.00    -0.000 C 
BRANCH  18  19
ATOM     19  C   UNL     1       3.286 -12.618 -14.038  1.00  0.00    -0.003 C 
ATOM     20  C   UNL     1       2.072 -12.994 -14.886  1.00  0.00     0.004 C 
ENDBRANCH  18  19
ENDBRANCH  17  18
ENDBRANCH  16  17
ENDBRANCH  15  16
ENDBRANCH  14  15
ENDBRANCH  13  14
ENDBRANCH  12  13
ENDBRANCH   1  12
TORSDOF 16
ENDMDL
