MODEL 1
REMARK VINA RESULT:    -5.130      0.000      0.000
REMARK INTER + INTRA:          -5.130
REMARK INTER:                  -5.130
REMARK INTRA:                   0.000
REMARK UNBOUND:                 0.000
REMARK SMILES CC1=CC(=O)[C@@H]2C[C@H]1C2(C)C
REMARK SMILES IDX 1 1 2 2 3 3 4 4 5 5 6 6 7 7 8 8 9 9 10 10 11 11
REMARK H PARENT
REMARK Flexibility Score: inf
ROOT
ATOM      1  C   UNL     1      -5.122  31.056   4.512  1.00  0.00     0.040 C 
ATOM      2  C   UNL     1      -5.066  32.431   5.097  1.00  0.00    -0.066 C 
ATOM      3  C   UNL     1      -4.597  32.647   6.358  1.00  0.00     0.047 C 
ATOM      4  C   UNL     1      -4.562  34.073   6.818  1.00  0.00     0.159 C 
ATOM      5  O   UNL     1      -4.115  34.404   7.947  1.00  0.00    -0.295 OA
ATOM      6  C   UNL     1      -5.107  35.095   5.820  1.00  0.00     0.067 C 
ATOM      7  C   UNL     1      -6.420  34.464   5.311  1.00  0.00     0.021 C 
ATOM      8  C   UNL     1      -5.549  33.669   4.311  1.00  0.00     0.022 C 
ATOM      9  C   UNL     1      -4.487  34.802   4.423  1.00  0.00    -0.019 C 
ATOM     10  C   UNL     1      -2.984  34.409   4.349  1.00  0.00     0.012 C 
ATOM     11  C   UNL     1      -4.741  35.949   3.414  1.00  0.00     0.012 C 
ENDROOT
TORSDOF 0
ENDMDL
MODEL 2
REMARK VINA RESULT:    -5.129      1.570      3.019
REMARK INTER + INTRA:          -5.129
REMARK INTER:                  -5.129
REMARK INTRA:                   0.000
REMARK UNBOUND:                 0.000
REMARK SMILES CC1=CC(=O)[C@@H]2C[C@H]1C2(C)C
REMARK SMILES IDX 1 1 2 2 3 3 4 4 5 5 6 6 7 7 8 8 9 9 10 10 11 11
REMARK H PARENT
REMARK Flexibility Score: inf
ROOT
ATOM      1  C   UNL     1      -4.318  35.016   8.186  1.00  0.00     0.040 C 
ATOM      2  C   UNL     1      -4.454  34.287   6.887  1.00  0.00    -0.066 C 
ATOM      3  C   UNL     1      -4.537  32.928   6.842  1.00  0.00     0.047 C 
ATOM      4  C   UNL     1      -4.703  32.317   5.483  1.00  0.00     0.159 C 
ATOM      5  O   UNL     1      -4.829  31.077   5.313  1.00  0.00    -0.295 OA
ATOM      6  C   UNL     1      -4.708  33.308   4.318  1.00  0.00     0.067 C 
ATOM      7  C   UNL     1      -3.524  34.252   4.618  1.00  0.00     0.021 C 
ATOM      8  C   UNL     1      -4.492  35.033   5.536  1.00  0.00     0.022 C 
ATOM      9  C   UNL     1      -5.664  34.483   4.672  1.00  0.00    -0.019 C 
ATOM     10  C   UNL     1      -7.009  34.154   5.382  1.00  0.00     0.012 C 
ATOM     11  C   UNL     1      -5.969  35.385   3.450  1.00  0.00     0.012 C 
ENDROOT
TORSDOF 0
ENDMDL
MODEL 3
REMARK VINA RESULT:    -4.972      1.687      2.893
REMARK INTER + INTRA:          -4.972
REMARK INTER:                  -4.972
REMARK INTRA:                   0.000
REMARK UNBOUND:                 0.000
REMARK SMILES CC1=CC(=O)[C@@H]2C[C@H]1C2(C)C
REMARK SMILES IDX 1 1 2 2 3 3 4 4 5 5 6 6 7 7 8 8 9 9 10 10 11 11
REMARK H PARENT
REMARK Flexibility Score: inf
ROOT
ATOM      1  C   UNL     1      -5.011  31.130   4.750  1.00  0.00     0.040 C 
ATOM      2  C   UNL     1      -4.847  32.615   4.832  1.00  0.00    -0.066 C 
ATOM      3  C   UNL     1      -5.786  33.461   4.325  1.00  0.00     0.047 C 
ATOM      4  C   UNL     1      -5.521  34.927   4.497  1.00  0.00     0.159 C 
ATOM      5  O   UNL     1      -6.331  35.807   4.106  1.00  0.00    -0.295 OA
ATOM      6  C   UNL     1      -4.198  35.276   5.181  1.00  0.00     0.067 C 
ATOM      7  C   UNL     1      -3.163  34.364   4.489  1.00  0.00     0.021 C 
ATOM      8  C   UNL     1      -3.602  33.261   5.478  1.00  0.00     0.022 C 
ATOM      9  C   UNL     1      -4.049  34.390   6.451  1.00  0.00    -0.019 C 
ATOM     10  C   UNL     1      -5.306  34.145   7.333  1.00  0.00     0.012 C 
ATOM     11  C   UNL     1      -2.896  34.867   7.369  1.00  0.00     0.012 C 
ENDROOT
TORSDOF 0
ENDMDL
MODEL 4
REMARK VINA RESULT:    -4.950      1.613      2.878
REMARK INTER + INTRA:          -4.950
REMARK INTER:                  -4.950
REMARK INTRA:                   0.000
REMARK UNBOUND:                 0.000
REMARK SMILES CC1=CC(=O)[C@@H]2C[C@H]1C2(C)C
REMARK SMILES IDX 1 1 2 2 3 3 4 4 5 5 6 6 7 7 8 8 9 9 10 10 11 11
REMARK H PARENT
REMARK Flexibility Score: inf
ROOT
ATOM      1  C   UNL     1      -5.241  35.247   3.266  1.00  0.00     0.040 C 
ATOM      2  C   UNL     1      -5.012  34.412   4.486  1.00  0.00    -0.066 C 
ATOM      3  C   UNL     1      -4.743  33.080   4.393  1.00  0.00     0.047 C 
ATOM      4  C   UNL     1      -4.501  32.360   5.686  1.00  0.00     0.159 C 
ATOM      5  O   UNL     1      -4.206  31.137   5.729  1.00  0.00    -0.295 OA
ATOM      6  C   UNL     1      -4.639  33.215   6.946  1.00  0.00     0.067 C 
ATOM      7  C   UNL     1      -5.940  34.014   6.721  1.00  0.00     0.021 C 
ATOM      8  C   UNL     1      -5.085  35.012   5.907  1.00  0.00     0.022 C 
ATOM      9  C   UNL     1      -3.852  34.541   6.733  1.00  0.00    -0.019 C 
ATOM     10  C   UNL     1      -2.472  34.475   6.019  1.00  0.00     0.012 C 
ATOM     11  C   UNL     1      -3.682  35.343   8.047  1.00  0.00     0.012 C 
ENDROOT
TORSDOF 0
ENDMDL
MODEL 5
REMARK VINA RESULT:    -4.754      1.517      3.419
REMARK INTER + INTRA:          -4.754
REMARK INTER:                  -4.754
REMARK INTRA:                   0.000
REMARK UNBOUND:                 0.000
REMARK SMILES CC1=CC(=O)[C@@H]2C[C@H]1C2(C)C
REMARK SMILES IDX 1 1 2 2 3 3 4 4 5 5 6 6 7 7 8 8 9 9 10 10 11 11
REMARK H PARENT
REMARK Flexibility Score: inf
ROOT
ATOM      1  C   UNL     1      -2.317  34.851   3.971  1.00  0.00     0.040 C 
ATOM      2  C   UNL     1      -3.525  34.474   4.770  1.00  0.00    -0.066 C 
ATOM      3  C   UNL     1      -4.747  35.015   4.505  1.00  0.00     0.047 C 
ATOM      4  C   UNL     1      -5.884  34.532   5.355  1.00  0.00     0.159 C 
ATOM      5  O   UNL     1      -7.067  34.928   5.183  1.00  0.00    -0.295 OA
ATOM      6  C   UNL     1      -5.506  33.527   6.443  1.00  0.00     0.067 C 
ATOM      7  C   UNL     1      -4.240  34.127   7.090  1.00  0.00     0.021 C 
ATOM      8  C   UNL     1      -3.445  33.469   5.939  1.00  0.00     0.022 C 
ATOM      9  C   UNL     1      -4.599  32.432   5.812  1.00  0.00    -0.019 C 
ATOM     10  C   UNL     1      -4.957  31.902   4.394  1.00  0.00     0.012 C 
ATOM     11  C   UNL     1      -4.403  31.215   6.750  1.00  0.00     0.012 C 
ENDROOT
TORSDOF 0
ENDMDL
MODEL 6
REMARK VINA RESULT:    -4.490      1.829      3.270
REMARK INTER + INTRA:          -4.490
REMARK INTER:                  -4.490
REMARK INTRA:                   0.000
REMARK UNBOUND:                 0.000
REMARK SMILES CC1=CC(=O)[C@@H]2C[C@H]1C2(C)C
REMARK SMILES IDX 1 1 2 2 3 3 4 4 5 5 6 6 7 7 8 8 9 9 10 10 11 11
REMARK H PARENT
REMARK Flexibility Score: inf
ROOT
ATOM      1  C   UNL     1      -7.168  34.524   4.773  1.00  0.00     0.040 C 
ATOM      2  C   UNL     1      -5.725  34.353   5.129  1.00  0.00    -0.066 C 
ATOM      3  C   UNL     1      -4.745  34.475   4.191  1.00  0.00     0.047 C 
ATOM      4  C   UNL     1      -3.336  34.313   4.678  1.00  0.00     0.159 C 
ATOM      5  O   UNL     1      -2.342  34.440   3.917  1.00  0.00    -0.295 OA
ATOM      6  C   UNL     1      -3.193  33.983   6.164  1.00  0.00     0.067 C 
ATOM      7  C   UNL     1      -4.243  32.878   6.410  1.00  0.00     0.021 C 
ATOM      8  C   UNL     1      -5.277  34.016   6.567  1.00  0.00     0.022 C 
ATOM      9  C   UNL     1      -4.101  34.951   6.976  1.00  0.00    -0.019 C 
ATOM     10  C   UNL     1      -4.164  36.443   6.543  1.00  0.00     0.012 C 
ATOM     11  C   UNL     1      -3.808  34.898   8.496  1.00  0.00     0.012 C 
ENDROOT
TORSDOF 0
ENDMDL
MODEL 7
REMARK VINA RESULT:    -4.445      7.051      8.315
REMARK INTER + INTRA:          -4.445
REMARK INTER:                  -4.445
REMARK INTRA:                   0.000
REMARK UNBOUND:                 0.000
REMARK SMILES CC1=CC(=O)[C@@H]2C[C@H]1C2(C)C
REMARK SMILES IDX 1 1 2 2 3 3 4 4 5 5 6 6 7 7 8 8 9 9 10 10 11 11
REMARK H PARENT
REMARK Flexibility Score: inf
ROOT
ATOM      1  C   UNL     1     -11.042  36.750   2.471  1.00  0.00     0.040 C 
ATOM      2  C   UNL     1     -10.572  36.359   1.105  1.00  0.00    -0.066 C 
ATOM      3  C   UNL     1     -11.241  36.754  -0.014  1.00  0.00     0.047 C 
ATOM      4  C   UNL     1     -10.653  36.324  -1.325  1.00  0.00     0.159 C 
ATOM      5  O   UNL     1     -11.156  36.657  -2.429  1.00  0.00    -0.295 OA
ATOM      6  C   UNL     1      -9.399  35.454  -1.224  1.00  0.00     0.067 C 
ATOM      7  C   UNL     1      -9.747  34.414  -0.138  1.00  0.00     0.021 C 
ATOM      8  C   UNL     1      -9.321  35.480   0.897  1.00  0.00     0.022 C 
ATOM      9  C   UNL     1      -8.422  36.109  -0.206  1.00  0.00    -0.019 C 
ATOM     10  C   UNL     1      -8.260  37.656  -0.228  1.00  0.00     0.012 C 
ATOM     11  C   UNL     1      -7.010  35.473  -0.251  1.00  0.00     0.012 C 
ENDROOT
TORSDOF 0
ENDMDL
MODEL 8
REMARK VINA RESULT:    -4.425     12.122     13.652
REMARK INTER + INTRA:          -4.425
REMARK INTER:                  -4.425
REMARK INTRA:                   0.000
REMARK UNBOUND:                 0.000
REMARK SMILES CC1=CC(=O)[C@@H]2C[C@H]1C2(C)C
REMARK SMILES IDX 1 1 2 2 3 3 4 4 5 5 6 6 7 7 8 8 9 9 10 10 11 11
REMARK H PARENT
REMARK Flexibility Score: inf
ROOT
ATOM      1  C   UNL     1     -20.700  36.483   6.057  1.00  0.00     0.040 C 
ATOM      2  C   UNL     1     -19.463  35.691   6.339  1.00  0.00    -0.066 C 
ATOM      3  C   UNL     1     -19.529  34.434   6.860  1.00  0.00     0.047 C 
ATOM      4  C   UNL     1     -18.221  33.732   7.068  1.00  0.00     0.159 C 
ATOM      5  O   UNL     1     -18.152  32.554   7.506  1.00  0.00    -0.295 OA
ATOM      6  C   UNL     1     -16.978  34.548   6.711  1.00  0.00     0.067 C 
ATOM      7  C   UNL     1     -17.238  35.932   7.343  1.00  0.00     0.021 C 
ATOM      8  C   UNL     1     -18.054  36.263   6.072  1.00  0.00     0.022 C 
ATOM      9  C   UNL     1     -17.199  35.203   5.317  1.00  0.00    -0.019 C 
ATOM     10  C   UNL     1     -17.887  34.361   4.205  1.00  0.00     0.012 C 
ATOM     11  C   UNL     1     -15.896  35.804   4.735  1.00  0.00     0.012 C 
ENDROOT
TORSDOF 0
ENDMDL
MODEL 9
REMARK VINA RESULT:    -4.259     13.009     14.648
REMARK INTER + INTRA:          -4.259
REMARK INTER:                  -4.259
REMARK INTRA:                   0.000
REMARK UNBOUND:                 0.000
REMARK SMILES CC1=CC(=O)[C@@H]2C[C@H]1C2(C)C
REMARK SMILES IDX 1 1 2 2 3 3 4 4 5 5 6 6 7 7 8 8 9 9 10 10 11 11
REMARK H PARENT
REMARK Flexibility Score: inf
ROOT
ATOM      1  C   UNL     1     -20.749  36.639   7.246  1.00  0.00     0.040 C 
ATOM      2  C   UNL     1     -20.001  35.681   6.374  1.00  0.00    -0.066 C 
ATOM      3  C   UNL     1     -19.630  36.016   5.107  1.00  0.00     0.047 C 
ATOM      4  C   UNL     1     -18.857  34.981   4.346  1.00  0.00     0.159 C 
ATOM      5  O   UNL     1     -18.425  35.186   3.182  1.00  0.00    -0.295 OA
ATOM      6  C   UNL     1     -18.630  33.661   5.084  1.00  0.00     0.067 C 
ATOM      7  C   UNL     1     -20.009  33.325   5.692  1.00  0.00     0.021 C 
ATOM      8  C   UNL     1     -19.626  34.263   6.859  1.00  0.00     0.022 C 
ATOM      9  C   UNL     1     -18.133  33.978   6.524  1.00  0.00    -0.019 C 
ATOM     10  C   UNL     1     -17.105  35.129   6.715  1.00  0.00     0.012 C 
ATOM     11  C   UNL     1     -17.596  32.721   7.253  1.00  0.00     0.012 C 
ENDROOT
TORSDOF 0
ENDMDL
