MODEL 1
REMARK VINA RESULT:    -5.726      0.000      0.000
REMARK INTER + INTRA:          -5.726
REMARK INTER:                  -5.726
REMARK INTRA:                   0.000
REMARK UNBOUND:                 0.000
REMARK SMILES C=C1CCC[C@]2(C)CC(=O)C(=C(C)C)C[C@H]12
REMARK SMILES IDX 13 1 12 2 11 3 15 4 16 5 2 6 1 7 3 8 4 9 5 10 6 11 8 12 9 13
REMARK SMILES IDX 10 14 7 15 14 16
REMARK H PARENT
REMARK Flexibility Score: inf
ROOT
ATOM      1  C   UNL     1      18.627  27.017  27.873  1.00  0.00     0.039 C 
ATOM      2  C   UNL     1      19.641  27.708  28.756  1.00  0.00    -0.070 C 
ATOM      3  C   UNL     1      19.399  28.953  29.265  1.00  0.00    -0.006 C 
ATOM      4  C   UNL     1      18.141  29.733  28.922  1.00  0.00     0.047 C 
ATOM      5  C   UNL     1      17.677  30.611  30.111  1.00  0.00     0.025 C 
ATOM      6  C   UNL     1      16.401  31.344  29.709  1.00  0.00    -0.073 C 
ATOM      7  C   UNL     1      15.204  30.760  29.886  1.00  0.00     0.008 C 
ATOM      8  C   UNL     1      16.458  32.690  29.025  1.00  0.00     0.031 C 
ATOM      9  C   UNL     1      17.874  33.263  28.998  1.00  0.00     0.005 C 
ATOM     10  C   UNL     1      18.537  33.080  30.363  1.00  0.00     0.008 C 
ATOM     11  C   UNL     1      18.804  31.576  30.691  1.00  0.00    -0.018 C 
ATOM     12  C   UNL     1      20.218  31.202  30.152  1.00  0.00     0.088 C 
ATOM     13  C   UNL     1      20.390  29.717  30.065  1.00  0.00     0.159 C 
ATOM     14  O   UNL     1      21.327  29.161  30.697  1.00  0.00    -0.295 OA
ATOM     15  C   UNL     1      18.832  31.436  32.234  1.00  0.00     0.012 C 
ATOM     16  C   UNL     1      20.940  26.981  29.014  1.00  0.00     0.039 C 
ENDROOT
TORSDOF 0
ENDMDL
MODEL 2
REMARK VINA RESULT:    -5.721      1.545      1.995
REMARK INTER + INTRA:          -5.721
REMARK INTER:                  -5.721
REMARK INTRA:                   0.000
REMARK UNBOUND:                 0.000
REMARK SMILES C=C1CCC[C@]2(C)CC(=O)C(=C(C)C)C[C@H]12
REMARK SMILES IDX 13 1 12 2 11 3 15 4 16 5 2 6 1 7 3 8 4 9 5 10 6 11 8 12 9 13
REMARK SMILES IDX 10 14 7 15 14 16
REMARK H PARENT
REMARK Flexibility Score: inf
ROOT
ATOM      1  C   UNL     1      15.968  26.190  28.673  1.00  0.00     0.039 C 
ATOM      2  C   UNL     1      17.373  26.725  28.503  1.00  0.00    -0.070 C 
ATOM      3  C   UNL     1      17.677  28.017  28.825  1.00  0.00    -0.006 C 
ATOM      4  C   UNL     1      16.620  28.999  29.303  1.00  0.00     0.047 C 
ATOM      5  C   UNL     1      17.205  30.008  30.323  1.00  0.00     0.025 C 
ATOM      6  C   UNL     1      16.089  30.944  30.778  1.00  0.00    -0.073 C 
ATOM      7  C   UNL     1      15.304  30.603  31.813  1.00  0.00     0.008 C 
ATOM      8  C   UNL     1      15.787  32.220  30.026  1.00  0.00     0.031 C 
ATOM      9  C   UNL     1      16.832  32.517  28.952  1.00  0.00     0.005 C 
ATOM     10  C   UNL     1      18.236  32.284  29.512  1.00  0.00     0.008 C 
ATOM     11  C   UNL     1      18.505  30.775  29.815  1.00  0.00    -0.018 C 
ATOM     12  C   UNL     1      19.099  30.117  28.532  1.00  0.00     0.088 C 
ATOM     13  C   UNL     1      19.014  28.624  28.600  1.00  0.00     0.159 C 
ATOM     14  O   UNL     1      20.066  27.936  28.510  1.00  0.00    -0.295 OA
ATOM     15  C   UNL     1      19.585  30.711  30.924  1.00  0.00     0.012 C 
ATOM     16  C   UNL     1      18.404  25.783  27.928  1.00  0.00     0.039 C 
ENDROOT
TORSDOF 0
ENDMDL
MODEL 3
REMARK VINA RESULT:    -5.635     10.460     12.304
REMARK INTER + INTRA:          -5.635
REMARK INTER:                  -5.635
REMARK INTRA:                   0.000
REMARK UNBOUND:                 0.000
REMARK SMILES C=C1CCC[C@]2(C)CC(=O)C(=C(C)C)C[C@H]12
REMARK SMILES IDX 13 1 12 2 11 3 15 4 16 5 2 6 1 7 3 8 4 9 5 10 6 11 8 12 9 13
REMARK SMILES IDX 10 14 7 15 14 16
REMARK H PARENT
REMARK Flexibility Score: inf
ROOT
ATOM      1  C   UNL     1      33.068  34.765  27.874  1.00  0.00     0.039 C 
ATOM      2  C   UNL     1      32.868  33.267  27.817  1.00  0.00    -0.070 C 
ATOM      3  C   UNL     1      31.754  32.685  28.352  1.00  0.00    -0.006 C 
ATOM      4  C   UNL     1      30.697  33.493  29.086  1.00  0.00     0.047 C 
ATOM      5  C   UNL     1      29.281  32.898  28.876  1.00  0.00     0.025 C 
ATOM      6  C   UNL     1      28.270  33.769  29.617  1.00  0.00    -0.073 C 
ATOM      7  C   UNL     1      27.732  34.839  29.011  1.00  0.00     0.008 C 
ATOM      8  C   UNL     1      27.925  33.502  31.064  1.00  0.00     0.031 C 
ATOM      9  C   UNL     1      28.531  32.194  31.570  1.00  0.00     0.005 C 
ATOM     10  C   UNL     1      28.333  31.091  30.530  1.00  0.00     0.008 C 
ATOM     11  C   UNL     1      29.163  31.350  29.232  1.00  0.00    -0.018 C 
ATOM     12  C   UNL     1      30.564  30.688  29.407  1.00  0.00     0.088 C 
ATOM     13  C   UNL     1      31.541  31.216  28.404  1.00  0.00     0.159 C 
ATOM     14  O   UNL     1      32.115  30.419  27.615  1.00  0.00    -0.295 OA
ATOM     15  C   UNL     1      28.439  30.627  28.068  1.00  0.00     0.012 C 
ATOM     16  C   UNL     1      33.967  32.449  27.181  1.00  0.00     0.039 C 
ENDROOT
TORSDOF 0
ENDMDL
MODEL 4
REMARK VINA RESULT:    -5.351      1.704      3.281
REMARK INTER + INTRA:          -5.351
REMARK INTER:                  -5.351
REMARK INTRA:                   0.000
REMARK UNBOUND:                 0.000
REMARK SMILES C=C1CCC[C@]2(C)CC(=O)C(=C(C)C)C[C@H]12
REMARK SMILES IDX 13 1 12 2 11 3 15 4 16 5 2 6 1 7 3 8 4 9 5 10 6 11 8 12 9 13
REMARK SMILES IDX 10 14 7 15 14 16
REMARK H PARENT
REMARK Flexibility Score: inf
ROOT
ATOM      1  C   UNL     1      21.564  29.120  28.981  1.00  0.00     0.039 C 
ATOM      2  C   UNL     1      20.069  28.899  29.023  1.00  0.00    -0.070 C 
ATOM      3  C   UNL     1      19.225  29.876  29.468  1.00  0.00    -0.006 C 
ATOM      4  C   UNL     1      19.738  31.202  30.004  1.00  0.00     0.047 C 
ATOM      5  C   UNL     1      18.764  32.361  29.676  1.00  0.00     0.025 C 
ATOM      6  C   UNL     1      19.350  33.661  30.219  1.00  0.00    -0.073 C 
ATOM      7  C   UNL     1      20.200  34.381  29.468  1.00  0.00     0.008 C 
ATOM      8  C   UNL     1      19.064  34.115  31.631  1.00  0.00     0.031 C 
ATOM      9  C   UNL     1      18.001  33.253  32.310  1.00  0.00     0.005 C 
ATOM     10  C   UNL     1      16.841  33.002  31.347  1.00  0.00     0.008 C 
ATOM     11  C   UNL     1      17.261  32.104  30.140  1.00  0.00    -0.018 C 
ATOM     12  C   UNL     1      17.025  30.614  30.533  1.00  0.00     0.088 C 
ATOM     13  C   UNL     1      17.758  29.688  29.613  1.00  0.00     0.159 C 
ATOM     14  O   UNL     1      17.118  28.818  28.965  1.00  0.00    -0.295 OA
ATOM     15  C   UNL     1      16.313  32.439  28.961  1.00  0.00     0.012 C 
ATOM     16  C   UNL     1      19.561  27.543  28.591  1.00  0.00     0.039 C 
ENDROOT
TORSDOF 0
ENDMDL
MODEL 5
REMARK VINA RESULT:    -5.305      2.383      4.353
REMARK INTER + INTRA:          -5.305
REMARK INTER:                  -5.305
REMARK INTRA:                   0.000
REMARK UNBOUND:                 0.000
REMARK SMILES C=C1CCC[C@]2(C)CC(=O)C(=C(C)C)C[C@H]12
REMARK SMILES IDX 13 1 12 2 11 3 15 4 16 5 2 6 1 7 3 8 4 9 5 10 6 11 8 12 9 13
REMARK SMILES IDX 10 14 7 15 14 16
REMARK H PARENT
REMARK Flexibility Score: inf
ROOT
ATOM      1  C   UNL     1      25.140  29.892  29.599  1.00  0.00     0.039 C 
ATOM      2  C   UNL     1      24.272  28.723  29.192  1.00  0.00    -0.070 C 
ATOM      3  C   UNL     1      22.918  28.758  29.365  1.00  0.00    -0.006 C 
ATOM      4  C   UNL     1      22.221  29.933  30.030  1.00  0.00     0.047 C 
ATOM      5  C   UNL     1      20.813  30.173  29.427  1.00  0.00     0.025 C 
ATOM      6  C   UNL     1      20.183  31.377  30.119  1.00  0.00    -0.073 C 
ATOM      7  C   UNL     1      20.413  32.616  29.656  1.00  0.00     0.008 C 
ATOM      8  C   UNL     1      19.370  31.212  31.382  1.00  0.00     0.031 C 
ATOM      9  C   UNL     1      19.110  29.743  31.713  1.00  0.00     0.005 C 
ATOM     10  C   UNL     1      18.703  28.988  30.447  1.00  0.00     0.008 C 
ATOM     11  C   UNL     1      19.876  28.885  29.421  1.00  0.00    -0.018 C 
ATOM     12  C   UNL     1      20.680  27.584  29.725  1.00  0.00     0.088 C 
ATOM     13  C   UNL     1      22.023  27.610  29.066  1.00  0.00     0.159 C 
ATOM     14  O   UNL     1      22.338  26.697  28.257  1.00  0.00    -0.295 OA
ATOM     15  C   UNL     1      19.247  28.734  28.012  1.00  0.00     0.012 C 
ATOM     16  C   UNL     1      24.972  27.508  28.628  1.00  0.00     0.039 C 
ENDROOT
TORSDOF 0
ENDMDL
MODEL 6
REMARK VINA RESULT:    -5.250     11.516     13.191
REMARK INTER + INTRA:          -5.250
REMARK INTER:                  -5.250
REMARK INTRA:                   0.000
REMARK UNBOUND:                 0.000
REMARK SMILES C=C1CCC[C@]2(C)CC(=O)C(=C(C)C)C[C@H]12
REMARK SMILES IDX 13 1 12 2 11 3 15 4 16 5 2 6 1 7 3 8 4 9 5 10 6 11 8 12 9 13
REMARK SMILES IDX 10 14 7 15 14 16
REMARK H PARENT
REMARK Flexibility Score: inf
ROOT
ATOM      1  C   UNL     1      33.212  29.616  26.760  1.00  0.00     0.039 C 
ATOM      2  C   UNL     1      33.359  31.116  26.877  1.00  0.00    -0.070 C 
ATOM      3  C   UNL     1      32.519  31.846  27.669  1.00  0.00    -0.006 C 
ATOM      4  C   UNL     1      31.360  31.208  28.417  1.00  0.00     0.047 C 
ATOM      5  C   UNL     1      31.098  31.919  29.769  1.00  0.00     0.025 C 
ATOM      6  C   UNL     1      29.943  31.215  30.476  1.00  0.00    -0.073 C 
ATOM      7  C   UNL     1      30.183  30.156  31.267  1.00  0.00     0.008 C 
ATOM      8  C   UNL     1      28.511  31.632  30.233  1.00  0.00     0.031 C 
ATOM      9  C   UNL     1      28.416  32.911  29.404  1.00  0.00     0.005 C 
ATOM     10  C   UNL     1      29.426  33.939  29.914  1.00  0.00     0.008 C 
ATOM     11  C   UNL     1      30.900  33.496  29.652  1.00  0.00    -0.018 C 
ATOM     12  C   UNL     1      31.331  34.029  28.252  1.00  0.00     0.088 C 
ATOM     13  C   UNL     1      32.558  33.328  27.759  1.00  0.00     0.159 C 
ATOM     14  O   UNL     1      33.588  33.998  27.478  1.00  0.00    -0.295 OA
ATOM     15  C   UNL     1      31.789  34.188  30.717  1.00  0.00     0.012 C 
ATOM     16  C   UNL     1      34.443  31.769  26.052  1.00  0.00     0.039 C 
ENDROOT
TORSDOF 0
ENDMDL
MODEL 7
REMARK VINA RESULT:    -5.222      1.437      1.886
REMARK INTER + INTRA:          -5.222
REMARK INTER:                  -5.222
REMARK INTRA:                   0.000
REMARK UNBOUND:                 0.000
REMARK SMILES C=C1CCC[C@]2(C)CC(=O)C(=C(C)C)C[C@H]12
REMARK SMILES IDX 13 1 12 2 11 3 15 4 16 5 2 6 1 7 3 8 4 9 5 10 6 11 8 12 9 13
REMARK SMILES IDX 10 14 7 15 14 16
REMARK H PARENT
REMARK Flexibility Score: inf
ROOT
ATOM      1  C   UNL     1      18.277  25.397  27.820  1.00  0.00     0.039 C 
ATOM      2  C   UNL     1      19.572  26.104  28.150  1.00  0.00    -0.070 C 
ATOM      3  C   UNL     1      19.570  27.357  28.694  1.00  0.00    -0.006 C 
ATOM      4  C   UNL     1      18.284  28.130  28.933  1.00  0.00     0.047 C 
ATOM      5  C   UNL     1      18.388  29.029  30.191  1.00  0.00     0.025 C 
ATOM      6  C   UNL     1      17.060  29.754  30.385  1.00  0.00    -0.073 C 
ATOM      7  C   UNL     1      16.071  29.172  31.083  1.00  0.00     0.008 C 
ATOM      8  C   UNL     1      16.798  31.088  29.727  1.00  0.00     0.031 C 
ATOM      9  C   UNL     1      18.050  31.661  29.066  1.00  0.00     0.005 C 
ATOM     10  C   UNL     1      19.251  31.502  29.999  1.00  0.00     0.008 C 
ATOM     11  C   UNL     1      19.648  30.004  30.196  1.00  0.00    -0.018 C 
ATOM     12  C   UNL     1      20.680  29.621  29.092  1.00  0.00     0.088 C 
ATOM     13  C   UNL     1      20.807  28.135  28.961  1.00  0.00     0.159 C 
ATOM     14  O   UNL     1      21.932  27.590  29.120  1.00  0.00    -0.295 OA
ATOM     15  C   UNL     1      20.359  29.890  31.569  1.00  0.00     0.012 C 
ATOM     16  C   UNL     1      20.856  25.381  27.817  1.00  0.00     0.039 C 
ENDROOT
TORSDOF 0
ENDMDL
MODEL 8
REMARK VINA RESULT:    -5.098     11.288     13.389
REMARK INTER + INTRA:          -5.098
REMARK INTER:                  -5.098
REMARK INTRA:                   0.000
REMARK UNBOUND:                 0.000
REMARK SMILES C=C1CCC[C@]2(C)CC(=O)C(=C(C)C)C[C@H]12
REMARK SMILES IDX 13 1 12 2 11 3 15 4 16 5 2 6 1 7 3 8 4 9 5 10 6 11 8 12 9 13
REMARK SMILES IDX 10 14 7 15 14 16
REMARK H PARENT
REMARK Flexibility Score: inf
ROOT
ATOM      1  C   UNL     1      27.934  33.376  31.188  1.00  0.00     0.039 C 
ATOM      2  C   UNL     1      28.304  32.349  30.142  1.00  0.00    -0.070 C 
ATOM      3  C   UNL     1      29.531  32.366  29.542  1.00  0.00    -0.006 C 
ATOM      4  C   UNL     1      30.557  33.447  29.839  1.00  0.00     0.047 C 
ATOM      5  C   UNL     1      32.002  32.892  29.760  1.00  0.00     0.025 C 
ATOM      6  C   UNL     1      32.977  34.019  30.092  1.00  0.00    -0.073 C 
ATOM      7  C   UNL     1      33.315  34.262  31.368  1.00  0.00     0.008 C 
ATOM      8  C   UNL     1      33.506  34.934  29.012  1.00  0.00     0.031 C 
ATOM      9  C   UNL     1      33.119  34.459  27.613  1.00  0.00     0.005 C 
ATOM     10  C   UNL     1      33.334  32.949  27.497  1.00  0.00     0.008 C 
ATOM     11  C   UNL     1      32.343  32.144  28.396  1.00  0.00    -0.018 C 
ATOM     12  C   UNL     1      31.058  31.846  27.563  1.00  0.00     0.088 C 
ATOM     13  C   UNL     1      29.921  31.440  28.449  1.00  0.00     0.159 C 
ATOM     14  O   UNL     1      29.364  30.323  28.273  1.00  0.00    -0.295 OA
ATOM     15  C   UNL     1      33.017  30.788  28.728  1.00  0.00     0.012 C 
ATOM     16  C   UNL     1      27.248  31.336  29.766  1.00  0.00     0.039 C 
ENDROOT
TORSDOF 0
ENDMDL
MODEL 9
REMARK VINA RESULT:    -5.073      2.619      4.687
REMARK INTER + INTRA:          -5.073
REMARK INTER:                  -5.073
REMARK INTRA:                   0.000
REMARK UNBOUND:                 0.000
REMARK SMILES C=C1CCC[C@]2(C)CC(=O)C(=C(C)C)C[C@H]12
REMARK SMILES IDX 13 1 12 2 11 3 15 4 16 5 2 6 1 7 3 8 4 9 5 10 6 11 8 12 9 13
REMARK SMILES IDX 10 14 7 15 14 16
REMARK H PARENT
REMARK Flexibility Score: inf
ROOT
ATOM      1  C   UNL     1      21.196  24.855  28.006  1.00  0.00     0.039 C 
ATOM      2  C   UNL     1      19.998  25.757  28.194  1.00  0.00    -0.070 C 
ATOM      3  C   UNL     1      20.109  26.948  28.855  1.00  0.00    -0.006 C 
ATOM      4  C   UNL     1      21.414  27.397  29.490  1.00  0.00     0.047 C 
ATOM      5  C   UNL     1      21.574  28.937  29.428  1.00  0.00     0.025 C 
ATOM      6  C   UNL     1      22.911  29.316  30.058  1.00  0.00    -0.073 C 
ATOM      7  C   UNL     1      24.026  29.335  29.310  1.00  0.00     0.008 C 
ATOM      8  C   UNL     1      23.025  29.587  31.540  1.00  0.00     0.031 C 
ATOM      9  C   UNL     1      21.660  29.635  32.224  1.00  0.00     0.005 C 
ATOM     10  C   UNL     1      20.682  30.452  31.379  1.00  0.00     0.008 C 
ATOM     11  C   UNL     1      20.341  29.748  30.028  1.00  0.00    -0.018 C 
ATOM     12  C   UNL     1      19.101  28.829  30.255  1.00  0.00     0.088 C 
ATOM     13  C   UNL     1      18.954  27.835  29.146  1.00  0.00     0.159 C 
ATOM     14  O   UNL     1      17.889  27.806  28.473  1.00  0.00    -0.295 OA
ATOM     15  C   UNL     1      19.934  30.852  29.020  1.00  0.00     0.012 C 
ATOM     16  C   UNL     1      18.674  25.265  27.657  1.00  0.00     0.039 C 
ENDROOT
TORSDOF 0
ENDMDL
