MODEL 1
REMARK VINA RESULT:    -2.779      0.000      0.000
REMARK INTER + INTRA:          -3.316
REMARK INTER:                  -3.917
REMARK INTRA:                   0.601
REMARK UNBOUND:                 0.601
REMARK SMILES CC1=CCC(=C(C)C)C(=O)CC(C)=CCC1
REMARK SMILES IDX 12 1 14 2 13 3 15 4 16 5 2 6 1 7 3 8 11 10 9 11 10 12 5 13
REMARK SMILES IDX 6 14 7 15 8 16 4 17
REMARK H PARENT
REMARK Flexibility Score: 60.00
ROOT
ATOM      1  C   UNL     1      28.221  36.607  20.180  1.00  0.00    -0.070 C 
ATOM      2  C   UNL     1      27.329  36.067  21.044  1.00  0.00    -0.027 C 
ATOM      3  C   UNL     1      28.802  35.699  19.123  1.00  0.00     0.039 C 
ENDROOT
BRANCH   2   4
ATOM      4  C   UNL     1      26.707  36.757  22.233  1.00  0.00     0.032 C 
BRANCH   4   5
ATOM      5  C   UNL     1      25.168  36.775  22.170  1.00  0.00     0.034 C 
BRANCH   5   6
ATOM      6  C   UNL     1      24.655  37.400  20.887  1.00  0.00    -0.077 C 
ATOM      7  C   UNL     1      23.692  36.608  20.039  1.00  0.00     0.039 C 
ATOM      8  C   UNL     1      24.992  38.642  20.470  1.00  0.00    -0.023 CG0
ATOM      9  G   UNL     1      25.909  39.597  21.195  1.00  0.00     0.000 G0
ENDBRANCH   5   6
ENDBRANCH   4   5
ENDBRANCH   2   4
BRANCH   1  10
ATOM     10  C   UNL     1      28.710  38.044  20.257  1.00  0.00     0.111 C 
BRANCH  10  11
ATOM     11  C   UNL     1      27.775  38.989  19.543  1.00  0.00     0.163 C 
ATOM     12  O   UNL     1      27.602  38.828  18.304  1.00  0.00    -0.294 OA
BRANCH  11  13
ATOM     13  C   UNL     1      27.022  40.058  20.271  1.00  0.00    -0.002 C 
ATOM     14  C   UNL     1      27.366  41.377  20.165  1.00  0.00    -0.069 C 
ATOM     15  C   UNL     1      28.572  41.820  19.367  1.00  0.00     0.039 C 
ATOM     16  C   UNL     1      26.576  42.456  20.874  1.00  0.00     0.039 C 
BRANCH  13  17
ATOM     17  C   UNL     1      25.903  39.608  21.192  1.00  0.00     0.066 CG0
ATOM     18  G   UNL     1      24.995  38.646  20.464  1.00  0.00     0.000 G0
ENDBRANCH  13  17
ENDBRANCH  11  13
ENDBRANCH  10  11
ENDBRANCH   1  10
TORSDOF 0
ENDMDL
MODEL 2
REMARK VINA RESULT:    -2.520      1.606      3.879
REMARK INTER + INTRA:          -2.950
REMARK INTER:                  -3.372
REMARK INTRA:                   0.423
REMARK UNBOUND:                 0.601
REMARK SMILES CC1=CCC(=C(C)C)C(=O)CC(C)=CCC1
REMARK SMILES IDX 12 1 14 2 13 3 15 4 16 5 2 6 1 7 3 8 11 10 9 11 10 12 5 13
REMARK SMILES IDX 6 14 7 15 8 16 4 17
REMARK H PARENT
REMARK Flexibility Score: 60.00
ROOT
ATOM      1  C   UNL     1      28.315  37.079  18.811  1.00  0.00    -0.070 C 
ATOM      2  C   UNL     1      29.125  38.106  18.461  1.00  0.00    -0.027 C 
ATOM      3  C   UNL     1      28.886  35.684  18.725  1.00  0.00     0.039 C 
ENDROOT
BRANCH   2   4
ATOM      4  C   UNL     1      28.734  39.561  18.371  1.00  0.00     0.032 C 
BRANCH   4   5
ATOM      5  C   UNL     1      28.603  40.226  19.754  1.00  0.00     0.034 C 
BRANCH   5   6
ATOM      6  C   UNL     1      27.318  41.020  19.888  1.00  0.00    -0.077 C 
ATOM      7  C   UNL     1      27.067  42.147  18.917  1.00  0.00     0.039 C 
ATOM      8  C   UNL     1      26.368  40.759  20.814  1.00  0.00    -0.023 CG0
ATOM      9  G   UNL     1      26.419  39.656  21.844  1.00  0.00     0.000 G0
ENDBRANCH   5   6
ENDBRANCH   4   5
ENDBRANCH   2   4
BRANCH   1  10
ATOM     10  C   UNL     1      26.861  37.249  19.218  1.00  0.00     0.111 C 
BRANCH  10  11
ATOM     11  C   UNL     1      26.715  37.390  20.713  1.00  0.00     0.163 C 
ATOM     12  O   UNL     1      27.434  36.662  21.450  1.00  0.00    -0.294 OA
BRANCH  11  13
ATOM     13  C   UNL     1      25.792  38.395  21.327  1.00  0.00    -0.002 C 
ATOM     14  C   UNL     1      24.438  38.204  21.355  1.00  0.00    -0.069 C 
ATOM     15  C   UNL     1      23.794  37.003  20.701  1.00  0.00     0.039 C 
ATOM     16  C   UNL     1      23.515  39.207  22.012  1.00  0.00     0.039 C 
BRANCH  13  17
ATOM     17  C   UNL     1      26.416  39.675  21.853  1.00  0.00     0.066 CG0
ATOM     18  G   UNL     1      26.367  40.744  20.789  1.00  0.00     0.000 G0
ENDBRANCH  13  17
ENDBRANCH  11  13
ENDBRANCH  10  11
ENDBRANCH   1  10
TORSDOF 0
ENDMDL
MODEL 3
REMARK VINA RESULT:    -2.308      2.939      5.043
REMARK INTER + INTRA:          -2.651
REMARK INTER:                  -3.673
REMARK INTRA:                   1.022
REMARK UNBOUND:                 0.601
REMARK SMILES CC1=CCC(=C(C)C)C(=O)CC(C)=CCC1
REMARK SMILES IDX 12 1 14 2 13 3 15 4 16 5 2 6 1 7 3 8 11 10 9 11 10 12 5 13
REMARK SMILES IDX 6 14 7 15 8 16 4 17
REMARK H PARENT
REMARK Flexibility Score: 60.00
ROOT
ATOM      1  C   UNL     1      24.140  37.335  21.885  1.00  0.00    -0.070 C 
ATOM      2  C   UNL     1      24.464  36.805  23.089  1.00  0.00    -0.027 C 
ATOM      3  C   UNL     1      23.286  38.579  21.881  1.00  0.00     0.039 C 
ENDROOT
BRANCH   2   4
ATOM      4  C   UNL     1      25.213  35.517  23.325  1.00  0.00     0.032 C 
BRANCH   4   5
ATOM      5  C   UNL     1      26.628  35.748  23.890  1.00  0.00     0.034 C 
BRANCH   5   6
ATOM      6  C   UNL     1      27.656  34.837  23.248  1.00  0.00    -0.077 C 
ATOM      7  C   UNL     1      27.959  33.518  23.914  1.00  0.00     0.039 C 
ATOM      8  C   UNL     1      28.301  35.127  22.096  1.00  0.00    -0.023 CG0
ATOM      9  G   UNL     1      28.109  36.375  21.267  1.00  0.00     0.000 G0
ENDBRANCH   5   6
ENDBRANCH   4   5
ENDBRANCH   2   4
BRANCH   1  10
ATOM     10  C   UNL     1      24.531  36.714  20.555  1.00  0.00     0.111 C 
BRANCH  10  11
ATOM     11  C   UNL     1      25.932  37.103  20.151  1.00  0.00     0.163 C 
ATOM     12  O   UNL     1      26.139  38.298  19.803  1.00  0.00    -0.294 OA
BRANCH  11  13
ATOM     13  C   UNL     1      27.070  36.133  20.204  1.00  0.00    -0.002 C 
ATOM     14  C   UNL     1      27.125  35.045  19.378  1.00  0.00    -0.069 C 
ATOM     15  C   UNL     1      26.003  34.721  18.417  1.00  0.00     0.039 C 
ATOM     16  C   UNL     1      28.298  34.089  19.411  1.00  0.00     0.039 C 
BRANCH  13  17
ATOM     17  C   UNL     1      28.127  36.367  21.267  1.00  0.00     0.066 CG0
ATOM     18  G   UNL     1      28.318  35.112  22.085  1.00  0.00     0.000 G0
ENDBRANCH  13  17
ENDBRANCH  11  13
ENDBRANCH  10  11
ENDBRANCH   1  10
TORSDOF 0
ENDMDL
MODEL 4
REMARK VINA RESULT:    -2.058      1.623      4.339
REMARK INTER + INTRA:          -2.299
REMARK INTER:                  -3.282
REMARK INTRA:                   0.983
REMARK UNBOUND:                 0.601
REMARK SMILES CC1=CCC(=C(C)C)C(=O)CC(C)=CCC1
REMARK SMILES IDX 12 1 14 2 13 3 15 4 16 5 2 6 1 7 3 8 11 10 9 11 10 12 5 13
REMARK SMILES IDX 6 14 7 15 8 16 4 17
REMARK H PARENT
REMARK Flexibility Score: 60.00
ROOT
ATOM      1  C   UNL     1      28.482  40.110  17.758  1.00  0.00    -0.070 C 
ATOM      2  C   UNL     1      29.093  41.223  18.229  1.00  0.00    -0.027 C 
ATOM      3  C   UNL     1      29.125  39.407  16.587  1.00  0.00     0.039 C 
ENDROOT
BRANCH   2   4
ATOM      4  C   UNL     1      28.574  42.135  19.314  1.00  0.00     0.032 C 
BRANCH   4   5
ATOM      5  C   UNL     1      28.322  41.394  20.641  1.00  0.00     0.034 C 
BRANCH   5   6
ATOM      6  C   UNL     1      26.863  41.442  21.054  1.00  0.00    -0.077 C 
ATOM      7  C   UNL     1      26.122  42.748  20.914  1.00  0.00     0.039 C 
ATOM      8  C   UNL     1      26.180  40.372  21.519  1.00  0.00    -0.023 CG0
ATOM      9  G   UNL     1      26.735  38.979  21.696  1.00  0.00     0.000 G0
ENDBRANCH   5   6
ENDBRANCH   4   5
ENDBRANCH   2   4
BRANCH   1  10
ATOM     10  C   UNL     1      27.165  39.575  18.297  1.00  0.00     0.111 C 
BRANCH  10  11
ATOM     11  C   UNL     1      27.382  38.426  19.251  1.00  0.00     0.163 C 
ATOM     12  O   UNL     1      28.390  37.690  19.074  1.00  0.00    -0.294 OA
BRANCH  11  13
ATOM     13  C   UNL     1      26.471  38.178  20.412  1.00  0.00    -0.002 C 
ATOM     14  C   UNL     1      25.406  37.324  20.321  1.00  0.00    -0.069 C 
ATOM     15  C   UNL     1      25.048  36.640  19.021  1.00  0.00     0.039 C 
ATOM     16  C   UNL     1      24.513  37.050  21.511  1.00  0.00     0.039 C 
BRANCH  13  17
ATOM     17  C   UNL     1      26.733  38.974  21.677  1.00  0.00     0.066 CG0
ATOM     18  G   UNL     1      26.174  40.369  21.530  1.00  0.00     0.000 G0
ENDBRANCH  13  17
ENDBRANCH  11  13
ENDBRANCH  10  11
ENDBRANCH   1  10
TORSDOF 0
ENDMDL
MODEL 5
REMARK VINA RESULT:    -1.746      2.645      4.340
REMARK INTER + INTRA:          -1.860
REMARK INTER:                  -2.401
REMARK INTRA:                   0.541
REMARK UNBOUND:                 0.601
REMARK SMILES CC1=CCC(=C(C)C)C(=O)CC(C)=CCC1
REMARK SMILES IDX 12 1 14 2 13 3 15 4 16 5 2 6 1 7 3 8 11 10 9 11 10 12 5 13
REMARK SMILES IDX 6 14 7 15 8 16 4 17
REMARK H PARENT
REMARK Flexibility Score: 60.00
ROOT
ATOM      1  C   UNL     1      24.172  36.109  18.310  1.00  0.00    -0.070 C 
ATOM      2  C   UNL     1      23.203  36.456  19.191  1.00  0.00    -0.027 C 
ATOM      3  C   UNL     1      23.901  36.357  16.846  1.00  0.00     0.039 C 
ENDROOT
BRANCH   2   4
ATOM      4  C   UNL     1      23.217  36.203  20.679  1.00  0.00     0.032 C 
BRANCH   4   5
ATOM      5  C   UNL     1      24.027  37.261  21.452  1.00  0.00     0.034 C 
BRANCH   5   6
ATOM      6  C   UNL     1      24.894  36.641  22.530  1.00  0.00    -0.077 C 
ATOM      7  C   UNL     1      24.216  35.932  23.676  1.00  0.00     0.039 C 
ATOM      8  C   UNL     1      26.246  36.665  22.512  1.00  0.00    -0.023 CG0
ATOM      9  G   UNL     1      27.103  37.292  21.439  1.00  0.00     0.000 G0
ENDBRANCH   5   6
ENDBRANCH   4   5
ENDBRANCH   2   4
BRANCH   1  10
ATOM     10  C   UNL     1      25.473  35.431  18.707  1.00  0.00     0.111 C 
BRANCH  10  11
ATOM     11  C   UNL     1      26.534  36.439  19.075  1.00  0.00     0.163 C 
ATOM     12  O   UNL     1      26.681  37.445  18.329  1.00  0.00    -0.294 OA
BRANCH  11  13
ATOM     13  C   UNL     1      27.363  36.300  20.313  1.00  0.00    -0.002 C 
ATOM     14  C   UNL     1      28.262  35.280  20.464  1.00  0.00    -0.069 C 
ATOM     15  C   UNL     1      28.414  34.196  19.421  1.00  0.00     0.039 C 
ATOM     16  C   UNL     1      29.124  35.168  21.703  1.00  0.00     0.039 C 
BRANCH  13  17
ATOM     17  C   UNL     1      27.110  37.297  21.429  1.00  0.00     0.066 CG0
ATOM     18  G   UNL     1      26.252  36.664  22.497  1.00  0.00     0.000 G0
ENDBRANCH  13  17
ENDBRANCH  11  13
ENDBRANCH  10  11
ENDBRANCH   1  10
TORSDOF 0
ENDMDL
MODEL 6
REMARK VINA RESULT:    -1.666      1.517      3.831
REMARK INTER + INTRA:          -1.747
REMARK INTER:                  -3.076
REMARK INTRA:                   1.330
REMARK UNBOUND:                 0.601
REMARK SMILES CC1=CCC(=C(C)C)C(=O)CC(C)=CCC1
REMARK SMILES IDX 12 1 14 2 13 3 15 4 16 5 2 6 1 7 3 8 11 10 9 11 10 12 5 13
REMARK SMILES IDX 6 14 7 15 8 16 4 17
REMARK H PARENT
REMARK Flexibility Score: 60.00
ROOT
ATOM      1  C   UNL     1      27.958  40.010  21.117  1.00  0.00    -0.070 C 
ATOM      2  C   UNL     1      26.706  40.363  21.493  1.00  0.00    -0.027 C 
ATOM      3  C   UNL     1      29.110  40.610  21.886  1.00  0.00     0.039 C 
ENDROOT
BRANCH   2   4
ATOM      4  C   UNL     1      25.422  39.970  20.804  1.00  0.00     0.032 C 
BRANCH   4   5
ATOM      5  C   UNL     1      24.412  39.311  21.763  1.00  0.00     0.034 C 
BRANCH   5   6
ATOM      6  C   UNL     1      24.078  37.890  21.353  1.00  0.00    -0.077 C 
ATOM      7  C   UNL     1      22.730  37.622  20.730  1.00  0.00     0.039 C 
ATOM      8  C   UNL     1      24.930  36.848  21.490  1.00  0.00    -0.023 CG0
ATOM      9  G   UNL     1      26.328  36.922  22.054  1.00  0.00     0.000 G0
ENDBRANCH   5   6
ENDBRANCH   4   5
ENDBRANCH   2   4
BRANCH   1  10
ATOM     10  C   UNL     1      28.262  39.105  19.934  1.00  0.00     0.111 C 
BRANCH  10  11
ATOM     11  C   UNL     1      27.326  37.923  19.884  1.00  0.00     0.163 C 
ATOM     12  O   UNL     1      26.528  37.839  18.911  1.00  0.00    -0.294 OA
BRANCH  11  13
ATOM     13  C   UNL     1      27.360  36.842  20.918  1.00  0.00    -0.002 C 
ATOM     14  C   UNL     1      28.216  35.779  20.818  1.00  0.00    -0.069 C 
ATOM     15  C   UNL     1      29.121  35.601  19.619  1.00  0.00     0.039 C 
ATOM     16  C   UNL     1      28.271  34.710  21.887  1.00  0.00     0.039 C 
BRANCH  13  17
ATOM     17  C   UNL     1      26.351  36.934  22.048  1.00  0.00     0.066 CG0
ATOM     18  G   UNL     1      24.950  36.858  21.491  1.00  0.00     0.000 G0
ENDBRANCH  13  17
ENDBRANCH  11  13
ENDBRANCH  10  11
ENDBRANCH   1  10
TORSDOF 0
ENDMDL
MODEL 7
REMARK VINA RESULT:    -1.628      1.671      2.752
REMARK INTER + INTRA:          -1.693
REMARK INTER:                  -2.762
REMARK INTRA:                   1.069
REMARK UNBOUND:                 0.601
REMARK SMILES CC1=CCC(=C(C)C)C(=O)CC(C)=CCC1
REMARK SMILES IDX 12 1 14 2 13 3 15 4 16 5 2 6 1 7 3 8 11 10 9 11 10 12 5 13
REMARK SMILES IDX 6 14 7 15 8 16 4 17
REMARK H PARENT
REMARK Flexibility Score: 60.00
ROOT
ATOM      1  C   UNL     1      24.659  36.412  18.279  1.00  0.00    -0.070 C 
ATOM      2  C   UNL     1      23.725  36.050  19.191  1.00  0.00    -0.027 C 
ATOM      3  C   UNL     1      24.244  36.430  16.828  1.00  0.00     0.039 C 
ENDROOT
BRANCH   2   4
ATOM      4  C   UNL     1      23.947  35.864  20.671  1.00  0.00     0.032 C 
BRANCH   4   5
ATOM      5  C   UNL     1      24.138  37.199  21.415  1.00  0.00     0.034 C 
BRANCH   5   6
ATOM      6  C   UNL     1      25.551  37.363  21.942  1.00  0.00    -0.077 C 
ATOM      7  C   UNL     1      26.050  36.380  22.972  1.00  0.00     0.039 C 
ATOM      8  C   UNL     1      26.402  38.326  21.522  1.00  0.00    -0.023 CG0
ATOM      9  G   UNL     1      26.101  39.375  20.478  1.00  0.00     0.000 G0
ENDBRANCH   5   6
ENDBRANCH   4   5
ENDBRANCH   2   4
BRANCH   1  10
ATOM     10  C   UNL     1      26.102  36.734  18.630  1.00  0.00     0.111 C 
BRANCH  10  11
ATOM     11  C   UNL     1      26.466  38.146  18.242  1.00  0.00     0.163 C 
ATOM     12  O   UNL     1      26.299  38.494  17.042  1.00  0.00    -0.294 OA
BRANCH  11  13
ATOM     13  C   UNL     1      26.962  39.140  19.245  1.00  0.00    -0.002 C 
ATOM     14  C   UNL     1      28.168  39.768  19.099  1.00  0.00    -0.069 C 
ATOM     15  C   UNL     1      29.100  39.437  17.955  1.00  0.00     0.039 C 
ATOM     16  C   UNL     1      28.645  40.799  20.098  1.00  0.00     0.039 C 
BRANCH  13  17
ATOM     17  C   UNL     1      26.101  39.368  20.474  1.00  0.00     0.066 CG0
ATOM     18  G   UNL     1      26.412  38.323  21.518  1.00  0.00     0.000 G0
ENDBRANCH  13  17
ENDBRANCH  11  13
ENDBRANCH  10  11
ENDBRANCH   1  10
TORSDOF 0
ENDMDL
MODEL 8
REMARK VINA RESULT:    -1.595     11.322     13.519
REMARK INTER + INTRA:          -1.647
REMARK INTER:                  -3.371
REMARK INTRA:                   1.724
REMARK UNBOUND:                 0.601
REMARK SMILES CC1=CCC(=C(C)C)C(=O)CC(C)=CCC1
REMARK SMILES IDX 12 1 14 2 13 3 15 4 16 5 2 6 1 7 3 8 11 10 9 11 10 12 5 13
REMARK SMILES IDX 6 14 7 15 8 16 4 17
REMARK H PARENT
REMARK Flexibility Score: 60.00
ROOT
ATOM      1  C   UNL     1      27.305  25.148  26.132  1.00  0.00    -0.070 C 
ATOM      2  C   UNL     1      28.267  25.981  25.667  1.00  0.00    -0.027 C 
ATOM      3  C   UNL     1      26.733  24.140  25.166  1.00  0.00     0.039 C 
ENDROOT
BRANCH   2   4
ATOM      4  C   UNL     1      28.899  27.125  26.421  1.00  0.00     0.032 C 
BRANCH   4   5
ATOM      5  C   UNL     1      28.712  28.479  25.710  1.00  0.00     0.034 C 
BRANCH   5   6
ATOM      6  C   UNL     1      27.301  28.660  25.187  1.00  0.00    -0.077 C 
ATOM      7  C   UNL     1      27.114  28.969  23.722  1.00  0.00     0.039 C 
ATOM      8  C   UNL     1      26.194  28.535  25.954  1.00  0.00    -0.023 CG0
ATOM      9  G   UNL     1      26.174  28.196  27.425  1.00  0.00     0.000 G0
ENDBRANCH   5   6
ENDBRANCH   4   5
ENDBRANCH   2   4
BRANCH   1  10
ATOM     10  C   UNL     1      26.733  25.219  27.538  1.00  0.00     0.111 C 
BRANCH  10  11
ATOM     11  C   UNL     1      25.324  25.758  27.538  1.00  0.00     0.163 C 
ATOM     12  O   UNL     1      24.374  24.935  27.431  1.00  0.00    -0.294 OA
BRANCH  11  13
ATOM     13  C   UNL     1      25.033  27.216  27.712  1.00  0.00    -0.002 C 
ATOM     14  C   UNL     1      23.786  27.664  28.052  1.00  0.00    -0.069 C 
ATOM     15  C   UNL     1      22.616  26.718  28.196  1.00  0.00     0.039 C 
ATOM     16  C   UNL     1      23.510  29.137  28.264  1.00  0.00     0.039 C 
BRANCH  13  17
ATOM     17  C   UNL     1      26.165  28.184  27.424  1.00  0.00     0.066 CG0
ATOM     18  G   UNL     1      26.182  28.530  25.954  1.00  0.00     0.000 G0
ENDBRANCH  13  17
ENDBRANCH  11  13
ENDBRANCH  10  11
ENDBRANCH   1  10
TORSDOF 0
ENDMDL
MODEL 9
REMARK VINA RESULT:    -1.394     11.572     13.661
REMARK INTER + INTRA:          -1.364
REMARK INTER:                  -4.049
REMARK INTRA:                   2.685
REMARK UNBOUND:                 0.601
REMARK SMILES CC1=CCC(=C(C)C)C(=O)CC(C)=CCC1
REMARK SMILES IDX 12 1 14 2 13 3 15 4 16 5 2 6 1 7 3 8 11 10 9 11 10 12 5 13
REMARK SMILES IDX 6 14 7 15 8 16 4 17
REMARK H PARENT
REMARK Flexibility Score: 60.00
ROOT
ATOM      1  C   UNL     1      23.601  26.237  27.988  1.00  0.00    -0.070 C 
ATOM      2  C   UNL     1      23.622  24.929  27.638  1.00  0.00    -0.027 C 
ATOM      3  C   UNL     1      22.257  26.922  28.037  1.00  0.00     0.039 C 
ENDROOT
BRANCH   2   4
ATOM      4  C   UNL     1      24.852  24.081  27.424  1.00  0.00     0.032 C 
BRANCH   4   5
ATOM      5  C   UNL     1      26.159  24.864  27.652  1.00  0.00     0.034 C 
BRANCH   5   6
ATOM      6  C   UNL     1      26.929  25.078  26.363  1.00  0.00    -0.077 C 
ATOM      7  C   UNL     1      27.046  23.924  25.398  1.00  0.00     0.039 C 
ATOM      8  C   UNL     1      27.498  26.255  26.015  1.00  0.00    -0.023 CG0
ATOM      9  G   UNL     1      27.459  27.527  26.826  1.00  0.00     0.000 G0
ENDBRANCH   5   6
ENDBRANCH   4   5
ENDBRANCH   2   4
BRANCH   1  10
ATOM     10  C   UNL     1      24.850  27.058  28.267  1.00  0.00     0.111 C 
BRANCH  10  11
ATOM     11  C   UNL     1      25.001  28.191  27.282  1.00  0.00     0.163 C 
ATOM     12  O   UNL     1      24.073  29.042  27.210  1.00  0.00    -0.294 OA
BRANCH  11  13
ATOM     13  C   UNL     1      26.230  28.353  26.443  1.00  0.00    -0.002 C 
ATOM     14  C   UNL     1      26.242  29.154  25.335  1.00  0.00    -0.069 C 
ATOM     15  C   UNL     1      24.995  29.861  24.854  1.00  0.00     0.039 C 
ATOM     16  C   UNL     1      27.499  29.342  24.514  1.00  0.00     0.039 C 
BRANCH  13  17
ATOM     17  C   UNL     1      27.444  27.530  26.832  1.00  0.00     0.066 CG0
ATOM     18  G   UNL     1      27.492  26.266  26.007  1.00  0.00     0.000 G0
ENDBRANCH  13  17
ENDBRANCH  11  13
ENDBRANCH  10  11
ENDBRANCH   1  10
TORSDOF 0
ENDMDL
