MODEL 1
REMARK VINA RESULT:    -3.981      0.000      0.000
REMARK INTER + INTRA:          -9.352
REMARK INTER:                  -7.240
REMARK INTRA:                  -2.112
REMARK UNBOUND:                -2.112
REMARK SMILES CCCCCC=CCC=CCCCCCCCC(=O)[O-]
REMARK SMILES IDX 11 1 12 2 13 3 14 4 15 5 16 6 17 7 18 8 19 9 20 10 10 11
REMARK SMILES IDX 9 12 8 13 7 14 6 15 5 16 4 17 3 18 2 19 1 20
REMARK H PARENT
REMARK Flexibility Score: inf
ROOT
ATOM      1  C   UNL     1      16.436  12.341  31.125  1.00  0.00     0.027 C 
ENDROOT
BRANCH   1   2
ATOM      2  C   UNL     1      17.369  12.790  32.256  1.00  0.00     0.004 C 
BRANCH   2   3
ATOM      3  C   UNL     1      17.875  14.229  32.049  1.00  0.00     0.000 C 
BRANCH   3   4
ATOM      4  C   UNL     1      17.792  14.683  30.583  1.00  0.00     0.000 C 
BRANCH   4   5
ATOM      5  C   UNL     1      16.885  15.905  30.331  1.00  0.00     0.000 C 
BRANCH   5   6
ATOM      6  C   UNL     1      15.784  15.657  29.279  1.00  0.00     0.006 C 
BRANCH   6   7
ATOM      7  C   UNL     1      16.248  14.717  28.159  1.00  0.00     0.053 C 
BRANCH   7   8
ATOM      8  C   UNL     1      16.803  15.502  27.013  1.00  0.00     0.041 C 
ATOM      9  O   UNL     1      16.042  16.219  26.310  1.00  0.00    -0.550 OA
ATOM     10  O   UNL     1      18.149  15.403  26.689  1.00  0.00    -0.550 OA
ENDBRANCH   7   8
ENDBRANCH   6   7
ENDBRANCH   5   6
ENDBRANCH   4   5
ENDBRANCH   3   4
ENDBRANCH   2   3
ENDBRANCH   1   2
BRANCH   1  11
ATOM     11  C   UNL     1      14.991  12.584  31.470  1.00  0.00    -0.031 C 
ATOM     12  C   UNL     1      14.302  11.743  32.255  1.00  0.00    -0.027 C 
BRANCH  12  13
ATOM     13  C   UNL     1      12.870  12.012  32.628  1.00  0.00     0.054 C 
BRANCH  13  14
ATOM     14  C   UNL     1      12.391  13.310  32.040  1.00  0.00    -0.027 C 
ATOM     15  C   UNL     1      11.091  13.642  32.044  1.00  0.00    -0.031 C 
BRANCH  15  16
ATOM     16  C   UNL     1      10.606  14.939  31.456  1.00  0.00     0.027 C 
BRANCH  16  17
ATOM     17  C   UNL     1      11.297  15.282  30.124  1.00  0.00     0.004 C 
BRANCH  17  18
ATOM     18  C   UNL     1      10.585  14.721  28.881  1.00  0.00     0.000 C 
BRANCH  18  19
ATOM     19  C   UNL     1      11.220  13.420  28.368  1.00  0.00    -0.003 C 
ATOM     20  C   UNL     1      12.742  13.530  28.329  1.00  0.00     0.004 C 
ENDBRANCH  18  19
ENDBRANCH  17  18
ENDBRANCH  16  17
ENDBRANCH  15  16
ENDBRANCH  13  14
ENDBRANCH  12  13
ENDBRANCH   1  11
TORSDOF 14
ENDMDL
MODEL 2
REMARK VINA RESULT:    -3.860      2.779      6.741
REMARK INTER + INTRA:          -9.131
REMARK INTER:                  -6.871
REMARK INTRA:                  -2.259
REMARK UNBOUND:                -2.112
REMARK SMILES CCCCCC=CCC=CCCCCCCCC(=O)[O-]
REMARK SMILES IDX 11 1 12 2 13 3 14 4 15 5 16 6 17 7 18 8 19 9 20 10 10 11
REMARK SMILES IDX 9 12 8 13 7 14 6 15 5 16 4 17 3 18 2 19 1 20
REMARK H PARENT
REMARK Flexibility Score: inf
ROOT
ATOM      1  C   UNL     1      16.101  14.402  25.674  1.00  0.00     0.027 C 
ENDROOT
BRANCH   1   2
ATOM      2  C   UNL     1      14.754  13.947  25.100  1.00  0.00     0.004 C 
BRANCH   2   3
ATOM      3  C   UNL     1      14.203  12.711  25.833  1.00  0.00     0.000 C 
BRANCH   3   4
ATOM      4  C   UNL     1      12.982  13.035  26.709  1.00  0.00     0.000 C 
BRANCH   4   5
ATOM      5  C   UNL     1      13.238  12.979  28.228  1.00  0.00     0.000 C 
BRANCH   5   6
ATOM      6  C   UNL     1      13.097  14.344  28.934  1.00  0.00     0.006 C 
BRANCH   6   7
ATOM      7  C   UNL     1      12.533  14.210  30.354  1.00  0.00     0.053 C 
BRANCH   7   8
ATOM      8  C   UNL     1      11.219  14.916  30.465  1.00  0.00     0.041 C 
ATOM      9  O   UNL     1      10.668  15.054  31.589  1.00  0.00    -0.550 OA
ATOM     10  O   UNL     1      10.578  15.375  29.323  1.00  0.00    -0.550 OA
ENDBRANCH   7   8
ENDBRANCH   6   7
ENDBRANCH   5   6
ENDBRANCH   4   5
ENDBRANCH   3   4
ENDBRANCH   2   3
ENDBRANCH   1   2
BRANCH   1  11
ATOM     11  C   UNL     1      15.919  15.323  26.850  1.00  0.00    -0.031 C 
ATOM     12  C   UNL     1      16.550  15.113  28.015  1.00  0.00    -0.027 C 
BRANCH  12  13
ATOM     13  C   UNL     1      16.394  16.058  29.174  1.00  0.00     0.054 C 
BRANCH  13  14
ATOM     14  C   UNL     1      16.778  15.398  30.468  1.00  0.00    -0.027 C 
ATOM     15  C   UNL     1      16.717  14.066  30.619  1.00  0.00    -0.031 C 
BRANCH  15  16
ATOM     16  C   UNL     1      17.099  13.399  31.913  1.00  0.00     0.027 C 
BRANCH  16  17
ATOM     17  C   UNL     1      18.588  13.580  32.256  1.00  0.00     0.004 C 
BRANCH  17  18
ATOM     18  C   UNL     1      19.552  12.967  31.224  1.00  0.00     0.000 C 
BRANCH  18  19
ATOM     19  C   UNL     1      20.321  14.030  30.425  1.00  0.00    -0.003 C 
ATOM     20  C   UNL     1      20.030  13.912  28.932  1.00  0.00     0.004 C 
ENDBRANCH  18  19
ENDBRANCH  17  18
ENDBRANCH  16  17
ENDBRANCH  15  16
ENDBRANCH  13  14
ENDBRANCH  12  13
ENDBRANCH   1  11
TORSDOF 14
ENDMDL
MODEL 3
REMARK VINA RESULT:    -3.851      2.881      6.057
REMARK INTER + INTRA:          -9.114
REMARK INTER:                  -7.040
REMARK INTRA:                  -2.075
REMARK UNBOUND:                -2.112
REMARK SMILES CCCCCC=CCC=CCCCCCCCC(=O)[O-]
REMARK SMILES IDX 11 1 12 2 13 3 14 4 15 5 16 6 17 7 18 8 19 9 20 10 10 11
REMARK SMILES IDX 9 12 8 13 7 14 6 15 5 16 4 17 3 18 2 19 1 20
REMARK H PARENT
REMARK Flexibility Score: inf
ROOT
ATOM      1  C   UNL     1      18.536  14.331  30.161  1.00  0.00     0.027 C 
ENDROOT
BRANCH   1   2
ATOM      2  C   UNL     1      17.293  14.928  30.831  1.00  0.00     0.004 C 
BRANCH   2   3
ATOM      3  C   UNL     1      16.459  15.774  29.852  1.00  0.00     0.000 C 
BRANCH   3   4
ATOM      4  C   UNL     1      15.139  15.094  29.453  1.00  0.00     0.000 C 
BRANCH   4   5
ATOM      5  C   UNL     1      14.760  13.863  30.301  1.00  0.00     0.000 C 
BRANCH   5   6
ATOM      6  C   UNL     1      13.287  13.429  30.144  1.00  0.00     0.006 C 
BRANCH   6   7
ATOM      7  C   UNL     1      12.551  14.241  29.071  1.00  0.00     0.053 C 
BRANCH   7   8
ATOM      8  C   UNL     1      11.345  14.906  29.652  1.00  0.00     0.041 C 
ATOM      9  O   UNL     1      10.459  15.384  28.895  1.00  0.00    -0.550 OA
ATOM     10  O   UNL     1      11.222  15.045  31.028  1.00  0.00    -0.550 OA
ENDBRANCH   7   8
ENDBRANCH   6   7
ENDBRANCH   5   6
ENDBRANCH   4   5
ENDBRANCH   3   4
ENDBRANCH   2   3
ENDBRANCH   1   2
BRANCH   1  11
ATOM     11  C   UNL     1      18.946  15.123  28.949  1.00  0.00    -0.031 C 
ATOM     12  C   UNL     1      18.881  14.606  27.713  1.00  0.00    -0.027 C 
BRANCH  12  13
ATOM     13  C   UNL     1      19.255  15.416  26.502  1.00  0.00     0.054 C 
BRANCH  13  14
ATOM     14  C   UNL     1      18.147  15.419  25.487  1.00  0.00    -0.027 C 
ATOM     15  C   UNL     1      16.987  16.052  25.720  1.00  0.00    -0.031 C 
BRANCH  15  16
ATOM     16  C   UNL     1      15.873  16.057  24.708  1.00  0.00     0.027 C 
BRANCH  16  17
ATOM     17  C   UNL     1      15.633  14.670  24.085  1.00  0.00     0.004 C 
BRANCH  17  18
ATOM     18  C   UNL     1      14.348  13.975  24.569  1.00  0.00     0.000 C 
BRANCH  18  19
ATOM     19  C   UNL     1      14.438  13.511  26.030  1.00  0.00    -0.003 C 
ATOM     20  C   UNL     1      15.675  12.647  26.257  1.00  0.00     0.004 C 
ENDBRANCH  18  19
ENDBRANCH  17  18
ENDBRANCH  16  17
ENDBRANCH  15  16
ENDBRANCH  13  14
ENDBRANCH  12  13
ENDBRANCH   1  11
TORSDOF 14
ENDMDL
MODEL 4
REMARK VINA RESULT:    -3.810      2.479      5.364
REMARK INTER + INTRA:          -9.040
REMARK INTER:                  -7.191
REMARK INTRA:                  -1.849
REMARK UNBOUND:                -2.112
REMARK SMILES CCCCCC=CCC=CCCCCCCCC(=O)[O-]
REMARK SMILES IDX 11 1 12 2 13 3 14 4 15 5 16 6 17 7 18 8 19 9 20 10 10 11
REMARK SMILES IDX 9 12 8 13 7 14 6 15 5 16 4 17 3 18 2 19 1 20
REMARK H PARENT
REMARK Flexibility Score: inf
ROOT
ATOM      1  C   UNL     1      15.691  10.780  32.996  1.00  0.00     0.027 C 
ENDROOT
BRANCH   1   2
ATOM      2  C   UNL     1      14.329  11.266  33.507  1.00  0.00     0.004 C 
BRANCH   2   3
ATOM      3  C   UNL     1      13.295  11.381  32.374  1.00  0.00     0.000 C 
BRANCH   3   4
ATOM      4  C   UNL     1      12.404  12.628  32.506  1.00  0.00     0.000 C 
BRANCH   4   5
ATOM      5  C   UNL     1      12.691  13.744  31.482  1.00  0.00     0.000 C 
BRANCH   5   6
ATOM      6  C   UNL     1      13.102  13.221  30.089  1.00  0.00     0.006 C 
BRANCH   6   7
ATOM      7  C   UNL     1      12.659  14.160  28.960  1.00  0.00     0.053 C 
BRANCH   7   8
ATOM      8  C   UNL     1      11.167  14.238  28.897  1.00  0.00     0.041 C 
ATOM      9  O   UNL     1      10.592  15.358  28.876  1.00  0.00    -0.550 OA
ATOM     10  O   UNL     1      10.409  13.075  28.915  1.00  0.00    -0.550 OA
ENDBRANCH   7   8
ENDBRANCH   6   7
ENDBRANCH   5   6
ENDBRANCH   4   5
ENDBRANCH   3   4
ENDBRANCH   2   3
ENDBRANCH   1   2
BRANCH   1  11
ATOM     11  C   UNL     1      16.706  11.891  32.981  1.00  0.00    -0.031 C 
ATOM     12  C   UNL     1      16.741  12.801  31.996  1.00  0.00    -0.027 C 
BRANCH  12  13
ATOM     13  C   UNL     1      17.733  13.931  32.007  1.00  0.00     0.054 C 
BRANCH  13  14
ATOM     14  C   UNL     1      17.403  14.953  30.955  1.00  0.00    -0.027 C 
ATOM     15  C   UNL     1      16.273  14.876  30.235  1.00  0.00    -0.031 C 
BRANCH  15  16
ATOM     16  C   UNL     1      15.939  15.894  29.179  1.00  0.00     0.027 C 
BRANCH  16  17
ATOM     17  C   UNL     1      15.980  15.309  27.756  1.00  0.00     0.004 C 
BRANCH  17  18
ATOM     18  C   UNL     1      17.398  15.151  27.179  1.00  0.00     0.000 C 
BRANCH  18  19
ATOM     19  C   UNL     1      17.534  15.739  25.767  1.00  0.00    -0.003 C 
ATOM     20  C   UNL     1      16.229  16.388  25.314  1.00  0.00     0.004 C 
ENDBRANCH  18  19
ENDBRANCH  17  18
ENDBRANCH  16  17
ENDBRANCH  15  16
ENDBRANCH  13  14
ENDBRANCH  12  13
ENDBRANCH   1  11
TORSDOF 14
ENDMDL
MODEL 5
REMARK VINA RESULT:    -3.796      1.678      2.348
REMARK INTER + INTRA:          -9.016
REMARK INTER:                  -6.223
REMARK INTRA:                  -2.792
REMARK UNBOUND:                -2.112
REMARK SMILES CCCCCC=CCC=CCCCCCCCC(=O)[O-]
REMARK SMILES IDX 11 1 12 2 13 3 14 4 15 5 16 6 17 7 18 8 19 9 20 10 10 11
REMARK SMILES IDX 9 12 8 13 7 14 6 15 5 16 4 17 3 18 2 19 1 20
REMARK H PARENT
REMARK Flexibility Score: inf
ROOT
ATOM      1  C   UNL     1      17.246  13.697  31.452  1.00  0.00     0.027 C 
ENDROOT
BRANCH   1   2
ATOM      2  C   UNL     1      17.709  14.808  30.501  1.00  0.00     0.004 C 
BRANCH   2   3
ATOM      3  C   UNL     1      16.560  15.761  30.126  1.00  0.00     0.000 C 
BRANCH   3   4
ATOM      4  C   UNL     1      16.215  15.714  28.628  1.00  0.00     0.000 C 
BRANCH   4   5
ATOM      5  C   UNL     1      14.942  14.918  28.279  1.00  0.00     0.000 C 
BRANCH   5   6
ATOM      6  C   UNL     1      15.170  13.805  27.234  1.00  0.00     0.006 C 
BRANCH   6   7
ATOM      7  C   UNL     1      15.366  12.429  27.883  1.00  0.00     0.053 C 
BRANCH   7   8
ATOM      8  C   UNL     1      16.823  12.120  28.024  1.00  0.00     0.041 C 
ATOM      9  O   UNL     1      17.207  11.245  28.846  1.00  0.00    -0.550 OA
ATOM     10  O   UNL     1      17.760  12.831  27.288  1.00  0.00    -0.550 OA
ENDBRANCH   7   8
ENDBRANCH   6   7
ENDBRANCH   5   6
ENDBRANCH   4   5
ENDBRANCH   3   4
ENDBRANCH   2   3
ENDBRANCH   1   2
BRANCH   1  11
ATOM     11  C   UNL     1      15.758  13.487  31.376  1.00  0.00    -0.031 C 
ATOM     12  C   UNL     1      15.200  12.295  31.635  1.00  0.00    -0.027 C 
BRANCH  12  13
ATOM     13  C   UNL     1      13.709  12.102  31.595  1.00  0.00     0.054 C 
BRANCH  13  14
ATOM     14  C   UNL     1      13.003  13.390  31.275  1.00  0.00    -0.027 C 
ATOM     15  C   UNL     1      11.714  13.580  31.597  1.00  0.00    -0.031 C 
BRANCH  15  16
ATOM     16  C   UNL     1      11.002  14.867  31.277  1.00  0.00     0.027 C 
BRANCH  16  17
ATOM     17  C   UNL     1      11.051  15.215  29.779  1.00  0.00     0.004 C 
BRANCH  17  18
ATOM     18  C   UNL     1      10.134  14.347  28.899  1.00  0.00     0.000 C 
BRANCH  18  19
ATOM     19  C   UNL     1      10.835  13.836  27.633  1.00  0.00    -0.003 C 
ATOM     20  C   UNL     1      11.657  12.583  27.926  1.00  0.00     0.004 C 
ENDBRANCH  18  19
ENDBRANCH  17  18
ENDBRANCH  16  17
ENDBRANCH  15  16
ENDBRANCH  13  14
ENDBRANCH  12  13
ENDBRANCH   1  11
TORSDOF 14
ENDMDL
MODEL 6
REMARK VINA RESULT:    -3.792      2.449      5.299
REMARK INTER + INTRA:          -9.007
REMARK INTER:                  -6.726
REMARK INTRA:                  -2.281
REMARK UNBOUND:                -2.112
REMARK SMILES CCCCCC=CCC=CCCCCCCCC(=O)[O-]
REMARK SMILES IDX 11 1 12 2 13 3 14 4 15 5 16 6 17 7 18 8 19 9 20 10 10 11
REMARK SMILES IDX 9 12 8 13 7 14 6 15 5 16 4 17 3 18 2 19 1 20
REMARK H PARENT
REMARK Flexibility Score: inf
ROOT
ATOM      1  C   UNL     1      17.760  13.296  32.375  1.00  0.00     0.027 C 
ENDROOT
BRANCH   1   2
ATOM      2  C   UNL     1      16.972  12.070  31.896  1.00  0.00     0.004 C 
BRANCH   2   3
ATOM      3  C   UNL     1      15.983  11.567  32.963  1.00  0.00     0.000 C 
BRANCH   3   4
ATOM      4  C   UNL     1      14.518  11.856  32.599  1.00  0.00     0.000 C 
BRANCH   4   5
ATOM      5  C   UNL     1      14.102  11.421  31.180  1.00  0.00     0.000 C 
BRANCH   5   6
ATOM      6  C   UNL     1      13.490  12.557  30.334  1.00  0.00     0.006 C 
BRANCH   6   7
ATOM      7  C   UNL     1      12.844  13.646  31.200  1.00  0.00     0.053 C 
BRANCH   7   8
ATOM      8  C   UNL     1      11.965  14.524  30.368  1.00  0.00     0.041 C 
ATOM      9  O   UNL     1      11.096  15.252  30.918  1.00  0.00    -0.550 OA
ATOM     10  O   UNL     1      12.068  14.501  28.984  1.00  0.00    -0.550 OA
ENDBRANCH   7   8
ENDBRANCH   6   7
ENDBRANCH   5   6
ENDBRANCH   4   5
ENDBRANCH   3   4
ENDBRANCH   2   3
ENDBRANCH   1   2
BRANCH   1  11
ATOM     11  C   UNL     1      17.546  14.480  31.471  1.00  0.00    -0.031 C 
ATOM     12  C   UNL     1      16.522  14.531  30.606  1.00  0.00    -0.027 C 
BRANCH  12  13
ATOM     13  C   UNL     1      16.292  15.733  29.732  1.00  0.00     0.054 C 
BRANCH  13  14
ATOM     14  C   UNL     1      15.486  15.373  28.516  1.00  0.00    -0.027 C 
ATOM     15  C   UNL     1      15.525  14.139  27.991  1.00  0.00    -0.031 C 
BRANCH  15  16
ATOM     16  C   UNL     1      14.722  13.773  26.772  1.00  0.00     0.027 C 
BRANCH  16  17
ATOM     17  C   UNL     1      15.592  13.200  25.639  1.00  0.00     0.004 C 
BRANCH  17  18
ATOM     18  C   UNL     1      16.593  14.205  25.042  1.00  0.00     0.000 C 
BRANCH  18  19
ATOM     19  C   UNL     1      15.911  15.459  24.476  1.00  0.00    -0.003 C 
ATOM     20  C   UNL     1      16.349  16.711  25.230  1.00  0.00     0.004 C 
ENDBRANCH  18  19
ENDBRANCH  17  18
ENDBRANCH  16  17
ENDBRANCH  15  16
ENDBRANCH  13  14
ENDBRANCH  12  13
ENDBRANCH   1  11
TORSDOF 14
ENDMDL
MODEL 7
REMARK VINA RESULT:    -3.783      3.165      5.951
REMARK INTER + INTRA:          -8.991
REMARK INTER:                  -6.422
REMARK INTRA:                  -2.570
REMARK UNBOUND:                -2.112
REMARK SMILES CCCCCC=CCC=CCCCCCCCC(=O)[O-]
REMARK SMILES IDX 11 1 12 2 13 3 14 4 15 5 16 6 17 7 18 8 19 9 20 10 10 11
REMARK SMILES IDX 9 12 8 13 7 14 6 15 5 16 4 17 3 18 2 19 1 20
REMARK H PARENT
REMARK Flexibility Score: inf
ROOT
ATOM      1  C   UNL     1      19.059  12.733  29.741  1.00  0.00     0.027 C 
ENDROOT
BRANCH   1   2
ATOM      2  C   UNL     1      19.442  13.923  30.630  1.00  0.00     0.004 C 
BRANCH   2   3
ATOM      3  C   UNL     1      18.433  14.139  31.771  1.00  0.00     0.000 C 
BRANCH   3   4
ATOM      4  C   UNL     1      17.038  14.540  31.264  1.00  0.00     0.000 C 
BRANCH   4   5
ATOM      5  C   UNL     1      17.020  15.731  30.286  1.00  0.00     0.000 C 
BRANCH   5   6
ATOM      6  C   UNL     1      15.918  15.636  29.209  1.00  0.00     0.006 C 
BRANCH   6   7
ATOM      7  C   UNL     1      15.507  14.186  28.922  1.00  0.00     0.053 C 
BRANCH   7   8
ATOM      8  C   UNL     1      14.246  14.149  28.119  1.00  0.00     0.041 C 
ATOM      9  O   UNL     1      13.138  14.391  28.668  1.00  0.00    -0.550 OA
ATOM     10  O   UNL     1      14.286  13.796  26.777  1.00  0.00    -0.550 OA
ENDBRANCH   7   8
ENDBRANCH   6   7
ENDBRANCH   5   6
ENDBRANCH   4   5
ENDBRANCH   3   4
ENDBRANCH   2   3
ENDBRANCH   1   2
BRANCH   1  11
ATOM     11  C   UNL     1      19.181  13.072  28.280  1.00  0.00    -0.031 C 
ATOM     12  C   UNL     1      19.545  14.296  27.867  1.00  0.00    -0.027 C 
BRANCH  12  13
ATOM     13  C   UNL     1      19.702  14.617  26.406  1.00  0.00     0.054 C 
BRANCH  13  14
ATOM     14  C   UNL     1      18.692  15.637  25.963  1.00  0.00    -0.027 C 
ATOM     15  C   UNL     1      17.387  15.337  25.875  1.00  0.00    -0.031 C 
BRANCH  15  16
ATOM     16  C   UNL     1      16.370  16.354  25.431  1.00  0.00     0.027 C 
BRANCH  16  17
ATOM     17  C   UNL     1      15.596  15.909  24.177  1.00  0.00     0.004 C 
BRANCH  17  18
ATOM     18  C   UNL     1      15.887  14.463  23.736  1.00  0.00     0.000 C 
BRANCH  18  19
ATOM     19  C   UNL     1      16.599  14.389  22.377  1.00  0.00    -0.003 C 
ATOM     20  C   UNL     1      17.997  13.793  22.520  1.00  0.00     0.004 C 
ENDBRANCH  18  19
ENDBRANCH  17  18
ENDBRANCH  16  17
ENDBRANCH  15  16
ENDBRANCH  13  14
ENDBRANCH  12  13
ENDBRANCH   1  11
TORSDOF 14
ENDMDL
MODEL 8
REMARK VINA RESULT:    -3.773      1.424      2.729
REMARK INTER + INTRA:          -8.972
REMARK INTER:                  -6.032
REMARK INTRA:                  -2.940
REMARK UNBOUND:                -2.112
REMARK SMILES CCCCCC=CCC=CCCCCCCCC(=O)[O-]
REMARK SMILES IDX 11 1 12 2 13 3 14 4 15 5 16 6 17 7 18 8 19 9 20 10 10 11
REMARK SMILES IDX 9 12 8 13 7 14 6 15 5 16 4 17 3 18 2 19 1 20
REMARK H PARENT
REMARK Flexibility Score: inf
ROOT
ATOM      1  C   UNL     1      16.684  12.082  30.800  1.00  0.00     0.027 C 
ENDROOT
BRANCH   1   2
ATOM      2  C   UNL     1      16.216  13.466  31.268  1.00  0.00     0.004 C 
BRANCH   2   3
ATOM      3  C   UNL     1      17.336  14.517  31.170  1.00  0.00     0.000 C 
BRANCH   3   4
ATOM      4  C   UNL     1      17.003  15.650  30.186  1.00  0.00     0.000 C 
BRANCH   4   5
ATOM      5  C   UNL     1      15.629  15.530  29.496  1.00  0.00     0.000 C 
BRANCH   5   6
ATOM      6  C   UNL     1      15.711  15.441  27.958  1.00  0.00     0.006 C 
BRANCH   6   7
ATOM      7  C   UNL     1      17.149  15.240  27.461  1.00  0.00     0.053 C 
BRANCH   7   8
ATOM      8  C   UNL     1      17.367  13.817  27.053  1.00  0.00     0.041 C 
ATOM      9  O   UNL     1      18.057  13.051  27.777  1.00  0.00    -0.550 OA
ATOM     10  O   UNL     1      16.852  13.351  25.851  1.00  0.00    -0.550 OA
ENDBRANCH   7   8
ENDBRANCH   6   7
ENDBRANCH   5   6
ENDBRANCH   4   5
ENDBRANCH   3   4
ENDBRANCH   2   3
ENDBRANCH   1   2
BRANCH   1  11
ATOM     11  C   UNL     1      15.618  11.378  30.003  1.00  0.00    -0.031 C 
ATOM     12  C   UNL     1      14.884  12.022  29.083  1.00  0.00    -0.027 C 
BRANCH  12  13
ATOM     13  C   UNL     1      13.848  11.304  28.264  1.00  0.00     0.054 C 
BRANCH  13  14
ATOM     14  C   UNL     1      12.544  12.052  28.263  1.00  0.00    -0.027 C 
ATOM     15  C   UNL     1      12.506  13.393  28.280  1.00  0.00    -0.031 C 
BRANCH  15  16
ATOM     16  C   UNL     1      11.203  14.147  28.281  1.00  0.00     0.027 C 
BRANCH  16  17
ATOM     17  C   UNL     1      10.936  14.866  29.615  1.00  0.00     0.004 C 
BRANCH  17  18
ATOM     18  C   UNL     1      12.093  14.771  30.626  1.00  0.00     0.000 C 
BRANCH  18  19
ATOM     19  C   UNL     1      11.722  13.966  31.880  1.00  0.00    -0.003 C 
ATOM     20  C   UNL     1      12.624  12.745  32.036  1.00  0.00     0.004 C 
ENDBRANCH  18  19
ENDBRANCH  17  18
ENDBRANCH  16  17
ENDBRANCH  15  16
ENDBRANCH  13  14
ENDBRANCH  12  13
ENDBRANCH   1  11
TORSDOF 14
ENDMDL
MODEL 9
REMARK VINA RESULT:    -3.755      1.656      3.389
REMARK INTER + INTRA:          -8.941
REMARK INTER:                  -7.056
REMARK INTRA:                  -1.885
REMARK UNBOUND:                -2.112
REMARK SMILES CCCCCC=CCC=CCCCCCCCC(=O)[O-]
REMARK SMILES IDX 11 1 12 2 13 3 14 4 15 5 16 6 17 7 18 8 19 9 20 10 10 11
REMARK SMILES IDX 9 12 8 13 7 14 6 15 5 16 4 17 3 18 2 19 1 20
REMARK H PARENT
REMARK Flexibility Score: inf
ROOT
ATOM      1  C   UNL     1      18.323  14.077  32.062  1.00  0.00     0.027 C 
ENDROOT
BRANCH   1   2
ATOM      2  C   UNL     1      19.306  13.194  31.283  1.00  0.00     0.004 C 
BRANCH   2   3
ATOM      3  C   UNL     1      20.320  14.028  30.480  1.00  0.00     0.000 C 
BRANCH   3   4
ATOM      4  C   UNL     1      19.997  14.072  28.978  1.00  0.00     0.000 C 
BRANCH   4   5
ATOM      5  C   UNL     1      18.952  13.041  28.507  1.00  0.00     0.000 C 
BRANCH   5   6
ATOM      6  C   UNL     1      18.365  13.342  27.112  1.00  0.00     0.006 C 
BRANCH   6   7
ATOM      7  C   UNL     1      18.152  14.844  26.881  1.00  0.00     0.053 C 
BRANCH   7   8
ATOM      8  C   UNL     1      16.929  15.078  26.051  1.00  0.00     0.041 C 
ATOM      9  O   UNL     1      16.535  14.195  25.243  1.00  0.00    -0.550 OA
ATOM     10  O   UNL     1      16.255  16.288  26.132  1.00  0.00    -0.550 OA
ENDBRANCH   7   8
ENDBRANCH   6   7
ENDBRANCH   5   6
ENDBRANCH   4   5
ENDBRANCH   3   4
ENDBRANCH   2   3
ENDBRANCH   1   2
BRANCH   1  11
ATOM     11  C   UNL     1      17.137  14.462  31.219  1.00  0.00    -0.031 C 
ATOM     12  C   UNL     1      17.120  15.595  30.501  1.00  0.00    -0.027 C 
BRANCH  12  13
ATOM     13  C   UNL     1      15.947  15.955  29.630  1.00  0.00     0.054 C 
BRANCH  13  14
ATOM     14  C   UNL     1      15.135  14.738  29.284  1.00  0.00    -0.027 C 
ATOM     15  C   UNL     1      13.927  14.526  29.828  1.00  0.00    -0.031 C 
BRANCH  15  16
ATOM     16  C   UNL     1      13.110  13.309  29.487  1.00  0.00     0.027 C 
BRANCH  16  17
ATOM     17  C   UNL     1      11.617  13.485  29.818  1.00  0.00     0.004 C 
BRANCH  17  18
ATOM     18  C   UNL     1      11.233  14.908  30.262  1.00  0.00     0.000 C 
BRANCH  18  19
ATOM     19  C   UNL     1      10.571  14.939  31.647  1.00  0.00    -0.003 C 
ATOM     20  C   UNL     1      11.367  14.115  32.656  1.00  0.00     0.004 C 
ENDBRANCH  18  19
ENDBRANCH  17  18
ENDBRANCH  16  17
ENDBRANCH  15  16
ENDBRANCH  13  14
ENDBRANCH  12  13
ENDBRANCH   1  11
TORSDOF 14
ENDMDL
