MODEL 1
REMARK VINA RESULT:    -5.243      0.000      0.000
REMARK INTER + INTRA:          -6.829
REMARK INTER:                  -6.469
REMARK INTRA:                  -0.359
REMARK UNBOUND:                -0.359
REMARK SMILES O=C1c2c(O)cc(O)cc2O[C@H](c2cc(O)c(O)c(O)c2)[C@@H]1O
REMARK SMILES IDX 12 1 22 2 2 3 1 4 3 5 4 6 6 7 7 8 9 9 10 10 11 11 13 12
REMARK SMILES IDX 14 13 15 14 21 15 17 16 19 17 16 18 18 20 20 22 23 24 5 26
REMARK SMILES IDX 8 28
REMARK H PARENT 16 19 18 21 20 23 23 25 5 27 8 29
REMARK Flexibility Score: inf
ROOT
ATOM      1  C   UNL     1       6.740   3.353  -6.660  1.00  0.00     0.240 C 
ATOM      2  C   UNL     1       6.675   1.827  -6.449  1.00  0.00     0.231 C 
ATOM      3  C   UNL     1       7.941   1.366  -5.775  1.00  0.00     0.202 C 
ATOM      4  O   UNL     1       8.418   0.236  -6.063  1.00  0.00    -0.291 OA
ATOM      5  C   UNL     1       8.569   2.224  -4.740  1.00  0.00     0.105 A 
ATOM      6  C   UNL     1       9.600   1.766  -3.891  1.00  0.00     0.133 A 
ATOM      7  C   UNL     1      10.114   2.617  -2.902  1.00  0.00     0.093 A 
ATOM      8  C   UNL     1       9.606   3.909  -2.742  1.00  0.00     0.123 A 
ATOM      9  C   UNL     1       8.586   4.366  -3.584  1.00  0.00     0.093 A 
ATOM     10  C   UNL     1       8.079   3.536  -4.588  1.00  0.00     0.138 A 
ATOM     11  O   UNL     1       7.076   4.017  -5.438  1.00  0.00    -0.481 OA
ENDROOT
BRANCH   1  12
ATOM     12  C   UNL     1       5.443   3.893  -7.221  1.00  0.00     0.003 A 
ATOM     13  C   UNL     1       4.910   3.350  -8.400  1.00  0.00     0.058 A 
ATOM     14  C   UNL     1       3.693   3.817  -8.913  1.00  0.00     0.161 A 
ATOM     15  C   UNL     1       4.724   4.893  -6.542  1.00  0.00     0.058 A 
ATOM     16  C   UNL     1       2.990   4.825  -8.241  1.00  0.00     0.200 A 
ATOM     17  C   UNL     1       3.506   5.363  -7.050  1.00  0.00     0.161 A 
BRANCH  14  18
ATOM     18  O   UNL     1       3.172   3.280 -10.089  1.00  0.00    -0.504 OA
ATOM     19  H   UNL     1       3.113   2.279 -10.235  1.00  0.00     0.293 HD
ENDBRANCH  14  18
BRANCH  16  20
ATOM     20  O   UNL     1       1.779   5.279  -8.767  1.00  0.00    -0.502 OA
ATOM     21  H   UNL     1       1.542   5.168  -9.745  1.00  0.00     0.293 HD
ENDBRANCH  16  20
BRANCH  17  22
ATOM     22  O   UNL     1       2.805   6.362  -6.375  1.00  0.00    -0.504 OA
ATOM     23  H   UNL     1       2.466   7.189  -6.854  1.00  0.00     0.293 HD
ENDBRANCH  17  22
ENDBRANCH   1  12
BRANCH   2  24
ATOM     24  O   UNL     1       5.575   1.497  -5.642  1.00  0.00    -0.381 OA
ATOM     25  H   UNL     1       5.370   0.541  -5.816  1.00  0.00     0.211 HD
ENDBRANCH   2  24
BRANCH   6  26
ATOM     26  O   UNL     1      10.107   0.473  -4.022  1.00  0.00    -0.507 OA
ATOM     27  H   UNL     1      10.505  -0.024  -3.234  1.00  0.00     0.293 HD
ENDBRANCH   6  26
BRANCH   8  28
ATOM     28  O   UNL     1      10.125   4.734  -1.745  1.00  0.00    -0.508 OA
ATOM     29  H   UNL     1       9.850   5.706  -1.665  1.00  0.00     0.293 HD
ENDBRANCH   8  28
TORSDOF 7
ENDMDL
MODEL 2
REMARK VINA RESULT:    -5.014      8.134     11.372
REMARK INTER + INTRA:          -6.546
REMARK INTER:                  -6.306
REMARK INTRA:                  -0.241
REMARK UNBOUND:                -0.359
REMARK SMILES O=C1c2c(O)cc(O)cc2O[C@H](c2cc(O)c(O)c(O)c2)[C@@H]1O
REMARK SMILES IDX 12 1 22 2 2 3 1 4 3 5 4 6 6 7 7 8 9 9 10 10 11 11 13 12
REMARK SMILES IDX 14 13 15 14 21 15 17 16 19 17 16 18 18 20 20 22 23 24 5 26
REMARK SMILES IDX 8 28
REMARK H PARENT 16 19 18 21 20 23 23 25 5 27 8 29
REMARK Flexibility Score: inf
ROOT
ATOM      1  C   UNL     1       4.875   6.235   1.601  1.00  0.00     0.240 C 
ATOM      2  C   UNL     1       5.151   7.661   1.084  1.00  0.00     0.231 C 
ATOM      3  C   UNL     1       3.849   8.305   0.686  1.00  0.00     0.202 C 
ATOM      4  O   UNL     1       3.826   9.101  -0.291  1.00  0.00    -0.291 OA
ATOM      5  C   UNL     1       2.629   8.038   1.488  1.00  0.00     0.105 A 
ATOM      6  C   UNL     1       1.439   8.783   1.339  1.00  0.00     0.133 A 
ATOM      7  C   UNL     1       0.340   8.509   2.166  1.00  0.00     0.093 A 
ATOM      8  C   UNL     1       0.417   7.510   3.141  1.00  0.00     0.123 A 
ATOM      9  C   UNL     1       1.594   6.769   3.288  1.00  0.00     0.093 A 
ATOM     10  C   UNL     1       2.690   7.019   2.458  1.00  0.00     0.138 A 
ATOM     11  O   UNL     1       3.852   6.250   2.601  1.00  0.00    -0.481 OA
ENDROOT
BRANCH   1  12
ATOM     12  C   UNL     1       6.131   5.583   2.133  1.00  0.00     0.003 A 
ATOM     13  C   UNL     1       6.065   4.753   3.263  1.00  0.00     0.058 A 
ATOM     14  C   UNL     1       7.215   4.115   3.747  1.00  0.00     0.161 A 
ATOM     15  C   UNL     1       7.362   5.743   1.473  1.00  0.00     0.058 A 
ATOM     16  C   UNL     1       8.442   4.293   3.095  1.00  0.00     0.200 A 
ATOM     17  C   UNL     1       8.515   5.107   1.952  1.00  0.00     0.161 A 
BRANCH  14  18
ATOM     18  O   UNL     1       7.145   3.300   4.874  1.00  0.00    -0.504 OA
ATOM     19  H   UNL     1       7.205   3.683   5.811  1.00  0.00     0.293 HD
ENDBRANCH  14  18
BRANCH  16  20
ATOM     20  O   UNL     1       9.577   3.650   3.592  1.00  0.00    -0.502 OA
ATOM     21  H   UNL     1       9.542   2.712   3.971  1.00  0.00     0.293 HD
ENDBRANCH  16  20
BRANCH  17  22
ATOM     22  O   UNL     1       9.734   5.279   1.296  1.00  0.00    -0.504 OA
ATOM     23  H   UNL     1       9.826   5.122   0.298  1.00  0.00     0.293 HD
ENDBRANCH  17  22
ENDBRANCH   1  12
BRANCH   2  24
ATOM     24  O   UNL     1       5.758   8.430   2.090  1.00  0.00    -0.381 OA
ATOM     25  H   UNL     1       6.692   8.597   1.797  1.00  0.00     0.211 HD
ENDBRANCH   2  24
BRANCH   6  26
ATOM     26  O   UNL     1       1.349   9.796   0.385  1.00  0.00    -0.507 OA
ATOM     27  H   UNL     1       0.520   9.918  -0.184  1.00  0.00     0.293 HD
ENDBRANCH   6  26
BRANCH   8  28
ATOM     28  O   UNL     1      -0.685   7.262   3.958  1.00  0.00    -0.508 OA
ATOM     29  H   UNL     1      -0.947   7.898   4.702  1.00  0.00     0.293 HD
ENDBRANCH   8  28
TORSDOF 7
ENDMDL
MODEL 3
REMARK VINA RESULT:    -4.813      8.136     11.692
REMARK INTER + INTRA:          -6.298
REMARK INTER:                  -5.906
REMARK INTRA:                  -0.392
REMARK UNBOUND:                -0.359
REMARK SMILES O=C1c2c(O)cc(O)cc2O[C@H](c2cc(O)c(O)c(O)c2)[C@@H]1O
REMARK SMILES IDX 12 1 22 2 2 3 1 4 3 5 4 6 6 7 7 8 9 9 10 10 11 11 13 12
REMARK SMILES IDX 14 13 15 14 21 15 17 16 19 17 16 18 18 20 20 22 23 24 5 26
REMARK SMILES IDX 8 28
REMARK H PARENT 16 19 18 21 20 23 23 25 5 27 8 29
REMARK Flexibility Score: inf
ROOT
ATOM      1  C   UNL     1       4.533   6.070   2.626  1.00  0.00     0.240 C 
ATOM      2  C   UNL     1       4.242   6.251   1.123  1.00  0.00     0.231 C 
ATOM      3  C   UNL     1       2.766   6.478   0.927  1.00  0.00     0.202 C 
ATOM      4  O   UNL     1       2.203   6.024  -0.106  1.00  0.00    -0.291 OA
ATOM      5  C   UNL     1       2.014   7.281   1.922  1.00  0.00     0.105 A 
ATOM      6  C   UNL     1       0.701   7.746   1.693  1.00  0.00     0.133 A 
ATOM      7  C   UNL     1       0.068   8.543   2.658  1.00  0.00     0.093 A 
ATOM      8  C   UNL     1       0.730   8.887   3.840  1.00  0.00     0.123 A 
ATOM      9  C   UNL     1       2.030   8.425   4.070  1.00  0.00     0.093 A 
ATOM     10  C   UNL     1       2.665   7.614   3.126  1.00  0.00     0.138 A 
ATOM     11  O   UNL     1       3.957   7.138   3.383  1.00  0.00    -0.481 OA
ENDROOT
BRANCH   1  12
ATOM     12  C   UNL     1       6.017   5.963   2.897  1.00  0.00     0.003 A 
ATOM     13  C   UNL     1       6.661   6.948   3.662  1.00  0.00     0.058 A 
ATOM     14  C   UNL     1       8.028   6.845   3.951  1.00  0.00     0.161 A 
ATOM     15  C   UNL     1       6.755   4.855   2.446  1.00  0.00     0.058 A 
ATOM     16  C   UNL     1       8.762   5.746   3.484  1.00  0.00     0.200 A 
ATOM     17  C   UNL     1       8.122   4.747   2.732  1.00  0.00     0.161 A 
BRANCH  14  18
ATOM     18  O   UNL     1       8.665   7.829   4.703  1.00  0.00    -0.504 OA
ATOM     19  H   UNL     1       9.610   8.130   4.493  1.00  0.00     0.293 HD
ENDBRANCH  14  18
BRANCH  16  20
ATOM     20  O   UNL     1      10.123   5.661   3.779  1.00  0.00    -0.502 OA
ATOM     21  H   UNL     1      10.464   5.573   4.729  1.00  0.00     0.293 HD
ENDBRANCH  16  20
BRANCH  17  22
ATOM     22  O   UNL     1       8.848   3.648   2.272  1.00  0.00    -0.504 OA
ATOM     23  H   UNL     1       9.480   3.722   1.483  1.00  0.00     0.293 HD
ENDBRANCH  17  22
ENDBRANCH   1  12
BRANCH   2  24
ATOM     24  O   UNL     1       4.949   7.358   0.625  1.00  0.00    -0.381 OA
ATOM     25  H   UNL     1       4.884   8.071   1.312  1.00  0.00     0.211 HD
ENDBRANCH   2  24
BRANCH   6  26
ATOM     26  O   UNL     1       0.030   7.429   0.512  1.00  0.00    -0.507 OA
ATOM     27  H   UNL     1       0.240   6.587  -0.010  1.00  0.00     0.293 HD
ENDBRANCH   6  26
BRANCH   8  28
ATOM     28  O   UNL     1       0.085   9.689   4.780  1.00  0.00    -0.508 OA
ATOM     29  H   UNL     1      -0.796   9.412   5.196  1.00  0.00     0.293 HD
ENDBRANCH   8  28
TORSDOF 7
ENDMDL
MODEL 4
REMARK VINA RESULT:    -4.622      7.080      8.773
REMARK INTER + INTRA:          -6.063
REMARK INTER:                  -5.758
REMARK INTRA:                  -0.305
REMARK UNBOUND:                -0.359
REMARK SMILES O=C1c2c(O)cc(O)cc2O[C@H](c2cc(O)c(O)c(O)c2)[C@@H]1O
REMARK SMILES IDX 12 1 22 2 2 3 1 4 3 5 4 6 6 7 7 8 9 9 10 10 11 11 13 12
REMARK SMILES IDX 14 13 15 14 21 15 17 16 19 17 16 18 18 20 20 22 23 24 5 26
REMARK SMILES IDX 8 28
REMARK H PARENT 16 19 18 21 20 23 23 25 5 27 8 29
REMARK Flexibility Score: inf
ROOT
ATOM      1  C   UNL     1       4.566   6.202   1.093  1.00  0.00     0.240 C 
ATOM      2  C   UNL     1       5.359   5.844   2.366  1.00  0.00     0.231 C 
ATOM      3  C   UNL     1       6.704   5.294   1.973  1.00  0.00     0.202 C 
ATOM      4  O   UNL     1       7.230   4.388   2.674  1.00  0.00    -0.291 OA
ATOM      5  C   UNL     1       7.414   5.868   0.803  1.00  0.00     0.105 A 
ATOM      6  C   UNL     1       8.768   5.588   0.518  1.00  0.00     0.133 A 
ATOM      7  C   UNL     1       9.388   6.206  -0.577  1.00  0.00     0.093 A 
ATOM      8  C   UNL     1       8.680   7.103  -1.382  1.00  0.00     0.123 A 
ATOM      9  C   UNL     1       7.338   7.380  -1.103  1.00  0.00     0.093 A 
ATOM     10  C   UNL     1       6.701   6.756  -0.026  1.00  0.00     0.138 A 
ATOM     11  O   UNL     1       5.350   7.024   0.225  1.00  0.00    -0.481 OA
ENDROOT
BRANCH   1  12
ATOM     12  C   UNL     1       3.254   6.877   1.426  1.00  0.00     0.003 A 
ATOM     13  C   UNL     1       2.422   6.339   2.421  1.00  0.00     0.058 A 
ATOM     14  C   UNL     1       1.220   6.972   2.763  1.00  0.00     0.161 A 
ATOM     15  C   UNL     1       2.879   8.076   0.796  1.00  0.00     0.058 A 
ATOM     16  C   UNL     1       0.845   8.158   2.120  1.00  0.00     0.200 A 
ATOM     17  C   UNL     1       1.679   8.714   1.135  1.00  0.00     0.161 A 
BRANCH  14  18
ATOM     18  O   UNL     1       0.394   6.430   3.746  1.00  0.00    -0.504 OA
ATOM     19  H   UNL     1       0.650   6.452   4.726  1.00  0.00     0.293 HD
ENDBRANCH  14  18
BRANCH  16  20
ATOM     20  O   UNL     1      -0.356   8.775   2.474  1.00  0.00    -0.502 OA
ATOM     21  H   UNL     1      -0.610   8.948   3.438  1.00  0.00     0.293 HD
ENDBRANCH  16  20
BRANCH  17  22
ATOM     22  O   UNL     1       1.312   9.899   0.498  1.00  0.00    -0.504 OA
ATOM     23  H   UNL     1       0.398  10.013   0.074  1.00  0.00     0.293 HD
ENDBRANCH  17  22
ENDBRANCH   1  12
BRANCH   2  24
ATOM     24  O   UNL     1       5.542   6.989   3.158  1.00  0.00    -0.381 OA
ATOM     25  H   UNL     1       6.334   7.464   2.794  1.00  0.00     0.211 HD
ENDBRANCH   2  24
BRANCH   6  26
ATOM     26  O   UNL     1       9.497   4.710   1.319  1.00  0.00    -0.507 OA
ATOM     27  H   UNL     1      10.348   4.272   0.990  1.00  0.00     0.293 HD
ENDBRANCH   6  26
BRANCH   8  28
ATOM     28  O   UNL     1       9.321   7.713  -2.460  1.00  0.00    -0.508 OA
ATOM     29  H   UNL     1      10.061   7.245  -2.970  1.00  0.00     0.293 HD
ENDBRANCH   8  28
TORSDOF 7
ENDMDL
MODEL 5
REMARK VINA RESULT:    -4.562     11.400     13.409
REMARK INTER + INTRA:          -5.989
REMARK INTER:                  -5.614
REMARK INTRA:                  -0.375
REMARK UNBOUND:                -0.359
REMARK SMILES O=C1c2c(O)cc(O)cc2O[C@H](c2cc(O)c(O)c(O)c2)[C@@H]1O
REMARK SMILES IDX 12 1 22 2 2 3 1 4 3 5 4 6 6 7 7 8 9 9 10 10 11 11 13 12
REMARK SMILES IDX 14 13 15 14 21 15 17 16 19 17 16 18 18 20 20 22 23 24 5 26
REMARK SMILES IDX 8 28
REMARK H PARENT 16 19 18 21 20 23 23 25 5 27 8 29
REMARK Flexibility Score: inf
ROOT
ATOM      1  C   UNL     1       1.509   8.533   4.464  1.00  0.00     0.240 C 
ATOM      2  C   UNL     1       0.469   7.867   3.541  1.00  0.00     0.231 C 
ATOM      3  C   UNL     1       1.076   7.662   2.178  1.00  0.00     0.202 C 
ATOM      4  O   UNL     1       0.347   7.765   1.155  1.00  0.00    -0.291 OA
ATOM      5  C   UNL     1       2.507   7.283   2.066  1.00  0.00     0.105 A 
ATOM      6  C   UNL     1       3.086   6.834   0.860  1.00  0.00     0.133 A 
ATOM      7  C   UNL     1       4.433   6.445   0.839  1.00  0.00     0.093 A 
ATOM      8  C   UNL     1       5.203   6.490   2.005  1.00  0.00     0.123 A 
ATOM      9  C   UNL     1       4.632   6.937   3.201  1.00  0.00     0.093 A 
ATOM     10  C   UNL     1       3.296   7.346   3.231  1.00  0.00     0.138 A 
ATOM     11  O   UNL     1       2.746   7.816   4.430  1.00  0.00    -0.481 OA
ENDROOT
BRANCH   1  12
ATOM     12  C   UNL     1       0.999   8.651   5.883  1.00  0.00     0.003 A 
ATOM     13  C   UNL     1       1.760   8.137   6.946  1.00  0.00     0.058 A 
ATOM     14  C   UNL     1       1.316   8.269   8.268  1.00  0.00     0.161 A 
ATOM     15  C   UNL     1      -0.201   9.326   6.165  1.00  0.00     0.058 A 
ATOM     16  C   UNL     1       0.111   8.928   8.540  1.00  0.00     0.200 A 
ATOM     17  C   UNL     1      -0.649   9.461   7.486  1.00  0.00     0.161 A 
BRANCH  14  18
ATOM     18  O   UNL     1       2.071   7.750   9.318  1.00  0.00    -0.504 OA
ATOM     19  H   UNL     1       1.853   6.852   9.736  1.00  0.00     0.293 HD
ENDBRANCH  14  18
BRANCH  16  20
ATOM     20  O   UNL     1      -0.316   9.049   9.864  1.00  0.00    -0.502 OA
ATOM     21  H   UNL     1      -0.698   8.266  10.381  1.00  0.00     0.293 HD
ENDBRANCH  16  20
BRANCH  17  22
ATOM     22  O   UNL     1      -1.846  10.124   7.754  1.00  0.00    -0.504 OA
ATOM     23  H   UNL     1      -2.562   9.710   8.340  1.00  0.00     0.293 HD
ENDBRANCH  17  22
ENDBRANCH   1  12
BRANCH   2  24
ATOM     24  O   UNL     1       0.084   6.623   4.067  1.00  0.00    -0.381 OA
ATOM     25  H   UNL     1       0.144   6.700   5.055  1.00  0.00     0.211 HD
ENDBRANCH   2  24
BRANCH   6  26
ATOM     26  O   UNL     1       2.330   6.764  -0.310  1.00  0.00    -0.507 OA
ATOM     27  H   UNL     1       1.328   6.615  -0.287  1.00  0.00     0.293 HD
ENDBRANCH   6  26
BRANCH   8  28
ATOM     28  O   UNL     1       6.538   6.089   1.963  1.00  0.00    -0.508 OA
ATOM     29  H   UNL     1       7.216   6.434   2.632  1.00  0.00     0.293 HD
ENDBRANCH   8  28
TORSDOF 7
ENDMDL
MODEL 6
REMARK VINA RESULT:    -4.551      9.252     12.135
REMARK INTER + INTRA:          -5.974
REMARK INTER:                  -5.605
REMARK INTRA:                  -0.369
REMARK UNBOUND:                -0.359
REMARK SMILES O=C1c2c(O)cc(O)cc2O[C@H](c2cc(O)c(O)c(O)c2)[C@@H]1O
REMARK SMILES IDX 12 1 22 2 2 3 1 4 3 5 4 6 6 7 7 8 9 9 10 10 11 11 13 12
REMARK SMILES IDX 14 13 15 14 21 15 17 16 19 17 16 18 18 20 20 22 23 24 5 26
REMARK SMILES IDX 8 28
REMARK H PARENT 16 19 18 21 20 23 23 25 5 27 8 29
REMARK Flexibility Score: inf
ROOT
ATOM      1  C   UNL     1       3.536   6.899   2.613  1.00  0.00     0.240 C 
ATOM      2  C   UNL     1       3.210   8.165   1.795  1.00  0.00     0.231 C 
ATOM      3  C   UNL     1       1.881   8.714   2.242  1.00  0.00     0.202 C 
ATOM      4  O   UNL     1       1.123   9.264   1.397  1.00  0.00    -0.291 OA
ATOM      5  C   UNL     1       1.513   8.654   3.678  1.00  0.00     0.105 A 
ATOM      6  C   UNL     1       0.414   9.358   4.216  1.00  0.00     0.133 A 
ATOM      7  C   UNL     1       0.154   9.294   5.593  1.00  0.00     0.093 A 
ATOM      8  C   UNL     1       0.980   8.547   6.437  1.00  0.00     0.123 A 
ATOM      9  C   UNL     1       2.068   7.845   5.906  1.00  0.00     0.093 A 
ATOM     10  C   UNL     1       2.326   7.885   4.533  1.00  0.00     0.138 A 
ATOM     11  O   UNL     1       3.404   7.157   4.014  1.00  0.00    -0.481 OA
ENDROOT
BRANCH   1  12
ATOM     12  C   UNL     1       4.918   6.373   2.296  1.00  0.00     0.003 A 
ATOM     13  C   UNL     1       5.830   6.127   3.335  1.00  0.00     0.058 A 
ATOM     14  C   UNL     1       7.101   5.607   3.058  1.00  0.00     0.161 A 
ATOM     15  C   UNL     1       5.287   6.064   0.975  1.00  0.00     0.058 A 
ATOM     16  C   UNL     1       7.468   5.317   1.738  1.00  0.00     0.200 A 
ATOM     17  C   UNL     1       6.556   5.543   0.693  1.00  0.00     0.161 A 
BRANCH  14  18
ATOM     18  O   UNL     1       8.005   5.372   4.092  1.00  0.00    -0.504 OA
ATOM     19  H   UNL     1       8.221   4.433   4.406  1.00  0.00     0.293 HD
ENDBRANCH  14  18
BRANCH  16  20
ATOM     20  O   UNL     1       8.739   4.800   1.482  1.00  0.00    -0.502 OA
ATOM     21  H   UNL     1       9.537   5.397   1.302  1.00  0.00     0.293 HD
ENDBRANCH  16  20
BRANCH  17  22
ATOM     22  O   UNL     1       6.916   5.248  -0.622  1.00  0.00    -0.504 OA
ATOM     23  H   UNL     1       6.620   4.390  -1.073  1.00  0.00     0.293 HD
ENDBRANCH  17  22
ENDBRANCH   1  12
BRANCH   2  24
ATOM     24  O   UNL     1       4.203   9.138   1.994  1.00  0.00    -0.381 OA
ATOM     25  H   UNL     1       3.737  10.013   2.050  1.00  0.00     0.211 HD
ENDBRANCH   2  24
BRANCH   6  26
ATOM     26  O   UNL     1      -0.411  10.125   3.393  1.00  0.00    -0.507 OA
ATOM     27  H   UNL     1      -1.369  10.335   3.647  1.00  0.00     0.293 HD
ENDBRANCH   6  26
BRANCH   8  28
ATOM     28  O   UNL     1       0.708   8.506   7.804  1.00  0.00    -0.508 OA
ATOM     29  H   UNL     1       0.215   9.259   8.268  1.00  0.00     0.293 HD
ENDBRANCH   8  28
TORSDOF 7
ENDMDL
MODEL 7
REMARK VINA RESULT:    -4.533      8.144      9.589
REMARK INTER + INTRA:          -5.952
REMARK INTER:                  -5.582
REMARK INTRA:                  -0.370
REMARK UNBOUND:                -0.359
REMARK SMILES O=C1c2c(O)cc(O)cc2O[C@H](c2cc(O)c(O)c(O)c2)[C@@H]1O
REMARK SMILES IDX 12 1 22 2 2 3 1 4 3 5 4 6 6 7 7 8 9 9 10 10 11 11 13 12
REMARK SMILES IDX 14 13 15 14 21 15 17 16 19 17 16 18 18 20 20 22 23 24 5 26
REMARK SMILES IDX 8 28
REMARK H PARENT 16 19 18 21 20 23 23 25 5 27 8 29
REMARK Flexibility Score: inf
ROOT
ATOM      1  C   UNL     1       5.785   6.640   2.699  1.00  0.00     0.240 C 
ATOM      2  C   UNL     1       6.637   5.746   1.776  1.00  0.00     0.231 C 
ATOM      3  C   UNL     1       7.905   5.362   2.493  1.00  0.00     0.202 C 
ATOM      4  O   UNL     1       8.972   5.232   1.834  1.00  0.00    -0.291 OA
ATOM      5  C   UNL     1       7.863   5.083   3.950  1.00  0.00     0.105 A 
ATOM      6  C   UNL     1       8.935   4.483   4.644  1.00  0.00     0.133 A 
ATOM      7  C   UNL     1       8.807   4.204   6.012  1.00  0.00     0.093 A 
ATOM      8  C   UNL     1       7.623   4.507   6.691  1.00  0.00     0.123 A 
ATOM      9  C   UNL     1       6.560   5.105   6.006  1.00  0.00     0.093 A 
ATOM     10  C   UNL     1       6.682   5.406   4.646  1.00  0.00     0.138 A 
ATOM     11  O   UNL     1       5.618   6.028   3.981  1.00  0.00    -0.481 OA
ENDROOT
BRANCH   1  12
ATOM     12  C   UNL     1       4.441   6.956   2.081  1.00  0.00     0.003 A 
ATOM     13  C   UNL     1       3.272   6.402   2.625  1.00  0.00     0.058 A 
ATOM     14  C   UNL     1       2.017   6.713   2.084  1.00  0.00     0.161 A 
ATOM     15  C   UNL     1       4.336   7.851   1.002  1.00  0.00     0.058 A 
ATOM     16  C   UNL     1       1.921   7.593   0.998  1.00  0.00     0.200 A 
ATOM     17  C   UNL     1       3.084   8.166   0.457  1.00  0.00     0.161 A 
BRANCH  14  18
ATOM     18  O   UNL     1       0.860   6.154   2.622  1.00  0.00    -0.504 OA
ATOM     19  H   UNL     1      -0.031   6.213   2.142  1.00  0.00     0.293 HD
ENDBRANCH  14  18
BRANCH  16  20
ATOM     20  O   UNL     1       0.663   7.890   0.471  1.00  0.00    -0.502 OA
ATOM     21  H   UNL     1       0.252   7.349  -0.279  1.00  0.00     0.293 HD
ENDBRANCH  16  20
BRANCH  17  22
ATOM     22  O   UNL     1       2.991   9.049  -0.619  1.00  0.00    -0.504 OA
ATOM     23  H   UNL     1       2.125   9.171  -1.132  1.00  0.00     0.293 HD
ENDBRANCH  17  22
ENDBRANCH   1  12
BRANCH   2  24
ATOM     24  O   UNL     1       5.926   4.583   1.438  1.00  0.00    -0.381 OA
ATOM     25  H   UNL     1       5.009   4.872   1.191  1.00  0.00     0.211 HD
ENDBRANCH   2  24
BRANCH   6  26
ATOM     26  O   UNL     1      10.118   4.156   3.981  1.00  0.00    -0.507 OA
ATOM     27  H   UNL     1      10.124   3.543   3.175  1.00  0.00     0.293 HD
ENDBRANCH   6  26
BRANCH   8  28
ATOM     28  O   UNL     1       7.515   4.211   8.049  1.00  0.00    -0.508 OA
ATOM     29  H   UNL     1       7.871   4.842   8.758  1.00  0.00     0.293 HD
ENDBRANCH   8  28
TORSDOF 7
ENDMDL
MODEL 8
REMARK VINA RESULT:    -4.488      7.937      9.782
REMARK INTER + INTRA:          -5.897
REMARK INTER:                  -5.535
REMARK INTRA:                  -0.362
REMARK UNBOUND:                -0.359
REMARK SMILES O=C1c2c(O)cc(O)cc2O[C@H](c2cc(O)c(O)c(O)c2)[C@@H]1O
REMARK SMILES IDX 12 1 22 2 2 3 1 4 3 5 4 6 6 7 7 8 9 9 10 10 11 11 13 12
REMARK SMILES IDX 14 13 15 14 21 15 17 16 19 17 16 18 18 20 20 22 23 24 5 26
REMARK SMILES IDX 8 28
REMARK H PARENT 16 19 18 21 20 23 23 25 5 27 8 29
REMARK Flexibility Score: inf
ROOT
ATOM      1  C   UNL     1       5.036   7.370   2.483  1.00  0.00     0.240 C 
ATOM      2  C   UNL     1       5.306   6.891   1.042  1.00  0.00     0.231 C 
ATOM      3  C   UNL     1       6.713   6.363   0.952  1.00  0.00     0.202 C 
ATOM      4  O   UNL     1       7.367   6.525  -0.114  1.00  0.00    -0.291 OA
ATOM      5  C   UNL     1       7.284   5.609   2.095  1.00  0.00     0.105 A 
ATOM      6  C   UNL     1       8.486   4.874   2.002  1.00  0.00     0.133 A 
ATOM      7  C   UNL     1       8.940   4.143   3.110  1.00  0.00     0.093 A 
ATOM      8  C   UNL     1       8.209   4.130   4.301  1.00  0.00     0.123 A 
ATOM      9  C   UNL     1       7.019   4.860   4.396  1.00  0.00     0.093 A 
ATOM     10  C   UNL     1       6.565   5.608   3.306  1.00  0.00     0.138 A 
ATOM     11  O   UNL     1       5.385   6.353   3.426  1.00  0.00    -0.481 OA
ENDROOT
BRANCH   1  12
ATOM     12  C   UNL     1       3.597   7.796   2.667  1.00  0.00     0.003 A 
ATOM     13  C   UNL     1       2.842   7.275   3.730  1.00  0.00     0.058 A 
ATOM     14  C   UNL     1       1.519   7.687   3.933  1.00  0.00     0.161 A 
ATOM     15  C   UNL     1       3.016   8.760   1.824  1.00  0.00     0.058 A 
ATOM     16  C   UNL     1       0.940   8.635   3.078  1.00  0.00     0.200 A 
ATOM     17  C   UNL     1       1.693   9.175   2.022  1.00  0.00     0.161 A 
BRANCH  14  18
ATOM     18  O   UNL     1       0.771   7.161   4.984  1.00  0.00    -0.504 OA
ATOM     19  H   UNL     1       1.206   6.631   5.732  1.00  0.00     0.293 HD
ENDBRANCH  14  18
BRANCH  16  20
ATOM     20  O   UNL     1      -0.380   9.032   3.295  1.00  0.00    -0.502 OA
ATOM     21  H   UNL     1      -0.622   9.765   3.951  1.00  0.00     0.293 HD
ENDBRANCH  16  20
BRANCH  17  22
ATOM     22  O   UNL     1       1.123  10.125   1.175  1.00  0.00    -0.504 OA
ATOM     23  H   UNL     1       1.496  10.302   0.249  1.00  0.00     0.293 HD
ENDBRANCH  17  22
ENDBRANCH   1  12
BRANCH   2  24
ATOM     24  O   UNL     1       4.406   5.870   0.697  1.00  0.00    -0.381 OA
ATOM     25  H   UNL     1       4.576   5.651  -0.256  1.00  0.00     0.211 HD
ENDBRANCH   2  24
BRANCH   6  26
ATOM     26  O   UNL     1       9.221   4.859   0.817  1.00  0.00    -0.507 OA
ATOM     27  H   UNL     1       8.788   4.651  -0.075  1.00  0.00     0.293 HD
ENDBRANCH   6  26
BRANCH   8  28
ATOM     28  O   UNL     1       8.675   3.388   5.385  1.00  0.00    -0.508 OA
ATOM     29  H   UNL     1       8.975   3.837   6.243  1.00  0.00     0.293 HD
ENDBRANCH   8  28
TORSDOF 7
ENDMDL
MODEL 9
REMARK VINA RESULT:    -4.455      8.191     10.927
REMARK INTER + INTRA:          -5.856
REMARK INTER:                  -5.463
REMARK INTRA:                  -0.393
REMARK UNBOUND:                -0.359
REMARK SMILES O=C1c2c(O)cc(O)cc2O[C@H](c2cc(O)c(O)c(O)c2)[C@@H]1O
REMARK SMILES IDX 12 1 22 2 2 3 1 4 3 5 4 6 6 7 7 8 9 9 10 10 11 11 13 12
REMARK SMILES IDX 14 13 15 14 21 15 17 16 19 17 16 18 18 20 20 22 23 24 5 26
REMARK SMILES IDX 8 28
REMARK H PARENT 16 19 18 21 20 23 23 25 5 27 8 29
REMARK Flexibility Score: inf
ROOT
ATOM      1  C   UNL     1       4.601   6.400   2.022  1.00  0.00     0.240 C 
ATOM      2  C   UNL     1       3.399   6.496   1.061  1.00  0.00     0.231 C 
ATOM      3  C   UNL     1       2.122   6.421   1.857  1.00  0.00     0.202 C 
ATOM      4  O   UNL     1       1.116   5.848   1.358  1.00  0.00    -0.291 OA
ATOM      5  C   UNL     1       2.053   7.073   3.188  1.00  0.00     0.105 A 
ATOM      6  C   UNL     1       0.839   7.264   3.883  1.00  0.00     0.133 A 
ATOM      7  C   UNL     1       0.843   7.933   5.115  1.00  0.00     0.093 A 
ATOM      8  C   UNL     1       2.036   8.421   5.655  1.00  0.00     0.123 A 
ATOM      9  C   UNL     1       3.240   8.231   4.969  1.00  0.00     0.093 A 
ATOM     10  C   UNL     1       3.254   7.548   3.750  1.00  0.00     0.138 A 
ATOM     11  O   UNL     1       4.471   7.343   3.089  1.00  0.00    -0.481 OA
ENDROOT
BRANCH   1  12
ATOM     12  C   UNL     1       5.912   6.596   1.293  1.00  0.00     0.003 A 
ATOM     13  C   UNL     1       6.729   7.695   1.604  1.00  0.00     0.058 A 
ATOM     14  C   UNL     1       7.961   7.870   0.962  1.00  0.00     0.161 A 
ATOM     15  C   UNL     1       6.360   5.656   0.348  1.00  0.00     0.058 A 
ATOM     16  C   UNL     1       8.394   6.939   0.008  1.00  0.00     0.200 A 
ATOM     17  C   UNL     1       7.592   5.826  -0.297  1.00  0.00     0.161 A 
BRANCH  14  18
ATOM     18  O   UNL     1       8.764   8.967   1.267  1.00  0.00    -0.504 OA
ATOM     19  H   UNL     1       9.549   8.889   1.905  1.00  0.00     0.293 HD
ENDBRANCH  14  18
BRANCH  16  20
ATOM     20  O   UNL     1       9.624   7.131  -0.622  1.00  0.00    -0.502 OA
ATOM     21  H   UNL     1      10.000   6.464  -1.284  1.00  0.00     0.293 HD
ENDBRANCH  16  20
BRANCH  17  22
ATOM     22  O   UNL     1       8.023   4.894  -1.240  1.00  0.00    -0.504 OA
ATOM     23  H   UNL     1       8.321   5.175  -2.167  1.00  0.00     0.293 HD
ENDBRANCH  17  22
ENDBRANCH   1  12
BRANCH   2  24
ATOM     24  O   UNL     1       3.436   7.714   0.362  1.00  0.00    -0.381 OA
ATOM     25  H   UNL     1       2.510   7.893   0.053  1.00  0.00     0.211 HD
ENDBRANCH   2  24
BRANCH   6  26
ATOM     26  O   UNL     1      -0.365   6.801   3.352  1.00  0.00    -0.507 OA
ATOM     27  H   UNL     1      -0.804   5.953   3.690  1.00  0.00     0.293 HD
ENDBRANCH   6  26
BRANCH   8  28
ATOM     28  O   UNL     1       2.014   9.092   6.877  1.00  0.00    -0.508 OA
ATOM     29  H   UNL     1       1.166   9.521   7.230  1.00  0.00     0.293 HD
ENDBRANCH   8  28
TORSDOF 7
ENDMDL
