MODEL 1
REMARK VINA RESULT:    12.289      0.000      0.000
REMARK INTER + INTRA:          15.344
REMARK INTER:                  14.803
REMARK INTRA:                   0.541
REMARK UNBOUND:                 0.541
REMARK SMILES O=c1c(O)c(-c2ccc(O)c(O)c2)oc2cc(O)cc(O)c12
REMARK SMILES IDX 5 1 3 2 2 3 1 4 22 5 20 6 19 7 17 8 16 9 15 10 14 11 6 12
REMARK SMILES IDX 7 13 8 14 9 15 13 16 11 17 10 18 12 20 4 22 21 24 18 26
REMARK H PARENT 10 19 12 21 4 23 21 25 18 27
REMARK Flexibility Score: inf
ROOT
ATOM      1  C   UNL     1     123.154 130.640 127.846  1.00  0.00     0.180 A 
ATOM      2  C   UNL     1     123.081 131.670 128.799  1.00  0.00     0.208 A 
ATOM      3  C   UNL     1     123.666 132.913 128.506  1.00  0.00     0.238 A 
ATOM      4  O   UNL     1     123.549 133.847 129.340  1.00  0.00    -0.285 OA
ATOM      5  C   UNL     1     124.329 133.106 127.270  1.00  0.00     0.111 A 
ATOM      6  C   UNL     1     124.990 134.310 126.884  1.00  0.00     0.134 A 
ATOM      7  C   UNL     1     125.501 134.432 125.586  1.00  0.00     0.093 A 
ATOM      8  C   UNL     1     125.430 133.369 124.681  1.00  0.00     0.123 A 
ATOM      9  C   UNL     1     124.840 132.169 125.068  1.00  0.00     0.094 A 
ATOM     10  C   UNL     1     124.289 132.029 126.345  1.00  0.00     0.146 A 
ATOM     11  O   UNL     1     123.726 130.872 126.670  1.00  0.00    -0.452 OA
ENDROOT
BRANCH   1  12
ATOM     12  C   UNL     1     122.585 129.296 128.093  1.00  0.00     0.025 A 
ATOM     13  C   UNL     1     121.840 129.065 129.260  1.00  0.00     0.016 A 
ATOM     14  C   UNL     1     121.275 127.810 129.504  1.00  0.00     0.051 A 
ATOM     15  C   UNL     1     121.435 126.773 128.575  1.00  0.00     0.157 A 
ATOM     16  C   UNL     1     122.725 128.258 127.154  1.00  0.00     0.062 A 
ATOM     17  C   UNL     1     122.157 126.998 127.397  1.00  0.00     0.158 A 
BRANCH  15  18
ATOM     18  O   UNL     1     120.875 125.519 128.816  1.00  0.00    -0.504 OA
ATOM     19  H   UNL     1     120.391 125.006 128.090  1.00  0.00     0.293 HD
ENDBRANCH  15  18
BRANCH  17  20
ATOM     20  O   UNL     1     122.301 125.968 126.469  1.00  0.00    -0.504 OA
ATOM     21  H   UNL     1     123.198 125.529 126.300  1.00  0.00     0.293 HD
ENDBRANCH  17  20
ENDBRANCH   1  12
BRANCH   2  22
ATOM     22  O   UNL     1     122.402 131.466 130.003  1.00  0.00    -0.502 OA
ATOM     23  H   UNL     1     122.063 130.556 130.290  1.00  0.00     0.293 HD
ENDBRANCH   2  22
BRANCH   6  24
ATOM     24  O   UNL     1     125.195 135.396 127.740  1.00  0.00    -0.507 OA
ATOM     25  H   UNL     1     126.010 135.990 127.729  1.00  0.00     0.293 HD
ENDBRANCH   6  24
BRANCH   8  26
ATOM     26  O   UNL     1     125.955 133.494 123.396  1.00  0.00    -0.508 OA
ATOM     27  H   UNL     1     125.681 134.253 122.783  1.00  0.00     0.293 HD
ENDBRANCH   8  26
TORSDOF 6
ENDMDL
MODEL 2
REMARK VINA RESULT:    13.472      3.837      5.777
REMARK INTER + INTRA:          16.770
REMARK INTER:                  17.061
REMARK INTRA:                  -0.292
REMARK UNBOUND:                 0.541
REMARK SMILES O=c1c(O)c(-c2ccc(O)c(O)c2)oc2cc(O)cc(O)c12
REMARK SMILES IDX 5 1 3 2 2 3 1 4 22 5 20 6 19 7 17 8 16 9 15 10 14 11 6 12
REMARK SMILES IDX 7 13 8 14 9 15 13 16 11 17 10 18 12 20 4 22 21 24 18 26
REMARK H PARENT 10 19 12 21 4 23 21 25 18 27
REMARK Flexibility Score: inf
ROOT
ATOM      1  C   UNL     1     123.373 133.917 126.437  1.00  0.00     0.180 A 
ATOM      2  C   UNL     1     123.027 133.536 127.745  1.00  0.00     0.208 A 
ATOM      3  C   UNL     1     122.330 134.444 128.557  1.00  0.00     0.238 A 
ATOM      4  O   UNL     1     121.975 134.077 129.707  1.00  0.00    -0.285 OA
ATOM      5  C   UNL     1     122.001 135.728 128.058  1.00  0.00     0.111 A 
ATOM      6  C   UNL     1     121.331 136.742 128.807  1.00  0.00     0.134 A 
ATOM      7  C   UNL     1     120.941 137.927 128.170  1.00  0.00     0.093 A 
ATOM      8  C   UNL     1     121.255 138.160 126.828  1.00  0.00     0.123 A 
ATOM      9  C   UNL     1     121.960 137.201 126.105  1.00  0.00     0.094 A 
ATOM     10  C   UNL     1     122.331 135.994 126.703  1.00  0.00     0.146 A 
ATOM     11  O   UNL     1     122.993 135.102 125.975  1.00  0.00    -0.452 OA
ENDROOT
BRANCH   1  12
ATOM     12  C   UNL     1     124.129 133.024 125.531  1.00  0.00     0.025 A 
ATOM     13  C   UNL     1     123.451 132.013 124.831  1.00  0.00     0.016 A 
ATOM     14  C   UNL     1     124.141 131.172 123.954  1.00  0.00     0.051 A 
ATOM     15  C   UNL     1     125.517 131.341 123.752  1.00  0.00     0.157 A 
ATOM     16  C   UNL     1     125.507 133.202 125.309  1.00  0.00     0.062 A 
ATOM     17  C   UNL     1     126.200 132.359 124.427  1.00  0.00     0.158 A 
BRANCH  15  18
ATOM     18  O   UNL     1     126.210 130.502 122.880  1.00  0.00    -0.504 OA
ATOM     19  H   UNL     1     126.447 130.794 121.939  1.00  0.00     0.293 HD
ENDBRANCH  15  18
BRANCH  17  20
ATOM     20  O   UNL     1     127.567 132.533 124.213  1.00  0.00    -0.504 OA
ATOM     21  H   UNL     1     127.926 133.331 123.704  1.00  0.00     0.293 HD
ENDBRANCH  17  20
ENDBRANCH   1  12
BRANCH   2  22
ATOM     22  O   UNL     1     123.342 132.256 128.211  1.00  0.00    -0.502 OA
ATOM     23  H   UNL     1     123.193 131.423 127.655  1.00  0.00     0.293 HD
ENDBRANCH   2  22
BRANCH   6  24
ATOM     24  O   UNL     1     121.053 136.647 130.173  1.00  0.00    -0.507 OA
ATOM     25  H   UNL     1     121.723 136.382 130.879  1.00  0.00     0.293 HD
ENDBRANCH   6  24
BRANCH   8  26
ATOM     26  O   UNL     1     120.876 139.348 126.207  1.00  0.00    -0.508 OA
ATOM     27  H   UNL     1     119.910 139.653 126.190  1.00  0.00     0.293 HD
ENDBRANCH   8  26
TORSDOF 6
ENDMDL
MODEL 3
REMARK VINA RESULT:    13.993      1.981      3.783
REMARK INTER + INTRA:          17.397
REMARK INTER:                  17.292
REMARK INTRA:                   0.105
REMARK UNBOUND:                 0.541
REMARK SMILES O=c1c(O)c(-c2ccc(O)c(O)c2)oc2cc(O)cc(O)c12
REMARK SMILES IDX 5 1 3 2 2 3 1 4 22 5 20 6 19 7 17 8 16 9 15 10 14 11 6 12
REMARK SMILES IDX 7 13 8 14 9 15 13 16 11 17 10 18 12 20 4 22 21 24 18 26
REMARK H PARENT 10 19 12 21 4 23 21 25 18 27
REMARK Flexibility Score: inf
ROOT
ATOM      1  C   UNL     1     124.063 132.161 126.385  1.00  0.00     0.180 A 
ATOM      2  C   UNL     1     124.130 132.035 124.987  1.00  0.00     0.208 A 
ATOM      3  C   UNL     1     124.822 133.008 124.247  1.00  0.00     0.238 A 
ATOM      4  O   UNL     1     124.925 132.861 123.002  1.00  0.00    -0.285 OA
ATOM      5  C   UNL     1     125.425 134.103 124.913  1.00  0.00     0.111 A 
ATOM      6  C   UNL     1     126.117 135.167 124.261  1.00  0.00     0.134 A 
ATOM      7  C   UNL     1     126.785 136.129 125.029  1.00  0.00     0.093 A 
ATOM      8  C   UNL     1     126.732 136.100 126.425  1.00  0.00     0.123 A 
ATOM      9  C   UNL     1     126.009 135.099 127.070  1.00  0.00     0.094 A 
ATOM     10  C   UNL     1     125.362 134.105 126.332  1.00  0.00     0.146 A 
ATOM     11  O   UNL     1     124.694 133.163 126.986  1.00  0.00    -0.452 OA
ENDROOT
BRANCH   1  12
ATOM     12  C   UNL     1     123.331 131.190 127.228  1.00  0.00     0.025 A 
ATOM     13  C   UNL     1     122.063 130.742 126.825  1.00  0.00     0.016 A 
ATOM     14  C   UNL     1     121.362 129.809 127.596  1.00  0.00     0.051 A 
ATOM     15  C   UNL     1     121.929 129.300 128.772  1.00  0.00     0.157 A 
ATOM     16  C   UNL     1     123.904 130.659 128.399  1.00  0.00     0.062 A 
ATOM     17  C   UNL     1     123.202 129.722 129.172  1.00  0.00     0.158 A 
BRANCH  15  18
ATOM     18  O   UNL     1     121.232 128.371 129.544  1.00  0.00    -0.504 OA
ATOM     19  H   UNL     1     120.548 128.660 130.232  1.00  0.00     0.293 HD
ENDBRANCH  15  18
BRANCH  17  20
ATOM     20  O   UNL     1     123.767 129.201 130.335  1.00  0.00    -0.504 OA
ATOM     21  H   UNL     1     124.179 128.276 130.356  1.00  0.00     0.293 HD
ENDBRANCH  17  20
ENDBRANCH   1  12
BRANCH   2  22
ATOM     22  O   UNL     1     123.548 130.936 124.351  1.00  0.00    -0.502 OA
ATOM     23  H   UNL     1     123.645 129.990 124.701  1.00  0.00     0.293 HD
ENDBRANCH   2  22
BRANCH   6  24
ATOM     24  O   UNL     1     126.153 135.340 122.875  1.00  0.00    -0.507 OA
ATOM     25  H   UNL     1     126.957 135.157 122.294  1.00  0.00     0.293 HD
ENDBRANCH   6  24
BRANCH   8  26
ATOM     26  O   UNL     1     127.388 137.070 127.181  1.00  0.00    -0.508 OA
ATOM     27  H   UNL     1     128.059 137.703 126.764  1.00  0.00     0.293 HD
ENDBRANCH   8  26
TORSDOF 6
ENDMDL
