MODEL 1
REMARK VINA RESULT:    -3.462      0.000      0.000
REMARK INTER + INTRA:          -4.034
REMARK INTER:                  -3.968
REMARK INTRA:                  -0.066
REMARK UNBOUND:                -0.066
REMARK SMILES CC(C)[C@H]([NH3+])C(=O)[O-]
REMARK SMILES IDX 4 1 5 2 6 6 7 7 8 8 2 9 1 10 3 11
REMARK H PARENT 5 3 5 4 5 5
REMARK Flexibility Score: inf
ROOT
ATOM      1  C   UNL     1     120.226 131.604 135.471  1.00  0.00     0.230 C 
ENDROOT
BRANCH   1   2
ATOM      2  N   UNL     1     121.426 131.503 134.626  1.00  0.00    -0.350 N 
ATOM      3  H   UNL     1     121.274 130.815 133.857  1.00  0.00     0.345 HD
ATOM      4  H   UNL     1     122.264 131.223 135.184  1.00  0.00     0.345 HD
ATOM      5  H   UNL     1     121.619 132.433 134.184  1.00  0.00     0.345 HD
ENDBRANCH   1   2
BRANCH   1   6
ATOM      6  C   UNL     1     119.373 132.776 135.051  1.00  0.00     0.099 C 
ATOM      7  O   UNL     1     119.112 133.690 135.877  1.00  0.00    -0.544 OA
ATOM      8  O   UNL     1     118.908 132.885 133.744  1.00  0.00    -0.544 OA
ENDBRANCH   1   6
BRANCH   1   9
ATOM      9  C   UNL     1     120.555 131.675 136.993  1.00  0.00     0.047 C 
ATOM     10  C   UNL     1     122.057 131.572 137.303  1.00  0.00     0.014 C 
ATOM     11  C   UNL     1     119.775 130.623 137.796  1.00  0.00     0.014 C 
ENDBRANCH   1   9
TORSDOF 3
ENDMDL
MODEL 2
REMARK VINA RESULT:    -3.446     14.663     15.259
REMARK INTER + INTRA:          -4.015
REMARK INTER:                  -3.949
REMARK INTRA:                  -0.067
REMARK UNBOUND:                -0.066
REMARK SMILES CC(C)[C@H]([NH3+])C(=O)[O-]
REMARK SMILES IDX 4 1 5 2 6 6 7 7 8 8 2 9 1 10 3 11
REMARK H PARENT 5 3 5 4 5 5
REMARK Flexibility Score: inf
ROOT
ATOM      1  C   UNL     1     134.841 132.576 135.430  1.00  0.00     0.230 C 
ENDROOT
BRANCH   1   2
ATOM      2  N   UNL     1     134.147 131.585 134.594  1.00  0.00    -0.350 N 
ATOM      3  H   UNL     1     134.697 131.387 133.730  1.00  0.00     0.345 HD
ATOM      4  H   UNL     1     133.189 131.910 134.331  1.00  0.00     0.345 HD
ATOM      5  H   UNL     1     134.057 130.686 135.123  1.00  0.00     0.345 HD
ENDBRANCH   1   2
BRANCH   1   6
ATOM      6  C   UNL     1     136.285 132.713 135.010  1.00  0.00     0.099 C 
ATOM      7  O   UNL     1     137.204 132.532 135.852  1.00  0.00    -0.544 OA
ATOM      8  O   UNL     1     136.616 132.992 133.688  1.00  0.00    -0.544 OA
ENDBRANCH   1   6
BRANCH   1   9
ATOM      9  C   UNL     1     134.735 132.270 136.955  1.00  0.00     0.047 C 
ATOM     10  C   UNL     1     133.931 130.999 137.273  1.00  0.00     0.014 C 
ATOM     11  C   UNL     1     134.170 133.463 137.740  1.00  0.00     0.014 C 
ENDBRANCH   1   9
TORSDOF 3
ENDMDL
MODEL 3
REMARK VINA RESULT:    -3.442     17.339     18.041
REMARK INTER + INTRA:          -4.011
REMARK INTER:                  -4.056
REMARK INTRA:                   0.045
REMARK UNBOUND:                -0.066
REMARK SMILES CC(C)[C@H]([NH3+])C(=O)[O-]
REMARK SMILES IDX 4 1 5 2 6 6 7 7 8 8 2 9 1 10 3 11
REMARK H PARENT 5 3 5 4 5 5
REMARK Flexibility Score: inf
ROOT
ATOM      1  C   UNL     1     120.581 122.441 120.712  1.00  0.00     0.230 C 
ENDROOT
BRANCH   1   2
ATOM      2  N   UNL     1     121.375 123.643 120.411  1.00  0.00    -0.350 N 
ATOM      3  H   UNL     1     120.761 124.404 120.047  1.00  0.00     0.345 HD
ATOM      4  H   UNL     1     122.128 123.439 119.715  1.00  0.00     0.345 HD
ATOM      5  H   UNL     1     121.824 123.992 121.290  1.00  0.00     0.345 HD
ENDBRANCH   1   2
BRANCH   1   6
ATOM      6  C   UNL     1     119.576 122.176 119.618  1.00  0.00     0.099 C 
ATOM      7  O   UNL     1     119.210 123.114 118.861  1.00  0.00    -0.544 OA
ATOM      8  O   UNL     1     119.082 120.894 119.402  1.00  0.00    -0.544 OA
ENDBRANCH   1   6
BRANCH   1   9
ATOM      9  C   UNL     1     119.881 122.506 122.104  1.00  0.00     0.047 C 
ATOM     10  C   UNL     1     119.619 121.124 122.726  1.00  0.00     0.014 C 
ATOM     11  C   UNL     1     118.580 123.319 122.053  1.00  0.00     0.014 C 
ENDBRANCH   1   9
TORSDOF 3
ENDMDL
MODEL 4
REMARK VINA RESULT:    -3.400     16.835     17.659
REMARK INTER + INTRA:          -3.963
REMARK INTER:                  -3.961
REMARK INTRA:                  -0.001
REMARK UNBOUND:                -0.066
REMARK SMILES CC(C)[C@H]([NH3+])C(=O)[O-]
REMARK SMILES IDX 4 1 5 2 6 6 7 7 8 8 2 9 1 10 3 11
REMARK H PARENT 5 3 5 4 5 5
REMARK Flexibility Score: inf
ROOT
ATOM      1  C   UNL     1     119.786 121.636 121.070  1.00  0.00     0.230 C 
ENDROOT
BRANCH   1   2
ATOM      2  N   UNL     1     120.949 121.315 121.912  1.00  0.00    -0.350 N 
ATOM      3  H   UNL     1     120.926 120.313 122.200  1.00  0.00     0.345 HD
ATOM      4  H   UNL     1     120.984 121.922 122.763  1.00  0.00     0.345 HD
ATOM      5  H   UNL     1     121.828 121.466 121.363  1.00  0.00     0.345 HD
ENDBRANCH   1   2
BRANCH   1   6
ATOM      6  C   UNL     1     120.066 122.844 120.209  1.00  0.00     0.099 C 
ATOM      7  O   UNL     1     121.063 123.573 120.455  1.00  0.00    -0.544 OA
ATOM      8  O   UNL     1     119.262 123.137 119.113  1.00  0.00    -0.544 OA
ENDBRANCH   1   6
BRANCH   1   9
ATOM      9  C   UNL     1     118.474 121.830 121.890  1.00  0.00     0.047 C 
ATOM     10  C   UNL     1     118.247 123.278 122.354  1.00  0.00     0.014 C 
ATOM     11  C   UNL     1     118.401 120.872 123.088  1.00  0.00     0.014 C 
ENDBRANCH   1   9
TORSDOF 3
ENDMDL
MODEL 5
REMARK VINA RESULT:    -3.371     16.985     17.893
REMARK INTER + INTRA:          -3.929
REMARK INTER:                  -3.878
REMARK INTRA:                  -0.052
REMARK UNBOUND:                -0.066
REMARK SMILES CC(C)[C@H]([NH3+])C(=O)[O-]
REMARK SMILES IDX 4 1 5 2 6 6 7 7 8 8 2 9 1 10 3 11
REMARK H PARENT 5 3 5 4 5 5
REMARK Flexibility Score: inf
ROOT
ATOM      1  C   UNL     1     119.837 122.518 121.351  1.00  0.00     0.230 C 
ENDROOT
BRANCH   1   2
ATOM      2  N   UNL     1     121.032 122.386 120.503  1.00  0.00    -0.350 N 
ATOM      3  H   UNL     1     121.408 121.414 120.551  1.00  0.00     0.345 HD
ATOM      4  H   UNL     1     121.777 123.062 120.784  1.00  0.00     0.345 HD
ATOM      5  H   UNL     1     120.773 122.576 119.506  1.00  0.00     0.345 HD
ENDBRANCH   1   2
BRANCH   1   6
ATOM      6  C   UNL     1     119.427 121.177 121.909  1.00  0.00     0.099 C 
ATOM      7  O   UNL     1     119.508 120.961 123.148  1.00  0.00    -0.544 OA
ATOM      8  O   UNL     1     118.913 120.188 121.078  1.00  0.00    -0.544 OA
ENDBRANCH   1   6
BRANCH   1   9
ATOM      9  C   UNL     1     118.642 123.203 120.620  1.00  0.00     0.047 C 
ATOM     10  C   UNL     1     119.048 123.933 119.329  1.00  0.00     0.014 C 
ATOM     11  C   UNL     1     117.875 124.156 121.549  1.00  0.00     0.014 C 
ENDBRANCH   1   9
TORSDOF 3
ENDMDL
MODEL 6
REMARK VINA RESULT:    -3.324      1.638      2.231
REMARK INTER + INTRA:          -3.876
REMARK INTER:                  -3.814
REMARK INTRA:                  -0.062
REMARK UNBOUND:                -0.066
REMARK SMILES CC(C)[C@H]([NH3+])C(=O)[O-]
REMARK SMILES IDX 4 1 5 2 6 6 7 7 8 8 2 9 1 10 3 11
REMARK H PARENT 5 3 5 4 5 5
REMARK Flexibility Score: inf
ROOT
ATOM      1  C   UNL     1     119.722 132.461 136.115  1.00  0.00     0.230 C 
ENDROOT
BRANCH   1   2
ATOM      2  N   UNL     1     118.340 132.609 136.599  1.00  0.00    -0.350 N 
ATOM      3  H   UNL     1     118.332 132.806 137.624  1.00  0.00     0.345 HD
ATOM      4  H   UNL     1     117.773 131.753 136.404  1.00  0.00     0.345 HD
ATOM      5  H   UNL     1     117.889 133.422 136.118  1.00  0.00     0.345 HD
ENDBRANCH   1   2
BRANCH   1   6
ATOM      6  C   UNL     1     119.752 132.344 134.611  1.00  0.00     0.099 C 
ATOM      7  O   UNL     1     120.356 131.382 134.068  1.00  0.00    -0.544 OA
ATOM      8  O   UNL     1     119.077 133.263 133.813  1.00  0.00    -0.544 OA
ENDBRANCH   1   6
BRANCH   1   9
ATOM      9  C   UNL     1     120.477 131.270 136.780  1.00  0.00     0.047 C 
ATOM     10  C   UNL     1     119.678 130.582 137.898  1.00  0.00     0.014 C 
ATOM     11  C   UNL     1     121.861 131.688 137.297  1.00  0.00     0.014 C 
ENDBRANCH   1   9
TORSDOF 3
ENDMDL
MODEL 7
REMARK VINA RESULT:    -3.324      2.648      3.412
REMARK INTER + INTRA:          -3.875
REMARK INTER:                  -3.825
REMARK INTRA:                  -0.050
REMARK UNBOUND:                -0.066
REMARK SMILES CC(C)[C@H]([NH3+])C(=O)[O-]
REMARK SMILES IDX 4 1 5 2 6 6 7 7 8 8 2 9 1 10 3 11
REMARK H PARENT 5 3 5 4 5 5
REMARK Flexibility Score: inf
ROOT
ATOM      1  C   UNL     1     120.411 131.182 134.851  1.00  0.00     0.230 C 
ENDROOT
BRANCH   1   2
ATOM      2  N   UNL     1     120.502 130.347 136.058  1.00  0.00    -0.350 N 
ATOM      3  H   UNL     1     120.111 130.853 136.882  1.00  0.00     0.345 HD
ATOM      4  H   UNL     1     121.489 130.068 136.257  1.00  0.00     0.345 HD
ATOM      5  H   UNL     1     119.934 129.478 135.923  1.00  0.00     0.345 HD
ENDBRANCH   1   2
BRANCH   1   6
ATOM      6  C   UNL     1     121.765 131.332 134.200  1.00  0.00     0.099 C 
ATOM      7  O   UNL     1     121.881 131.196 132.953  1.00  0.00    -0.544 OA
ATOM      8  O   UNL     1     122.883 131.666 134.957  1.00  0.00    -0.544 OA
ENDBRANCH   1   6
BRANCH   1   9
ATOM      9  C   UNL     1     119.768 132.577 135.120  1.00  0.00     0.047 C 
ATOM     10  C   UNL     1     118.906 132.622 136.392  1.00  0.00     0.014 C 
ATOM     11  C   UNL     1     118.958 133.075 133.914  1.00  0.00     0.014 C 
ENDBRANCH   1   9
TORSDOF 3
ENDMDL
MODEL 8
REMARK VINA RESULT:    -3.317     14.389     15.152
REMARK INTER + INTRA:          -3.867
REMARK INTER:                  -3.806
REMARK INTRA:                  -0.061
REMARK UNBOUND:                -0.066
REMARK SMILES CC(C)[C@H]([NH3+])C(=O)[O-]
REMARK SMILES IDX 4 1 5 2 6 6 7 7 8 8 2 9 1 10 3 11
REMARK H PARENT 5 3 5 4 5 5
REMARK Flexibility Score: inf
ROOT
ATOM      1  C   UNL     1     135.706 132.475 135.992  1.00  0.00     0.230 C 
ENDROOT
BRANCH   1   2
ATOM      2  N   UNL     1     136.608 133.514 136.514  1.00  0.00    -0.350 N 
ATOM      3  H   UNL     1     137.150 133.950 135.736  1.00  0.00     0.345 HD
ATOM      4  H   UNL     1     137.269 133.125 137.224  1.00  0.00     0.345 HD
ATOM      5  H   UNL     1     136.043 134.269 136.968  1.00  0.00     0.345 HD
ENDBRANCH   1   2
BRANCH   1   6
ATOM      6  C   UNL     1     135.540 132.613 134.498  1.00  0.00     0.099 C 
ATOM      7  O   UNL     1     134.404 132.455 133.976  1.00  0.00    -0.544 OA
ATOM      8  O   UNL     1     136.618 132.960 133.692  1.00  0.00    -0.544 OA
ENDBRANCH   1   6
BRANCH   1   9
ATOM      9  C   UNL     1     134.320 132.456 136.706  1.00  0.00     0.047 C 
ATOM     10  C   UNL     1     134.186 133.509 137.817  1.00  0.00     0.014 C 
ATOM     11  C   UNL     1     133.978 131.062 137.252  1.00  0.00     0.014 C 
ENDBRANCH   1   9
TORSDOF 3
ENDMDL
MODEL 9
REMARK VINA RESULT:    -3.283     14.299     15.298
REMARK INTER + INTRA:          -3.829
REMARK INTER:                  -3.781
REMARK INTRA:                  -0.048
REMARK UNBOUND:                -0.066
REMARK SMILES CC(C)[C@H]([NH3+])C(=O)[O-]
REMARK SMILES IDX 4 1 5 2 6 6 7 7 8 8 2 9 1 10 3 11
REMARK H PARENT 5 3 5 4 5 5
REMARK Flexibility Score: inf
ROOT
ATOM      1  C   UNL     1     135.010 132.107 135.555  1.00  0.00     0.230 C 
ENDROOT
BRANCH   1   2
ATOM      2  N   UNL     1     134.285 132.146 136.834  1.00  0.00    -0.350 N 
ATOM      3  H   UNL     1     133.285 131.883 136.695  1.00  0.00     0.345 HD
ATOM      4  H   UNL     1     134.338 133.092 137.275  1.00  0.00     0.345 HD
ATOM      5  H   UNL     1     134.706 131.450 137.494  1.00  0.00     0.345 HD
ENDBRANCH   1   2
BRANCH   1   6
ATOM      6  C   UNL     1     136.357 132.777 135.683  1.00  0.00     0.099 C 
ATOM      7  O   UNL     1     136.575 133.571 136.637  1.00  0.00    -0.544 OA
ATOM      8  O   UNL     1     137.381 132.492 134.786  1.00  0.00    -0.544 OA
ENDBRANCH   1   6
BRANCH   1   9
ATOM      9  C   UNL     1     134.197 132.718 134.373  1.00  0.00     0.047 C 
ATOM     10  C   UNL     1     132.799 133.213 134.779  1.00  0.00     0.014 C 
ATOM     11  C   UNL     1     134.091 131.746 133.189  1.00  0.00     0.014 C 
ENDBRANCH   1   9
TORSDOF 3
ENDMDL
