MODEL 1
REMARK VINA RESULT:    -5.188      0.000      0.000
REMARK INTER + INTRA:          -7.668
REMARK INTER:                  -6.553
REMARK INTRA:                  -1.115
REMARK UNBOUND:                -1.115
REMARK SMILES O=C(C=Cc1ccc(O)cc1)c1ccc(O)cc1O
REMARK SMILES IDX 4 1 3 2 5 3 6 4 7 5 8 6 11 7 10 8 9 9 2 11 1 12 12 13 18 14
REMARK SMILES IDX 13 15 17 16 14 17 15 18 19 19 16 21
REMARK H PARENT 9 10 19 20 16 22
REMARK Flexibility Score: inf
ROOT
ATOM      1  C   UNL     1      43.677  20.604  -4.582  1.00  0.00     0.012 C 
ATOM      2  C   UNL     1      43.975  19.731  -5.558  1.00  0.00     0.053 C 
ENDROOT
BRANCH   1   3
ATOM      3  C   UNL     1      42.810  20.329  -3.419  1.00  0.00    -0.025 A 
ATOM      4  C   UNL     1      43.341  20.426  -2.125  1.00  0.00     0.012 A 
ATOM      5  C   UNL     1      42.523  20.219  -1.010  1.00  0.00     0.047 A 
ATOM      6  C   UNL     1      41.163  19.934  -1.176  1.00  0.00     0.115 A 
ATOM      7  C   UNL     1      41.437  20.073  -3.583  1.00  0.00     0.012 A 
ATOM      8  C   UNL     1      40.621  19.866  -2.466  1.00  0.00     0.047 A 
BRANCH   6   9
ATOM      9  O   UNL     1      40.362  19.729  -0.056  1.00  0.00    -0.508 OA
ATOM     10  H   UNL     1      40.496  18.929   0.552  1.00  0.00     0.293 HD
ENDBRANCH   6   9
ENDBRANCH   1   3
BRANCH   2  11
ATOM     11  C   UNL     1      43.636  18.286  -5.558  1.00  0.00     0.189 C 
ATOM     12  O   UNL     1      42.639  17.857  -6.200  1.00  0.00    -0.289 OA
BRANCH  11  13
ATOM     13  C   UNL     1      44.459  17.318  -4.803  1.00  0.00     0.064 A 
ATOM     14  C   UNL     1      43.961  16.644  -3.667  1.00  0.00     0.130 A 
ATOM     15  C   UNL     1      45.763  17.042  -5.247  1.00  0.00     0.020 A 
ATOM     16  C   UNL     1      44.784  15.744  -2.974  1.00  0.00     0.093 A 
ATOM     17  C   UNL     1      46.573  16.139  -4.554  1.00  0.00     0.047 A 
ATOM     18  C   UNL     1      46.090  15.491  -3.415  1.00  0.00     0.119 A 
BRANCH  14  19
ATOM     19  O   UNL     1      42.647  16.844  -3.245  1.00  0.00    -0.507 OA
ATOM     20  H   UNL     1      42.415  17.519  -2.526  1.00  0.00     0.293 HD
ENDBRANCH  14  19
BRANCH  18  21
ATOM     21  O   UNL     1      46.910  14.597  -2.732  1.00  0.00    -0.508 OA
ATOM     22  H   UNL     1      46.681  13.611  -2.667  1.00  0.00     0.293 HD
ENDBRANCH  18  21
ENDBRANCH  11  13
ENDBRANCH   2  11
TORSDOF 6
ENDMDL
MODEL 2
REMARK VINA RESULT:    -4.992      6.822      8.735
REMARK INTER + INTRA:          -7.419
REMARK INTER:                  -6.296
REMARK INTRA:                  -1.124
REMARK UNBOUND:                -1.115
REMARK SMILES O=C(C=Cc1ccc(O)cc1)c1ccc(O)cc1O
REMARK SMILES IDX 4 1 3 2 5 3 6 4 7 5 8 6 11 7 10 8 9 9 2 11 1 12 12 13 18 14
REMARK SMILES IDX 13 15 17 16 14 17 15 18 19 19 16 21
REMARK H PARENT 9 10 19 20 16 22
REMARK Flexibility Score: inf
ROOT
ATOM      1  C   UNL     1      47.356  13.372  -5.494  1.00  0.00     0.012 C 
ATOM      2  C   UNL     1      47.938  14.448  -6.047  1.00  0.00     0.053 C 
ENDROOT
BRANCH   1   3
ATOM      3  C   UNL     1      47.782  12.713  -4.244  1.00  0.00    -0.025 A 
ATOM      4  C   UNL     1      48.757  11.706  -4.293  1.00  0.00     0.012 A 
ATOM      5  C   UNL     1      49.211  11.106  -3.114  1.00  0.00     0.047 A 
ATOM      6  C   UNL     1      48.712  11.520  -1.874  1.00  0.00     0.115 A 
ATOM      7  C   UNL     1      47.304  13.149  -2.995  1.00  0.00     0.012 A 
ATOM      8  C   UNL     1      47.760  12.547  -1.818  1.00  0.00     0.047 A 
BRANCH   6   9
ATOM      9  O   UNL     1      49.172  10.913  -0.710  1.00  0.00    -0.508 OA
ATOM     10  H   UNL     1      49.799  10.116  -0.740  1.00  0.00     0.293 HD
ENDBRANCH   6   9
ENDBRANCH   1   3
BRANCH   2  11
ATOM     11  C   UNL     1      48.997  15.277  -5.420  1.00  0.00     0.189 C 
ATOM     12  O   UNL     1      48.719  16.084  -4.492  1.00  0.00    -0.289 OA
BRANCH  11  13
ATOM     13  C   UNL     1      50.400  15.177  -5.873  1.00  0.00     0.064 A 
ATOM     14  C   UNL     1      51.052  16.250  -6.518  1.00  0.00     0.130 A 
ATOM     15  C   UNL     1      51.111  13.991  -5.626  1.00  0.00     0.020 A 
ATOM     16  C   UNL     1      52.381  16.105  -6.942  1.00  0.00     0.093 A 
ATOM     17  C   UNL     1      52.437  13.858  -6.046  1.00  0.00     0.047 A 
ATOM     18  C   UNL     1      53.074  14.909  -6.708  1.00  0.00     0.119 A 
BRANCH  14  19
ATOM     19  O   UNL     1      50.395  17.464  -6.712  1.00  0.00    -0.507 OA
ATOM     20  H   UNL     1      49.810  17.631  -7.523  1.00  0.00     0.293 HD
ENDBRANCH  14  19
BRANCH  18  21
ATOM     21  O   UNL     1      54.394  14.760  -7.125  1.00  0.00    -0.508 OA
ATOM     22  H   UNL     1      55.172  15.002  -6.521  1.00  0.00     0.293 HD
ENDBRANCH  18  21
ENDBRANCH  11  13
ENDBRANCH   2  11
TORSDOF 6
ENDMDL
MODEL 3
REMARK VINA RESULT:    -4.951      1.839      2.659
REMARK INTER + INTRA:          -7.368
REMARK INTER:                  -6.155
REMARK INTRA:                  -1.213
REMARK UNBOUND:                -1.115
REMARK SMILES O=C(C=Cc1ccc(O)cc1)c1ccc(O)cc1O
REMARK SMILES IDX 4 1 3 2 5 3 6 4 7 5 8 6 11 7 10 8 9 9 2 11 1 12 12 13 18 14
REMARK SMILES IDX 13 15 17 16 14 17 15 18 19 19 16 21
REMARK H PARENT 9 10 19 20 16 22
REMARK Flexibility Score: inf
ROOT
ATOM      1  C   UNL     1      40.493  19.431  -4.403  1.00  0.00     0.012 C 
ATOM      2  C   UNL     1      40.079  18.184  -4.682  1.00  0.00     0.053 C 
ENDROOT
BRANCH   1   3
ATOM      3  C   UNL     1      41.451  19.799  -3.341  1.00  0.00    -0.025 A 
ATOM      4  C   UNL     1      41.081  19.650  -1.997  1.00  0.00     0.012 A 
ATOM      5  C   UNL     1      41.992  19.945  -0.978  1.00  0.00     0.047 A 
ATOM      6  C   UNL     1      43.288  20.371  -1.292  1.00  0.00     0.115 A 
ATOM      7  C   UNL     1      42.763  20.198  -3.655  1.00  0.00     0.012 A 
ATOM      8  C   UNL     1      43.672  20.493  -2.634  1.00  0.00     0.047 A 
BRANCH   6   9
ATOM      9  O   UNL     1      44.183  20.663  -0.267  1.00  0.00    -0.508 OA
ATOM     10  H   UNL     1      44.889  21.384  -0.370  1.00  0.00     0.293 HD
ENDBRANCH   6   9
ENDBRANCH   1   3
BRANCH   2  11
ATOM     11  C   UNL     1      40.637  16.937  -4.102  1.00  0.00     0.189 C 
ATOM     12  O   UNL     1      39.875  16.017  -3.700  1.00  0.00    -0.289 OA
BRANCH  11  13
ATOM     13  C   UNL     1      42.097  16.749  -3.980  1.00  0.00     0.064 A 
ATOM     14  C   UNL     1      42.703  16.400  -2.754  1.00  0.00     0.130 A 
ATOM     15  C   UNL     1      42.900  16.894  -5.124  1.00  0.00     0.020 A 
ATOM     16  C   UNL     1      44.096  16.245  -2.682  1.00  0.00     0.093 A 
ATOM     17  C   UNL     1      44.285  16.732  -5.045  1.00  0.00     0.047 A 
ATOM     18  C   UNL     1      44.888  16.412  -3.826  1.00  0.00     0.119 A 
BRANCH  14  19
ATOM     19  O   UNL     1      41.925  16.178  -1.618  1.00  0.00    -0.507 OA
ATOM     20  H   UNL     1      41.021  15.723  -1.671  1.00  0.00     0.293 HD
ENDBRANCH  14  19
BRANCH  18  21
ATOM     21  O   UNL     1      46.270  16.257  -3.762  1.00  0.00    -0.508 OA
ATOM     22  H   UNL     1      46.799  16.552  -2.950  1.00  0.00     0.293 HD
ENDBRANCH  18  21
ENDBRANCH  11  13
ENDBRANCH   2  11
TORSDOF 6
ENDMDL
MODEL 4
REMARK VINA RESULT:    -4.887      1.991      4.958
REMARK INTER + INTRA:          -7.287
REMARK INTER:                  -5.883
REMARK INTRA:                  -1.405
REMARK UNBOUND:                -1.115
REMARK SMILES O=C(C=Cc1ccc(O)cc1)c1ccc(O)cc1O
REMARK SMILES IDX 4 1 3 2 5 3 6 4 7 5 8 6 11 7 10 8 9 9 2 11 1 12 12 13 18 14
REMARK SMILES IDX 13 15 17 16 14 17 15 18 19 19 16 21
REMARK H PARENT 9 10 19 20 16 22
REMARK Flexibility Score: inf
ROOT
ATOM      1  C   UNL     1      44.369  19.114  -5.310  1.00  0.00     0.012 C 
ATOM      2  C   UNL     1      43.735  20.291  -5.434  1.00  0.00     0.053 C 
ENDROOT
BRANCH   1   3
ATOM      3  C   UNL     1      43.792  17.885  -4.731  1.00  0.00    -0.025 A 
ATOM      4  C   UNL     1      43.942  17.633  -3.360  1.00  0.00     0.012 A 
ATOM      5  C   UNL     1      43.359  16.501  -2.782  1.00  0.00     0.047 A 
ATOM      6  C   UNL     1      42.603  15.620  -3.564  1.00  0.00     0.115 A 
ATOM      7  C   UNL     1      43.007  17.015  -5.509  1.00  0.00     0.012 A 
ATOM      8  C   UNL     1      42.425  15.883  -4.929  1.00  0.00     0.047 A 
BRANCH   6   9
ATOM      9  O   UNL     1      42.030  14.496  -2.976  1.00  0.00    -0.508 OA
ATOM     10  H   UNL     1      42.433  14.068  -2.150  1.00  0.00     0.293 HD
ENDBRANCH   6   9
ENDBRANCH   1   3
BRANCH   2  11
ATOM     11  C   UNL     1      42.293  20.528  -5.178  1.00  0.00     0.189 C 
ATOM     12  O   UNL     1      41.532  20.930  -6.099  1.00  0.00    -0.289 OA
BRANCH  11  13
ATOM     13  C   UNL     1      41.717  20.301  -3.836  1.00  0.00     0.064 A 
ATOM     14  C   UNL     1      40.638  19.415  -3.628  1.00  0.00     0.130 A 
ATOM     15  C   UNL     1      42.282  20.964  -2.733  1.00  0.00     0.020 A 
ATOM     16  C   UNL     1      40.116  19.241  -2.337  1.00  0.00     0.093 A 
ATOM     17  C   UNL     1      41.760  20.780  -1.450  1.00  0.00     0.047 A 
ATOM     18  C   UNL     1      40.675  19.924  -1.248  1.00  0.00     0.119 A 
BRANCH  14  19
ATOM     19  O   UNL     1      40.104  18.688  -4.692  1.00  0.00    -0.507 OA
ATOM     20  H   UNL     1      39.222  18.942  -5.121  1.00  0.00     0.293 HD
ENDBRANCH  14  19
BRANCH  18  21
ATOM     21  O   UNL     1      40.163  19.754   0.035  1.00  0.00    -0.508 OA
ATOM     22  H   UNL     1      39.190  19.945   0.247  1.00  0.00     0.293 HD
ENDBRANCH  18  21
ENDBRANCH  11  13
ENDBRANCH   2  11
TORSDOF 6
ENDMDL
MODEL 5
REMARK VINA RESULT:    -4.841      1.598      2.033
REMARK INTER + INTRA:          -7.230
REMARK INTER:                  -6.673
REMARK INTRA:                  -0.557
REMARK UNBOUND:                -1.115
REMARK SMILES O=C(C=Cc1ccc(O)cc1)c1ccc(O)cc1O
REMARK SMILES IDX 4 1 3 2 5 3 6 4 7 5 8 6 11 7 10 8 9 9 2 11 1 12 12 13 18 14
REMARK SMILES IDX 13 15 17 16 14 17 15 18 19 19 16 21
REMARK H PARENT 9 10 19 20 16 22
REMARK Flexibility Score: inf
ROOT
ATOM      1  C   UNL     1      43.701  20.392  -5.155  1.00  0.00     0.012 C 
ATOM      2  C   UNL     1      44.354  19.469  -5.878  1.00  0.00     0.053 C 
ENDROOT
BRANCH   1   3
ATOM      3  C   UNL     1      42.948  20.133  -3.911  1.00  0.00    -0.025 A 
ATOM      4  C   UNL     1      43.534  20.440  -2.675  1.00  0.00     0.012 A 
ATOM      5  C   UNL     1      42.818  20.250  -1.489  1.00  0.00     0.047 A 
ATOM      6  C   UNL     1      41.503  19.772  -1.527  1.00  0.00     0.115 A 
ATOM      7  C   UNL     1      41.617  19.681  -3.950  1.00  0.00     0.012 A 
ATOM      8  C   UNL     1      40.903  19.491  -2.763  1.00  0.00     0.047 A 
BRANCH   6   9
ATOM      9  O   UNL     1      40.804  19.585  -0.339  1.00  0.00    -0.508 OA
ATOM     10  H   UNL     1      41.174  19.906   0.549  1.00  0.00     0.293 HD
ENDBRANCH   6   9
ENDBRANCH   1   3
BRANCH   2  11
ATOM     11  C   UNL     1      44.591  18.061  -5.473  1.00  0.00     0.189 C 
ATOM     12  O   UNL     1      43.636  17.330  -5.093  1.00  0.00    -0.289 OA
BRANCH  11  13
ATOM     13  C   UNL     1      45.952  17.486  -5.503  1.00  0.00     0.064 A 
ATOM     14  C   UNL     1      46.426  16.643  -4.476  1.00  0.00     0.130 A 
ATOM     15  C   UNL     1      46.783  17.764  -6.601  1.00  0.00     0.020 A 
ATOM     16  C   UNL     1      47.731  16.130  -4.540  1.00  0.00     0.093 A 
ATOM     17  C   UNL     1      48.079  17.245  -6.660  1.00  0.00     0.047 A 
ATOM     18  C   UNL     1      48.558  16.431  -5.631  1.00  0.00     0.119 A 
BRANCH  14  19
ATOM     19  O   UNL     1      45.598  16.290  -3.410  1.00  0.00    -0.507 OA
ATOM     20  H   UNL     1      44.630  16.028  -3.552  1.00  0.00     0.293 HD
ENDBRANCH  14  19
BRANCH  18  21
ATOM     21  O   UNL     1      49.853  15.924  -5.701  1.00  0.00    -0.508 OA
ATOM     22  H   UNL     1      50.272  15.429  -4.922  1.00  0.00     0.293 HD
ENDBRANCH  18  21
ENDBRANCH  11  13
ENDBRANCH   2  11
TORSDOF 6
ENDMDL
MODEL 6
REMARK VINA RESULT:    -4.812      1.653      2.781
REMARK INTER + INTRA:          -7.193
REMARK INTER:                  -5.940
REMARK INTRA:                  -1.253
REMARK UNBOUND:                -1.115
REMARK SMILES O=C(C=Cc1ccc(O)cc1)c1ccc(O)cc1O
REMARK SMILES IDX 4 1 3 2 5 3 6 4 7 5 8 6 11 7 10 8 9 9 2 11 1 12 12 13 18 14
REMARK SMILES IDX 13 15 17 16 14 17 15 18 19 19 16 21
REMARK H PARENT 9 10 19 20 16 22
REMARK Flexibility Score: inf
ROOT
ATOM      1  C   UNL     1      43.651  20.337  -5.253  1.00  0.00     0.012 C 
ATOM      2  C   UNL     1      44.355  19.366  -5.858  1.00  0.00     0.053 C 
ENDROOT
BRANCH   1   3
ATOM      3  C   UNL     1      42.935  20.204  -3.969  1.00  0.00    -0.025 A 
ATOM      4  C   UNL     1      41.601  19.774  -3.965  1.00  0.00     0.012 A 
ATOM      5  C   UNL     1      40.921  19.593  -2.757  1.00  0.00     0.047 A 
ATOM      6  C   UNL     1      41.574  19.819  -1.540  1.00  0.00     0.115 A 
ATOM      7  C   UNL     1      43.599  20.401  -2.745  1.00  0.00     0.012 A 
ATOM      8  C   UNL     1      42.917  20.219  -1.537  1.00  0.00     0.047 A 
BRANCH   6   9
ATOM      9  O   UNL     1      40.884  19.636  -0.345  1.00  0.00    -0.508 OA
ATOM     10  H   UNL     1      40.049  20.170  -0.129  1.00  0.00     0.293 HD
ENDBRANCH   6   9
ENDBRANCH   1   3
BRANCH   2  11
ATOM     11  C   UNL     1      44.692  18.046  -5.269  1.00  0.00     0.189 C 
ATOM     12  O   UNL     1      45.885  17.643  -5.229  1.00  0.00    -0.289 OA
BRANCH  11  13
ATOM     13  C   UNL     1      43.633  17.173  -4.722  1.00  0.00     0.064 A 
ATOM     14  C   UNL     1      43.682  16.683  -3.399  1.00  0.00     0.130 A 
ATOM     15  C   UNL     1      42.533  16.847  -5.533  1.00  0.00     0.020 A 
ATOM     16  C   UNL     1      42.660  15.846  -2.926  1.00  0.00     0.093 A 
ATOM     17  C   UNL     1      41.517  16.017  -5.052  1.00  0.00     0.047 A 
ATOM     18  C   UNL     1      41.578  15.511  -3.752  1.00  0.00     0.119 A 
BRANCH  14  19
ATOM     19  O   UNL     1      44.724  17.048  -2.547  1.00  0.00    -0.507 OA
ATOM     20  H   UNL     1      45.616  16.569  -2.561  1.00  0.00     0.293 HD
ENDBRANCH  14  19
BRANCH  18  21
ATOM     21  O   UNL     1      40.560  14.683  -3.288  1.00  0.00    -0.508 OA
ATOM     22  H   UNL     1      40.048  14.897  -2.439  1.00  0.00     0.293 HD
ENDBRANCH  18  21
ENDBRANCH  11  13
ENDBRANCH   2  11
TORSDOF 6
ENDMDL
MODEL 7
REMARK VINA RESULT:    -4.750      5.780      7.970
REMARK INTER + INTRA:          -7.114
REMARK INTER:                  -6.352
REMARK INTRA:                  -0.762
REMARK UNBOUND:                -1.115
REMARK SMILES O=C(C=Cc1ccc(O)cc1)c1ccc(O)cc1O
REMARK SMILES IDX 4 1 3 2 5 3 6 4 7 5 8 6 11 7 10 8 9 9 2 11 1 12 12 13 18 14
REMARK SMILES IDX 13 15 17 16 14 17 15 18 19 19 16 21
REMARK H PARENT 9 10 19 20 16 22
REMARK Flexibility Score: inf
ROOT
ATOM      1  C   UNL     1      47.458  16.496  -5.128  1.00  0.00     0.012 C 
ATOM      2  C   UNL     1      46.727  15.405  -4.851  1.00  0.00     0.053 C 
ENDROOT
BRANCH   1   3
ATOM      3  C   UNL     1      48.877  16.497  -5.538  1.00  0.00    -0.025 A 
ATOM      4  C   UNL     1      49.812  15.773  -4.785  1.00  0.00     0.012 A 
ATOM      5  C   UNL     1      51.151  15.720  -5.186  1.00  0.00     0.047 A 
ATOM      6  C   UNL     1      51.564  16.372  -6.353  1.00  0.00     0.115 A 
ATOM      7  C   UNL     1      49.287  17.127  -6.726  1.00  0.00     0.012 A 
ATOM      8  C   UNL     1      50.627  17.072  -7.125  1.00  0.00     0.047 A 
BRANCH   6   9
ATOM      9  O   UNL     1      52.900  16.312  -6.738  1.00  0.00    -0.508 OA
ATOM     10  H   UNL     1      53.314  15.452  -7.082  1.00  0.00     0.293 HD
ENDBRANCH   6   9
ENDBRANCH   1   3
BRANCH   2  11
ATOM     11  C   UNL     1      47.149  14.000  -5.076  1.00  0.00     0.189 C 
ATOM     12  O   UNL     1      47.077  13.481  -6.223  1.00  0.00    -0.289 OA
BRANCH  11  13
ATOM     13  C   UNL     1      47.660  13.178  -3.959  1.00  0.00     0.064 A 
ATOM     14  C   UNL     1      48.697  12.238  -4.141  1.00  0.00     0.130 A 
ATOM     15  C   UNL     1      47.117  13.361  -2.677  1.00  0.00     0.020 A 
ATOM     16  C   UNL     1      49.141  11.470  -3.053  1.00  0.00     0.093 A 
ATOM     17  C   UNL     1      47.570  12.597  -1.598  1.00  0.00     0.047 A 
ATOM     18  C   UNL     1      48.577  11.648  -1.782  1.00  0.00     0.119 A 
BRANCH  14  19
ATOM     19  O   UNL     1      49.305  12.085  -5.387  1.00  0.00    -0.507 OA
ATOM     20  H   UNL     1      49.297  11.200  -5.878  1.00  0.00     0.293 HD
ENDBRANCH  14  19
BRANCH  18  21
ATOM     21  O   UNL     1      49.015  10.890  -0.699  1.00  0.00    -0.508 OA
ATOM     22  H   UNL     1      49.988  10.625  -0.596  1.00  0.00     0.293 HD
ENDBRANCH  18  21
ENDBRANCH  11  13
ENDBRANCH   2  11
TORSDOF 6
ENDMDL
MODEL 8
REMARK VINA RESULT:    -4.575      4.284      8.687
REMARK INTER + INTRA:          -6.893
REMARK INTER:                  -5.798
REMARK INTRA:                  -1.095
REMARK UNBOUND:                -1.115
REMARK SMILES O=C(C=Cc1ccc(O)cc1)c1ccc(O)cc1O
REMARK SMILES IDX 4 1 3 2 5 3 6 4 7 5 8 6 11 7 10 8 9 9 2 11 1 12 12 13 18 14
REMARK SMILES IDX 13 15 17 16 14 17 15 18 19 19 16 21
REMARK H PARENT 9 10 19 20 16 22
REMARK Flexibility Score: inf
ROOT
ATOM      1  C   UNL     1      49.951  12.333  -4.653  1.00  0.00     0.012 C 
ATOM      2  C   UNL     1      48.643  12.092  -4.838  1.00  0.00     0.053 C 
ENDROOT
BRANCH   1   3
ATOM      3  C   UNL     1      50.713  13.442  -5.260  1.00  0.00    -0.025 A 
ATOM      4  C   UNL     1      50.668  14.714  -4.671  1.00  0.00     0.012 A 
ATOM      5  C   UNL     1      51.423  15.764  -5.202  1.00  0.00     0.047 A 
ATOM      6  C   UNL     1      52.247  15.550  -6.312  1.00  0.00     0.115 A 
ATOM      7  C   UNL     1      51.565  13.221  -6.358  1.00  0.00     0.012 A 
ATOM      8  C   UNL     1      52.319  14.273  -6.886  1.00  0.00     0.047 A 
BRANCH   6   9
ATOM      9  O   UNL     1      52.991  16.606  -6.831  1.00  0.00    -0.508 OA
ATOM     10  H   UNL     1      52.863  16.926  -7.784  1.00  0.00     0.293 HD
ENDBRANCH   6   9
ENDBRANCH   1   3
BRANCH   2  11
ATOM     11  C   UNL     1      47.689  12.988  -5.537  1.00  0.00     0.189 C 
ATOM     12  O   UNL     1      47.509  12.894  -6.782  1.00  0.00    -0.289 OA
BRANCH  11  13
ATOM     13  C   UNL     1      46.930  14.013  -4.790  1.00  0.00     0.064 A 
ATOM     14  C   UNL     1      46.973  15.377  -5.147  1.00  0.00     0.130 A 
ATOM     15  C   UNL     1      46.122  13.610  -3.714  1.00  0.00     0.020 A 
ATOM     16  C   UNL     1      46.246  16.317  -4.400  1.00  0.00     0.093 A 
ATOM     17  C   UNL     1      45.397  14.552  -2.979  1.00  0.00     0.047 A 
ATOM     18  C   UNL     1      45.459  15.906  -3.315  1.00  0.00     0.119 A 
BRANCH  14  19
ATOM     19  O   UNL     1      47.708  15.797  -6.255  1.00  0.00    -0.507 OA
ATOM     20  H   UNL     1      48.268  16.642  -6.234  1.00  0.00     0.293 HD
ENDBRANCH  14  19
BRANCH  18  21
ATOM     21  O   UNL     1      44.734  16.833  -2.572  1.00  0.00    -0.508 OA
ATOM     22  H   UNL     1      44.583  16.712  -1.576  1.00  0.00     0.293 HD
ENDBRANCH  18  21
ENDBRANCH  11  13
ENDBRANCH   2  11
TORSDOF 6
ENDMDL
MODEL 9
REMARK VINA RESULT:    -4.572      3.692      6.713
REMARK INTER + INTRA:          -6.890
REMARK INTER:                  -5.895
REMARK INTRA:                  -0.995
REMARK UNBOUND:                -1.115
REMARK SMILES O=C(C=Cc1ccc(O)cc1)c1ccc(O)cc1O
REMARK SMILES IDX 4 1 3 2 5 3 6 4 7 5 8 6 11 7 10 8 9 9 2 11 1 12 12 13 18 14
REMARK SMILES IDX 13 15 17 16 14 17 15 18 19 19 16 21
REMARK H PARENT 9 10 19 20 16 22
REMARK Flexibility Score: inf
ROOT
ATOM      1  C   UNL     1      46.571  13.155  -5.701  1.00  0.00     0.012 C 
ATOM      2  C   UNL     1      47.798  12.661  -5.470  1.00  0.00     0.053 C 
ENDROOT
BRANCH   1   3
ATOM      3  C   UNL     1      45.941  14.268  -4.963  1.00  0.00    -0.025 A 
ATOM      4  C   UNL     1      45.415  14.036  -3.684  1.00  0.00     0.012 A 
ATOM      5  C   UNL     1      44.860  15.088  -2.948  1.00  0.00     0.047 A 
ATOM      6  C   UNL     1      44.844  16.385  -3.473  1.00  0.00     0.115 A 
ATOM      7  C   UNL     1      45.952  15.577  -5.476  1.00  0.00     0.012 A 
ATOM      8  C   UNL     1      45.396  16.627  -4.739  1.00  0.00     0.047 A 
BRANCH   6   9
ATOM      9  O   UNL     1      44.287  17.421  -2.730  1.00  0.00    -0.508 OA
ATOM     10  H   UNL     1      44.486  18.392  -2.944  1.00  0.00     0.293 HD
ENDBRANCH   6   9
ENDBRANCH   1   3
BRANCH   2  11
ATOM     11  C   UNL     1      48.810  13.250  -4.559  1.00  0.00     0.189 C 
ATOM     12  O   UNL     1      48.787  13.002  -3.323  1.00  0.00    -0.289 OA
BRANCH  11  13
ATOM     13  C   UNL     1      49.865  14.144  -5.080  1.00  0.00     0.064 A 
ATOM     14  C   UNL     1      49.852  15.534  -4.834  1.00  0.00     0.130 A 
ATOM     15  C   UNL     1      50.925  13.588  -5.816  1.00  0.00     0.020 A 
ATOM     16  C   UNL     1      50.868  16.345  -5.361  1.00  0.00     0.093 A 
ATOM     17  C   UNL     1      51.936  14.402  -6.331  1.00  0.00     0.047 A 
ATOM     18  C   UNL     1      51.910  15.781  -6.110  1.00  0.00     0.119 A 
BRANCH  14  19
ATOM     19  O   UNL     1      48.852  16.104  -4.047  1.00  0.00    -0.507 OA
ATOM     20  H   UNL     1      49.069  16.633  -3.210  1.00  0.00     0.293 HD
ENDBRANCH  14  19
BRANCH  18  21
ATOM     21  O   UNL     1      52.922  16.581  -6.634  1.00  0.00    -0.508 OA
ATOM     22  H   UNL     1      53.169  16.548  -7.617  1.00  0.00     0.293 HD
ENDBRANCH  18  21
ENDBRANCH  11  13
ENDBRANCH   2  11
TORSDOF 6
ENDMDL
