MODEL 1
REMARK VINA RESULT:     0.937      0.000      0.000
REMARK INTER + INTRA:           1.407
REMARK INTER:                   1.704
REMARK INTRA:                  -0.297
REMARK UNBOUND:                -0.297
REMARK SMILES CCCCCCCCCCCCCC[C@H](C)C(=O)[O-]
REMARK SMILES IDX 9 1 10 2 11 3 12 4 13 5 14 6 15 7 16 8 17 9 18 10 19 11 8 12
REMARK SMILES IDX 7 13 6 14 5 15 4 16 3 17 2 18 1 19
REMARK H PARENT
REMARK Flexibility Score: inf
ROOT
ATOM      1  C   UNL     1      32.315  23.855  33.570  1.00  0.00     0.000 C 
ENDROOT
BRANCH   1   2
ATOM      2  C   UNL     1      33.248  25.049  33.855  1.00  0.00     0.000 C 
BRANCH   2   3
ATOM      3  C   UNL     1      34.508  25.121  32.974  1.00  0.00     0.000 C 
BRANCH   3   4
ATOM      4  C   UNL     1      35.550  24.051  33.336  1.00  0.00     0.000 C 
BRANCH   4   5
ATOM      5  C   UNL     1      36.804  24.189  32.460  1.00  0.00     0.001 C 
BRANCH   5   6
ATOM      6  C   UNL     1      36.539  24.935  31.139  1.00  0.00     0.009 C 
BRANCH   6   7
ATOM      7  C   UNL     1      37.089  24.238  29.873  1.00  0.00     0.032 C 
ATOM      8  C   UNL     1      36.991  25.125  28.625  1.00  0.00     0.014 C 
BRANCH   7   9
ATOM      9  C   UNL     1      36.336  22.957  29.642  1.00  0.00     0.044 C 
ATOM     10  O   UNL     1      36.935  21.850  29.702  1.00  0.00    -0.550 OA
ATOM     11  O   UNL     1      34.971  22.982  29.376  1.00  0.00    -0.550 OA
ENDBRANCH   7   9
ENDBRANCH   6   7
ENDBRANCH   5   6
ENDBRANCH   4   5
ENDBRANCH   3   4
ENDBRANCH   2   3
ENDBRANCH   1   2
BRANCH   1  12
ATOM     12  C   UNL     1      30.883  23.991  34.117  1.00  0.00     0.000 C 
BRANCH  12  13
ATOM     13  C   UNL     1      30.090  25.122  33.443  1.00  0.00    -0.000 C 
BRANCH  13  14
ATOM     14  C   UNL     1      29.367  24.669  32.160  1.00  0.00    -0.000 C 
BRANCH  14  15
ATOM     15  C   UNL     1      30.155  24.864  30.851  1.00  0.00    -0.000 C 
BRANCH  15  16
ATOM     16  C   UNL     1      29.246  25.052  29.625  1.00  0.00    -0.000 C 
BRANCH  16  17
ATOM     17  C   UNL     1      29.665  24.179  28.428  1.00  0.00    -0.000 C 
BRANCH  17  18
ATOM     18  C   UNL     1      31.147  23.760  28.413  1.00  0.00    -0.003 C 
ATOM     19  C   UNL     1      32.091  24.881  28.849  1.00  0.00     0.004 C 
ENDBRANCH  17  18
ENDBRANCH  16  17
ENDBRANCH  15  16
ENDBRANCH  14  15
ENDBRANCH  13  14
ENDBRANCH  12  13
ENDBRANCH   1  12
TORSDOF 14
ENDMDL
