MODEL 1
REMARK VINA RESULT:    -4.717      0.000      0.000
REMARK INTER + INTRA:          -4.854
REMARK INTER:                  -4.854
REMARK INTRA:                   0.000
REMARK UNBOUND:                 0.000
REMARK SMILES CC1(C)CC[C@]2(C)CC[C@@]3(C)C(=CC[C@@H]4[C@]5(C)CC[C@H](O)C(C)(C)[C@@H]5CC[C@@]43C)[C@@H]2C1
REMARK SMILES IDX 1 1 2 2 4 3 5 4 6 5 8 6 9 7 10 8 12 9 13 10 14 11 15 12
REMARK SMILES IDX 28 13 27 14 26 15 25 16 16 17 18 18 19 19 20 20 22 21 23 22
REMARK SMILES IDX 24 23 17 24 29 25 30 26 31 27 11 28 7 29 3 30 21 31
REMARK H PARENT 21 32
REMARK Flexibility Score: inf
ROOT
ATOM      1  C   UNL     1      -4.957 -54.114 -32.158  1.00  0.00     0.011 C 
ATOM      2  C   UNL     1      -4.184 -53.918 -33.484  1.00  0.00    -0.035 C 
ATOM      3  C   UNL     1      -5.182 -53.358 -34.506  1.00  0.00     0.007 C 
ATOM      4  C   UNL     1      -4.556 -53.177 -35.877  1.00  0.00     0.008 C 
ATOM      5  C   UNL     1      -4.042 -54.510 -36.506  1.00  0.00    -0.026 C 
ATOM      6  C   UNL     1      -5.246 -55.265 -37.161  1.00  0.00     0.008 C 
ATOM      7  C   UNL     1      -5.520 -56.634 -36.540  1.00  0.00     0.012 C 
ATOM      8  C   UNL     1      -4.285 -57.605 -36.570  1.00  0.00    -0.006 C 
ATOM      9  C   UNL     1      -3.134 -56.899 -35.827  1.00  0.00    -0.064 C 
ATOM     10  C   UNL     1      -2.111 -57.629 -35.357  1.00  0.00    -0.027 C 
ATOM     11  C   UNL     1      -1.986 -59.110 -35.648  1.00  0.00     0.032 C 
ATOM     12  C   UNL     1      -3.343 -59.861 -35.430  1.00  0.00     0.006 C 
ATOM     13  C   UNL     1      -4.626 -59.022 -35.869  1.00  0.00    -0.020 C 
ATOM     14  C   UNL     1      -5.479 -59.871 -36.836  1.00  0.00     0.008 C 
ATOM     15  C   UNL     1      -5.918 -61.191 -36.243  1.00  0.00     0.005 C 
ATOM     16  C   UNL     1      -4.751 -62.110 -35.786  1.00  0.00     0.003 C 
ATOM     17  C   UNL     1      -3.313 -61.424 -35.845  1.00  0.00    -0.025 C 
ATOM     18  C   UNL     1      -2.629 -61.640 -37.242  1.00  0.00     0.010 C 
ATOM     19  C   UNL     1      -3.158 -62.827 -38.055  1.00  0.00     0.033 C 
ATOM     20  C   UNL     1      -3.536 -64.002 -37.173  1.00  0.00     0.120 C 
ATOM     21  C   UNL     1      -4.803 -63.648 -36.296  1.00  0.00    -0.006 C 
ATOM     22  C   UNL     1      -4.833 -64.625 -35.055  1.00  0.00     0.014 C 
ATOM     23  C   UNL     1      -6.084 -63.960 -37.158  1.00  0.00     0.014 C 
ATOM     24  C   UNL     1      -2.434 -62.129 -34.742  1.00  0.00     0.012 C 
ATOM     25  C   UNL     1      -5.468 -58.794 -34.562  1.00  0.00     0.012 C 
ATOM     26  C   UNL     1      -3.213 -55.396 -35.458  1.00  0.00     0.022 C 
ATOM     27  C   UNL     1      -3.657 -55.286 -33.967  1.00  0.00     0.015 C 
ATOM     28  C   UNL     1      -3.814 -57.795 -38.052  1.00  0.00     0.017 C 
ATOM     29  C   UNL     1      -3.075 -54.088 -37.651  1.00  0.00     0.012 C 
ATOM     30  C   UNL     1      -3.028 -52.912 -33.216  1.00  0.00     0.011 C 
ENDROOT
BRANCH  20  31
ATOM     31  O   UNL     1      -3.710 -65.142 -37.982  1.00  0.00    -0.393 OA
ATOM     32  H   UNL     1      -4.479 -64.950 -38.600  1.00  0.00     0.210 HD
ENDBRANCH  20  31
TORSDOF 1
ENDMDL
MODEL 2
REMARK VINA RESULT:    -4.538      1.573      2.383
REMARK INTER + INTRA:          -4.671
REMARK INTER:                  -4.671
REMARK INTRA:                   0.000
REMARK UNBOUND:                 0.000
REMARK SMILES CC1(C)CC[C@]2(C)CC[C@@]3(C)C(=CC[C@@H]4[C@]5(C)CC[C@H](O)C(C)(C)[C@@H]5CC[C@@]43C)[C@@H]2C1
REMARK SMILES IDX 1 1 2 2 4 3 5 4 6 5 8 6 9 7 10 8 12 9 13 10 14 11 15 12
REMARK SMILES IDX 28 13 27 14 26 15 25 16 16 17 18 18 19 19 20 20 22 21 23 22
REMARK SMILES IDX 24 23 17 24 29 25 30 26 31 27 11 28 7 29 3 30 21 31
REMARK H PARENT 21 32
REMARK Flexibility Score: inf
ROOT
ATOM      1  C   UNL     1      -5.441 -53.060 -33.547  1.00  0.00     0.011 C 
ATOM      2  C   UNL     1      -5.756 -53.244 -35.050  1.00  0.00    -0.035 C 
ATOM      3  C   UNL     1      -7.254 -53.555 -35.159  1.00  0.00     0.007 C 
ATOM      4  C   UNL     1      -7.680 -53.819 -36.593  1.00  0.00     0.008 C 
ATOM      5  C   UNL     1      -6.967 -55.049 -37.237  1.00  0.00    -0.026 C 
ATOM      6  C   UNL     1      -7.694 -56.358 -36.784  1.00  0.00     0.008 C 
ATOM      7  C   UNL     1      -6.803 -57.309 -35.988  1.00  0.00     0.012 C 
ATOM      8  C   UNL     1      -5.493 -57.737 -36.744  1.00  0.00    -0.006 C 
ATOM      9  C   UNL     1      -4.727 -56.447 -37.091  1.00  0.00    -0.064 C 
ATOM     10  C   UNL     1      -3.417 -56.517 -37.374  1.00  0.00    -0.027 C 
ATOM     11  C   UNL     1      -2.695 -57.843 -37.490  1.00  0.00     0.032 C 
ATOM     12  C   UNL     1      -3.055 -58.806 -36.309  1.00  0.00     0.006 C 
ATOM     13  C   UNL     1      -4.576 -58.714 -35.839  1.00  0.00    -0.020 C 
ATOM     14  C   UNL     1      -5.193 -60.129 -35.840  1.00  0.00     0.008 C 
ATOM     15  C   UNL     1      -4.449 -61.105 -34.956  1.00  0.00     0.005 C 
ATOM     16  C   UNL     1      -2.951 -61.293 -35.323  1.00  0.00     0.003 C 
ATOM     17  C   UNL     1      -2.417 -60.287 -36.439  1.00  0.00    -0.025 C 
ATOM     18  C   UNL     1      -2.607 -60.875 -37.882  1.00  0.00     0.010 C 
ATOM     19  C   UNL     1      -2.748 -62.400 -37.957  1.00  0.00     0.033 C 
ATOM     20  C   UNL     1      -1.888 -63.105 -36.925  1.00  0.00     0.120 C 
ATOM     21  C   UNL     1      -2.431 -62.821 -35.467  1.00  0.00    -0.006 C 
ATOM     22  C   UNL     1      -1.258 -63.090 -34.442  1.00  0.00     0.014 C 
ATOM     23  C   UNL     1      -3.558 -63.879 -35.162  1.00  0.00     0.014 C 
ATOM     24  C   UNL     1      -0.875 -60.098 -36.172  1.00  0.00     0.012 C 
ATOM     25  C   UNL     1      -4.545 -58.207 -34.352  1.00  0.00     0.012 C 
ATOM     26  C   UNL     1      -5.389 -55.052 -36.953  1.00  0.00     0.022 C 
ATOM     27  C   UNL     1      -4.937 -54.433 -35.595  1.00  0.00     0.015 C 
ATOM     28  C   UNL     1      -5.881 -58.410 -38.105  1.00  0.00     0.017 C 
ATOM     29  C   UNL     1      -7.181 -54.901 -38.772  1.00  0.00     0.012 C 
ATOM     30  C   UNL     1      -5.402 -51.914 -35.776  1.00  0.00     0.011 C 
ENDROOT
BRANCH  20  31
ATOM     31  O   UNL     1      -1.822 -64.475 -37.247  1.00  0.00    -0.393 OA
ATOM     32  H   UNL     1      -2.266 -64.589 -38.141  1.00  0.00     0.210 HD
ENDBRANCH  20  31
TORSDOF 1
ENDMDL
MODEL 3
REMARK VINA RESULT:    -4.374      2.843      7.945
REMARK INTER + INTRA:          -4.502
REMARK INTER:                  -4.502
REMARK INTRA:                   0.000
REMARK UNBOUND:                 0.000
REMARK SMILES CC1(C)CC[C@]2(C)CC[C@@]3(C)C(=CC[C@@H]4[C@]5(C)CC[C@H](O)C(C)(C)[C@@H]5CC[C@@]43C)[C@@H]2C1
REMARK SMILES IDX 1 1 2 2 4 3 5 4 6 5 8 6 9 7 10 8 12 9 13 10 14 11 15 12
REMARK SMILES IDX 28 13 27 14 26 15 25 16 16 17 18 18 19 19 20 20 22 21 23 22
REMARK SMILES IDX 24 23 17 24 29 25 30 26 31 27 11 28 7 29 3 30 21 31
REMARK H PARENT 21 32
REMARK Flexibility Score: inf
ROOT
ATOM      1  C   UNL     1      -2.050 -63.487 -32.584  1.00  0.00     0.011 C 
ATOM      2  C   UNL     1      -2.333 -63.439 -34.104  1.00  0.00    -0.035 C 
ATOM      3  C   UNL     1      -0.973 -63.369 -34.811  1.00  0.00     0.007 C 
ATOM      4  C   UNL     1      -1.118 -63.255 -36.318  1.00  0.00     0.008 C 
ATOM      5  C   UNL     1      -1.874 -61.968 -36.774  1.00  0.00    -0.026 C 
ATOM      6  C   UNL     1      -0.875 -60.764 -36.783  1.00  0.00     0.008 C 
ATOM      7  C   UNL     1      -1.259 -59.643 -35.819  1.00  0.00     0.012 C 
ATOM      8  C   UNL     1      -2.699 -59.061 -36.060  1.00  0.00    -0.006 C 
ATOM      9  C   UNL     1      -3.690 -60.235 -35.942  1.00  0.00    -0.064 C 
ATOM     10  C   UNL     1      -4.986 -59.979 -35.708  1.00  0.00    -0.027 C 
ATOM     11  C   UNL     1      -5.529 -58.566 -35.688  1.00  0.00     0.032 C 
ATOM     12  C   UNL     1      -4.620 -57.605 -34.849  1.00  0.00     0.006 C 
ATOM     13  C   UNL     1      -3.060 -57.905 -34.989  1.00  0.00    -0.020 C 
ATOM     14  C   UNL     1      -2.328 -56.604 -35.383  1.00  0.00     0.008 C 
ATOM     15  C   UNL     1      -2.540 -55.477 -34.398  1.00  0.00     0.005 C 
ATOM     16  C   UNL     1      -4.027 -55.081 -34.184  1.00  0.00     0.003 C 
ATOM     17  C   UNL     1      -5.074 -56.053 -34.891  1.00  0.00    -0.025 C 
ATOM     18  C   UNL     1      -5.399 -55.583 -36.353  1.00  0.00     0.010 C 
ATOM     19  C   UNL     1      -5.117 -54.105 -36.646  1.00  0.00     0.033 C 
ATOM     20  C   UNL     1      -5.408 -53.219 -35.450  1.00  0.00     0.120 C 
ATOM     21  C   UNL     1      -4.374 -53.501 -34.288  1.00  0.00    -0.006 C 
ATOM     22  C   UNL     1      -5.006 -52.998 -32.930  1.00  0.00     0.014 C 
ATOM     23  C   UNL     1      -3.099 -52.615 -34.557  1.00  0.00     0.014 C 
ATOM     24  C   UNL     1      -6.397 -55.986 -34.036  1.00  0.00     0.012 C 
ATOM     25  C   UNL     1      -2.564 -58.317 -33.556  1.00  0.00     0.012 C 
ATOM     26  C   UNL     1      -3.200 -61.705 -35.912  1.00  0.00     0.022 C 
ATOM     27  C   UNL     1      -3.151 -62.170 -34.424  1.00  0.00     0.015 C 
ATOM     28  C   UNL     1      -2.801 -58.533 -37.532  1.00  0.00     0.017 C 
ATOM     29  C   UNL     1      -2.301 -62.233 -38.248  1.00  0.00     0.012 C 
ATOM     30  C   UNL     1      -3.102 -64.737 -34.486  1.00  0.00     0.011 C 
ENDROOT
BRANCH  20  31
ATOM     31  O   UNL     1      -5.431 -51.875 -35.873  1.00  0.00    -0.393 OA
ATOM     32  H   UNL     1      -6.396 -51.619 -35.987  1.00  0.00     0.210 HD
ENDBRANCH  20  31
TORSDOF 1
ENDMDL
MODEL 4
REMARK VINA RESULT:    -4.348      2.928      8.119
REMARK INTER + INTRA:          -4.475
REMARK INTER:                  -4.475
REMARK INTRA:                   0.000
REMARK UNBOUND:                 0.000
REMARK SMILES CC1(C)CC[C@]2(C)CC[C@@]3(C)C(=CC[C@@H]4[C@]5(C)CC[C@H](O)C(C)(C)[C@@H]5CC[C@@]43C)[C@@H]2C1
REMARK SMILES IDX 1 1 2 2 4 3 5 4 6 5 8 6 9 7 10 8 12 9 13 10 14 11 15 12
REMARK SMILES IDX 28 13 27 14 26 15 25 16 16 17 18 18 19 19 20 20 22 21 23 22
REMARK SMILES IDX 24 23 17 24 29 25 30 26 31 27 11 28 7 29 3 30 21 31
REMARK H PARENT 21 32
REMARK Flexibility Score: inf
ROOT
ATOM      1  C   UNL     1      -2.223 -62.749 -39.097  1.00  0.00     0.011 C 
ATOM      2  C   UNL     1      -3.046 -63.154 -37.851  1.00  0.00    -0.035 C 
ATOM      3  C   UNL     1      -4.381 -63.714 -38.358  1.00  0.00     0.007 C 
ATOM      4  C   UNL     1      -5.311 -64.094 -37.219  1.00  0.00     0.008 C 
ATOM      5  C   UNL     1      -5.701 -62.889 -36.307  1.00  0.00    -0.026 C 
ATOM      6  C   UNL     1      -6.864 -62.090 -36.983  1.00  0.00     0.008 C 
ATOM      7  C   UNL     1      -6.498 -60.644 -37.319  1.00  0.00     0.012 C 
ATOM      8  C   UNL     1      -6.011 -59.807 -36.081  1.00  0.00    -0.006 C 
ATOM      9  C   UNL     1      -4.797 -60.544 -35.484  1.00  0.00    -0.064 C 
ATOM     10  C   UNL     1      -3.950 -59.874 -34.688  1.00  0.00    -0.027 C 
ATOM     11  C   UNL     1      -4.221 -58.450 -34.251  1.00  0.00     0.032 C 
ATOM     12  C   UNL     1      -4.675 -57.551 -35.450  1.00  0.00     0.006 C 
ATOM     13  C   UNL     1      -5.607 -58.300 -36.505  1.00  0.00    -0.020 C 
ATOM     14  C   UNL     1      -6.894 -57.475 -36.720  1.00  0.00     0.008 C 
ATOM     15  C   UNL     1      -6.626 -56.064 -37.195  1.00  0.00     0.005 C 
ATOM     16  C   UNL     1      -5.733 -55.223 -36.241  1.00  0.00     0.003 C 
ATOM     17  C   UNL     1      -5.104 -56.049 -35.031  1.00  0.00    -0.025 C 
ATOM     18  C   UNL     1      -6.049 -56.044 -33.777  1.00  0.00     0.010 C 
ATOM     19  C   UNL     1      -7.068 -54.899 -33.727  1.00  0.00     0.033 C 
ATOM     20  C   UNL     1      -6.508 -53.610 -34.297  1.00  0.00     0.120 C 
ATOM     21  C   UNL     1      -6.282 -53.747 -35.856  1.00  0.00    -0.006 C 
ATOM     22  C   UNL     1      -5.236 -52.650 -36.302  1.00  0.00     0.014 C 
ATOM     23  C   UNL     1      -7.644 -53.399 -36.568  1.00  0.00     0.014 C 
ATOM     24  C   UNL     1      -3.757 -55.326 -34.646  1.00  0.00     0.012 C 
ATOM     25  C   UNL     1      -4.814 -58.310 -37.861  1.00  0.00     0.012 C 
ATOM     26  C   UNL     1      -4.434 -61.987 -35.918  1.00  0.00     0.022 C 
ATOM     27  C   UNL     1      -3.302 -61.901 -36.987  1.00  0.00     0.015 C 
ATOM     28  C   UNL     1      -7.128 -59.817 -34.982  1.00  0.00     0.017 C 
ATOM     29  C   UNL     1      -6.265 -63.518 -34.999  1.00  0.00     0.012 C 
ATOM     30  C   UNL     1      -2.238 -64.237 -37.079  1.00  0.00     0.011 C 
ENDROOT
BRANCH  20  31
ATOM     31  O   UNL     1      -7.360 -52.546 -33.940  1.00  0.00    -0.393 OA
ATOM     32  H   UNL     1      -8.189 -52.633 -34.501  1.00  0.00     0.210 HD
ENDBRANCH  20  31
TORSDOF 1
ENDMDL
MODEL 5
REMARK VINA RESULT:    -3.741      1.682      3.545
REMARK INTER + INTRA:          -3.850
REMARK INTER:                  -3.850
REMARK INTRA:                   0.000
REMARK UNBOUND:                 0.000
REMARK SMILES CC1(C)CC[C@]2(C)CC[C@@]3(C)C(=CC[C@@H]4[C@]5(C)CC[C@H](O)C(C)(C)[C@@H]5CC[C@@]43C)[C@@H]2C1
REMARK SMILES IDX 1 1 2 2 4 3 5 4 6 5 8 6 9 7 10 8 12 9 13 10 14 11 15 12
REMARK SMILES IDX 28 13 27 14 26 15 25 16 16 17 18 18 19 19 20 20 22 21 23 22
REMARK SMILES IDX 24 23 17 24 29 25 30 26 31 27 11 28 7 29 3 30 21 31
REMARK H PARENT 21 32
REMARK Flexibility Score: inf
ROOT
ATOM      1  C   UNL     1      -7.913 -52.973 -36.986  1.00  0.00     0.011 C 
ATOM      2  C   UNL     1      -7.111 -52.908 -35.664  1.00  0.00    -0.035 C 
ATOM      3  C   UNL     1      -5.916 -51.979 -35.910  1.00  0.00     0.007 C 
ATOM      4  C   UNL     1      -5.010 -51.879 -34.696  1.00  0.00     0.008 C 
ATOM      5  C   UNL     1      -4.378 -53.244 -34.278  1.00  0.00    -0.026 C 
ATOM      6  C   UNL     1      -3.131 -53.529 -35.179  1.00  0.00     0.008 C 
ATOM      7  C   UNL     1      -3.263 -54.796 -36.023  1.00  0.00     0.012 C 
ATOM      8  C   UNL     1      -3.541 -56.094 -35.182  1.00  0.00    -0.006 C 
ATOM      9  C   UNL     1      -4.832 -55.847 -34.379  1.00  0.00    -0.064 C 
ATOM     10  C   UNL     1      -5.515 -56.896 -33.895  1.00  0.00    -0.027 C 
ATOM     11  C   UNL     1      -4.986 -58.311 -34.001  1.00  0.00     0.032 C 
ATOM     12  C   UNL     1      -4.445 -58.623 -35.437  1.00  0.00     0.006 C 
ATOM     13  C   UNL     1      -3.705 -57.393 -36.132  1.00  0.00    -0.020 C 
ATOM     14  C   UNL     1      -2.309 -57.847 -36.611  1.00  0.00     0.008 C 
ATOM     15  C   UNL     1      -2.358 -59.015 -37.570  1.00  0.00     0.005 C 
ATOM     16  C   UNL     1      -3.048 -60.285 -37.002  1.00  0.00     0.003 C 
ATOM     17  C   UNL     1      -3.749 -60.075 -35.586  1.00  0.00    -0.025 C 
ATOM     18  C   UNL     1      -2.757 -60.366 -34.404  1.00  0.00     0.010 C 
ATOM     19  C   UNL     1      -1.559 -61.255 -34.757  1.00  0.00     0.033 C 
ATOM     20  C   UNL     1      -1.920 -62.329 -35.765  1.00  0.00     0.120 C 
ATOM     21  C   UNL     1      -2.240 -61.680 -37.171  1.00  0.00    -0.006 C 
ATOM     22  C   UNL     1      -3.106 -62.707 -38.003  1.00  0.00     0.014 C 
ATOM     23  C   UNL     1      -0.875 -61.504 -37.939  1.00  0.00     0.014 C 
ATOM     24  C   UNL     1      -4.934 -61.112 -35.513  1.00  0.00     0.012 C 
ATOM     25  C   UNL     1      -4.553 -57.033 -37.404  1.00  0.00     0.012 C 
ATOM     26  C   UNL     1      -5.455 -54.432 -34.264  1.00  0.00     0.022 C 
ATOM     27  C   UNL     1      -6.606 -54.323 -35.310  1.00  0.00     0.015 C 
ATOM     28  C   UNL     1      -2.390 -56.287 -34.136  1.00  0.00     0.017 C 
ATOM     29  C   UNL     1      -3.866 -53.041 -32.821  1.00  0.00     0.012 C 
ATOM     30  C   UNL     1      -8.053 -52.336 -34.564  1.00  0.00     0.011 C 
ENDROOT
BRANCH  20  31
ATOM     31  O   UNL     1      -0.884 -63.283 -35.806  1.00  0.00    -0.393 OA
ATOM     32  H   UNL     1      -0.020 -62.776 -35.884  1.00  0.00     0.210 HD
ENDBRANCH  20  31
TORSDOF 1
ENDMDL
MODEL 6
REMARK VINA RESULT:    -3.656      1.826      2.523
REMARK INTER + INTRA:          -3.763
REMARK INTER:                  -3.763
REMARK INTRA:                   0.000
REMARK UNBOUND:                 0.000
REMARK SMILES CC1(C)CC[C@]2(C)CC[C@@]3(C)C(=CC[C@@H]4[C@]5(C)CC[C@H](O)C(C)(C)[C@@H]5CC[C@@]43C)[C@@H]2C1
REMARK SMILES IDX 1 1 2 2 4 3 5 4 6 5 8 6 9 7 10 8 12 9 13 10 14 11 15 12
REMARK SMILES IDX 28 13 27 14 26 15 25 16 16 17 18 18 19 19 20 20 22 21 23 22
REMARK SMILES IDX 24 23 17 24 29 25 30 26 31 27 11 28 7 29 3 30 21 31
REMARK H PARENT 21 32
REMARK Flexibility Score: inf
ROOT
ATOM      1  C   UNL     1      -3.614 -53.972 -31.937  1.00  0.00     0.011 C 
ATOM      2  C   UNL     1      -3.808 -53.697 -33.447  1.00  0.00    -0.035 C 
ATOM      3  C   UNL     1      -5.117 -52.911 -33.594  1.00  0.00     0.007 C 
ATOM      4  C   UNL     1      -5.455 -52.630 -35.048  1.00  0.00     0.008 C 
ATOM      5  C   UNL     1      -5.664 -53.922 -35.898  1.00  0.00    -0.026 C 
ATOM      6  C   UNL     1      -7.117 -54.457 -35.669  1.00  0.00     0.008 C 
ATOM      7  C   UNL     1      -7.164 -55.855 -35.055  1.00  0.00     0.012 C 
ATOM      8  C   UNL     1      -6.390 -56.941 -35.884  1.00  0.00    -0.006 C 
ATOM      9  C   UNL     1      -4.932 -56.461 -36.013  1.00  0.00    -0.064 C 
ATOM     10  C   UNL     1      -3.972 -57.349 -36.315  1.00  0.00    -0.027 C 
ATOM     11  C   UNL     1      -4.295 -58.787 -36.661  1.00  0.00     0.032 C 
ATOM     12  C   UNL     1      -5.324 -59.409 -35.659  1.00  0.00     0.006 C 
ATOM     13  C   UNL     1      -6.447 -58.389 -35.166  1.00  0.00    -0.020 C 
ATOM     14  C   UNL     1      -7.839 -59.015 -35.403  1.00  0.00     0.008 C 
ATOM     15  C   UNL     1      -8.022 -60.344 -34.705  1.00  0.00     0.005 C 
ATOM     16  C   UNL     1      -6.990 -61.432 -35.112  1.00  0.00     0.003 C 
ATOM     17  C   UNL     1      -5.810 -60.903 -36.045  1.00  0.00    -0.025 C 
ATOM     18  C   UNL     1      -6.184 -61.016 -37.566  1.00  0.00     0.010 C 
ATOM     19  C   UNL     1      -7.285 -62.030 -37.898  1.00  0.00     0.033 C 
ATOM     20  C   UNL     1      -7.220 -63.257 -37.008  1.00  0.00     0.120 C 
ATOM     21  C   UNL     1      -7.594 -62.880 -35.519  1.00  0.00    -0.006 C 
ATOM     22  C   UNL     1      -7.007 -63.996 -34.566  1.00  0.00     0.014 C 
ATOM     23  C   UNL     1      -9.163 -62.944 -35.389  1.00  0.00     0.014 C 
ATOM     24  C   UNL     1      -4.566 -61.829 -35.764  1.00  0.00     0.012 C 
ATOM     25  C   UNL     1      -6.250 -58.236 -33.615  1.00  0.00     0.012 C 
ATOM     26  C   UNL     1      -4.521 -55.015 -35.633  1.00  0.00     0.022 C 
ATOM     27  C   UNL     1      -3.922 -55.043 -34.194  1.00  0.00     0.015 C 
ATOM     28  C   UNL     1      -6.976 -56.995 -37.336  1.00  0.00     0.017 C 
ATOM     29  C   UNL     1      -5.562 -53.467 -37.384  1.00  0.00     0.012 C 
ATOM     30  C   UNL     1      -2.591 -52.862 -33.939  1.00  0.00     0.011 C 
ENDROOT
BRANCH  20  31
ATOM     31  O   UNL     1      -8.038 -64.263 -37.560  1.00  0.00    -0.393 OA
ATOM     32  H   UNL     1      -8.057 -65.020 -36.900  1.00  0.00     0.210 HD
ENDBRANCH  20  31
TORSDOF 1
ENDMDL
MODEL 7
REMARK VINA RESULT:    -3.003      2.750      8.063
REMARK INTER + INTRA:          -3.091
REMARK INTER:                  -3.091
REMARK INTRA:                   0.000
REMARK UNBOUND:                 0.000
REMARK SMILES CC1(C)CC[C@]2(C)CC[C@@]3(C)C(=CC[C@@H]4[C@]5(C)CC[C@H](O)C(C)(C)[C@@H]5CC[C@@]43C)[C@@H]2C1
REMARK SMILES IDX 1 1 2 2 4 3 5 4 6 5 8 6 9 7 10 8 12 9 13 10 14 11 15 12
REMARK SMILES IDX 28 13 27 14 26 15 25 16 16 17 18 18 19 19 20 20 22 21 23 22
REMARK SMILES IDX 24 23 17 24 29 25 30 26 31 27 11 28 7 29 3 30 21 31
REMARK H PARENT 21 32
REMARK Flexibility Score: inf
ROOT
ATOM      1  C   UNL     1      -6.535 -63.804 -36.126  1.00  0.00     0.011 C 
ATOM      2  C   UNL     1      -5.042 -63.619 -36.489  1.00  0.00    -0.035 C 
ATOM      3  C   UNL     1      -4.223 -64.158 -35.309  1.00  0.00     0.007 C 
ATOM      4  C   UNL     1      -2.731 -63.977 -35.519  1.00  0.00     0.008 C 
ATOM      5  C   UNL     1      -2.300 -62.483 -35.656  1.00  0.00    -0.026 C 
ATOM      6  C   UNL     1      -2.171 -61.853 -34.230  1.00  0.00     0.008 C 
ATOM      7  C   UNL     1      -3.130 -60.688 -33.987  1.00  0.00     0.012 C 
ATOM      8  C   UNL     1      -2.991 -59.521 -35.030  1.00  0.00    -0.006 C 
ATOM      9  C   UNL     1      -3.226 -60.129 -36.426  1.00  0.00    -0.064 C 
ATOM     10  C   UNL     1      -3.558 -59.322 -37.445  1.00  0.00    -0.027 C 
ATOM     11  C   UNL     1      -3.580 -57.815 -37.296  1.00  0.00     0.032 C 
ATOM     12  C   UNL     1      -4.311 -57.371 -35.984  1.00  0.00     0.006 C 
ATOM     13  C   UNL     1      -4.052 -58.337 -34.741  1.00  0.00    -0.020 C 
ATOM     14  C   UNL     1      -3.559 -57.498 -33.543  1.00  0.00     0.008 C 
ATOM     15  C   UNL     1      -4.524 -56.404 -33.142  1.00  0.00     0.005 C 
ATOM     16  C   UNL     1      -4.848 -55.387 -34.271  1.00  0.00     0.003 C 
ATOM     17  C   UNL     1      -4.260 -55.780 -35.699  1.00  0.00    -0.025 C 
ATOM     18  C   UNL     1      -2.816 -55.200 -35.907  1.00  0.00     0.010 C 
ATOM     19  C   UNL     1      -2.456 -54.002 -35.020  1.00  0.00     0.033 C 
ATOM     20  C   UNL     1      -3.644 -53.091 -34.779  1.00  0.00     0.120 C 
ATOM     21  C   UNL     1      -4.725 -53.818 -33.882  1.00  0.00    -0.006 C 
ATOM     22  C   UNL     1      -6.114 -53.098 -34.102  1.00  0.00     0.014 C 
ATOM     23  C   UNL     1      -4.324 -53.593 -32.375  1.00  0.00     0.014 C 
ATOM     24  C   UNL     1      -5.218 -55.136 -36.772  1.00  0.00     0.012 C 
ATOM     25  C   UNL     1      -5.451 -58.941 -34.358  1.00  0.00     0.012 C 
ATOM     26  C   UNL     1      -3.260 -61.663 -36.644  1.00  0.00     0.022 C 
ATOM     27  C   UNL     1      -4.752 -62.114 -36.679  1.00  0.00     0.015 C 
ATOM     28  C   UNL     1      -1.516 -58.990 -35.014  1.00  0.00     0.017 C 
ATOM     29  C   UNL     1      -0.875 -62.514 -36.285  1.00  0.00     0.012 C 
ATOM     30  C   UNL     1      -4.764 -64.432 -37.787  1.00  0.00     0.011 C 
ENDROOT
BRANCH  20  31
ATOM     31  O   UNL     1      -3.184 -51.875 -34.236  1.00  0.00    -0.393 OA
ATOM     32  H   UNL     1      -3.852 -51.169 -34.489  1.00  0.00     0.210 HD
ENDBRANCH  20  31
TORSDOF 1
ENDMDL
MODEL 8
REMARK VINA RESULT:    -2.898      3.119      8.220
REMARK INTER + INTRA:          -2.983
REMARK INTER:                  -2.983
REMARK INTRA:                   0.000
REMARK UNBOUND:                 0.000
REMARK SMILES CC1(C)CC[C@]2(C)CC[C@@]3(C)C(=CC[C@@H]4[C@]5(C)CC[C@H](O)C(C)(C)[C@@H]5CC[C@@]43C)[C@@H]2C1
REMARK SMILES IDX 1 1 2 2 4 3 5 4 6 5 8 6 9 7 10 8 12 9 13 10 14 11 15 12
REMARK SMILES IDX 28 13 27 14 26 15 25 16 16 17 18 18 19 19 20 20 22 21 23 22
REMARK SMILES IDX 24 23 17 24 29 25 30 26 31 27 11 28 7 29 3 30 21 31
REMARK H PARENT 21 32
REMARK Flexibility Score: inf
ROOT
ATOM      1  C   UNL     1      -7.029 -63.876 -32.569  1.00  0.00     0.011 C 
ATOM      2  C   UNL     1      -7.529 -63.600 -34.007  1.00  0.00    -0.035 C 
ATOM      3  C   UNL     1      -6.479 -64.177 -34.965  1.00  0.00     0.007 C 
ATOM      4  C   UNL     1      -6.826 -63.915 -36.419  1.00  0.00     0.008 C 
ATOM      5  C   UNL     1      -6.904 -62.397 -36.776  1.00  0.00    -0.026 C 
ATOM      6  C   UNL     1      -5.458 -61.855 -37.028  1.00  0.00     0.008 C 
ATOM      7  C   UNL     1      -5.039 -60.753 -36.056  1.00  0.00     0.012 C 
ATOM      8  C   UNL     1      -6.008 -59.516 -36.040  1.00  0.00    -0.006 C 
ATOM      9  C   UNL     1      -7.411 -60.042 -35.684  1.00  0.00    -0.064 C 
ATOM     10  C   UNL     1      -8.334 -59.187 -35.216  1.00  0.00    -0.027 C 
ATOM     11  C   UNL     1      -8.080 -57.696 -35.152  1.00  0.00     0.032 C 
ATOM     12  C   UNL     1      -6.673 -57.372 -34.546  1.00  0.00     0.006 C 
ATOM     13  C   UNL     1      -5.532 -58.402 -34.970  1.00  0.00    -0.020 C 
ATOM     14  C   UNL     1      -4.335 -57.621 -35.553  1.00  0.00     0.008 C 
ATOM     15  C   UNL     1      -3.764 -56.600 -34.594  1.00  0.00     0.005 C 
ATOM     16  C   UNL     1      -4.781 -55.528 -34.115  1.00  0.00     0.003 C 
ATOM     17  C   UNL     1      -6.286 -55.801 -34.565  1.00  0.00    -0.025 C 
ATOM     18  C   UNL     1      -6.599 -55.144 -35.956  1.00  0.00     0.010 C 
ATOM     19  C   UNL     1      -5.673 -53.991 -36.360  1.00  0.00     0.033 C 
ATOM     20  C   UNL     1      -5.251 -53.152 -35.169  1.00  0.00     0.120 C 
ATOM     21  C   UNL     1      -4.300 -53.983 -34.217  1.00  0.00    -0.006 C 
ATOM     22  C   UNL     1      -4.327 -53.314 -32.786  1.00  0.00     0.014 C 
ATOM     23  C   UNL     1      -2.830 -53.838 -34.764  1.00  0.00     0.014 C 
ATOM     24  C   UNL     1      -7.209 -55.134 -33.475  1.00  0.00     0.012 C 
ATOM     25  C   UNL     1      -5.051 -59.093 -33.643  1.00  0.00     0.012 C 
ATOM     26  C   UNL     1      -7.730 -61.560 -35.686  1.00  0.00     0.022 C 
ATOM     27  C   UNL     1      -7.643 -62.075 -34.217  1.00  0.00     0.015 C 
ATOM     28  C   UNL     1      -6.105 -58.920 -37.487  1.00  0.00     0.017 C 
ATOM     29  C   UNL     1      -7.674 -62.322 -38.127  1.00  0.00     0.012 C 
ATOM     30  C   UNL     1      -8.901 -64.314 -34.179  1.00  0.00     0.011 C 
ENDROOT
BRANCH  20  31
ATOM     31  O   UNL     1      -4.674 -51.954 -35.637  1.00  0.00    -0.393 OA
ATOM     32  H   UNL     1      -3.811 -52.199 -36.088  1.00  0.00     0.210 HD
ENDBRANCH  20  31
TORSDOF 1
ENDMDL
