MODEL 1
REMARK VINA RESULT:    -4.506      0.000      0.000
REMARK INTER + INTRA:          -6.725
REMARK INTER:                  -6.351
REMARK INTRA:                  -0.374
REMARK UNBOUND:                -0.374
REMARK SMILES CC1=CCC(=C(C)C)CCC(C)=CCC1
REMARK SMILES IDX 5 1 6 2 7 3 8 4 9 5 10 6 11 7 12 8 13 9 4 11 3 12 2 13 1 14
REMARK SMILES IDX 15 15 14 16
REMARK H PARENT
REMARK Flexibility Score: 60.00
ROOT
ATOM      1  C   UNL     1       8.892  32.976  23.883  1.00  0.00    -0.067 C 
ATOM      2  C   UNL     1       8.741  32.354  25.099  1.00  0.00    -0.077 C 
ATOM      3  C   UNL     1       7.521  31.515  25.413  1.00  0.00     0.039 C 
ATOM      4  C   UNL     1       9.787  32.464  26.190  1.00  0.00     0.039 C 
ENDROOT
BRANCH   1   5
ATOM      5  C   UNL     1       7.705  33.117  22.921  1.00  0.00     0.035 C 
BRANCH   5   6
ATOM      6  C   UNL     1       7.668  32.125  21.746  1.00  0.00     0.035 C 
BRANCH   6   7
ATOM      7  C   UNL     1       7.719  32.803  20.389  1.00  0.00    -0.077 C 
ATOM      8  C   UNL     1       6.432  33.306  19.790  1.00  0.00     0.039 C 
ATOM      9  C   UNL     1       8.865  33.010  19.700  1.00  0.00    -0.028 CG0
ATOM     10  G   UNL     1      10.209  32.426  20.054  1.00  0.00     0.000 G0
ENDBRANCH   6   7
ENDBRANCH   5   6
ENDBRANCH   1   5
BRANCH   1  11
ATOM     11  C   UNL     1      10.112  33.846  23.578  1.00  0.00     0.058 C 
BRANCH  11  12
ATOM     12  C   UNL     1      11.383  33.157  23.109  1.00  0.00    -0.024 C 
ATOM     13  C   UNL     1      11.873  33.081  21.846  1.00  0.00    -0.077 C 
ATOM     14  C   UNL     1      13.215  32.418  21.655  1.00  0.00     0.039 C 
BRANCH  13  15
ATOM     15  C   UNL     1      11.107  33.532  20.621  1.00  0.00     0.034 C 
BRANCH  15  16
ATOM     16  C   UNL     1      10.215  32.428  20.043  1.00  0.00     0.032 CG0
ATOM     17  G   UNL     1       8.862  33.001  19.706  1.00  0.00     0.000 G0
ENDBRANCH  15  16
ENDBRANCH  13  15
ENDBRANCH  11  12
ENDBRANCH   1  11
TORSDOF 0
ENDMDL
MODEL 2
REMARK VINA RESULT:    -4.356      1.532      4.223
REMARK INTER + INTRA:          -6.513
REMARK INTER:                  -6.088
REMARK INTRA:                  -0.425
REMARK UNBOUND:                -0.374
REMARK SMILES CC1=CCC(=C(C)C)CCC(C)=CCC1
REMARK SMILES IDX 5 1 6 2 7 3 8 4 9 5 10 6 11 7 12 8 13 9 4 11 3 12 2 13 1 14
REMARK SMILES IDX 15 15 14 16
REMARK H PARENT
REMARK Flexibility Score: 60.00
ROOT
ATOM      1  C   UNL     1      11.637  33.071  21.059  1.00  0.00    -0.067 C 
ATOM      2  C   UNL     1      12.922  33.406  20.703  1.00  0.00    -0.077 C 
ATOM      3  C   UNL     1      13.210  34.260  19.487  1.00  0.00     0.039 C 
ATOM      4  C   UNL     1      14.121  32.948  21.509  1.00  0.00     0.039 C 
ENDROOT
BRANCH   1   5
ATOM      5  C   UNL     1      10.475  33.269  20.076  1.00  0.00     0.035 C 
BRANCH   5   6
ATOM      6  C   UNL     1       9.288  34.099  20.594  1.00  0.00     0.035 C 
BRANCH   6   7
ATOM      7  C   UNL     1       7.981  33.329  20.612  1.00  0.00    -0.077 C 
ATOM      8  C   UNL     1       7.353  32.953  19.295  1.00  0.00     0.039 C 
ATOM      9  C   UNL     1       7.362  32.932  21.747  1.00  0.00    -0.028 CG0
ATOM     10  G   UNL     1       7.743  33.363  23.141  1.00  0.00     0.000 G0
ENDBRANCH   6   7
ENDBRANCH   5   6
ENDBRANCH   1   5
BRANCH   1  11
ATOM     11  C   UNL     1      11.351  32.184  22.271  1.00  0.00     0.058 C 
BRANCH  11  12
ATOM     12  C   UNL     1      11.071  32.862  23.602  1.00  0.00    -0.024 C 
ATOM     13  C   UNL     1       9.920  32.849  24.320  1.00  0.00    -0.077 C 
ATOM     14  C   UNL     1       9.928  33.525  25.669  1.00  0.00     0.039 C 
BRANCH  13  15
ATOM     15  C   UNL     1       8.614  32.286  23.800  1.00  0.00     0.034 C 
BRANCH  15  16
ATOM     16  C   UNL     1       7.727  33.355  23.152  1.00  0.00     0.032 CG0
ATOM     17  G   UNL     1       7.372  32.930  21.750  1.00  0.00     0.000 G0
ENDBRANCH  15  16
ENDBRANCH  13  15
ENDBRANCH  11  12
ENDBRANCH   1  11
TORSDOF 0
ENDMDL
MODEL 3
REMARK VINA RESULT:    -4.339      1.904      5.027
REMARK INTER + INTRA:          -6.489
REMARK INTER:                  -6.342
REMARK INTRA:                  -0.147
REMARK UNBOUND:                -0.374
REMARK SMILES CC1=CCC(=C(C)C)CCC(C)=CCC1
REMARK SMILES IDX 5 1 6 2 7 3 8 4 9 5 10 6 11 7 12 8 13 9 4 11 3 12 2 13 1 14
REMARK SMILES IDX 15 15 14 16
REMARK H PARENT
REMARK Flexibility Score: 60.00
ROOT
ATOM      1  C   UNL     1      10.967  33.481  21.919  1.00  0.00    -0.067 C 
ATOM      2  C   UNL     1      12.077  33.466  21.108  1.00  0.00    -0.077 C 
ATOM      3  C   UNL     1      13.449  33.128  21.649  1.00  0.00     0.039 C 
ATOM      4  C   UNL     1      11.991  33.779  19.627  1.00  0.00     0.039 C 
ENDROOT
BRANCH   1   5
ATOM      5  C   UNL     1      11.113  33.475  23.446  1.00  0.00     0.035 C 
BRANCH   5   6
ATOM      6  C   UNL     1       9.872  33.911  24.244  1.00  0.00     0.035 C 
BRANCH   6   7
ATOM      7  C   UNL     1       9.321  32.815  25.138  1.00  0.00    -0.077 C 
ATOM      8  C   UNL     1       9.991  32.568  26.465  1.00  0.00     0.039 C 
ATOM      9  C   UNL     1       8.238  32.068  24.824  1.00  0.00    -0.028 CG0
ATOM     10  G   UNL     1       7.553  32.052  23.482  1.00  0.00     0.000 G0
ENDBRANCH   6   7
ENDBRANCH   5   6
ENDBRANCH   1   5
BRANCH   1  11
ATOM     11  C   UNL     1       9.587  33.852  21.375  1.00  0.00     0.058 C 
BRANCH  11  12
ATOM     12  C   UNL     1       8.823  32.801  20.589  1.00  0.00    -0.024 C 
ATOM     13  C   UNL     1       8.206  31.689  21.063  1.00  0.00    -0.077 C 
ATOM     14  C   UNL     1       7.425  30.849  20.081  1.00  0.00     0.039 C 
BRANCH  13  15
ATOM     15  C   UNL     1       8.341  31.198  22.488  1.00  0.00     0.034 C 
BRANCH  15  16
ATOM     16  C   UNL     1       7.540  32.046  23.483  1.00  0.00     0.032 CG0
ATOM     17  G   UNL     1       8.247  32.058  24.814  1.00  0.00     0.000 G0
ENDBRANCH  15  16
ENDBRANCH  13  15
ENDBRANCH  11  12
ENDBRANCH   1  11
TORSDOF 0
ENDMDL
MODEL 4
REMARK VINA RESULT:    -4.295      1.435      1.945
REMARK INTER + INTRA:          -6.427
REMARK INTER:                  -6.219
REMARK INTRA:                  -0.208
REMARK UNBOUND:                -0.374
REMARK SMILES CC1=CCC(=C(C)C)CCC(C)=CCC1
REMARK SMILES IDX 5 1 6 2 7 3 8 4 9 5 10 6 11 7 12 8 13 9 4 11 3 12 2 13 1 14
REMARK SMILES IDX 15 15 14 16
REMARK H PARENT
REMARK Flexibility Score: 60.00
ROOT
ATOM      1  C   UNL     1      10.339  33.305  23.217  1.00  0.00    -0.067 C 
ATOM      2  C   UNL     1       9.866  33.224  24.505  1.00  0.00    -0.077 C 
ATOM      3  C   UNL     1       8.488  33.729  24.877  1.00  0.00     0.039 C 
ATOM      4  C   UNL     1      10.689  32.618  25.624  1.00  0.00     0.039 C 
ENDROOT
BRANCH   1   5
ATOM      5  C   UNL     1       9.637  34.191  22.180  1.00  0.00     0.035 C 
BRANCH   5   6
ATOM      6  C   UNL     1       8.451  33.551  21.439  1.00  0.00     0.035 C 
BRANCH   6   7
ATOM      7  C   UNL     1       8.554  32.041  21.335  1.00  0.00    -0.077 C 
ATOM      8  C   UNL     1       7.804  31.200  22.335  1.00  0.00     0.039 C 
ATOM      9  C   UNL     1       9.259  31.404  20.371  1.00  0.00    -0.028 CG0
ATOM     10  G   UNL     1      10.204  32.069  19.403  1.00  0.00     0.000 G0
ENDBRANCH   6   7
ENDBRANCH   5   6
ENDBRANCH   1   5
BRANCH   1  11
ATOM     11  C   UNL     1      11.741  32.821  22.851  1.00  0.00     0.058 C 
BRANCH  11  12
ATOM     12  C   UNL     1      12.429  33.459  21.655  1.00  0.00    -0.024 C 
ATOM     13  C   UNL     1      12.340  33.098  20.350  1.00  0.00    -0.077 C 
ATOM     14  C   UNL     1      13.049  33.961  19.335  1.00  0.00     0.039 C 
BRANCH  13  15
ATOM     15  C   UNL     1      11.657  31.833  19.875  1.00  0.00     0.034 C 
BRANCH  15  16
ATOM     16  C   UNL     1      10.219  32.079  19.405  1.00  0.00     0.032 CG0
ATOM     17  G   UNL     1       9.259  31.428  20.367  1.00  0.00     0.000 G0
ENDBRANCH  15  16
ENDBRANCH  13  15
ENDBRANCH  11  12
ENDBRANCH   1  11
TORSDOF 0
ENDMDL
MODEL 5
REMARK VINA RESULT:    -4.278      1.010      3.503
REMARK INTER + INTRA:          -6.403
REMARK INTER:                  -6.305
REMARK INTRA:                  -0.098
REMARK UNBOUND:                -0.374
REMARK SMILES CC1=CCC(=C(C)C)CCC(C)=CCC1
REMARK SMILES IDX 5 1 6 2 7 3 8 4 9 5 10 6 11 7 12 8 13 9 4 11 3 12 2 13 1 14
REMARK SMILES IDX 15 15 14 16
REMARK H PARENT
REMARK Flexibility Score: 60.00
ROOT
ATOM      1  C   UNL     1       9.767  33.708  23.904  1.00  0.00    -0.067 C 
ATOM      2  C   UNL     1       9.005  33.182  24.920  1.00  0.00    -0.077 C 
ATOM      3  C   UNL     1       9.626  32.375  26.040  1.00  0.00     0.039 C 
ATOM      4  C   UNL     1       7.504  33.385  24.983  1.00  0.00     0.039 C 
ENDROOT
BRANCH   1   5
ATOM      5  C   UNL     1      11.211  33.236  23.684  1.00  0.00     0.035 C 
BRANCH   5   6
ATOM      6  C   UNL     1      11.425  32.233  22.537  1.00  0.00     0.035 C 
BRANCH   6   7
ATOM      7  C   UNL     1      12.104  32.845  21.326  1.00  0.00    -0.077 C 
ATOM      8  C   UNL     1      13.448  33.500  21.512  1.00  0.00     0.039 C 
ATOM      9  C   UNL     1      11.584  32.806  20.078  1.00  0.00    -0.028 CG0
ATOM     10  G   UNL     1      10.188  32.355  19.733  1.00  0.00     0.000 G0
ENDBRANCH   6   7
ENDBRANCH   5   6
ENDBRANCH   1   5
BRANCH   1  11
ATOM     11  C   UNL     1       9.134  34.498  22.759  1.00  0.00     0.058 C 
BRANCH  11  12
ATOM     12  C   UNL     1       8.018  33.838  21.966  1.00  0.00    -0.024 C 
ATOM     13  C   UNL     1       8.068  33.352  20.701  1.00  0.00    -0.077 C 
ATOM     14  C   UNL     1       6.842  32.650  20.171  1.00  0.00     0.039 C 
BRANCH  13  15
ATOM     15  C   UNL     1       9.241  33.562  19.767  1.00  0.00     0.034 C 
BRANCH  15  16
ATOM     16  C   UNL     1      10.183  32.354  19.720  1.00  0.00     0.032 CG0
ATOM     17  G   UNL     1      11.582  32.794  20.069  1.00  0.00     0.000 G0
ENDBRANCH  15  16
ENDBRANCH  13  15
ENDBRANCH  11  12
ENDBRANCH   1  11
TORSDOF 0
ENDMDL
MODEL 6
REMARK VINA RESULT:    -4.229      2.550      4.908
REMARK INTER + INTRA:          -6.333
REMARK INTER:                  -6.136
REMARK INTRA:                  -0.198
REMARK UNBOUND:                -0.374
REMARK SMILES CC1=CCC(=C(C)C)CCC(C)=CCC1
REMARK SMILES IDX 5 1 6 2 7 3 8 4 9 5 10 6 11 7 12 8 13 9 4 11 3 12 2 13 1 14
REMARK SMILES IDX 15 15 14 16
REMARK H PARENT
REMARK Flexibility Score: 60.00
ROOT
ATOM      1  C   UNL     1      11.050  32.986  21.933  1.00  0.00    -0.067 C 
ATOM      2  C   UNL     1      10.077  33.644  22.647  1.00  0.00    -0.077 C 
ATOM      3  C   UNL     1      10.168  33.801  24.151  1.00  0.00     0.039 C 
ATOM      4  C   UNL     1       8.865  34.257  21.975  1.00  0.00     0.039 C 
ENDROOT
BRANCH   1   5
ATOM      5  C   UNL     1      12.089  32.112  22.647  1.00  0.00     0.035 C 
BRANCH   5   6
ATOM      6  C   UNL     1      12.626  30.913  21.846  1.00  0.00     0.035 C 
BRANCH   6   7
ATOM      7  C   UNL     1      14.138  30.911  21.713  1.00  0.00    -0.077 C 
ATOM      8  C   UNL     1      14.956  30.338  22.841  1.00  0.00     0.039 C 
ATOM      9  C   UNL     1      14.793  31.366  20.621  1.00  0.00    -0.028 CG0
ATOM     10  G   UNL     1      14.161  32.127  19.483  1.00  0.00     0.000 G0
ENDBRANCH   6   7
ENDBRANCH   5   6
ENDBRANCH   1   5
BRANCH   1  11
ATOM     11  C   UNL     1      10.942  32.804  20.419  1.00  0.00     0.058 C 
BRANCH  11  12
ATOM     12  C   UNL     1      11.463  33.918  19.526  1.00  0.00    -0.024 C 
ATOM     13  C   UNL     1      12.754  34.219  19.237  1.00  0.00    -0.077 C 
ATOM     14  C   UNL     1      13.008  35.322  18.237  1.00  0.00     0.039 C 
BRANCH  13  15
ATOM     15  C   UNL     1      13.940  33.584  19.930  1.00  0.00     0.034 C 
BRANCH  15  16
ATOM     16  C   UNL     1      14.192  32.144  19.469  1.00  0.00     0.032 CG0
ATOM     17  G   UNL     1      14.782  31.349  20.605  1.00  0.00     0.000 G0
ENDBRANCH  15  16
ENDBRANCH  13  15
ENDBRANCH  11  12
ENDBRANCH   1  11
TORSDOF 0
ENDMDL
MODEL 7
REMARK VINA RESULT:    -4.062      2.808      5.950
REMARK INTER + INTRA:          -6.098
REMARK INTER:                  -5.953
REMARK INTRA:                  -0.146
REMARK UNBOUND:                -0.374
REMARK SMILES CC1=CCC(=C(C)C)CCC(C)=CCC1
REMARK SMILES IDX 5 1 6 2 7 3 8 4 9 5 10 6 11 7 12 8 13 9 4 11 3 12 2 13 1 14
REMARK SMILES IDX 15 15 14 16
REMARK H PARENT
REMARK Flexibility Score: 60.00
ROOT
ATOM      1  C   UNL     1      14.964  31.588  21.995  1.00  0.00    -0.067 C 
ATOM      2  C   UNL     1      15.685  30.957  22.980  1.00  0.00    -0.077 C 
ATOM      3  C   UNL     1      16.930  31.582  23.574  1.00  0.00     0.039 C 
ATOM      4  C   UNL     1      15.276  29.607  23.534  1.00  0.00     0.039 C 
ENDROOT
BRANCH   1   5
ATOM      5  C   UNL     1      15.554  32.782  21.234  1.00  0.00     0.035 C 
BRANCH   5   6
ATOM      6  C   UNL     1      15.348  32.778  19.710  1.00  0.00     0.035 C 
BRANCH   6   7
ATOM      7  C   UNL     1      14.711  34.054  19.188  1.00  0.00    -0.077 C 
ATOM      8  C   UNL     1      15.613  35.191  18.782  1.00  0.00     0.039 C 
ATOM      9  C   UNL     1      13.377  34.215  19.037  1.00  0.00    -0.028 CG0
ATOM     10  G   UNL     1      12.323  33.267  19.549  1.00  0.00     0.000 G0
ENDBRANCH   6   7
ENDBRANCH   5   6
ENDBRANCH   1   5
BRANCH   1  11
ATOM     11  C   UNL     1      13.724  30.941  21.377  1.00  0.00     0.058 C 
BRANCH  11  12
ATOM     12  C   UNL     1      12.371  31.252  21.995  1.00  0.00    -0.024 C 
ATOM     13  C   UNL     1      11.592  32.344  21.791  1.00  0.00    -0.077 C 
ATOM     14  C   UNL     1      10.237  32.371  22.455  1.00  0.00     0.039 C 
BRANCH  13  15
ATOM     15  C   UNL     1      12.047  33.567  21.023  1.00  0.00     0.034 C 
BRANCH  15  16
ATOM     16  C   UNL     1      12.305  33.272  19.542  1.00  0.00     0.032 CG0
ATOM     17  G   UNL     1      13.380  34.193  19.026  1.00  0.00     0.000 G0
ENDBRANCH  15  16
ENDBRANCH  13  15
ENDBRANCH  11  12
ENDBRANCH   1  11
TORSDOF 0
ENDMDL
MODEL 8
REMARK VINA RESULT:    -3.938      1.625      3.216
REMARK INTER + INTRA:          -5.924
REMARK INTER:                  -6.030
REMARK INTRA:                   0.106
REMARK UNBOUND:                -0.374
REMARK SMILES CC1=CCC(=C(C)C)CCC(C)=CCC1
REMARK SMILES IDX 5 1 6 2 7 3 8 4 9 5 10 6 11 7 12 8 13 9 4 11 3 12 2 13 1 14
REMARK SMILES IDX 15 15 14 16
REMARK H PARENT
REMARK Flexibility Score: 60.00
ROOT
ATOM      1  C   UNL     1       7.371  31.587  22.920  1.00  0.00    -0.067 C 
ATOM      2  C   UNL     1       7.034  30.256  22.977  1.00  0.00    -0.077 C 
ATOM      3  C   UNL     1       6.995  29.394  21.733  1.00  0.00     0.039 C 
ATOM      4  C   UNL     1       6.690  29.572  24.285  1.00  0.00     0.039 C 
ENDROOT
BRANCH   1   5
ATOM      5  C   UNL     1       7.406  32.329  21.577  1.00  0.00     0.035 C 
BRANCH   5   6
ATOM      6  C   UNL     1       7.950  33.767  21.616  1.00  0.00     0.035 C 
BRANCH   6   7
ATOM      7  C   UNL     1       9.243  33.939  20.839  1.00  0.00    -0.077 C 
ATOM      8  C   UNL     1       9.167  34.460  19.428  1.00  0.00     0.039 C 
ATOM      9  C   UNL     1      10.466  33.680  21.357  1.00  0.00    -0.028 CG0
ATOM     10  G   UNL     1      10.724  32.994  22.673  1.00  0.00     0.000 G0
ENDBRANCH   6   7
ENDBRANCH   5   6
ENDBRANCH   1   5
BRANCH   1  11
ATOM     11  C   UNL     1       7.381  32.461  24.174  1.00  0.00     0.058 C 
BRANCH  11  12
ATOM     12  C   UNL     1       8.575  32.356  25.109  1.00  0.00    -0.024 C 
ATOM     13  C   UNL     1       9.763  33.006  25.021  1.00  0.00    -0.077 C 
ATOM     14  C   UNL     1      10.757  32.800  26.138  1.00  0.00     0.039 C 
BRANCH  13  15
ATOM     15  C   UNL     1      10.179  33.837  23.826  1.00  0.00     0.034 C 
BRANCH  15  16
ATOM     16  C   UNL     1      10.734  32.986  22.679  1.00  0.00     0.032 CG0
ATOM     17  G   UNL     1      10.473  33.680  21.367  1.00  0.00     0.000 G0
ENDBRANCH  15  16
ENDBRANCH  13  15
ENDBRANCH  11  12
ENDBRANCH   1  11
TORSDOF 0
ENDMDL
MODEL 9
REMARK VINA RESULT:    -3.864      1.654      4.768
REMARK INTER + INTRA:          -5.820
REMARK INTER:                  -5.433
REMARK INTRA:                  -0.387
REMARK UNBOUND:                -0.374
REMARK SMILES CC1=CCC(=C(C)C)CCC(C)=CCC1
REMARK SMILES IDX 5 1 6 2 7 3 8 4 9 5 10 6 11 7 12 8 13 9 4 11 3 12 2 13 1 14
REMARK SMILES IDX 15 15 14 16
REMARK H PARENT
REMARK Flexibility Score: 60.00
ROOT
ATOM      1  C   UNL     1      12.538  32.795  21.170  1.00  0.00    -0.067 C 
ATOM      2  C   UNL     1      13.601  31.952  20.951  1.00  0.00    -0.077 C 
ATOM      3  C   UNL     1      14.150  31.068  22.051  1.00  0.00     0.039 C 
ATOM      4  C   UNL     1      14.278  31.851  19.599  1.00  0.00     0.039 C 
ENDROOT
BRANCH   1   5
ATOM      5  C   UNL     1      12.074  33.117  22.597  1.00  0.00     0.035 C 
BRANCH   5   6
ATOM      6  C   UNL     1      10.826  32.362  23.087  1.00  0.00     0.035 C 
BRANCH   6   7
ATOM      7  C   UNL     1       9.777  33.272  23.698  1.00  0.00    -0.077 C 
ATOM      8  C   UNL     1       9.933  33.677  25.141  1.00  0.00     0.039 C 
ATOM      9  C   UNL     1       8.725  33.768  23.009  1.00  0.00    -0.028 CG0
ATOM     10  G   UNL     1       8.312  33.339  21.624  1.00  0.00     0.000 G0
ENDBRANCH   6   7
ENDBRANCH   5   6
ENDBRANCH   1   5
BRANCH   1  11
ATOM     11  C   UNL     1      12.004  33.708  20.067  1.00  0.00     0.058 C 
BRANCH  11  12
ATOM     12  C   UNL     1      10.827  33.217  19.239  1.00  0.00    -0.024 C 
ATOM     13  C   UNL     1       9.513  33.512  19.401  1.00  0.00    -0.077 C 
ATOM     14  C   UNL     1       8.543  32.970  18.380  1.00  0.00     0.039 C 
BRANCH  13  15
ATOM     15  C   UNL     1       8.963  34.264  20.595  1.00  0.00     0.034 C 
BRANCH  15  16
ATOM     16  C   UNL     1       8.307  33.338  21.624  1.00  0.00     0.032 CG0
ATOM     17  G   UNL     1       8.698  33.775  23.013  1.00  0.00     0.000 G0
ENDBRANCH  15  16
ENDBRANCH  13  15
ENDBRANCH  11  12
ENDBRANCH   1  11
TORSDOF 0
ENDMDL
