MODEL 1
REMARK VINA RESULT:    13.957      0.000      0.000
REMARK INTER + INTRA:          32.499
REMARK INTER:                  31.908
REMARK INTRA:                   0.591
REMARK UNBOUND:                 0.591
REMARK SMILES CCCCCCCCCCCCCCCCCCCCCCCC(=O)[O-]
REMARK SMILES IDX 13 1 14 2 15 3 16 4 17 5 18 6 19 7 20 8 21 9 22 10 23 11
REMARK SMILES IDX 24 12 25 13 26 14 12 15 11 16 10 17 9 18 8 19 7 20 6 21 5 22
REMARK SMILES IDX 4 23 3 24 2 25 1 26
REMARK H PARENT
REMARK Flexibility Score: inf
ROOT
ATOM      1  C   UNL     1      26.754  44.523   6.013  1.00  0.00     0.000 C 
ENDROOT
BRANCH   1   2
ATOM      2  C   UNL     1      26.425  45.862   6.696  1.00  0.00     0.000 C 
BRANCH   2   3
ATOM      3  C   UNL     1      27.167  47.055   6.066  1.00  0.00     0.000 C 
BRANCH   3   4
ATOM      4  C   UNL     1      28.288  46.675   5.076  1.00  0.00     0.000 C 
BRANCH   4   5
ATOM      5  C   UNL     1      27.840  45.815   3.876  1.00  0.00     0.000 C 
BRANCH   5   6
ATOM      6  C   UNL     1      28.835  44.719   3.455  1.00  0.00     0.000 C 
BRANCH   6   7
ATOM      7  C   UNL     1      29.418  44.950   2.054  1.00  0.00     0.000 C 
BRANCH   7   8
ATOM      8  C   UNL     1      29.318  43.682   1.196  1.00  0.00     0.000 C 
BRANCH   8   9
ATOM      9  C   UNL     1      30.558  43.495   0.298  1.00  0.00     0.000 C 
BRANCH   9  10
ATOM     10  C   UNL     1      30.399  42.393  -0.766  1.00  0.00     0.006 C 
BRANCH  10  11
ATOM     11  C   UNL     1      30.010  42.916  -2.162  1.00  0.00     0.053 C 
BRANCH  11  12
ATOM     12  C   UNL     1      28.939  42.088  -2.811  1.00  0.00     0.041 C 
ATOM     13  O   UNL     1      28.071  41.509  -2.108  1.00  0.00    -0.550 OA
ATOM     14  O   UNL     1      28.860  42.011  -4.196  1.00  0.00    -0.550 OA
ENDBRANCH  11  12
ENDBRANCH  10  11
ENDBRANCH   9  10
ENDBRANCH   8   9
ENDBRANCH   7   8
ENDBRANCH   6   7
ENDBRANCH   5   6
ENDBRANCH   4   5
ENDBRANCH   3   4
ENDBRANCH   2   3
ENDBRANCH   1   2
BRANCH   1  15
ATOM     15  C   UNL     1      25.551  43.945   5.237  1.00  0.00     0.000 C 
BRANCH  15  16
ATOM     16  C   UNL     1      25.946  43.049   4.048  1.00  0.00     0.000 C 
BRANCH  16  17
ATOM     17  C   UNL     1      25.161  43.305   2.750  1.00  0.00     0.000 C 
BRANCH  17  18
ATOM     18  C   UNL     1      24.184  42.184   2.346  1.00  0.00    -0.000 C 
BRANCH  18  19
ATOM     19  C   UNL     1      22.759  42.368   2.911  1.00  0.00    -0.000 C 
BRANCH  19  20
ATOM     20  C   UNL     1      22.758  42.640   4.426  1.00  0.00    -0.000 C 
BRANCH  20  21
ATOM     21  C   UNL     1      22.784  41.349   5.259  1.00  0.00    -0.000 C 
BRANCH  21  22
ATOM     22  C   UNL     1      24.200  40.769   5.406  1.00  0.00    -0.000 C 
BRANCH  22  23
ATOM     23  C   UNL     1      24.278  39.807   6.598  1.00  0.00    -0.000 C 
BRANCH  23  24
ATOM     24  C   UNL     1      25.732  39.622   7.061  1.00  0.00    -0.000 C 
BRANCH  24  25
ATOM     25  C   UNL     1      26.261  38.206   6.790  1.00  0.00    -0.003 C 
ATOM     26  C   UNL     1      25.724  37.615   5.486  1.00  0.00     0.004 C 
ENDBRANCH  24  25
ENDBRANCH  23  24
ENDBRANCH  22  23
ENDBRANCH  21  22
ENDBRANCH  20  21
ENDBRANCH  19  20
ENDBRANCH  18  19
ENDBRANCH  17  18
ENDBRANCH  16  17
ENDBRANCH  15  16
ENDBRANCH   1  15
TORSDOF 22
ENDMDL
MODEL 2
REMARK VINA RESULT:    14.021      2.867      7.773
REMARK INTER + INTRA:          32.646
REMARK INTER:                  33.312
REMARK INTRA:                  -0.666
REMARK UNBOUND:                 0.591
REMARK SMILES CCCCCCCCCCCCCCCCCCCCCCCC(=O)[O-]
REMARK SMILES IDX 13 1 14 2 15 3 16 4 17 5 18 6 19 7 20 8 21 9 22 10 23 11
REMARK SMILES IDX 24 12 25 13 26 14 12 15 11 16 10 17 9 18 8 19 7 20 6 21 5 22
REMARK SMILES IDX 4 23 3 24 2 25 1 26
REMARK H PARENT
REMARK Flexibility Score: inf
ROOT
ATOM      1  C   UNL     1      26.037  45.618   6.560  1.00  0.00     0.000 C 
ENDROOT
BRANCH   1   2
ATOM      2  C   UNL     1      26.757  44.268   6.732  1.00  0.00     0.000 C 
BRANCH   2   3
ATOM      3  C   UNL     1      26.635  43.362   5.493  1.00  0.00     0.000 C 
BRANCH   3   4
ATOM      4  C   UNL     1      25.608  43.831   4.442  1.00  0.00     0.000 C 
BRANCH   4   5
ATOM      5  C   UNL     1      25.528  42.961   3.170  1.00  0.00     0.000 C 
BRANCH   5   6
ATOM      6  C   UNL     1      24.166  42.983   2.453  1.00  0.00     0.000 C 
BRANCH   6   7
ATOM      7  C   UNL     1      23.116  42.102   3.143  1.00  0.00     0.000 C 
BRANCH   7   8
ATOM      8  C   UNL     1      23.052  42.394   4.648  1.00  0.00     0.000 C 
BRANCH   8   9
ATOM      9  C   UNL     1      23.081  41.100   5.488  1.00  0.00     0.000 C 
BRANCH   9  10
ATOM     10  C   UNL     1      24.459  40.413   5.532  1.00  0.00     0.006 C 
BRANCH  10  11
ATOM     11  C   UNL     1      24.735  39.637   6.834  1.00  0.00     0.053 C 
BRANCH  11  12
ATOM     12  C   UNL     1      25.781  38.575   6.663  1.00  0.00     0.041 C 
ATOM     13  O   UNL     1      25.823  37.890   5.609  1.00  0.00    -0.550 OA
ATOM     14  O   UNL     1      26.752  38.387   7.639  1.00  0.00    -0.550 OA
ENDBRANCH  11  12
ENDBRANCH  10  11
ENDBRANCH   9  10
ENDBRANCH   8   9
ENDBRANCH   7   8
ENDBRANCH   6   7
ENDBRANCH   5   6
ENDBRANCH   4   5
ENDBRANCH   3   4
ENDBRANCH   2   3
ENDBRANCH   1   2
BRANCH   1  15
ATOM     15  C   UNL     1      26.945  46.818   6.901  1.00  0.00     0.000 C 
BRANCH  15  16
ATOM     16  C   UNL     1      27.742  47.361   5.698  1.00  0.00     0.000 C 
BRANCH  16  17
ATOM     17  C   UNL     1      27.531  46.597   4.379  1.00  0.00     0.000 C 
BRANCH  17  18
ATOM     18  C   UNL     1      28.722  45.726   3.933  1.00  0.00    -0.000 C 
BRANCH  18  19
ATOM     19  C   UNL     1      28.319  44.535   3.037  1.00  0.00    -0.000 C 
BRANCH  19  20
ATOM     20  C   UNL     1      29.532  43.879   2.354  1.00  0.00    -0.000 C 
BRANCH  20  21
ATOM     21  C   UNL     1      29.596  44.177   0.847  1.00  0.00    -0.000 C 
BRANCH  21  22
ATOM     22  C   UNL     1      30.657  43.335   0.122  1.00  0.00    -0.000 C 
BRANCH  22  23
ATOM     23  C   UNL     1      30.014  42.434  -0.941  1.00  0.00    -0.000 C 
BRANCH  23  24
ATOM     24  C   UNL     1      29.889  43.170  -2.284  1.00  0.00    -0.000 C 
BRANCH  24  25
ATOM     25  C   UNL     1      29.182  42.326  -3.355  1.00  0.00    -0.003 C 
ATOM     26  C   UNL     1      28.091  41.427  -2.772  1.00  0.00     0.004 C 
ENDBRANCH  24  25
ENDBRANCH  23  24
ENDBRANCH  22  23
ENDBRANCH  21  22
ENDBRANCH  20  21
ENDBRANCH  19  20
ENDBRANCH  18  19
ENDBRANCH  17  18
ENDBRANCH  16  17
ENDBRANCH  15  16
ENDBRANCH   1  15
TORSDOF 22
ENDMDL
MODEL 3
REMARK VINA RESULT:    14.535      0.734      1.254
REMARK INTER + INTRA:          33.821
REMARK INTER:                  34.139
REMARK INTRA:                  -0.318
REMARK UNBOUND:                 0.591
REMARK SMILES CCCCCCCCCCCCCCCCCCCCCCCC(=O)[O-]
REMARK SMILES IDX 13 1 14 2 15 3 16 4 17 5 18 6 19 7 20 8 21 9 22 10 23 11
REMARK SMILES IDX 24 12 25 13 26 14 12 15 11 16 10 17 9 18 8 19 7 20 6 21 5 22
REMARK SMILES IDX 4 23 3 24 2 25 1 26
REMARK H PARENT
REMARK Flexibility Score: inf
ROOT
ATOM      1  C   UNL     1      26.151  46.011   7.253  1.00  0.00     0.000 C 
ENDROOT
BRANCH   1   2
ATOM      2  C   UNL     1      27.162  47.123   6.921  1.00  0.00     0.000 C 
BRANCH   2   3
ATOM      3  C   UNL     1      27.384  47.299   5.407  1.00  0.00     0.000 C 
BRANCH   3   4
ATOM      4  C   UNL     1      28.579  46.515   4.829  1.00  0.00     0.000 C 
BRANCH   4   5
ATOM      5  C   UNL     1      28.266  45.671   3.576  1.00  0.00     0.000 C 
BRANCH   5   6
ATOM      6  C   UNL     1      29.393  44.718   3.136  1.00  0.00     0.000 C 
BRANCH   6   7
ATOM      7  C   UNL     1      29.008  43.864   1.921  1.00  0.00     0.000 C 
BRANCH   7   8
ATOM      8  C   UNL     1      29.754  44.326   0.661  1.00  0.00     0.000 C 
BRANCH   8   9
ATOM      9  C   UNL     1      30.783  43.280   0.185  1.00  0.00     0.000 C 
BRANCH   9  10
ATOM     10  C   UNL     1      30.239  42.306  -0.877  1.00  0.00     0.006 C 
BRANCH  10  11
ATOM     11  C   UNL     1      29.767  42.988  -2.175  1.00  0.00     0.053 C 
BRANCH  11  12
ATOM     12  C   UNL     1      28.953  42.074  -3.045  1.00  0.00     0.041 C 
ATOM     13  O   UNL     1      27.903  41.542  -2.600  1.00  0.00    -0.550 OA
ATOM     14  O   UNL     1      29.319  41.862  -4.369  1.00  0.00    -0.550 OA
ENDBRANCH  11  12
ENDBRANCH  10  11
ENDBRANCH   9  10
ENDBRANCH   8   9
ENDBRANCH   7   8
ENDBRANCH   6   7
ENDBRANCH   5   6
ENDBRANCH   4   5
ENDBRANCH   3   4
ENDBRANCH   2   3
ENDBRANCH   1   2
BRANCH   1  15
ATOM     15  C   UNL     1      25.797  45.150   6.022  1.00  0.00     0.000 C 
BRANCH  15  16
ATOM     16  C   UNL     1      26.610  43.845   5.917  1.00  0.00     0.000 C 
BRANCH  16  17
ATOM     17  C   UNL     1      26.659  43.218   4.513  1.00  0.00     0.000 C 
BRANCH  17  18
ATOM     18  C   UNL     1      25.612  43.761   3.520  1.00  0.00    -0.000 C 
BRANCH  18  19
ATOM     19  C   UNL     1      24.877  42.658   2.727  1.00  0.00    -0.000 C 
BRANCH  19  20
ATOM     20  C   UNL     1      23.362  42.652   2.997  1.00  0.00    -0.000 C 
BRANCH  20  21
ATOM     21  C   UNL     1      22.981  41.795   4.215  1.00  0.00    -0.000 C 
BRANCH  21  22
ATOM     22  C   UNL     1      24.150  41.609   5.196  1.00  0.00    -0.000 C 
BRANCH  22  23
ATOM     23  C   UNL     1      24.562  40.135   5.286  1.00  0.00    -0.000 C 
BRANCH  23  24
ATOM     24  C   UNL     1      25.302  39.850   6.603  1.00  0.00    -0.000 C 
BRANCH  24  25
ATOM     25  C   UNL     1      25.988  38.475   6.608  1.00  0.00    -0.003 C 
ATOM     26  C   UNL     1      25.168  37.405   5.886  1.00  0.00     0.004 C 
ENDBRANCH  24  25
ENDBRANCH  23  24
ENDBRANCH  22  23
ENDBRANCH  21  22
ENDBRANCH  20  21
ENDBRANCH  19  20
ENDBRANCH  18  19
ENDBRANCH  17  18
ENDBRANCH  16  17
ENDBRANCH  15  16
ENDBRANCH   1  15
TORSDOF 22
ENDMDL
MODEL 4
REMARK VINA RESULT:    14.541      2.841      7.712
REMARK INTER + INTRA:          33.833
REMARK INTER:                  34.897
REMARK INTRA:                  -1.064
REMARK UNBOUND:                 0.591
REMARK SMILES CCCCCCCCCCCCCCCCCCCCCCCC(=O)[O-]
REMARK SMILES IDX 13 1 14 2 15 3 16 4 17 5 18 6 19 7 20 8 21 9 22 10 23 11
REMARK SMILES IDX 24 12 25 13 26 14 12 15 11 16 10 17 9 18 8 19 7 20 6 21 5 22
REMARK SMILES IDX 4 23 3 24 2 25 1 26
REMARK H PARENT
REMARK Flexibility Score: inf
ROOT
ATOM      1  C   UNL     1      25.803  45.093   6.201  1.00  0.00     0.000 C 
ENDROOT
BRANCH   1   2
ATOM      2  C   UNL     1      26.735  43.899   5.932  1.00  0.00     0.000 C 
BRANCH   2   3
ATOM      3  C   UNL     1      26.420  43.180   4.608  1.00  0.00     0.000 C 
BRANCH   3   4
ATOM      4  C   UNL     1      25.442  43.926   3.678  1.00  0.00     0.000 C 
BRANCH   4   5
ATOM      5  C   UNL     1      25.073  43.180   2.378  1.00  0.00     0.000 C 
BRANCH   5   6
ATOM      6  C   UNL     1      23.932  42.157   2.518  1.00  0.00     0.000 C 
BRANCH   6   7
ATOM      7  C   UNL     1      22.886  42.571   3.562  1.00  0.00     0.000 C 
BRANCH   7   8
ATOM      8  C   UNL     1      23.170  41.915   4.920  1.00  0.00     0.000 C 
BRANCH   8   9
ATOM      9  C   UNL     1      24.119  40.706   4.790  1.00  0.00     0.000 C 
BRANCH   9  10
ATOM     10  C   UNL     1      24.674  40.198   6.133  1.00  0.00     0.006 C 
BRANCH  10  11
ATOM     11  C   UNL     1      25.053  38.705   6.134  1.00  0.00     0.053 C 
BRANCH  11  12
ATOM     12  C   UNL     1      26.416  38.456   6.712  1.00  0.00     0.041 C 
ATOM     13  O   UNL     1      26.592  38.483   7.957  1.00  0.00    -0.550 OA
ATOM     14  O   UNL     1      27.478  38.128   5.878  1.00  0.00    -0.550 OA
ENDBRANCH  11  12
ENDBRANCH  10  11
ENDBRANCH   9  10
ENDBRANCH   8   9
ENDBRANCH   7   8
ENDBRANCH   6   7
ENDBRANCH   5   6
ENDBRANCH   4   5
ENDBRANCH   3   4
ENDBRANCH   2   3
ENDBRANCH   1   2
BRANCH   1  15
ATOM     15  C   UNL     1      26.373  46.060   7.261  1.00  0.00     0.000 C 
BRANCH  15  16
ATOM     16  C   UNL     1      27.231  47.197   6.673  1.00  0.00     0.000 C 
BRANCH  16  17
ATOM     17  C   UNL     1      27.378  47.177   5.141  1.00  0.00     0.000 C 
BRANCH  17  18
ATOM     18  C   UNL     1      28.596  46.396   4.612  1.00  0.00    -0.000 C 
BRANCH  18  19
ATOM     19  C   UNL     1      28.259  45.427   3.457  1.00  0.00    -0.000 C 
BRANCH  19  20
ATOM     20  C   UNL     1      29.458  44.546   3.063  1.00  0.00    -0.000 C 
BRANCH  20  21
ATOM     21  C   UNL     1      29.196  43.727   1.789  1.00  0.00    -0.000 C 
BRANCH  21  22
ATOM     22  C   UNL     1      30.109  44.139   0.623  1.00  0.00    -0.000 C 
BRANCH  22  23
ATOM     23  C   UNL     1      30.493  42.923  -0.231  1.00  0.00    -0.000 C 
BRANCH  23  24
ATOM     24  C   UNL     1      29.385  42.589  -1.242  1.00  0.00    -0.000 C 
BRANCH  24  25
ATOM     25  C   UNL     1      29.860  42.709  -2.697  1.00  0.00    -0.003 C 
ATOM     26  C   UNL     1      28.897  42.053  -3.688  1.00  0.00     0.004 C 
ENDBRANCH  24  25
ENDBRANCH  23  24
ENDBRANCH  22  23
ENDBRANCH  21  22
ENDBRANCH  20  21
ENDBRANCH  19  20
ENDBRANCH  18  19
ENDBRANCH  17  18
ENDBRANCH  16  17
ENDBRANCH  15  16
ENDBRANCH   1  15
TORSDOF 22
ENDMDL
MODEL 5
REMARK VINA RESULT:    14.706      3.974      9.117
REMARK INTER + INTRA:          34.212
REMARK INTER:                  35.126
REMARK INTRA:                  -0.914
REMARK UNBOUND:                 0.591
REMARK SMILES CCCCCCCCCCCCCCCCCCCCCCCC(=O)[O-]
REMARK SMILES IDX 13 1 14 2 15 3 16 4 17 5 18 6 19 7 20 8 21 9 22 10 23 11
REMARK SMILES IDX 24 12 25 13 26 14 12 15 11 16 10 17 9 18 8 19 7 20 6 21 5 22
REMARK SMILES IDX 4 23 3 24 2 25 1 26
REMARK H PARENT
REMARK Flexibility Score: inf
ROOT
ATOM      1  C   UNL     1      28.858  44.649   3.404  1.00  0.00     0.000 C 
ENDROOT
BRANCH   1   2
ATOM      2  C   UNL     1      27.887  45.778   3.791  1.00  0.00     0.000 C 
BRANCH   2   3
ATOM      3  C   UNL     1      28.461  46.720   4.866  1.00  0.00     0.000 C 
BRANCH   3   4
ATOM      4  C   UNL     1      27.416  47.584   5.600  1.00  0.00     0.000 C 
BRANCH   4   5
ATOM      5  C   UNL     1      27.353  47.382   7.128  1.00  0.00     0.000 C 
BRANCH   5   6
ATOM      6  C   UNL     1      26.228  46.450   7.614  1.00  0.00     0.000 C 
BRANCH   6   7
ATOM      7  C   UNL     1      25.824  45.407   6.562  1.00  0.00     0.000 C 
BRANCH   7   8
ATOM      8  C   UNL     1      26.764  44.195   6.595  1.00  0.00     0.000 C 
BRANCH   8   9
ATOM      9  C   UNL     1      26.527  43.250   5.399  1.00  0.00     0.000 C 
BRANCH   9  10
ATOM     10  C   UNL     1      25.325  43.642   4.519  1.00  0.00     0.006 C 
BRANCH  10  11
ATOM     11  C   UNL     1      25.042  42.661   3.366  1.00  0.00     0.053 C 
BRANCH  11  12
ATOM     12  C   UNL     1      23.608  42.219   3.322  1.00  0.00     0.041 C 
ATOM     13  O   UNL     1      22.944  42.114   4.385  1.00  0.00    -0.550 OA
ATOM     14  O   UNL     1      22.986  41.987   2.102  1.00  0.00    -0.550 OA
ENDBRANCH  11  12
ENDBRANCH  10  11
ENDBRANCH   9  10
ENDBRANCH   8   9
ENDBRANCH   7   8
ENDBRANCH   6   7
ENDBRANCH   5   6
ENDBRANCH   4   5
ENDBRANCH   3   4
ENDBRANCH   2   3
ENDBRANCH   1   2
BRANCH   1  15
ATOM     15  C   UNL     1      29.457  44.842   1.995  1.00  0.00     0.000 C 
BRANCH  15  16
ATOM     16  C   UNL     1      29.722  43.524   1.242  1.00  0.00     0.000 C 
BRANCH  16  17
ATOM     17  C   UNL     1      29.802  43.652  -0.289  1.00  0.00     0.000 C 
BRANCH  17  18
ATOM     18  C   UNL     1      30.482  42.471  -1.008  1.00  0.00    -0.000 C 
BRANCH  18  19
ATOM     19  C   UNL     1      31.855  42.089  -0.414  1.00  0.00    -0.000 C 
BRANCH  19  20
ATOM     20  C   UNL     1      32.863  43.250  -0.472  1.00  0.00    -0.000 C 
BRANCH  20  21
ATOM     21  C   UNL     1      34.310  42.790  -0.228  1.00  0.00    -0.000 C 
BRANCH  21  22
ATOM     22  C   UNL     1      35.345  43.831  -0.682  1.00  0.00    -0.000 C 
BRANCH  22  23
ATOM     23  C   UNL     1      36.498  43.164  -1.443  1.00  0.00    -0.000 C 
BRANCH  23  24
ATOM     24  C   UNL     1      37.730  44.082  -1.492  1.00  0.00    -0.000 C 
BRANCH  24  25
ATOM     25  C   UNL     1      39.008  43.332  -1.892  1.00  0.00    -0.003 C 
ATOM     26  C   UNL     1      38.731  41.903  -2.364  1.00  0.00     0.004 C 
ENDBRANCH  24  25
ENDBRANCH  23  24
ENDBRANCH  22  23
ENDBRANCH  21  22
ENDBRANCH  20  21
ENDBRANCH  19  20
ENDBRANCH  18  19
ENDBRANCH  17  18
ENDBRANCH  16  17
ENDBRANCH  15  16
ENDBRANCH   1  15
TORSDOF 22
ENDMDL
MODEL 6
REMARK VINA RESULT:    14.765      0.909      2.142
REMARK INTER + INTRA:          34.346
REMARK INTER:                  34.786
REMARK INTRA:                  -0.440
REMARK UNBOUND:                 0.591
REMARK SMILES CCCCCCCCCCCCCCCCCCCCCCCC(=O)[O-]
REMARK SMILES IDX 13 1 14 2 15 3 16 4 17 5 18 6 19 7 20 8 21 9 22 10 23 11
REMARK SMILES IDX 24 12 25 13 26 14 12 15 11 16 10 17 9 18 8 19 7 20 6 21 5 22
REMARK SMILES IDX 4 23 3 24 2 25 1 26
REMARK H PARENT
REMARK Flexibility Score: inf
ROOT
ATOM      1  C   UNL     1      26.355  43.343   3.520  1.00  0.00     0.000 C 
ENDROOT
BRANCH   1   2
ATOM      2  C   UNL     1      26.405  43.645   5.028  1.00  0.00     0.000 C 
BRANCH   2   3
ATOM      3  C   UNL     1      26.840  45.089   5.336  1.00  0.00     0.000 C 
BRANCH   3   4
ATOM      4  C   UNL     1      27.973  45.632   4.442  1.00  0.00     0.000 C 
BRANCH   4   5
ATOM      5  C   UNL     1      28.855  44.557   3.773  1.00  0.00     0.000 C 
BRANCH   5   6
ATOM      6  C   UNL     1      29.439  44.954   2.405  1.00  0.00     0.000 C 
BRANCH   6   7
ATOM      7  C   UNL     1      29.178  43.902   1.319  1.00  0.00     0.000 C 
BRANCH   7   8
ATOM      8  C   UNL     1      30.445  43.625   0.500  1.00  0.00     0.000 C 
BRANCH   8   9
ATOM      9  C   UNL     1      30.253  42.451  -0.481  1.00  0.00     0.000 C 
BRANCH   9  10
ATOM     10  C   UNL     1      30.529  42.812  -1.953  1.00  0.00     0.006 C 
BRANCH  10  11
ATOM     11  C   UNL     1      29.262  43.111  -2.777  1.00  0.00     0.053 C 
BRANCH  11  12
ATOM     12  C   UNL     1      28.655  41.874  -3.372  1.00  0.00     0.041 C 
ATOM     13  O   UNL     1      28.952  41.523  -4.544  1.00  0.00    -0.550 OA
ATOM     14  O   UNL     1      27.812  41.074  -2.611  1.00  0.00    -0.550 OA
ENDBRANCH  11  12
ENDBRANCH  10  11
ENDBRANCH   9  10
ENDBRANCH   8   9
ENDBRANCH   7   8
ENDBRANCH   6   7
ENDBRANCH   5   6
ENDBRANCH   4   5
ENDBRANCH   3   4
ENDBRANCH   2   3
ENDBRANCH   1   2
BRANCH   1  15
ATOM     15  C   UNL     1      25.026  43.787   2.873  1.00  0.00     0.000 C 
BRANCH  15  16
ATOM     16  C   UNL     1      24.360  42.700   2.006  1.00  0.00     0.000 C 
BRANCH  16  17
ATOM     17  C   UNL     1      22.942  42.294   2.447  1.00  0.00     0.000 C 
BRANCH  17  18
ATOM     18  C   UNL     1      22.573  42.679   3.892  1.00  0.00    -0.000 C 
BRANCH  18  19
ATOM     19  C   UNL     1      23.486  42.037   4.959  1.00  0.00    -0.000 C 
BRANCH  19  20
ATOM     20  C   UNL     1      23.913  40.607   4.582  1.00  0.00    -0.000 C 
BRANCH  20  21
ATOM     21  C   UNL     1      25.213  40.174   5.279  1.00  0.00    -0.000 C 
BRANCH  21  22
ATOM     22  C   UNL     1      25.419  38.652   5.254  1.00  0.00    -0.000 C 
BRANCH  22  23
ATOM     23  C   UNL     1      25.699  38.111   6.662  1.00  0.00    -0.000 C 
BRANCH  23  24
ATOM     24  C   UNL     1      26.227  39.222   7.583  1.00  0.00    -0.000 C 
BRANCH  24  25
ATOM     25  C   UNL     1      25.196  39.657   8.634  1.00  0.00    -0.003 C 
ATOM     26  C   UNL     1      23.758  39.353   8.211  1.00  0.00     0.004 C 
ENDBRANCH  24  25
ENDBRANCH  23  24
ENDBRANCH  22  23
ENDBRANCH  21  22
ENDBRANCH  20  21
ENDBRANCH  19  20
ENDBRANCH  18  19
ENDBRANCH  17  18
ENDBRANCH  16  17
ENDBRANCH  15  16
ENDBRANCH   1  15
TORSDOF 22
ENDMDL
MODEL 7
REMARK VINA RESULT:    15.015      4.286      9.731
REMARK INTER + INTRA:          34.917
REMARK INTER:                  34.854
REMARK INTRA:                   0.063
REMARK UNBOUND:                 0.591
REMARK SMILES CCCCCCCCCCCCCCCCCCCCCCCC(=O)[O-]
REMARK SMILES IDX 13 1 14 2 15 3 16 4 17 5 18 6 19 7 20 8 21 9 22 10 23 11
REMARK SMILES IDX 24 12 25 13 26 14 12 15 11 16 10 17 9 18 8 19 7 20 6 21 5 22
REMARK SMILES IDX 4 23 3 24 2 25 1 26
REMARK H PARENT
REMARK Flexibility Score: inf
ROOT
ATOM      1  C   UNL     1      28.839  44.494   3.746  1.00  0.00     0.000 C 
ENDROOT
BRANCH   1   2
ATOM      2  C   UNL     1      27.650  45.295   4.305  1.00  0.00     0.000 C 
BRANCH   2   3
ATOM      3  C   UNL     1      26.499  44.396   4.793  1.00  0.00     0.000 C 
BRANCH   3   4
ATOM      4  C   UNL     1      26.142  43.226   3.854  1.00  0.00     0.000 C 
BRANCH   4   5
ATOM      5  C   UNL     1      25.074  43.544   2.787  1.00  0.00     0.000 C 
BRANCH   5   6
ATOM      6  C   UNL     1      24.143  42.370   2.431  1.00  0.00     0.000 C 
BRANCH   6   7
ATOM      7  C   UNL     1      22.737  42.525   3.027  1.00  0.00     0.000 C 
BRANCH   7   8
ATOM      8  C   UNL     1      22.654  41.888   4.420  1.00  0.00     0.000 C 
BRANCH   8   9
ATOM      9  C   UNL     1      24.040  41.779   5.088  1.00  0.00     0.000 C 
BRANCH   9  10
ATOM     10  C   UNL     1      24.583  40.341   5.172  1.00  0.00     0.006 C 
BRANCH  10  11
ATOM     11  C   UNL     1      24.746  39.812   6.610  1.00  0.00     0.053 C 
BRANCH  11  12
ATOM     12  C   UNL     1      25.692  38.649   6.694  1.00  0.00     0.041 C 
ATOM     13  O   UNL     1      25.643  37.728   5.837  1.00  0.00    -0.550 OA
ATOM     14  O   UNL     1      26.670  38.615   7.680  1.00  0.00    -0.550 OA
ENDBRANCH  11  12
ENDBRANCH  10  11
ENDBRANCH   9  10
ENDBRANCH   8   9
ENDBRANCH   7   8
ENDBRANCH   6   7
ENDBRANCH   5   6
ENDBRANCH   4   5
ENDBRANCH   3   4
ENDBRANCH   2   3
ENDBRANCH   1   2
BRANCH   1  15
ATOM     15  C   UNL     1      28.817  44.403   2.206  1.00  0.00     0.000 C 
BRANCH  15  16
ATOM     16  C   UNL     1      29.970  43.570   1.612  1.00  0.00     0.000 C 
BRANCH  16  17
ATOM     17  C   UNL     1      30.246  43.811   0.118  1.00  0.00     0.000 C 
BRANCH  17  18
ATOM     18  C   UNL     1      30.619  42.552  -0.688  1.00  0.00    -0.000 C 
BRANCH  18  19
ATOM     19  C   UNL     1      32.127  42.221  -0.661  1.00  0.00    -0.000 C 
BRANCH  19  20
ATOM     20  C   UNL     1      32.990  43.442  -0.298  1.00  0.00    -0.000 C 
BRANCH  20  21
ATOM     21  C   UNL     1      34.447  43.066   0.018  1.00  0.00    -0.000 C 
BRANCH  21  22
ATOM     22  C   UNL     1      35.359  43.150  -1.216  1.00  0.00    -0.000 C 
BRANCH  22  23
ATOM     23  C   UNL     1      36.326  44.335  -1.105  1.00  0.00    -0.000 C 
BRANCH  23  24
ATOM     24  C   UNL     1      37.596  44.090  -1.935  1.00  0.00    -0.000 C 
BRANCH  24  25
ATOM     25  C   UNL     1      38.410  42.891  -1.425  1.00  0.00    -0.003 C 
ATOM     26  C   UNL     1      38.908  41.992  -2.557  1.00  0.00     0.004 C 
ENDBRANCH  24  25
ENDBRANCH  23  24
ENDBRANCH  22  23
ENDBRANCH  21  22
ENDBRANCH  20  21
ENDBRANCH  19  20
ENDBRANCH  18  19
ENDBRANCH  17  18
ENDBRANCH  16  17
ENDBRANCH  15  16
ENDBRANCH   1  15
TORSDOF 22
ENDMDL
MODEL 8
REMARK VINA RESULT:    15.333      0.864      2.309
REMARK INTER + INTRA:          35.644
REMARK INTER:                  34.873
REMARK INTRA:                   0.770
REMARK UNBOUND:                 0.591
REMARK SMILES CCCCCCCCCCCCCCCCCCCCCCCC(=O)[O-]
REMARK SMILES IDX 13 1 14 2 15 3 16 4 17 5 18 6 19 7 20 8 21 9 22 10 23 11
REMARK SMILES IDX 24 12 25 13 26 14 12 15 11 16 10 17 9 18 8 19 7 20 6 21 5 22
REMARK SMILES IDX 4 23 3 24 2 25 1 26
REMARK H PARENT
REMARK Flexibility Score: inf
ROOT
ATOM      1  C   UNL     1      25.356  43.771   3.260  1.00  0.00     0.000 C 
ENDROOT
BRANCH   1   2
ATOM      2  C   UNL     1      26.429  43.193   4.200  1.00  0.00     0.000 C 
BRANCH   2   3
ATOM      3  C   UNL     1      26.740  44.116   5.393  1.00  0.00     0.000 C 
BRANCH   3   4
ATOM      4  C   UNL     1      27.078  45.573   5.018  1.00  0.00     0.000 C 
BRANCH   4   5
ATOM      5  C   UNL     1      28.122  45.736   3.894  1.00  0.00     0.000 C 
BRANCH   5   6
ATOM      6  C   UNL     1      28.823  44.435   3.464  1.00  0.00     0.000 C 
BRANCH   6   7
ATOM      7  C   UNL     1      29.655  44.603   2.184  1.00  0.00     0.000 C 
BRANCH   7   8
ATOM      8  C   UNL     1      29.433  43.428   1.223  1.00  0.00     0.000 C 
BRANCH   8   9
ATOM      9  C   UNL     1      30.453  43.431   0.065  1.00  0.00     0.000 C 
BRANCH   9  10
ATOM     10  C   UNL     1      30.138  42.416  -1.050  1.00  0.00     0.006 C 
BRANCH  10  11
ATOM     11  C   UNL     1      29.616  43.052  -2.352  1.00  0.00     0.053 C 
BRANCH  11  12
ATOM     12  C   UNL     1      28.915  42.063  -3.238  1.00  0.00     0.041 C 
ATOM     13  O   UNL     1      29.341  41.841  -4.401  1.00  0.00    -0.550 OA
ATOM     14  O   UNL     1      27.833  41.338  -2.755  1.00  0.00    -0.550 OA
ENDBRANCH  11  12
ENDBRANCH  10  11
ENDBRANCH   9  10
ENDBRANCH   8   9
ENDBRANCH   7   8
ENDBRANCH   6   7
ENDBRANCH   5   6
ENDBRANCH   4   5
ENDBRANCH   3   4
ENDBRANCH   2   3
ENDBRANCH   1   2
BRANCH   1  15
ATOM     15  C   UNL     1      24.746  42.700   2.332  1.00  0.00     0.000 C 
BRANCH  15  16
ATOM     16  C   UNL     1      23.205  42.667   2.343  1.00  0.00     0.000 C 
BRANCH  16  17
ATOM     17  C   UNL     1      22.558  42.931   3.714  1.00  0.00     0.000 C 
BRANCH  17  18
ATOM     18  C   UNL     1      22.655  41.765   4.717  1.00  0.00    -0.000 C 
BRANCH  18  19
ATOM     19  C   UNL     1      24.012  41.688   5.451  1.00  0.00    -0.000 C 
BRANCH  19  20
ATOM     20  C   UNL     1      24.422  40.241   5.775  1.00  0.00    -0.000 C 
BRANCH  20  21
ATOM     21  C   UNL     1      23.983  39.802   7.182  1.00  0.00    -0.000 C 
BRANCH  21  22
ATOM     22  C   UNL     1      25.170  39.620   8.141  1.00  0.00    -0.000 C 
BRANCH  22  23
ATOM     23  C   UNL     1      26.255  38.738   7.511  1.00  0.00    -0.000 C 
BRANCH  23  24
ATOM     24  C   UNL     1      25.741  38.061   6.231  1.00  0.00    -0.000 C 
BRANCH  24  25
ATOM     25  C   UNL     1      26.871  37.441   5.397  1.00  0.00    -0.003 C 
ATOM     26  C   UNL     1      28.194  38.194   5.544  1.00  0.00     0.004 C 
ENDBRANCH  24  25
ENDBRANCH  23  24
ENDBRANCH  22  23
ENDBRANCH  21  22
ENDBRANCH  20  21
ENDBRANCH  19  20
ENDBRANCH  18  19
ENDBRANCH  17  18
ENDBRANCH  16  17
ENDBRANCH  15  16
ENDBRANCH   1  15
TORSDOF 22
ENDMDL
MODEL 9
REMARK VINA RESULT:    15.539      3.848      4.750
REMARK INTER + INTRA:          36.115
REMARK INTER:                  36.988
REMARK INTRA:                  -0.873
REMARK UNBOUND:                 0.591
REMARK SMILES CCCCCCCCCCCCCCCCCCCCCCCC(=O)[O-]
REMARK SMILES IDX 13 1 14 2 15 3 16 4 17 5 18 6 19 7 20 8 21 9 22 10 23 11
REMARK SMILES IDX 24 12 25 13 26 14 12 15 11 16 10 17 9 18 8 19 7 20 6 21 5 22
REMARK SMILES IDX 4 23 3 24 2 25 1 26
REMARK H PARENT
REMARK Flexibility Score: inf
ROOT
ATOM      1  C   UNL     1      27.800  45.246   4.049  1.00  0.00     0.000 C 
ENDROOT
BRANCH   1   2
ATOM      2  C   UNL     1      28.957  44.422   3.458  1.00  0.00     0.000 C 
BRANCH   2   3
ATOM      3  C   UNL     1      28.913  44.345   1.920  1.00  0.00     0.000 C 
BRANCH   3   4
ATOM      4  C   UNL     1      30.109  43.621   1.270  1.00  0.00     0.000 C 
BRANCH   4   5
ATOM      5  C   UNL     1      29.821  42.978  -0.102  1.00  0.00     0.000 C 
BRANCH   5   6
ATOM      6  C   UNL     1      30.999  43.003  -1.093  1.00  0.00     0.000 C 
BRANCH   6   7
ATOM      7  C   UNL     1      32.270  42.361  -0.521  1.00  0.00     0.000 C 
BRANCH   7   8
ATOM      8  C   UNL     1      33.427  43.368  -0.473  1.00  0.00     0.000 C 
BRANCH   8   9
ATOM      9  C   UNL     1      34.801  42.673  -0.561  1.00  0.00     0.000 C 
BRANCH   9  10
ATOM     10  C   UNL     1      35.997  43.642  -0.521  1.00  0.00     0.006 C 
BRANCH  10  11
ATOM     11  C   UNL     1      36.622  43.928  -1.900  1.00  0.00     0.053 C 
BRANCH  11  12
ATOM     12  C   UNL     1      38.076  43.560  -1.962  1.00  0.00     0.041 C 
ATOM     13  O   UNL     1      38.473  42.459  -1.498  1.00  0.00    -0.550 OA
ATOM     14  O   UNL     1      38.984  44.403  -2.591  1.00  0.00    -0.550 OA
ENDBRANCH  11  12
ENDBRANCH  10  11
ENDBRANCH   9  10
ENDBRANCH   8   9
ENDBRANCH   7   8
ENDBRANCH   6   7
ENDBRANCH   5   6
ENDBRANCH   4   5
ENDBRANCH   3   4
ENDBRANCH   2   3
ENDBRANCH   1   2
BRANCH   1  15
ATOM     15  C   UNL     1      26.898  44.411   4.983  1.00  0.00     0.000 C 
BRANCH  15  16
ATOM     16  C   UNL     1      26.153  43.265   4.273  1.00  0.00     0.000 C 
BRANCH  16  17
ATOM     17  C   UNL     1      25.580  43.620   2.889  1.00  0.00     0.000 C 
BRANCH  17  18
ATOM     18  C   UNL     1      24.497  42.656   2.365  1.00  0.00    -0.000 C 
BRANCH  18  19
ATOM     19  C   UNL     1      23.080  42.965   2.896  1.00  0.00    -0.000 C 
BRANCH  19  20
ATOM     20  C   UNL     1      22.531  41.838   3.789  1.00  0.00    -0.000 C 
BRANCH  20  21
ATOM     21  C   UNL     1      23.202  41.798   5.172  1.00  0.00    -0.000 C 
BRANCH  21  22
ATOM     22  C   UNL     1      24.360  40.790   5.237  1.00  0.00    -0.000 C 
BRANCH  22  23
ATOM     23  C   UNL     1      24.255  39.912   6.490  1.00  0.00    -0.000 C 
BRANCH  23  24
ATOM     24  C   UNL     1      25.643  39.448   6.956  1.00  0.00    -0.000 C 
BRANCH  24  25
ATOM     25  C   UNL     1      26.127  38.196   6.209  1.00  0.00    -0.003 C 
ATOM     26  C   UNL     1      25.021  37.156   6.022  1.00  0.00     0.004 C 
ENDBRANCH  24  25
ENDBRANCH  23  24
ENDBRANCH  22  23
ENDBRANCH  21  22
ENDBRANCH  20  21
ENDBRANCH  19  20
ENDBRANCH  18  19
ENDBRANCH  17  18
ENDBRANCH  16  17
ENDBRANCH  15  16
ENDBRANCH   1  15
TORSDOF 22
ENDMDL
