MODEL 1
REMARK VINA RESULT:    -4.213      0.000      0.000
REMARK INTER + INTRA:          -9.721
REMARK INTER:                  -7.415
REMARK INTRA:                  -2.306
REMARK UNBOUND:                -2.306
REMARK SMILES CCCCCCC=CCCCCCCCC(=O)[O-]
REMARK SMILES IDX 10 1 11 2 12 3 13 4 14 5 15 6 16 7 17 8 18 9 9 10 8 11 7 12
REMARK SMILES IDX 6 13 5 14 4 15 3 16 2 17 1 18
REMARK H PARENT
REMARK Flexibility Score: inf
ROOT
ATOM      1  C   UNL     1      10.305  -0.551  29.883  1.00  0.00     0.004 C 
ENDROOT
BRANCH   1   2
ATOM      2  C   UNL     1       9.253  -1.645  30.130  1.00  0.00     0.000 C 
BRANCH   2   3
ATOM      3  C   UNL     1       8.554  -2.098  28.839  1.00  0.00     0.000 C 
BRANCH   3   4
ATOM      4  C   UNL     1       8.817  -3.576  28.511  1.00  0.00     0.000 C 
BRANCH   4   5
ATOM      5  C   UNL     1       9.656  -3.714  27.232  1.00  0.00     0.006 C 
BRANCH   5   6
ATOM      6  C   UNL     1       9.022  -4.678  26.223  1.00  0.00     0.053 C 
BRANCH   6   7
ATOM      7  C   UNL     1       9.929  -5.828  25.909  1.00  0.00     0.041 C 
ATOM      8  O   UNL     1      10.972  -6.019  26.589  1.00  0.00    -0.550 OA
ATOM      9  O   UNL     1       9.604  -6.710  24.886  1.00  0.00    -0.550 OA
ENDBRANCH   6   7
ENDBRANCH   5   6
ENDBRANCH   4   5
ENDBRANCH   3   4
ENDBRANCH   2   3
ENDBRANCH   1   2
BRANCH   1  10
ATOM     10  C   UNL     1      11.722  -1.027  30.223  1.00  0.00     0.027 C 
BRANCH  10  11
ATOM     11  C   UNL     1      12.296  -1.877  29.113  1.00  0.00    -0.031 C 
ATOM     12  C   UNL     1      12.643  -3.173  29.228  1.00  0.00    -0.031 C 
BRANCH  12  13
ATOM     13  C   UNL     1      12.566  -3.974  30.502  1.00  0.00     0.027 C 
BRANCH  13  14
ATOM     14  C   UNL     1      11.517  -5.088  30.391  1.00  0.00     0.004 C 
BRANCH  14  15
ATOM     15  C   UNL     1      10.451  -4.949  31.485  1.00  0.00     0.000 C 
BRANCH  15  16
ATOM     16  C   UNL     1      10.957  -4.066  32.636  1.00  0.00    -0.000 C 
BRANCH  16  17
ATOM     17  C   UNL     1      11.229  -4.866  33.919  1.00  0.00    -0.003 C 
ATOM     18  C   UNL     1      12.698  -5.259  34.071  1.00  0.00     0.004 C 
ENDBRANCH  16  17
ENDBRANCH  15  16
ENDBRANCH  14  15
ENDBRANCH  13  14
ENDBRANCH  12  13
ENDBRANCH  10  11
ENDBRANCH   1  10
TORSDOF 13
ENDMDL
MODEL 2
REMARK VINA RESULT:    -4.036      1.364      2.187
REMARK INTER + INTRA:          -9.409
REMARK INTER:                  -7.155
REMARK INTRA:                  -2.253
REMARK UNBOUND:                -2.306
REMARK SMILES CCCCCCC=CCCCCCCCC(=O)[O-]
REMARK SMILES IDX 10 1 11 2 12 3 13 4 14 5 15 6 16 7 17 8 18 9 9 10 8 11 7 12
REMARK SMILES IDX 6 13 5 14 4 15 3 16 2 17 1 18
REMARK H PARENT
REMARK Flexibility Score: inf
ROOT
ATOM      1  C   UNL     1       8.105  -0.068  30.028  1.00  0.00     0.004 C 
ENDROOT
BRANCH   1   2
ATOM      2  C   UNL     1       8.183  -1.028  28.829  1.00  0.00     0.000 C 
BRANCH   2   3
ATOM      3  C   UNL     1       9.469  -0.849  28.009  1.00  0.00     0.000 C 
BRANCH   3   4
ATOM      4  C   UNL     1      10.046  -2.183  27.514  1.00  0.00     0.000 C 
BRANCH   4   5
ATOM      5  C   UNL     1       9.292  -3.370  28.132  1.00  0.00     0.006 C 
BRANCH   5   6
ATOM      6  C   UNL     1      10.086  -4.679  28.030  1.00  0.00     0.053 C 
BRANCH   6   7
ATOM      7  C   UNL     1      10.082  -5.222  26.634  1.00  0.00     0.041 C 
ATOM      8  O   UNL     1       9.061  -5.099  25.907  1.00  0.00    -0.550 OA
ATOM      9  O   UNL     1      11.219  -5.836  26.124  1.00  0.00    -0.550 OA
ENDBRANCH   6   7
ENDBRANCH   5   6
ENDBRANCH   4   5
ENDBRANCH   3   4
ENDBRANCH   2   3
ENDBRANCH   1   2
BRANCH   1  10
ATOM     10  C   UNL     1       9.318  -0.208  30.957  1.00  0.00     0.027 C 
BRANCH  10  11
ATOM     11  C   UNL     1       9.391  -1.592  31.559  1.00  0.00    -0.031 C 
ATOM     12  C   UNL     1      10.468  -2.400  31.518  1.00  0.00    -0.031 C 
BRANCH  12  13
ATOM     13  C   UNL     1      11.760  -2.076  30.815  1.00  0.00     0.027 C 
BRANCH  13  14
ATOM     14  C   UNL     1      12.537  -3.353  30.471  1.00  0.00     0.004 C 
BRANCH  14  15
ATOM     15  C   UNL     1      12.026  -4.543  31.292  1.00  0.00     0.000 C 
BRANCH  15  16
ATOM     16  C   UNL     1      13.147  -5.133  32.162  1.00  0.00    -0.000 C 
BRANCH  16  17
ATOM     17  C   UNL     1      12.779  -5.172  33.653  1.00  0.00    -0.003 C 
ATOM     18  C   UNL     1      11.288  -4.940  33.900  1.00  0.00     0.004 C 
ENDBRANCH  16  17
ENDBRANCH  15  16
ENDBRANCH  14  15
ENDBRANCH  13  14
ENDBRANCH  12  13
ENDBRANCH  10  11
ENDBRANCH   1  10
TORSDOF 13
ENDMDL
MODEL 3
REMARK VINA RESULT:    -3.998      3.328      5.084
REMARK INTER + INTRA:          -9.343
REMARK INTER:                  -7.102
REMARK INTRA:                  -2.241
REMARK UNBOUND:                -2.306
REMARK SMILES CCCCCCC=CCCCCCCCC(=O)[O-]
REMARK SMILES IDX 10 1 11 2 12 3 13 4 14 5 15 6 16 7 17 8 18 9 9 10 8 11 7 12
REMARK SMILES IDX 6 13 5 14 4 15 3 16 2 17 1 18
REMARK H PARENT
REMARK Flexibility Score: inf
ROOT
ATOM      1  C   UNL     1       8.722  -1.914  28.571  1.00  0.00     0.004 C 
ENDROOT
BRANCH   1   2
ATOM      2  C   UNL     1       9.653  -1.410  29.687  1.00  0.00     0.000 C 
BRANCH   2   3
ATOM      3  C   UNL     1       9.239  -1.917  31.077  1.00  0.00     0.000 C 
BRANCH   3   4
ATOM      4  C   UNL     1      10.247  -1.532  32.171  1.00  0.00     0.000 C 
BRANCH   4   5
ATOM      5  C   UNL     1      11.501  -0.888  31.560  1.00  0.00     0.006 C 
BRANCH   5   6
ATOM      6  C   UNL     1      11.726   0.542  32.069  1.00  0.00     0.053 C 
BRANCH   6   7
ATOM      7  C   UNL     1      11.373   1.562  31.030  1.00  0.00     0.041 C 
ATOM      8  O   UNL     1      12.114   1.727  30.025  1.00  0.00    -0.550 OA
ATOM      9  O   UNL     1      10.209   2.308  31.156  1.00  0.00    -0.550 OA
ENDBRANCH   6   7
ENDBRANCH   5   6
ENDBRANCH   4   5
ENDBRANCH   3   4
ENDBRANCH   2   3
ENDBRANCH   1   2
BRANCH   1  10
ATOM     10  C   UNL     1       8.657  -3.445  28.524  1.00  0.00     0.027 C 
BRANCH  10  11
ATOM     11  C   UNL     1       9.521  -3.997  27.413  1.00  0.00    -0.031 C 
ATOM     12  C   UNL     1      10.571  -4.823  27.586  1.00  0.00    -0.031 C 
BRANCH  12  13
ATOM     13  C   UNL     1      11.088  -5.290  28.921  1.00  0.00     0.027 C 
BRANCH  13  14
ATOM     14  C   UNL     1      11.962  -4.215  29.580  1.00  0.00     0.004 C 
BRANCH  14  15
ATOM     15  C   UNL     1      12.235  -4.555  31.050  1.00  0.00     0.000 C 
BRANCH  15  16
ATOM     16  C   UNL     1      10.992  -5.171  31.712  1.00  0.00    -0.000 C 
BRANCH  16  17
ATOM     17  C   UNL     1      10.995  -5.009  33.239  1.00  0.00    -0.003 C 
ATOM     18  C   UNL     1      12.363  -4.603  33.789  1.00  0.00     0.004 C 
ENDBRANCH  16  17
ENDBRANCH  15  16
ENDBRANCH  14  15
ENDBRANCH  13  14
ENDBRANCH  12  13
ENDBRANCH  10  11
ENDBRANCH   1  10
TORSDOF 13
ENDMDL
MODEL 4
REMARK VINA RESULT:    -3.988      1.739      2.063
REMARK INTER + INTRA:          -9.326
REMARK INTER:                  -6.816
REMARK INTRA:                  -2.509
REMARK UNBOUND:                -2.306
REMARK SMILES CCCCCCC=CCCCCCCCC(=O)[O-]
REMARK SMILES IDX 10 1 11 2 12 3 13 4 14 5 15 6 16 7 17 8 18 9 9 10 8 11 7 12
REMARK SMILES IDX 6 13 5 14 4 15 3 16 2 17 1 18
REMARK H PARENT
REMARK Flexibility Score: inf
ROOT
ATOM      1  C   UNL     1      10.293  -0.874  30.268  1.00  0.00     0.004 C 
ENDROOT
BRANCH   1   2
ATOM      2  C   UNL     1       9.219  -1.968  30.392  1.00  0.00     0.000 C 
BRANCH   2   3
ATOM      3  C   UNL     1       8.713  -2.458  29.027  1.00  0.00     0.000 C 
BRANCH   3   4
ATOM      4  C   UNL     1       9.077  -3.925  28.753  1.00  0.00     0.000 C 
BRANCH   4   5
ATOM      5  C   UNL     1       9.198  -4.190  27.245  1.00  0.00     0.006 C 
BRANCH   5   6
ATOM      6  C   UNL     1      10.620  -3.949  26.725  1.00  0.00     0.053 C 
BRANCH   6   7
ATOM      7  C   UNL     1      10.698  -2.724  25.868  1.00  0.00     0.041 C 
ATOM      8  O   UNL     1      10.948  -1.602  26.384  1.00  0.00    -0.550 OA
ATOM      9  O   UNL     1      10.528  -2.825  24.493  1.00  0.00    -0.550 OA
ENDBRANCH   6   7
ENDBRANCH   5   6
ENDBRANCH   4   5
ENDBRANCH   3   4
ENDBRANCH   2   3
ENDBRANCH   1   2
BRANCH   1  10
ATOM     10  C   UNL     1      11.680  -1.379  30.687  1.00  0.00     0.027 C 
BRANCH  10  11
ATOM     11  C   UNL     1      12.287  -2.262  29.621  1.00  0.00    -0.031 C 
ATOM     12  C   UNL     1      12.709  -3.527  29.811  1.00  0.00    -0.031 C 
BRANCH  12  13
ATOM     13  C   UNL     1      12.695  -4.250  31.132  1.00  0.00     0.027 C 
BRANCH  13  14
ATOM     14  C   UNL     1      11.353  -4.958  31.359  1.00  0.00     0.004 C 
BRANCH  14  15
ATOM     15  C   UNL     1      10.829  -4.698  32.777  1.00  0.00     0.000 C 
BRANCH  15  16
ATOM     16  C   UNL     1      11.942  -4.146  33.682  1.00  0.00    -0.000 C 
BRANCH  16  17
ATOM     17  C   UNL     1      11.507  -2.892  34.454  1.00  0.00    -0.003 C 
ATOM     18  C   UNL     1      10.284  -2.212  33.838  1.00  0.00     0.004 C 
ENDBRANCH  16  17
ENDBRANCH  15  16
ENDBRANCH  14  15
ENDBRANCH  13  14
ENDBRANCH  12  13
ENDBRANCH  10  11
ENDBRANCH   1  10
TORSDOF 13
ENDMDL
MODEL 5
REMARK VINA RESULT:    -3.943      3.617      4.963
REMARK INTER + INTRA:          -9.245
REMARK INTER:                  -7.457
REMARK INTRA:                  -1.788
REMARK UNBOUND:                -2.306
REMARK SMILES CCCCCCC=CCCCCCCCC(=O)[O-]
REMARK SMILES IDX 10 1 11 2 12 3 13 4 14 5 15 6 16 7 17 8 18 9 9 10 8 11 7 12
REMARK SMILES IDX 6 13 5 14 4 15 3 16 2 17 1 18
REMARK H PARENT
REMARK Flexibility Score: inf
ROOT
ATOM      1  C   UNL     1       9.540  -4.195  27.599  1.00  0.00     0.004 C 
ENDROOT
BRANCH   1   2
ATOM      2  C   UNL     1       9.567  -2.711  28.001  1.00  0.00     0.000 C 
BRANCH   2   3
ATOM      3  C   UNL     1       8.379  -2.317  28.893  1.00  0.00     0.000 C 
BRANCH   3   4
ATOM      4  C   UNL     1       8.542  -0.921  29.511  1.00  0.00     0.000 C 
BRANCH   4   5
ATOM      5  C   UNL     1       8.024   0.166  28.557  1.00  0.00     0.006 C 
BRANCH   5   6
ATOM      6  C   UNL     1       9.069   1.257  28.297  1.00  0.00     0.053 C 
BRANCH   6   7
ATOM      7  C   UNL     1       8.800   2.488  29.107  1.00  0.00     0.041 C 
ATOM      8  O   UNL     1       8.125   3.434  28.619  1.00  0.00    -0.550 OA
ATOM      9  O   UNL     1       9.265   2.577  30.412  1.00  0.00    -0.550 OA
ENDBRANCH   6   7
ENDBRANCH   5   6
ENDBRANCH   4   5
ENDBRANCH   3   4
ENDBRANCH   2   3
ENDBRANCH   1   2
BRANCH   1  10
ATOM     10  C   UNL     1      10.922  -4.850  27.717  1.00  0.00     0.027 C 
BRANCH  10  11
ATOM     11  C   UNL     1      11.120  -5.469  29.081  1.00  0.00    -0.031 C 
ATOM     12  C   UNL     1      11.791  -4.899  30.101  1.00  0.00    -0.031 C 
BRANCH  12  13
ATOM     13  C   UNL     1      12.500  -3.572  30.030  1.00  0.00     0.027 C 
BRANCH  13  14
ATOM     14  C   UNL     1      11.849  -2.547  30.967  1.00  0.00     0.004 C 
BRANCH  14  15
ATOM     15  C   UNL     1      10.702  -3.182  31.763  1.00  0.00     0.000 C 
BRANCH  15  16
ATOM     16  C   UNL     1      11.011  -3.181  33.268  1.00  0.00    -0.000 C 
BRANCH  16  17
ATOM     17  C   UNL     1      11.186  -4.597  33.836  1.00  0.00    -0.003 C 
ATOM     18  C   UNL     1      12.629  -5.095  33.751  1.00  0.00     0.004 C 
ENDBRANCH  16  17
ENDBRANCH  15  16
ENDBRANCH  14  15
ENDBRANCH  13  14
ENDBRANCH  12  13
ENDBRANCH  10  11
ENDBRANCH   1  10
TORSDOF 13
ENDMDL
MODEL 6
REMARK VINA RESULT:    -3.932      2.973      4.062
REMARK INTER + INTRA:          -9.226
REMARK INTER:                  -6.945
REMARK INTRA:                  -2.281
REMARK UNBOUND:                -2.306
REMARK SMILES CCCCCCC=CCCCCCCCC(=O)[O-]
REMARK SMILES IDX 10 1 11 2 12 3 13 4 14 5 15 6 16 7 17 8 18 9 9 10 8 11 7 12
REMARK SMILES IDX 6 13 5 14 4 15 3 16 2 17 1 18
REMARK H PARENT
REMARK Flexibility Score: inf
ROOT
ATOM      1  C   UNL     1       9.866  -4.459  28.678  1.00  0.00     0.004 C 
ENDROOT
BRANCH   1   2
ATOM      2  C   UNL     1       9.313  -3.371  29.615  1.00  0.00     0.000 C 
BRANCH   2   3
ATOM      3  C   UNL     1       8.691  -2.192  28.851  1.00  0.00     0.000 C 
BRANCH   3   4
ATOM      4  C   UNL     1       9.674  -1.028  28.657  1.00  0.00     0.000 C 
BRANCH   4   5
ATOM      5  C   UNL     1      10.296  -1.062  27.253  1.00  0.00     0.006 C 
BRANCH   5   6
ATOM      6  C   UNL     1      11.805  -1.332  27.292  1.00  0.00     0.053 C 
BRANCH   6   7
ATOM      7  C   UNL     1      12.583  -0.092  27.612  1.00  0.00     0.041 C 
ATOM      8  O   UNL     1      13.037   0.092  28.772  1.00  0.00    -0.550 OA
ATOM      9  O   UNL     1      12.834   0.846  26.618  1.00  0.00    -0.550 OA
ENDBRANCH   6   7
ENDBRANCH   5   6
ENDBRANCH   4   5
ENDBRANCH   3   4
ENDBRANCH   2   3
ENDBRANCH   1   2
BRANCH   1  10
ATOM     10  C   UNL     1      11.165  -5.073  29.214  1.00  0.00     0.027 C 
BRANCH  10  11
ATOM     11  C   UNL     1      12.118  -4.005  29.698  1.00  0.00    -0.031 C 
ATOM     12  C   UNL     1      12.858  -4.077  30.821  1.00  0.00    -0.031 C 
BRANCH  12  13
ATOM     13  C   UNL     1      12.814  -5.214  31.809  1.00  0.00     0.027 C 
BRANCH  13  14
ATOM     14  C   UNL     1      12.580  -4.698  33.234  1.00  0.00     0.004 C 
BRANCH  14  15
ATOM     15  C   UNL     1      11.136  -4.215  33.412  1.00  0.00     0.000 C 
BRANCH  15  16
ATOM     16  C   UNL     1      11.098  -2.735  33.823  1.00  0.00    -0.000 C 
BRANCH  16  17
ATOM     17  C   UNL     1      10.387  -1.852  32.787  1.00  0.00    -0.003 C 
ATOM     18  C   UNL     1      11.351  -0.944  32.023  1.00  0.00     0.004 C 
ENDBRANCH  16  17
ENDBRANCH  15  16
ENDBRANCH  14  15
ENDBRANCH  13  14
ENDBRANCH  12  13
ENDBRANCH  10  11
ENDBRANCH   1  10
TORSDOF 13
ENDMDL
MODEL 7
REMARK VINA RESULT:    -3.875      3.446      6.035
REMARK INTER + INTRA:          -9.125
REMARK INTER:                  -7.117
REMARK INTRA:                  -2.009
REMARK UNBOUND:                -2.306
REMARK SMILES CCCCCCC=CCCCCCCCC(=O)[O-]
REMARK SMILES IDX 10 1 11 2 12 3 13 4 14 5 15 6 16 7 17 8 18 9 9 10 8 11 7 12
REMARK SMILES IDX 6 13 5 14 4 15 3 16 2 17 1 18
REMARK H PARENT
REMARK Flexibility Score: inf
ROOT
ATOM      1  C   UNL     1      12.619  -4.853  33.679  1.00  0.00     0.004 C 
ENDROOT
BRANCH   1   2
ATOM      2  C   UNL     1      11.161  -4.375  33.786  1.00  0.00     0.000 C 
BRANCH   2   3
ATOM      3  C   UNL     1      11.041  -2.844  33.831  1.00  0.00     0.000 C 
BRANCH   3   4
ATOM      4  C   UNL     1      10.441  -2.259  32.544  1.00  0.00     0.000 C 
BRANCH   4   5
ATOM      5  C   UNL     1      11.503  -1.495  31.740  1.00  0.00     0.006 C 
BRANCH   5   6
ATOM      6  C   UNL     1      10.882  -0.467  30.786  1.00  0.00     0.053 C 
BRANCH   6   7
ATOM      7  C   UNL     1      10.686   0.860  31.452  1.00  0.00     0.041 C 
ATOM      8  O   UNL     1      11.369   1.170  32.464  1.00  0.00    -0.550 OA
ATOM      9  O   UNL     1       9.772   1.769  30.934  1.00  0.00    -0.550 OA
ENDBRANCH   6   7
ENDBRANCH   5   6
ENDBRANCH   4   5
ENDBRANCH   3   4
ENDBRANCH   2   3
ENDBRANCH   1   2
BRANCH   1  10
ATOM     10  C   UNL     1      13.047  -5.072  32.222  1.00  0.00     0.027 C 
BRANCH  10  11
ATOM     11  C   UNL     1      11.894  -5.567  31.380  1.00  0.00    -0.031 C 
ATOM     12  C   UNL     1      11.576  -5.108  30.154  1.00  0.00    -0.031 C 
BRANCH  12  13
ATOM     13  C   UNL     1      12.287  -3.985  29.444  1.00  0.00     0.027 C 
BRANCH  13  14
ATOM     14  C   UNL     1      11.839  -3.886  27.981  1.00  0.00     0.004 C 
BRANCH  14  15
ATOM     15  C   UNL     1      10.853  -5.009  27.632  1.00  0.00     0.000 C 
BRANCH  15  16
ATOM     16  C   UNL     1       9.463  -4.439  27.309  1.00  0.00    -0.000 C 
BRANCH  16  17
ATOM     17  C   UNL     1       9.350  -2.942  27.630  1.00  0.00    -0.003 C 
ATOM     18  C   UNL     1       8.513  -2.666  28.880  1.00  0.00     0.004 C 
ENDBRANCH  16  17
ENDBRANCH  15  16
ENDBRANCH  14  15
ENDBRANCH  13  14
ENDBRANCH  12  13
ENDBRANCH  10  11
ENDBRANCH   1  10
TORSDOF 13
ENDMDL
MODEL 8
REMARK VINA RESULT:    -3.859      2.028      4.061
REMARK INTER + INTRA:          -9.097
REMARK INTER:                  -6.580
REMARK INTRA:                  -2.517
REMARK UNBOUND:                -2.306
REMARK SMILES CCCCCCC=CCCCCCCCC(=O)[O-]
REMARK SMILES IDX 10 1 11 2 12 3 13 4 14 5 15 6 16 7 17 8 18 9 9 10 8 11 7 12
REMARK SMILES IDX 6 13 5 14 4 15 3 16 2 17 1 18
REMARK H PARENT
REMARK Flexibility Score: inf
ROOT
ATOM      1  C   UNL     1      12.588  -3.547  29.884  1.00  0.00     0.004 C 
ENDROOT
BRANCH   1   2
ATOM      2  C   UNL     1      11.554  -4.684  29.832  1.00  0.00     0.000 C 
BRANCH   2   3
ATOM      3  C   UNL     1      10.148  -4.190  29.460  1.00  0.00     0.000 C 
BRANCH   3   4
ATOM      4  C   UNL     1       9.778  -4.504  28.002  1.00  0.00     0.000 C 
BRANCH   4   5
ATOM      5  C   UNL     1      10.856  -5.372  27.337  1.00  0.00     0.006 C 
BRANCH   5   6
ATOM      6  C   UNL     1      11.520  -4.665  26.149  1.00  0.00     0.053 C 
BRANCH   6   7
ATOM      7  C   UNL     1      10.957  -5.129  24.841  1.00  0.00     0.041 C 
ATOM      8  O   UNL     1       9.981  -5.924  24.816  1.00  0.00    -0.550 OA
ATOM      9  O   UNL     1      11.490  -4.656  23.648  1.00  0.00    -0.550 OA
ENDBRANCH   6   7
ENDBRANCH   5   6
ENDBRANCH   4   5
ENDBRANCH   3   4
ENDBRANCH   2   3
ENDBRANCH   1   2
BRANCH   1  10
ATOM     10  C   UNL     1      11.923  -2.165  29.920  1.00  0.00     0.027 C 
BRANCH  10  11
ATOM     11  C   UNL     1      12.613  -1.199  28.985  1.00  0.00    -0.031 C 
ATOM     12  C   UNL     1      12.116  -0.770  27.809  1.00  0.00    -0.031 C 
BRANCH  12  13
ATOM     13  C   UNL     1      10.813  -1.226  27.207  1.00  0.00     0.027 C 
BRANCH  13  14
ATOM     14  C   UNL     1       9.675  -0.260  27.559  1.00  0.00     0.004 C 
BRANCH  14  15
ATOM     15  C   UNL     1       8.671  -0.920  28.513  1.00  0.00     0.000 C 
BRANCH  15  16
ATOM     16  C   UNL     1       8.666  -0.217  29.879  1.00  0.00    -0.000 C 
BRANCH  16  17
ATOM     17  C   UNL     1       9.481   1.085  29.876  1.00  0.00    -0.003 C 
ATOM     18  C   UNL     1      10.508   1.142  31.006  1.00  0.00     0.004 C 
ENDBRANCH  16  17
ENDBRANCH  15  16
ENDBRANCH  14  15
ENDBRANCH  13  14
ENDBRANCH  12  13
ENDBRANCH  10  11
ENDBRANCH   1  10
TORSDOF 13
ENDMDL
MODEL 9
REMARK VINA RESULT:    -3.822      2.036      4.402
REMARK INTER + INTRA:          -9.033
REMARK INTER:                  -6.321
REMARK INTRA:                  -2.712
REMARK UNBOUND:                -2.306
REMARK SMILES CCCCCCC=CCCCCCCCC(=O)[O-]
REMARK SMILES IDX 10 1 11 2 12 3 13 4 14 5 15 6 16 7 17 8 18 9 9 10 8 11 7 12
REMARK SMILES IDX 6 13 5 14 4 15 3 16 2 17 1 18
REMARK H PARENT
REMARK Flexibility Score: inf
ROOT
ATOM      1  C   UNL     1      12.464  -3.393  30.546  1.00  0.00     0.004 C 
ENDROOT
BRANCH   1   2
ATOM      2  C   UNL     1      12.187  -3.927  29.130  1.00  0.00     0.000 C 
BRANCH   2   3
ATOM      3  C   UNL     1      11.196  -5.101  29.123  1.00  0.00     0.000 C 
BRANCH   3   4
ATOM      4  C   UNL     1      10.798  -5.530  27.703  1.00  0.00     0.000 C 
BRANCH   4   5
ATOM      5  C   UNL     1      11.314  -4.527  26.661  1.00  0.00     0.006 C 
BRANCH   5   6
ATOM      6  C   UNL     1      10.222  -4.105  25.670  1.00  0.00     0.053 C 
BRANCH   6   7
ATOM      7  C   UNL     1      10.803  -3.584  24.392  1.00  0.00     0.041 C 
ATOM      8  O   UNL     1      11.403  -4.361  23.603  1.00  0.00    -0.550 OA
ATOM      9  O   UNL     1      10.654  -2.244  24.056  1.00  0.00    -0.550 OA
ENDBRANCH   6   7
ENDBRANCH   5   6
ENDBRANCH   4   5
ENDBRANCH   3   4
ENDBRANCH   2   3
ENDBRANCH   1   2
BRANCH   1  10
ATOM     10  C   UNL     1      11.179  -3.263  31.373  1.00  0.00     0.027 C 
BRANCH  10  11
ATOM     11  C   UNL     1      10.667  -1.841  31.371  1.00  0.00    -0.031 C 
ATOM     12  C   UNL     1       9.652  -1.384  30.613  1.00  0.00    -0.031 C 
BRANCH  12  13
ATOM     13  C   UNL     1       8.896  -2.205  29.601  1.00  0.00     0.027 C 
BRANCH  13  14
ATOM     14  C   UNL     1       9.234  -1.764  28.171  1.00  0.00     0.004 C 
BRANCH  14  15
ATOM     15  C   UNL     1      10.093  -0.493  28.176  1.00  0.00     0.000 C 
BRANCH  15  16
ATOM     16  C   UNL     1      11.384  -0.699  27.370  1.00  0.00    -0.000 C 
BRANCH  16  17
ATOM     17  C   UNL     1      12.648  -0.535  28.227  1.00  0.00    -0.003 C 
ATOM     18  C   UNL     1      12.550   0.635  29.207  1.00  0.00     0.004 C 
ENDBRANCH  16  17
ENDBRANCH  15  16
ENDBRANCH  14  15
ENDBRANCH  13  14
ENDBRANCH  12  13
ENDBRANCH  10  11
ENDBRANCH   1  10
TORSDOF 13
ENDMDL
