MODEL 1
REMARK VINA RESULT:    -5.842      0.000      0.000
REMARK INTER + INTRA:          -8.690
REMARK INTER:                  -7.892
REMARK INTRA:                  -0.799
REMARK UNBOUND:                -0.799
REMARK SMILES O=c1c(-c2ccc(O)cc2)coc2c([C@@H]3O[C@H](CO)[C@H](O)[C@@H](O)[C@@H]3O)c(O)ccc12
REMARK SMILES IDX 3 1 11 2 12 3 13 4 30 5 2 6 1 7 29 8 28 9 26 10 14 11 4 12
REMARK SMILES IDX 5 13 6 14 7 15 10 16 9 17 8 18 15 20 24 21 16 22 22 23 17 24
REMARK SMILES IDX 20 25 25 26 23 28 18 30 19 31 21 33 27 35
REMARK H PARENT 8 19 25 27 23 29 19 32 21 34 27 36
REMARK Flexibility Score: inf
ROOT
ATOM      1  C   UNL     1     170.209 166.313 160.732  1.00  0.00     0.065 A 
ATOM      2  C   UNL     1     169.877 166.992 161.914  1.00  0.00     0.208 A 
ATOM      3  O   UNL     1     169.671 168.305 161.903  1.00  0.00    -0.463 OA
ATOM      4  C   UNL     1     169.766 169.047 160.801  1.00  0.00     0.147 A 
ATOM      5  C   UNL     1     170.082 168.433 159.564  1.00  0.00     0.066 A 
ATOM      6  C   UNL     1     170.315 167.046 159.541  1.00  0.00     0.200 A 
ATOM      7  O   UNL     1     170.594 166.461 158.456  1.00  0.00    -0.288 OA
ATOM      8  C   UNL     1     170.178 169.216 158.404  1.00  0.00     0.020 A 
ATOM      9  C   UNL     1     169.990 170.594 158.473  1.00  0.00     0.047 A 
ATOM     10  C   UNL     1     169.707 171.219 159.690  1.00  0.00     0.125 A 
ATOM     11  C   UNL     1     169.565 170.447 160.871  1.00  0.00     0.069 A 
ENDROOT
BRANCH   1  12
ATOM     12  C   UNL     1     170.453 164.856 160.769  1.00  0.00    -0.011 A 
ATOM     13  C   UNL     1     171.543 164.345 161.486  1.00  0.00     0.013 A 
ATOM     14  C   UNL     1     171.747 162.965 161.562  1.00  0.00     0.047 A 
ATOM     15  C   UNL     1     170.876 162.087 160.897  1.00  0.00     0.115 A 
ATOM     16  C   UNL     1     169.579 163.977 160.108  1.00  0.00     0.013 A 
ATOM     17  C   UNL     1     169.797 162.598 160.168  1.00  0.00     0.047 A 
BRANCH  15  18
ATOM     18  O   UNL     1     171.071 160.707 160.964  1.00  0.00    -0.508 OA
ATOM     19  H   UNL     1     170.371 160.091 161.370  1.00  0.00     0.293 HD
ENDBRANCH  15  18
ENDBRANCH   1  12
BRANCH  11  20
ATOM     20  C   UNL     1     169.289 171.084 162.230  1.00  0.00     0.188 C 
ATOM     21  C   UNL     1     170.623 171.419 162.964  1.00  0.00     0.179 C 
ATOM     22  O   UNL     1     168.484 172.247 162.081  1.00  0.00    -0.362 OA
ATOM     23  C   UNL     1     170.353 172.141 164.307  1.00  0.00     0.177 C 
ATOM     24  C   UNL     1     168.084 172.759 163.345  1.00  0.00     0.176 C 
ATOM     25  C   UNL     1     169.306 173.264 164.147  1.00  0.00     0.177 C 
BRANCH  21  26
ATOM     26  O   UNL     1     171.496 172.189 162.167  1.00  0.00    -0.387 OA
ATOM     27  H   UNL     1     171.080 173.078 162.042  1.00  0.00     0.211 HD
ENDBRANCH  21  26
BRANCH  23  28
ATOM     28  O   UNL     1     169.967 171.254 165.332  1.00  0.00    -0.387 OA
ATOM     29  H   UNL     1     169.088 170.850 165.119  1.00  0.00     0.211 HD
ENDBRANCH  23  28
BRANCH  24  30
ATOM     30  C   UNL     1     167.055 173.893 163.116  1.00  0.00     0.191 C 
BRANCH  30  31
ATOM     31  O   UNL     1     165.757 173.353 163.087  1.00  0.00    -0.394 OA
ATOM     32  H   UNL     1     165.714 172.682 162.355  1.00  0.00     0.210 HD
ENDBRANCH  30  31
ENDBRANCH  24  30
BRANCH  25  33
ATOM     33  O   UNL     1     169.887 174.368 163.492  1.00  0.00    -0.388 OA
ATOM     34  H   UNL     1     169.146 174.872 163.066  1.00  0.00     0.211 HD
ENDBRANCH  25  33
ENDBRANCH  11  20
BRANCH  10  35
ATOM     35  O   UNL     1     169.571 172.601 159.719  1.00  0.00    -0.507 OA
ATOM     36  H   UNL     1     170.377 173.218 159.776  1.00  0.00     0.293 HD
ENDBRANCH  10  35
TORSDOF 9
ENDMDL
MODEL 2
REMARK VINA RESULT:    -5.400      5.245      8.581
REMARK INTER + INTRA:          -8.093
REMARK INTER:                  -6.847
REMARK INTRA:                  -1.246
REMARK UNBOUND:                -0.799
REMARK SMILES O=c1c(-c2ccc(O)cc2)coc2c([C@@H]3O[C@H](CO)[C@H](O)[C@@H](O)[C@@H]3O)c(O)ccc12
REMARK SMILES IDX 3 1 11 2 12 3 13 4 30 5 2 6 1 7 29 8 28 9 26 10 14 11 4 12
REMARK SMILES IDX 5 13 6 14 7 15 10 16 9 17 8 18 15 20 24 21 16 22 22 23 17 24
REMARK SMILES IDX 20 25 25 26 23 28 18 30 19 31 21 33 27 35
REMARK H PARENT 8 19 25 27 23 29 19 32 21 34 27 36
REMARK Flexibility Score: inf
ROOT
ATOM      1  C   UNL     1     167.195 171.984 162.291  1.00  0.00     0.065 A 
ATOM      2  C   UNL     1     166.562 171.099 161.406  1.00  0.00     0.208 A 
ATOM      3  O   UNL     1     165.389 171.409 160.864  1.00  0.00    -0.463 OA
ATOM      4  C   UNL     1     164.749 172.551 161.119  1.00  0.00     0.147 A 
ATOM      5  C   UNL     1     165.331 173.504 161.990  1.00  0.00     0.066 A 
ATOM      6  C   UNL     1     166.568 173.203 162.589  1.00  0.00     0.200 A 
ATOM      7  O   UNL     1     167.121 174.031 163.367  1.00  0.00    -0.288 OA
ATOM      8  C   UNL     1     164.657 174.705 162.255  1.00  0.00     0.020 A 
ATOM      9  C   UNL     1     163.410 174.948 161.685  1.00  0.00     0.047 A 
ATOM     10  C   UNL     1     162.809 174.005 160.847  1.00  0.00     0.125 A 
ATOM     11  C   UNL     1     163.486 172.800 160.531  1.00  0.00     0.069 A 
ENDROOT
BRANCH   1  12
ATOM     12  C   UNL     1     168.491 171.611 162.897  1.00  0.00    -0.011 A 
ATOM     13  C   UNL     1     169.690 172.008 162.290  1.00  0.00     0.013 A 
ATOM     14  C   UNL     1     170.914 171.699 162.887  1.00  0.00     0.047 A 
ATOM     15  C   UNL     1     170.947 170.964 164.084  1.00  0.00     0.115 A 
ATOM     16  C   UNL     1     168.524 170.881 164.095  1.00  0.00     0.013 A 
ATOM     17  C   UNL     1     169.750 170.554 164.681  1.00  0.00     0.047 A 
BRANCH  15  18
ATOM     18  O   UNL     1     172.164 170.647 164.688  1.00  0.00    -0.508 OA
ATOM     19  H   UNL     1     172.826 171.370 164.959  1.00  0.00     0.293 HD
ENDBRANCH  15  18
ENDBRANCH   1  12
BRANCH  11  20
ATOM     20  C   UNL     1     162.859 171.724 159.648  1.00  0.00     0.188 C 
ATOM     21  C   UNL     1     161.901 170.817 160.479  1.00  0.00     0.179 C 
ATOM     22  O   UNL     1     162.176 172.315 158.550  1.00  0.00    -0.362 OA
ATOM     23  C   UNL     1     161.198 169.775 159.574  1.00  0.00     0.177 C 
ATOM     24  C   UNL     1     161.726 171.327 157.633  1.00  0.00     0.176 C 
ATOM     25  C   UNL     1     160.654 170.421 158.281  1.00  0.00     0.177 C 
BRANCH  21  26
ATOM     26  O   UNL     1     160.941 171.563 161.194  1.00  0.00    -0.387 OA
ATOM     27  H   UNL     1     161.289 171.695 162.111  1.00  0.00     0.211 HD
ENDBRANCH  21  26
BRANCH  23  28
ATOM     28  O   UNL     1     162.028 168.679 159.261  1.00  0.00    -0.387 OA
ATOM     29  H   UNL     1     162.908 168.781 159.704  1.00  0.00     0.211 HD
ENDBRANCH  23  28
BRANCH  24  30
ATOM     30  C   UNL     1     161.173 172.037 156.373  1.00  0.00     0.191 C 
BRANCH  30  31
ATOM     31  O   UNL     1     160.541 173.236 156.746  1.00  0.00    -0.394 OA
ATOM     32  H   UNL     1     161.143 173.728 157.366  1.00  0.00     0.210 HD
ENDBRANCH  30  31
ENDBRANCH  24  30
BRANCH  25  33
ATOM     33  O   UNL     1     159.500 171.174 158.574  1.00  0.00    -0.388 OA
ATOM     34  H   UNL     1     159.577 172.025 158.067  1.00  0.00     0.211 HD
ENDBRANCH  25  33
ENDBRANCH  11  20
BRANCH  10  35
ATOM     35  O   UNL     1     161.545 174.270 160.336  1.00  0.00    -0.507 OA
ATOM     36  H   UNL     1     161.335 174.176 159.345  1.00  0.00     0.293 HD
ENDBRANCH  10  35
TORSDOF 9
ENDMDL
MODEL 3
REMARK VINA RESULT:    -5.398      4.180      7.940
REMARK INTER + INTRA:          -8.090
REMARK INTER:                  -6.935
REMARK INTRA:                  -1.155
REMARK UNBOUND:                -0.799
REMARK SMILES O=c1c(-c2ccc(O)cc2)coc2c([C@@H]3O[C@H](CO)[C@H](O)[C@@H](O)[C@@H]3O)c(O)ccc12
REMARK SMILES IDX 3 1 11 2 12 3 13 4 30 5 2 6 1 7 29 8 28 9 26 10 14 11 4 12
REMARK SMILES IDX 5 13 6 14 7 15 10 16 9 17 8 18 15 20 24 21 16 22 22 23 17 24
REMARK SMILES IDX 20 25 25 26 23 28 18 30 19 31 21 33 27 35
REMARK H PARENT 8 19 25 27 23 29 19 32 21 34 27 36
REMARK Flexibility Score: inf
ROOT
ATOM      1  C   UNL     1     167.709 172.847 162.663  1.00  0.00     0.065 A 
ATOM      2  C   UNL     1     166.358 172.936 163.030  1.00  0.00     0.208 A 
ATOM      3  O   UNL     1     165.618 173.968 162.639  1.00  0.00    -0.463 OA
ATOM      4  C   UNL     1     166.096 174.964 161.892  1.00  0.00     0.147 A 
ATOM      5  C   UNL     1     167.447 174.939 161.467  1.00  0.00     0.066 A 
ATOM      6  C   UNL     1     168.261 173.866 161.872  1.00  0.00     0.200 A 
ATOM      7  O   UNL     1     169.469 173.806 161.507  1.00  0.00    -0.288 OA
ATOM      8  C   UNL     1     167.946 175.987 160.680  1.00  0.00     0.020 A 
ATOM      9  C   UNL     1     167.125 177.059 160.339  1.00  0.00     0.047 A 
ATOM     10  C   UNL     1     165.799 177.113 160.776  1.00  0.00     0.125 A 
ATOM     11  C   UNL     1     165.257 176.048 161.540  1.00  0.00     0.069 A 
ENDROOT
BRANCH   1  12
ATOM     12  C   UNL     1     168.520 171.701 163.125  1.00  0.00    -0.011 A 
ATOM     13  C   UNL     1     168.538 170.511 162.385  1.00  0.00     0.013 A 
ATOM     14  C   UNL     1     169.341 169.444 162.793  1.00  0.00     0.047 A 
ATOM     15  C   UNL     1     170.111 169.550 163.964  1.00  0.00     0.115 A 
ATOM     16  C   UNL     1     169.292 171.808 164.292  1.00  0.00     0.013 A 
ATOM     17  C   UNL     1     170.080 170.732 164.711  1.00  0.00     0.047 A 
BRANCH  15  18
ATOM     18  O   UNL     1     170.914 168.489 164.383  1.00  0.00    -0.508 OA
ATOM     19  H   UNL     1     171.754 168.226 163.872  1.00  0.00     0.293 HD
ENDBRANCH  15  18
ENDBRANCH   1  12
BRANCH  11  20
ATOM     20  C   UNL     1     163.825 176.075 162.068  1.00  0.00     0.188 C 
ATOM     21  C   UNL     1     163.720 176.980 163.333  1.00  0.00     0.179 C 
ATOM     22  O   UNL     1     162.928 176.509 161.055  1.00  0.00    -0.362 OA
ATOM     23  C   UNL     1     162.255 177.079 163.827  1.00  0.00     0.177 C 
ATOM     24  C   UNL     1     161.577 176.385 161.479  1.00  0.00     0.176 C 
ATOM     25  C   UNL     1     161.279 177.338 162.659  1.00  0.00     0.177 C 
BRANCH  21  26
ATOM     26  O   UNL     1     164.245 178.271 163.114  1.00  0.00    -0.387 OA
ATOM     27  H   UNL     1     165.108 178.329 163.595  1.00  0.00     0.211 HD
ENDBRANCH  21  26
BRANCH  23  28
ATOM     28  O   UNL     1     161.852 175.943 164.558  1.00  0.00    -0.387 OA
ATOM     29  H   UNL     1     161.049 176.153 165.098  1.00  0.00     0.211 HD
ENDBRANCH  23  28
BRANCH  24  30
ATOM     30  C   UNL     1     160.651 176.679 160.273  1.00  0.00     0.191 C 
BRANCH  30  31
ATOM     31  O   UNL     1     161.232 177.671 159.464  1.00  0.00    -0.394 OA
ATOM     32  H   UNL     1     161.095 177.418 158.512  1.00  0.00     0.210 HD
ENDBRANCH  30  31
ENDBRANCH  24  30
BRANCH  25  33
ATOM     33  O   UNL     1     161.389 178.677 162.235  1.00  0.00    -0.388 OA
ATOM     34  H   UNL     1     161.858 178.663 161.360  1.00  0.00     0.211 HD
ENDBRANCH  25  33
ENDBRANCH  11  20
BRANCH  10  35
ATOM     35  O   UNL     1     165.030 178.223 160.451  1.00  0.00    -0.507 OA
ATOM     36  H   UNL     1     164.224 178.499 161.006  1.00  0.00     0.293 HD
ENDBRANCH  10  35
TORSDOF 9
ENDMDL
MODEL 4
REMARK VINA RESULT:    -5.229      2.370      3.712
REMARK INTER + INTRA:          -7.861
REMARK INTER:                  -6.635
REMARK INTRA:                  -1.226
REMARK UNBOUND:                -0.799
REMARK SMILES O=c1c(-c2ccc(O)cc2)coc2c([C@@H]3O[C@H](CO)[C@H](O)[C@@H](O)[C@@H]3O)c(O)ccc12
REMARK SMILES IDX 3 1 11 2 12 3 13 4 30 5 2 6 1 7 29 8 28 9 26 10 14 11 4 12
REMARK SMILES IDX 5 13 6 14 7 15 10 16 9 17 8 18 15 20 24 21 16 22 22 23 17 24
REMARK SMILES IDX 20 25 25 26 23 28 18 30 19 31 21 33 27 35
REMARK H PARENT 8 19 25 27 23 29 19 32 21 34 27 36
REMARK Flexibility Score: inf
ROOT
ATOM      1  C   UNL     1     169.428 166.969 159.565  1.00  0.00     0.065 A 
ATOM      2  C   UNL     1     169.098 168.273 159.166  1.00  0.00     0.208 A 
ATOM      3  O   UNL     1     169.144 169.277 160.035  1.00  0.00    -0.463 OA
ATOM      4  C   UNL     1     169.494 169.120 161.311  1.00  0.00     0.147 A 
ATOM      5  C   UNL     1     169.856 167.836 161.788  1.00  0.00     0.066 A 
ATOM      6  C   UNL     1     169.810 166.749 160.897  1.00  0.00     0.200 A 
ATOM      7  O   UNL     1     170.132 165.590 161.284  1.00  0.00    -0.288 OA
ATOM      8  C   UNL     1     170.227 167.673 163.130  1.00  0.00     0.020 A 
ATOM      9  C   UNL     1     170.213 168.763 163.998  1.00  0.00     0.047 A 
ATOM     10  C   UNL     1     169.830 170.030 163.550  1.00  0.00     0.125 A 
ATOM     11  C   UNL     1     169.489 170.231 162.188  1.00  0.00     0.069 A 
ENDROOT
BRANCH   1  12
ATOM     12  C   UNL     1     169.352 165.863 158.588  1.00  0.00    -0.011 A 
ATOM     13  C   UNL     1     170.465 165.547 157.798  1.00  0.00     0.013 A 
ATOM     14  C   UNL     1     170.412 164.472 156.909  1.00  0.00     0.047 A 
ATOM     15  C   UNL     1     169.230 163.721 156.783  1.00  0.00     0.115 A 
ATOM     16  C   UNL     1     168.174 165.110 158.466  1.00  0.00     0.013 A 
ATOM     17  C   UNL     1     168.114 164.046 157.560  1.00  0.00     0.047 A 
BRANCH  15  18
ATOM     18  O   UNL     1     169.164 162.646 155.896  1.00  0.00    -0.508 OA
ATOM     19  H   UNL     1     169.970 162.047 155.728  1.00  0.00     0.293 HD
ENDBRANCH  15  18
ENDBRANCH   1  12
BRANCH  11  20
ATOM     20  C   UNL     1     169.031 171.587 161.657  1.00  0.00     0.188 C 
ATOM     21  C   UNL     1     167.515 171.808 161.941  1.00  0.00     0.179 C 
ATOM     22  O   UNL     1     169.813 172.632 162.220  1.00  0.00    -0.362 OA
ATOM     23  C   UNL     1     167.062 173.216 161.480  1.00  0.00     0.177 C 
ATOM     24  C   UNL     1     169.510 173.883 161.616  1.00  0.00     0.176 C 
ATOM     25  C   UNL     1     168.056 174.308 161.929  1.00  0.00     0.177 C 
BRANCH  21  26
ATOM     26  O   UNL     1     167.190 171.617 163.301  1.00  0.00    -0.387 OA
ATOM     27  H   UNL     1     166.895 172.489 163.663  1.00  0.00     0.211 HD
ENDBRANCH  21  26
BRANCH  23  28
ATOM     28  O   UNL     1     166.851 173.289 160.088  1.00  0.00    -0.387 OA
ATOM     29  H   UNL     1     166.181 172.616 159.809  1.00  0.00     0.211 HD
ENDBRANCH  23  28
BRANCH  24  30
ATOM     30  C   UNL     1     170.525 174.936 162.123  1.00  0.00     0.191 C 
BRANCH  30  31
ATOM     31  O   UNL     1     171.007 174.556 163.388  1.00  0.00    -0.394 OA
ATOM     32  H   UNL     1     170.372 173.899 163.780  1.00  0.00     0.210 HD
ENDBRANCH  30  31
ENDBRANCH  24  30
BRANCH  25  33
ATOM     33  O   UNL     1     167.912 174.545 163.310  1.00  0.00    -0.388 OA
ATOM     34  H   UNL     1     168.456 173.858 163.778  1.00  0.00     0.211 HD
ENDBRANCH  25  33
ENDBRANCH  11  20
BRANCH  10  35
ATOM     35  O   UNL     1     169.788 171.079 164.459  1.00  0.00    -0.507 OA
ATOM     36  H   UNL     1     170.375 171.903 164.356  1.00  0.00     0.293 HD
ENDBRANCH  10  35
TORSDOF 9
ENDMDL
MODEL 5
REMARK VINA RESULT:    -5.201      2.232      4.002
REMARK INTER + INTRA:          -7.824
REMARK INTER:                  -7.042
REMARK INTRA:                  -0.782
REMARK UNBOUND:                -0.799
REMARK SMILES O=c1c(-c2ccc(O)cc2)coc2c([C@@H]3O[C@H](CO)[C@H](O)[C@@H](O)[C@@H]3O)c(O)ccc12
REMARK SMILES IDX 3 1 11 2 12 3 13 4 30 5 2 6 1 7 29 8 28 9 26 10 14 11 4 12
REMARK SMILES IDX 5 13 6 14 7 15 10 16 9 17 8 18 15 20 24 21 16 22 22 23 17 24
REMARK SMILES IDX 20 25 25 26 23 28 18 30 19 31 21 33 27 35
REMARK H PARENT 8 19 25 27 23 29 19 32 21 34 27 36
REMARK Flexibility Score: inf
ROOT
ATOM      1  C   UNL     1     169.784 168.036 161.162  1.00  0.00     0.065 A 
ATOM      2  C   UNL     1     169.688 169.095 160.246  1.00  0.00     0.208 A 
ATOM      3  O   UNL     1     169.691 170.355 160.668  1.00  0.00    -0.463 OA
ATOM      4  C   UNL     1     169.782 170.691 161.955  1.00  0.00     0.147 A 
ATOM      5  C   UNL     1     169.898 169.680 162.940  1.00  0.00     0.066 A 
ATOM      6  C   UNL     1     169.887 168.335 162.528  1.00  0.00     0.200 A 
ATOM      7  O   UNL     1     169.995 167.404 163.377  1.00  0.00    -0.288 OA
ATOM      8  C   UNL     1     169.995 170.036 164.292  1.00  0.00     0.020 A 
ATOM      9  C   UNL     1     169.951 171.376 164.668  1.00  0.00     0.047 A 
ATOM     10  C   UNL     1     169.807 172.384 163.711  1.00  0.00     0.125 A 
ATOM     11  C   UNL     1     169.747 172.055 162.333  1.00  0.00     0.069 A 
ENDROOT
BRANCH   1  12
ATOM     12  C   UNL     1     169.759 166.641 160.673  1.00  0.00    -0.011 A 
ATOM     13  C   UNL     1     170.647 165.696 161.202  1.00  0.00     0.013 A 
ATOM     14  C   UNL     1     170.593 164.367 160.777  1.00  0.00     0.047 A 
ATOM     15  C   UNL     1     169.664 163.980 159.797  1.00  0.00     0.115 A 
ATOM     16  C   UNL     1     168.828 166.253 159.697  1.00  0.00     0.013 A 
ATOM     17  C   UNL     1     168.788 164.927 159.257  1.00  0.00     0.047 A 
BRANCH  15  18
ATOM     18  O   UNL     1     169.602 162.655 159.362  1.00  0.00    -0.508 OA
ATOM     19  H   UNL     1     168.850 162.330 158.760  1.00  0.00     0.293 HD
ENDBRANCH  15  18
ENDBRANCH   1  12
BRANCH  11  20
ATOM     20  C   UNL     1     169.556 173.115 161.252  1.00  0.00     0.188 C 
ATOM     21  C   UNL     1     168.046 173.457 161.074  1.00  0.00     0.179 C 
ATOM     22  O   UNL     1     170.310 174.281 161.559  1.00  0.00    -0.362 OA
ATOM     23  C   UNL     1     167.851 174.592 160.038  1.00  0.00     0.177 C 
ATOM     24  C   UNL     1     170.273 175.213 160.487  1.00  0.00     0.176 C 
ATOM     25  C   UNL     1     168.840 175.753 160.275  1.00  0.00     0.177 C 
BRANCH  21  26
ATOM     26  O   UNL     1     167.426 173.804 162.294  1.00  0.00    -0.387 OA
ATOM     27  H   UNL     1     166.553 173.340 162.328  1.00  0.00     0.211 HD
ENDBRANCH  21  26
BRANCH  23  28
ATOM     28  O   UNL     1     167.943 174.134 158.708  1.00  0.00    -0.387 OA
ATOM     29  H   UNL     1     167.699 174.859 158.080  1.00  0.00     0.211 HD
ENDBRANCH  23  28
BRANCH  24  30
ATOM     30  C   UNL     1     171.266 176.361 160.794  1.00  0.00     0.191 C 
BRANCH  30  31
ATOM     31  O   UNL     1     171.180 176.706 162.154  1.00  0.00    -0.394 OA
ATOM     32  H   UNL     1     171.255 175.874 162.694  1.00  0.00     0.210 HD
ENDBRANCH  30  31
ENDBRANCH  24  30
BRANCH  25  33
ATOM     33  O   UNL     1     168.437 176.500 161.399  1.00  0.00    -0.388 OA
ATOM     34  H   UNL     1     167.444 176.507 161.398  1.00  0.00     0.211 HD
ENDBRANCH  25  33
ENDBRANCH  11  20
BRANCH  10  35
ATOM     35  O   UNL     1     169.723 173.705 164.135  1.00  0.00    -0.507 OA
ATOM     36  H   UNL     1     169.149 173.978 164.928  1.00  0.00     0.293 HD
ENDBRANCH  10  35
TORSDOF 9
ENDMDL
MODEL 6
REMARK VINA RESULT:    -5.193      4.875      8.043
REMARK INTER + INTRA:          -7.813
REMARK INTER:                  -6.584
REMARK INTRA:                  -1.228
REMARK UNBOUND:                -0.799
REMARK SMILES O=c1c(-c2ccc(O)cc2)coc2c([C@@H]3O[C@H](CO)[C@H](O)[C@@H](O)[C@@H]3O)c(O)ccc12
REMARK SMILES IDX 3 1 11 2 12 3 13 4 30 5 2 6 1 7 29 8 28 9 26 10 14 11 4 12
REMARK SMILES IDX 5 13 6 14 7 15 10 16 9 17 8 18 15 20 24 21 16 22 22 23 17 24
REMARK SMILES IDX 20 25 25 26 23 28 18 30 19 31 21 33 27 35
REMARK H PARENT 8 19 25 27 23 29 19 32 21 34 27 36
REMARK Flexibility Score: inf
ROOT
ATOM      1  C   UNL     1     163.061 171.305 160.171  1.00  0.00     0.065 A 
ATOM      2  C   UNL     1     164.148 170.440 160.368  1.00  0.00     0.208 A 
ATOM      3  O   UNL     1     165.241 170.861 160.996  1.00  0.00    -0.463 OA
ATOM      4  C   UNL     1     165.377 172.100 161.468  1.00  0.00     0.147 A 
ATOM      5  C   UNL     1     164.317 173.029 161.323  1.00  0.00     0.066 A 
ATOM      6  C   UNL     1     163.150 172.619 160.653  1.00  0.00     0.200 A 
ATOM      7  O   UNL     1     162.180 173.417 160.509  1.00  0.00    -0.288 OA
ATOM      8  C   UNL     1     164.462 174.331 161.822  1.00  0.00     0.020 A 
ATOM      9  C   UNL     1     165.651 174.718 162.435  1.00  0.00     0.047 A 
ATOM     10  C   UNL     1     166.717 173.822 162.559  1.00  0.00     0.125 A 
ATOM     11  C   UNL     1     166.583 172.488 162.099  1.00  0.00     0.069 A 
ENDROOT
BRANCH   1  12
ATOM     12  C   UNL     1     161.863 170.823 159.452  1.00  0.00    -0.011 A 
ATOM     13  C   UNL     1     161.760 170.994 158.065  1.00  0.00     0.013 A 
ATOM     14  C   UNL     1     160.652 170.497 157.377  1.00  0.00     0.047 A 
ATOM     15  C   UNL     1     159.622 169.847 158.078  1.00  0.00     0.115 A 
ATOM     16  C   UNL     1     160.836 170.169 160.151  1.00  0.00     0.013 A 
ATOM     17  C   UNL     1     159.717 169.689 159.465  1.00  0.00     0.047 A 
BRANCH  15  18
ATOM     18  O   UNL     1     158.509 169.347 157.402  1.00  0.00    -0.508 OA
ATOM     19  H   UNL     1     157.647 169.884 157.331  1.00  0.00     0.293 HD
ENDBRANCH  15  18
ENDBRANCH   1  12
BRANCH  11  20
ATOM     20  C   UNL     1     167.728 171.481 162.182  1.00  0.00     0.188 C 
ATOM     21  C   UNL     1     168.666 171.609 160.943  1.00  0.00     0.179 C 
ATOM     22  O   UNL     1     168.456 171.652 163.391  1.00  0.00    -0.362 OA
ATOM     23  C   UNL     1     169.876 170.649 161.060  1.00  0.00     0.177 C 
ATOM     24  C   UNL     1     169.421 170.623 163.559  1.00  0.00     0.176 C 
ATOM     25  C   UNL     1     170.511 170.705 162.466  1.00  0.00     0.177 C 
BRANCH  21  26
ATOM     26  O   UNL     1     169.115 172.931 160.743  1.00  0.00    -0.387 OA
ATOM     27  H   UNL     1     169.730 172.924 159.968  1.00  0.00     0.211 HD
ENDBRANCH  21  26
BRANCH  23  28
ATOM     28  O   UNL     1     169.548 169.319 160.724  1.00  0.00    -0.387 OA
ATOM     29  H   UNL     1     169.408 168.785 161.545  1.00  0.00     0.211 HD
ENDBRANCH  23  28
BRANCH  24  30
ATOM     30  C   UNL     1     170.035 170.747 164.975  1.00  0.00     0.191 C 
BRANCH  30  31
ATOM     31  O   UNL     1     171.360 170.276 164.957  1.00  0.00    -0.394 OA
ATOM     32  H   UNL     1     171.636 170.084 165.893  1.00  0.00     0.210 HD
ENDBRANCH  30  31
ENDBRANCH  24  30
BRANCH  25  33
ATOM     33  O   UNL     1     171.246 171.898 162.609  1.00  0.00    -0.388 OA
ATOM     34  H   UNL     1     171.937 171.896 161.895  1.00  0.00     0.211 HD
ENDBRANCH  25  33
ENDBRANCH  11  20
BRANCH  10  35
ATOM     35  O   UNL     1     167.900 174.264 163.137  1.00  0.00    -0.507 OA
ATOM     36  H   UNL     1     168.553 174.861 162.635  1.00  0.00     0.293 HD
ENDBRANCH  10  35
TORSDOF 9
ENDMDL
MODEL 7
REMARK VINA RESULT:    -5.041      5.318      8.044
REMARK INTER + INTRA:          -7.608
REMARK INTER:                  -6.387
REMARK INTRA:                  -1.221
REMARK UNBOUND:                -0.799
REMARK SMILES O=c1c(-c2ccc(O)cc2)coc2c([C@@H]3O[C@H](CO)[C@H](O)[C@@H](O)[C@@H]3O)c(O)ccc12
REMARK SMILES IDX 3 1 11 2 12 3 13 4 30 5 2 6 1 7 29 8 28 9 26 10 14 11 4 12
REMARK SMILES IDX 5 13 6 14 7 15 10 16 9 17 8 18 15 20 24 21 16 22 22 23 17 24
REMARK SMILES IDX 20 25 25 26 23 28 18 30 19 31 21 33 27 35
REMARK H PARENT 8 19 25 27 23 29 19 32 21 34 27 36
REMARK Flexibility Score: inf
ROOT
ATOM      1  C   UNL     1     167.687 172.707 162.800  1.00  0.00     0.065 A 
ATOM      2  C   UNL     1     167.273 173.979 163.222  1.00  0.00     0.208 A 
ATOM      3  O   UNL     1     166.083 174.453 162.871  1.00  0.00    -0.463 OA
ATOM      4  C   UNL     1     165.224 173.773 162.111  1.00  0.00     0.147 A 
ATOM      5  C   UNL     1     165.561 172.475 161.657  1.00  0.00     0.066 A 
ATOM      6  C   UNL     1     166.818 171.946 162.003  1.00  0.00     0.200 A 
ATOM      7  O   UNL     1     167.153 170.789 161.622  1.00  0.00    -0.288 OA
ATOM      8  C   UNL     1     164.655 171.760 160.860  1.00  0.00     0.020 A 
ATOM      9  C   UNL     1     163.440 172.335 160.495  1.00  0.00     0.047 A 
ATOM     10  C   UNL     1     163.105 173.627 160.911  1.00  0.00     0.125 A 
ATOM     11  C   UNL     1     163.985 174.355 161.749  1.00  0.00     0.069 A 
ENDROOT
BRANCH   1  12
ATOM     12  C   UNL     1     169.023 172.206 163.185  1.00  0.00    -0.011 A 
ATOM     13  C   UNL     1     169.168 171.399 164.322  1.00  0.00     0.013 A 
ATOM     14  C   UNL     1     170.421 170.885 164.661  1.00  0.00     0.047 A 
ATOM     15  C   UNL     1     171.546 171.199 163.878  1.00  0.00     0.115 A 
ATOM     16  C   UNL     1     170.146 172.515 162.401  1.00  0.00     0.013 A 
ATOM     17  C   UNL     1     171.403 172.017 162.753  1.00  0.00     0.047 A 
BRANCH  15  18
ATOM     18  O   UNL     1     172.803 170.693 164.209  1.00  0.00    -0.508 OA
ATOM     19  H   UNL     1     173.443 171.211 164.806  1.00  0.00     0.293 HD
ENDBRANCH  15  18
ENDBRANCH   1  12
BRANCH  11  20
ATOM     20  C   UNL     1     163.680 175.781 162.202  1.00  0.00     0.188 C 
ATOM     21  C   UNL     1     164.087 176.809 161.103  1.00  0.00     0.179 C 
ATOM     22  O   UNL     1     162.306 175.913 162.541  1.00  0.00    -0.362 OA
ATOM     23  C   UNL     1     163.704 178.250 161.521  1.00  0.00     0.177 C 
ATOM     24  C   UNL     1     162.040 177.185 163.117  1.00  0.00     0.176 C 
ATOM     25  C   UNL     1     162.270 178.316 162.088  1.00  0.00     0.177 C 
BRANCH  21  26
ATOM     26  O   UNL     1     163.522 176.503 159.847  1.00  0.00    -0.387 OA
ATOM     27  H   UNL     1     162.713 175.957 160.009  1.00  0.00     0.211 HD
ENDBRANCH  21  26
BRANCH  23  28
ATOM     28  O   UNL     1     164.618 178.810 162.437  1.00  0.00    -0.387 OA
ATOM     29  H   UNL     1     164.904 179.707 162.128  1.00  0.00     0.211 HD
ENDBRANCH  23  28
BRANCH  24  30
ATOM     30  C   UNL     1     160.584 177.194 163.644  1.00  0.00     0.191 C 
BRANCH  30  31
ATOM     31  O   UNL     1     159.817 176.258 162.928  1.00  0.00    -0.394 OA
ATOM     32  H   UNL     1     160.429 175.733 162.347  1.00  0.00     0.210 HD
ENDBRANCH  30  31
ENDBRANCH  24  30
BRANCH  25  33
ATOM     33  O   UNL     1     161.338 178.207 161.038  1.00  0.00    -0.388 OA
ATOM     34  H   UNL     1     160.672 178.932 161.169  1.00  0.00     0.211 HD
ENDBRANCH  25  33
ENDBRANCH  11  20
BRANCH  10  35
ATOM     35  O   UNL     1     161.902 174.177 160.486  1.00  0.00    -0.507 OA
ATOM     36  H   UNL     1     161.165 173.606 160.081  1.00  0.00     0.293 HD
ENDBRANCH  10  35
TORSDOF 9
ENDMDL
MODEL 8
REMARK VINA RESULT:    -4.965      5.048      8.380
REMARK INTER + INTRA:          -7.505
REMARK INTER:                  -7.060
REMARK INTRA:                  -0.445
REMARK UNBOUND:                -0.799
REMARK SMILES O=c1c(-c2ccc(O)cc2)coc2c([C@@H]3O[C@H](CO)[C@H](O)[C@@H](O)[C@@H]3O)c(O)ccc12
REMARK SMILES IDX 3 1 11 2 12 3 13 4 30 5 2 6 1 7 29 8 28 9 26 10 14 11 4 12
REMARK SMILES IDX 5 13 6 14 7 15 10 16 9 17 8 18 15 20 24 21 16 22 22 23 17 24
REMARK SMILES IDX 20 25 25 26 23 28 18 30 19 31 21 33 27 35
REMARK H PARENT 8 19 25 27 23 29 19 32 21 34 27 36
REMARK Flexibility Score: inf
ROOT
ATOM      1  C   UNL     1     167.002 172.247 162.299  1.00  0.00     0.065 A 
ATOM      2  C   UNL     1     166.193 171.413 161.512  1.00  0.00     0.208 A 
ATOM      3  O   UNL     1     165.030 171.849 161.041  1.00  0.00    -0.463 OA
ATOM      4  C   UNL     1     164.562 173.074 161.278  1.00  0.00     0.147 A 
ATOM      5  C   UNL     1     165.327 173.982 162.051  1.00  0.00     0.066 A 
ATOM      6  C   UNL     1     166.559 173.550 162.574  1.00  0.00     0.200 A 
ATOM      7  O   UNL     1     167.272 174.333 163.263  1.00  0.00    -0.288 OA
ATOM      8  C   UNL     1     164.834 175.271 162.297  1.00  0.00     0.020 A 
ATOM      9  C   UNL     1     163.586 175.649 161.805  1.00  0.00     0.047 A 
ATOM     10  C   UNL     1     162.807 174.755 161.066  1.00  0.00     0.125 A 
ATOM     11  C   UNL     1     163.298 173.459 160.769  1.00  0.00     0.069 A 
ENDROOT
BRANCH   1  12
ATOM     12  C   UNL     1     168.283 171.736 162.830  1.00  0.00    -0.011 A 
ATOM     13  C   UNL     1     168.289 170.835 163.903  1.00  0.00     0.013 A 
ATOM     14  C   UNL     1     169.495 170.314 164.374  1.00  0.00     0.047 A 
ATOM     15  C   UNL     1     170.710 170.714 163.792  1.00  0.00     0.115 A 
ATOM     16  C   UNL     1     169.497 172.132 162.245  1.00  0.00     0.013 A 
ATOM     17  C   UNL     1     170.705 171.625 162.731  1.00  0.00     0.047 A 
BRANCH  15  18
ATOM     18  O   UNL     1     171.922 170.202 164.256  1.00  0.00    -0.508 OA
ATOM     19  H   UNL     1     172.204 169.245 164.057  1.00  0.00     0.293 HD
ENDBRANCH  15  18
ENDBRANCH   1  12
BRANCH  11  20
ATOM     20  C   UNL     1     162.472 172.435 159.995  1.00  0.00     0.188 C 
ATOM     21  C   UNL     1     162.964 172.331 158.519  1.00  0.00     0.179 C 
ATOM     22  O   UNL     1     162.518 171.168 160.638  1.00  0.00    -0.362 OA
ATOM     23  C   UNL     1     162.186 171.235 157.750  1.00  0.00     0.177 C 
ATOM     24  C   UNL     1     161.627 170.247 160.023  1.00  0.00     0.176 C 
ATOM     25  C   UNL     1     162.070 169.935 158.575  1.00  0.00     0.177 C 
BRANCH  21  26
ATOM     26  O   UNL     1     164.352 172.091 158.432  1.00  0.00    -0.387 OA
ATOM     27  H   UNL     1     164.488 171.362 157.777  1.00  0.00     0.211 HD
ENDBRANCH  21  26
BRANCH  23  28
ATOM     28  O   UNL     1     160.909 171.666 157.335  1.00  0.00    -0.387 OA
ATOM     29  H   UNL     1     160.818 171.564 156.354  1.00  0.00     0.211 HD
ENDBRANCH  23  28
BRANCH  24  30
ATOM     30  C   UNL     1     161.573 168.961 160.884  1.00  0.00     0.191 C 
BRANCH  30  31
ATOM     31  O   UNL     1     161.182 167.874 160.082  1.00  0.00    -0.394 OA
ATOM     32  H   UNL     1     161.858 167.152 160.184  1.00  0.00     0.210 HD
ENDBRANCH  30  31
ENDBRANCH  24  30
BRANCH  25  33
ATOM     33  O   UNL     1     163.310 169.266 158.585  1.00  0.00    -0.388 OA
ATOM     34  H   UNL     1     163.582 169.180 159.536  1.00  0.00     0.211 HD
ENDBRANCH  25  33
ENDBRANCH  11  20
BRANCH  10  35
ATOM     35  O   UNL     1     161.550 175.159 160.634  1.00  0.00    -0.507 OA
ATOM     36  H   UNL     1     160.785 175.322 161.285  1.00  0.00     0.293 HD
ENDBRANCH  10  35
TORSDOF 9
ENDMDL
MODEL 9
REMARK VINA RESULT:    -4.963      4.006      7.039
REMARK INTER + INTRA:          -7.502
REMARK INTER:                  -6.468
REMARK INTRA:                  -1.034
REMARK UNBOUND:                -0.799
REMARK SMILES O=c1c(-c2ccc(O)cc2)coc2c([C@@H]3O[C@H](CO)[C@H](O)[C@@H](O)[C@@H]3O)c(O)ccc12
REMARK SMILES IDX 3 1 11 2 12 3 13 4 30 5 2 6 1 7 29 8 28 9 26 10 14 11 4 12
REMARK SMILES IDX 5 13 6 14 7 15 10 16 9 17 8 18 15 20 24 21 16 22 22 23 17 24
REMARK SMILES IDX 20 25 25 26 23 28 18 30 19 31 21 33 27 35
REMARK H PARENT 8 19 25 27 23 29 19 32 21 34 27 36
REMARK Flexibility Score: inf
ROOT
ATOM      1  C   UNL     1     164.847 171.064 160.509  1.00  0.00     0.065 A 
ATOM      2  C   UNL     1     165.523 171.575 161.627  1.00  0.00     0.208 A 
ATOM      3  O   UNL     1     166.847 171.504 161.706  1.00  0.00    -0.463 OA
ATOM      4  C   UNL     1     167.604 170.955 160.757  1.00  0.00     0.147 A 
ATOM      5  C   UNL     1     166.998 170.430 159.589  1.00  0.00     0.066 A 
ATOM      6  C   UNL     1     165.597 170.481 159.477  1.00  0.00     0.200 A 
ATOM      7  O   UNL     1     165.019 170.028 158.448  1.00  0.00    -0.288 OA
ATOM      8  C   UNL     1     167.796 169.855 158.590  1.00  0.00     0.020 A 
ATOM      9  C   UNL     1     169.177 169.776 158.756  1.00  0.00     0.047 A 
ATOM     10  C   UNL     1     169.788 170.263 159.915  1.00  0.00     0.125 A 
ATOM     11  C   UNL     1     169.008 170.885 160.923  1.00  0.00     0.069 A 
ENDROOT
BRANCH   1  12
ATOM     12  C   UNL     1     163.372 171.136 160.450  1.00  0.00    -0.011 A 
ATOM     13  C   UNL     1     162.610 169.961 160.488  1.00  0.00     0.013 A 
ATOM     14  C   UNL     1     161.215 170.028 160.481  1.00  0.00     0.047 A 
ATOM     15  C   UNL     1     160.572 171.276 160.408  1.00  0.00     0.115 A 
ATOM     16  C   UNL     1     162.728 172.382 160.382  1.00  0.00     0.013 A 
ATOM     17  C   UNL     1     161.333 172.448 160.354  1.00  0.00     0.047 A 
BRANCH  15  18
ATOM     18  O   UNL     1     159.179 171.356 160.398  1.00  0.00    -0.508 OA
ATOM     19  H   UNL     1     158.605 170.571 160.097  1.00  0.00     0.293 HD
ENDBRANCH  15  18
ENDBRANCH   1  12
BRANCH  11  20
ATOM     20  C   UNL     1     169.623 171.401 162.222  1.00  0.00     0.188 C 
ATOM     21  C   UNL     1     169.591 170.300 163.324  1.00  0.00     0.179 C 
ATOM     22  O   UNL     1     170.950 171.860 161.997  1.00  0.00    -0.362 OA
ATOM     23  C   UNL     1     170.288 170.789 164.619  1.00  0.00     0.177 C 
ATOM     24  C   UNL     1     171.477 172.492 163.156  1.00  0.00     0.176 C 
ATOM     25  C   UNL     1     171.635 171.478 164.313  1.00  0.00     0.177 C 
BRANCH  21  26
ATOM     26  O   UNL     1     170.170 169.089 162.891  1.00  0.00    -0.387 OA
ATOM     27  H   UNL     1     170.845 168.823 163.564  1.00  0.00     0.211 HD
ENDBRANCH  21  26
BRANCH  23  28
ATOM     28  O   UNL     1     169.467 171.638 165.389  1.00  0.00    -0.387 OA
ATOM     29  H   UNL     1     170.025 172.242 165.941  1.00  0.00     0.211 HD
ENDBRANCH  23  28
BRANCH  24  30
ATOM     30  C   UNL     1     172.835 173.141 162.791  1.00  0.00     0.191 C 
BRANCH  30  31
ATOM     31  O   UNL     1     173.537 172.301 161.909  1.00  0.00    -0.394 OA
ATOM     32  H   UNL     1     173.196 171.374 162.021  1.00  0.00     0.210 HD
ENDBRANCH  30  31
ENDBRANCH  24  30
BRANCH  25  33
ATOM     33  O   UNL     1     172.600 170.509 163.976  1.00  0.00    -0.388 OA
ATOM     34  H   UNL     1     172.104 169.710 163.656  1.00  0.00     0.211 HD
ENDBRANCH  25  33
ENDBRANCH  11  20
BRANCH  10  35
ATOM     35  O   UNL     1     171.162 170.123 160.058  1.00  0.00    -0.507 OA
ATOM     36  H   UNL     1     171.737 169.700 159.334  1.00  0.00     0.293 HD
ENDBRANCH  10  35
TORSDOF 9
ENDMDL
