MODEL 1
REMARK VINA RESULT:    -9.244      0.000      0.000
REMARK INTER + INTRA:         -11.173
REMARK INTER:                 -10.866
REMARK INTRA:                  -0.308
REMARK UNBOUND:                -0.308
REMARK SMILES O=c1c(O)c(-c2ccc(O)c(O)c2)oc2cc(O)ccc12
REMARK SMILES IDX 5 1 3 2 2 3 1 4 21 5 15 6 14 7 16 8 17 9 19 10 20 11 6 12
REMARK SMILES IDX 7 13 8 14 9 15 13 16 11 17 10 18 12 20 4 22 18 24
REMARK H PARENT 10 19 12 21 4 23 18 25
REMARK Flexibility Score: inf
ROOT
ATOM      1  C   UNL     1     139.023 -18.763  79.323  1.00  0.00     0.180 A 
ATOM      2  C   UNL     1     140.198 -19.323  78.782  1.00  0.00     0.208 A 
ATOM      3  C   UNL     1     141.431 -18.714  79.064  1.00  0.00     0.235 A 
ATOM      4  O   UNL     1     142.498 -19.201  78.599  1.00  0.00    -0.285 OA
ATOM      5  C   UNL     1     141.462 -17.556  79.858  1.00  0.00     0.069 A 
ATOM      6  C   UNL     1     140.240 -17.044  80.343  1.00  0.00     0.142 A 
ATOM      7  O   UNL     1     139.095 -17.656  80.059  1.00  0.00    -0.452 OA
ATOM      8  C   UNL     1     140.228 -15.887  81.129  1.00  0.00     0.094 A 
ATOM      9  C   UNL     1     141.428 -15.233  81.440  1.00  0.00     0.119 A 
ATOM     10  C   UNL     1     142.641 -15.739  80.961  1.00  0.00     0.047 A 
ATOM     11  C   UNL     1     142.663 -16.894  80.174  1.00  0.00     0.020 A 
ENDROOT
BRANCH   1  12
ATOM     12  C   UNL     1     137.687 -19.357  79.086  1.00  0.00     0.025 A 
ATOM     13  C   UNL     1     137.092 -20.218  80.026  1.00  0.00     0.016 A 
ATOM     14  C   UNL     1     135.820 -20.748  79.792  1.00  0.00     0.051 A 
ATOM     15  C   UNL     1     135.120 -20.416  78.626  1.00  0.00     0.157 A 
ATOM     16  C   UNL     1     136.972 -19.011  77.929  1.00  0.00     0.062 A 
ATOM     17  C   UNL     1     135.696 -19.543  77.693  1.00  0.00     0.158 A 
BRANCH  15  18
ATOM     18  O   UNL     1     133.853 -20.943  78.388  1.00  0.00    -0.504 OA
ATOM     19  H   UNL     1     133.317 -20.686  77.567  1.00  0.00     0.293 HD
ENDBRANCH  15  18
BRANCH  17  20
ATOM     20  O   UNL     1     134.995 -19.208  76.536  1.00  0.00    -0.504 OA
ATOM     21  H   UNL     1     134.359 -19.860  76.093  1.00  0.00     0.293 HD
ENDBRANCH  17  20
ENDBRANCH   1  12
BRANCH   2  22
ATOM     22  O   UNL     1     140.131 -20.447  77.954  1.00  0.00    -0.502 OA
ATOM     23  H   UNL     1     140.632 -21.302  78.160  1.00  0.00     0.293 HD
ENDBRANCH   2  22
BRANCH   9  24
ATOM     24  O   UNL     1     141.426 -14.080  82.222  1.00  0.00    -0.508 OA
ATOM     25  H   UNL     1     140.614 -13.809  82.763  1.00  0.00     0.293 HD
ENDBRANCH   9  24
TORSDOF 5
ENDMDL
MODEL 2
REMARK VINA RESULT:    -8.720      2.872      5.798
REMARK INTER + INTRA:         -10.557
REMARK INTER:                 -10.261
REMARK INTRA:                  -0.296
REMARK UNBOUND:                -0.308
REMARK SMILES O=c1c(O)c(-c2ccc(O)c(O)c2)oc2cc(O)ccc12
REMARK SMILES IDX 5 1 3 2 2 3 1 4 21 5 15 6 14 7 16 8 17 9 19 10 20 11 6 12
REMARK SMILES IDX 7 13 8 14 9 15 13 16 11 17 10 18 12 20 4 22 18 24
REMARK H PARENT 10 19 12 21 4 23 18 25
REMARK Flexibility Score: inf
ROOT
ATOM      1  C   UNL     1     140.802 -20.209  79.148  1.00  0.00     0.180 A 
ATOM      2  C   UNL     1     139.523 -20.472  78.615  1.00  0.00     0.208 A 
ATOM      3  C   UNL     1     138.405 -19.871  79.212  1.00  0.00     0.235 A 
ATOM      4  O   UNL     1     137.251 -20.083  78.747  1.00  0.00    -0.285 OA
ATOM      5  C   UNL     1     138.582 -19.043  80.332  1.00  0.00     0.069 A 
ATOM      6  C   UNL     1     139.891 -18.848  80.820  1.00  0.00     0.142 A 
ATOM      7  O   UNL     1     140.925 -19.429  80.220  1.00  0.00    -0.452 OA
ATOM      8  C   UNL     1     140.108 -18.038  81.939  1.00  0.00     0.094 A 
ATOM      9  C   UNL     1     139.028 -17.415  82.579  1.00  0.00     0.119 A 
ATOM     10  C   UNL     1     137.729 -17.605  82.097  1.00  0.00     0.047 A 
ATOM     11  C   UNL     1     137.502 -18.414  80.979  1.00  0.00     0.020 A 
ENDROOT
BRANCH   1  12
ATOM     12  C   UNL     1     142.033 -20.791  78.564  1.00  0.00     0.025 A 
ATOM     13  C   UNL     1     142.436 -22.104  78.866  1.00  0.00     0.016 A 
ATOM     14  C   UNL     1     143.588 -22.640  78.283  1.00  0.00     0.051 A 
ATOM     15  C   UNL     1     144.344 -21.879  77.383  1.00  0.00     0.157 A 
ATOM     16  C   UNL     1     142.782 -20.040  77.645  1.00  0.00     0.062 A 
ATOM     17  C   UNL     1     143.939 -20.577  77.061  1.00  0.00     0.158 A 
BRANCH  15  18
ATOM     18  O   UNL     1     145.494 -22.409  76.802  1.00  0.00    -0.504 OA
ATOM     19  H   UNL     1     146.248 -22.785  77.365  1.00  0.00     0.293 HD
ENDBRANCH  15  18
BRANCH  17  20
ATOM     20  O   UNL     1     144.689 -19.824  76.159  1.00  0.00    -0.504 OA
ATOM     21  H   UNL     1     145.699 -19.772  76.221  1.00  0.00     0.293 HD
ENDBRANCH  17  20
ENDBRANCH   1  12
BRANCH   2  22
ATOM     22  O   UNL     1     139.373 -21.340  77.531  1.00  0.00    -0.502 OA
ATOM     23  H   UNL     1     138.836 -22.196  77.592  1.00  0.00     0.293 HD
ENDBRANCH   2  22
BRANCH   9  24
ATOM     24  O   UNL     1     139.234 -16.606  83.695  1.00  0.00    -0.508 OA
ATOM     25  H   UNL     1     139.558 -15.651  83.603  1.00  0.00     0.293 HD
ENDBRANCH   9  24
TORSDOF 5
ENDMDL
MODEL 3
REMARK VINA RESULT:    -8.436      1.632      6.755
REMARK INTER + INTRA:         -10.223
REMARK INTER:                  -9.960
REMARK INTRA:                  -0.263
REMARK UNBOUND:                -0.308
REMARK SMILES O=c1c(O)c(-c2ccc(O)c(O)c2)oc2cc(O)ccc12
REMARK SMILES IDX 5 1 3 2 2 3 1 4 21 5 15 6 14 7 16 8 17 9 19 10 20 11 6 12
REMARK SMILES IDX 7 13 8 14 9 15 13 16 11 17 10 18 12 20 4 22 18 24
REMARK H PARENT 10 19 12 21 4 23 18 25
REMARK Flexibility Score: inf
ROOT
ATOM      1  C   UNL     1     139.113 -19.130  80.025  1.00  0.00     0.180 A 
ATOM      2  C   UNL     1     139.171 -20.433  80.560  1.00  0.00     0.208 A 
ATOM      3  C   UNL     1     138.117 -21.321  80.295  1.00  0.00     0.235 A 
ATOM      4  O   UNL     1     138.150 -22.496  80.756  1.00  0.00    -0.285 OA
ATOM      5  C   UNL     1     137.027 -20.888  79.525  1.00  0.00     0.069 A 
ATOM      6  C   UNL     1     137.033 -19.561  79.044  1.00  0.00     0.142 A 
ATOM      7  O   UNL     1     138.054 -18.754  79.311  1.00  0.00    -0.452 OA
ATOM      8  C   UNL     1     135.960 -19.088  78.281  1.00  0.00     0.094 A 
ATOM      9  C   UNL     1     134.877 -19.929  77.988  1.00  0.00     0.119 A 
ATOM     10  C   UNL     1     134.870 -21.245  78.463  1.00  0.00     0.047 A 
ATOM     11  C   UNL     1     135.936 -21.726  79.228  1.00  0.00     0.020 A 
ENDROOT
BRANCH   1  12
ATOM     12  C   UNL     1     140.193 -18.141  80.244  1.00  0.00     0.025 A 
ATOM     13  C   UNL     1     141.427 -18.245  79.577  1.00  0.00     0.016 A 
ATOM     14  C   UNL     1     142.423 -17.286  79.780  1.00  0.00     0.051 A 
ATOM     15  C   UNL     1     142.197 -16.204  80.641  1.00  0.00     0.157 A 
ATOM     16  C   UNL     1     139.964 -17.043  81.088  1.00  0.00     0.062 A 
ATOM     17  C   UNL     1     140.964 -16.081  81.294  1.00  0.00     0.158 A 
BRANCH  15  18
ATOM     18  O   UNL     1     143.188 -15.247  80.848  1.00  0.00    -0.504 OA
ATOM     19  H   UNL     1     143.304 -14.459  80.221  1.00  0.00     0.293 HD
ENDBRANCH  15  18
BRANCH  17  20
ATOM     20  O   UNL     1     140.738 -15.000  82.144  1.00  0.00    -0.504 OA
ATOM     21  H   UNL     1     141.145 -14.959  83.071  1.00  0.00     0.293 HD
ENDBRANCH  17  20
ENDBRANCH   1  12
BRANCH   2  22
ATOM     22  O   UNL     1     140.245 -20.821  81.366  1.00  0.00    -0.502 OA
ATOM     23  H   UNL     1     141.045 -20.221  81.527  1.00  0.00     0.293 HD
ENDBRANCH   2  22
BRANCH   9  24
ATOM     24  O   UNL     1     133.804 -19.467  77.229  1.00  0.00    -0.508 OA
ATOM     25  H   UNL     1     132.974 -20.030  77.089  1.00  0.00     0.293 HD
ENDBRANCH   9  24
TORSDOF 5
ENDMDL
MODEL 4
REMARK VINA RESULT:    -8.384      2.857      5.939
REMARK INTER + INTRA:         -10.162
REMARK INTER:                  -9.864
REMARK INTRA:                  -0.298
REMARK UNBOUND:                -0.308
REMARK SMILES O=c1c(O)c(-c2ccc(O)c(O)c2)oc2cc(O)ccc12
REMARK SMILES IDX 5 1 3 2 2 3 1 4 21 5 15 6 14 7 16 8 17 9 19 10 20 11 6 12
REMARK SMILES IDX 7 13 8 14 9 15 13 16 11 17 10 18 12 20 4 22 18 24
REMARK H PARENT 10 19 12 21 4 23 18 25
REMARK Flexibility Score: inf
ROOT
ATOM      1  C   UNL     1     140.762 -20.031  79.015  1.00  0.00     0.180 A 
ATOM      2  C   UNL     1     139.483 -20.445  78.589  1.00  0.00     0.208 A 
ATOM      3  C   UNL     1     138.354 -19.959  79.266  1.00  0.00     0.235 A 
ATOM      4  O   UNL     1     137.198 -20.307  78.897  1.00  0.00    -0.285 OA
ATOM      5  C   UNL     1     138.524 -19.093  80.358  1.00  0.00     0.069 A 
ATOM      6  C   UNL     1     139.838 -18.744  80.737  1.00  0.00     0.142 A 
ATOM      7  O   UNL     1     140.880 -19.220  80.064  1.00  0.00    -0.452 OA
ATOM      8  C   UNL     1     140.049 -17.892  81.825  1.00  0.00     0.094 A 
ATOM      9  C   UNL     1     138.959 -17.379  82.542  1.00  0.00     0.119 A 
ATOM     10  C   UNL     1     137.655 -17.722  82.168  1.00  0.00     0.047 A 
ATOM     11  C   UNL     1     137.435 -18.575  81.082  1.00  0.00     0.020 A 
ENDROOT
BRANCH   1  12
ATOM     12  C   UNL     1     142.001 -20.485  78.342  1.00  0.00     0.025 A 
ATOM     13  C   UNL     1     142.660 -19.675  77.400  1.00  0.00     0.016 A 
ATOM     14  C   UNL     1     143.841 -20.114  76.795  1.00  0.00     0.051 A 
ATOM     15  C   UNL     1     144.386 -21.360  77.131  1.00  0.00     0.157 A 
ATOM     16  C   UNL     1     142.563 -21.723  78.691  1.00  0.00     0.062 A 
ATOM     17  C   UNL     1     143.747 -22.165  78.083  1.00  0.00     0.158 A 
BRANCH  15  18
ATOM     18  O   UNL     1     145.562 -21.802  76.530  1.00  0.00    -0.504 OA
ATOM     19  H   UNL     1     145.551 -22.496  75.790  1.00  0.00     0.293 HD
ENDBRANCH  15  18
BRANCH  17  20
ATOM     20  O   UNL     1     144.295 -23.401  78.422  1.00  0.00    -0.504 OA
ATOM     21  H   UNL     1     143.751 -24.110  78.899  1.00  0.00     0.293 HD
ENDBRANCH  17  20
ENDBRANCH   1  12
BRANCH   2  22
ATOM     22  O   UNL     1     139.347 -21.347  77.531  1.00  0.00    -0.502 OA
ATOM     23  H   UNL     1     139.377 -21.054  76.562  1.00  0.00     0.293 HD
ENDBRANCH   2  22
BRANCH   9  24
ATOM     24  O   UNL     1     139.160 -16.529  83.628  1.00  0.00    -0.508 OA
ATOM     25  H   UNL     1     138.585 -15.706  83.769  1.00  0.00     0.293 HD
ENDBRANCH   9  24
TORSDOF 5
ENDMDL
MODEL 5
REMARK VINA RESULT:    -8.096      3.971      8.303
REMARK INTER + INTRA:          -9.824
REMARK INTER:                  -9.514
REMARK INTRA:                  -0.310
REMARK UNBOUND:                -0.308
REMARK SMILES O=c1c(O)c(-c2ccc(O)c(O)c2)oc2cc(O)ccc12
REMARK SMILES IDX 5 1 3 2 2 3 1 4 21 5 15 6 14 7 16 8 17 9 19 10 20 11 6 12
REMARK SMILES IDX 7 13 8 14 9 15 13 16 11 17 10 18 12 20 4 22 18 24
REMARK H PARENT 10 19 12 21 4 23 18 25
REMARK Flexibility Score: inf
ROOT
ATOM      1  C   UNL     1     134.406 -19.639  76.808  1.00  0.00     0.180 A 
ATOM      2  C   UNL     1     133.120 -19.060  76.813  1.00  0.00     0.208 A 
ATOM      3  C   UNL     1     132.499 -18.779  75.587  1.00  0.00     0.235 A 
ATOM      4  O   UNL     1     131.345 -18.270  75.565  1.00  0.00    -0.285 OA
ATOM      5  C   UNL     1     133.177 -19.060  74.390  1.00  0.00     0.069 A 
ATOM      6  C   UNL     1     134.471 -19.617  74.469  1.00  0.00     0.142 A 
ATOM      7  O   UNL     1     135.020 -19.876  75.651  1.00  0.00    -0.452 OA
ATOM      8  C   UNL     1     135.184 -19.903  73.300  1.00  0.00     0.094 A 
ATOM      9  C   UNL     1     134.616 -19.639  72.046  1.00  0.00     0.119 A 
ATOM     10  C   UNL     1     133.333 -19.087  71.964  1.00  0.00     0.047 A 
ATOM     11  C   UNL     1     132.614 -18.797  73.128  1.00  0.00     0.020 A 
ENDROOT
BRANCH   1  12
ATOM     12  C   UNL     1     135.120 -19.981  78.060  1.00  0.00     0.025 A 
ATOM     13  C   UNL     1     134.847 -21.173  78.755  1.00  0.00     0.016 A 
ATOM     14  C   UNL     1     135.550 -21.487  79.921  1.00  0.00     0.051 A 
ATOM     15  C   UNL     1     136.543 -20.624  80.401  1.00  0.00     0.157 A 
ATOM     16  C   UNL     1     136.131 -19.130  78.534  1.00  0.00     0.062 A 
ATOM     17  C   UNL     1     136.835 -19.445  79.705  1.00  0.00     0.158 A 
BRANCH  15  18
ATOM     18  O   UNL     1     137.245 -20.933  81.565  1.00  0.00    -0.504 OA
ATOM     19  H   UNL     1     138.178 -20.575  81.731  1.00  0.00     0.293 HD
ENDBRANCH  15  18
BRANCH  17  20
ATOM     20  O   UNL     1     137.829 -18.590  80.181  1.00  0.00    -0.504 OA
ATOM     21  H   UNL     1     137.603 -17.712  80.633  1.00  0.00     0.293 HD
ENDBRANCH  17  20
ENDBRANCH   1  12
BRANCH   2  22
ATOM     22  O   UNL     1     132.490 -18.745  78.020  1.00  0.00    -0.502 OA
ATOM     23  H   UNL     1     132.805 -17.988  78.615  1.00  0.00     0.293 HD
ENDBRANCH   2  22
BRANCH   9  24
ATOM     24  O   UNL     1     135.317 -19.919  70.875  1.00  0.00    -0.508 OA
ATOM     25  H   UNL     1     136.121 -20.537  70.875  1.00  0.00     0.293 HD
ENDBRANCH   9  24
TORSDOF 5
ENDMDL
MODEL 6
REMARK VINA RESULT:    -7.846      2.573      6.663
REMARK INTER + INTRA:          -9.530
REMARK INTER:                  -9.627
REMARK INTRA:                   0.097
REMARK UNBOUND:                -0.308
REMARK SMILES O=c1c(O)c(-c2ccc(O)c(O)c2)oc2cc(O)ccc12
REMARK SMILES IDX 5 1 3 2 2 3 1 4 21 5 15 6 14 7 16 8 17 9 19 10 20 11 6 12
REMARK SMILES IDX 7 13 8 14 9 15 13 16 11 17 10 18 12 20 4 22 18 24
REMARK H PARENT 10 19 12 21 4 23 18 25
REMARK Flexibility Score: inf
ROOT
ATOM      1  C   UNL     1     140.912 -20.144  78.938  1.00  0.00     0.180 A 
ATOM      2  C   UNL     1     140.918 -18.841  79.477  1.00  0.00     0.208 A 
ATOM      3  C   UNL     1     139.715 -18.303  79.959  1.00  0.00     0.235 A 
ATOM      4  O   UNL     1     139.696 -17.142  80.455  1.00  0.00    -0.285 OA
ATOM      5  C   UNL     1     138.537 -19.062  79.876  1.00  0.00     0.069 A 
ATOM      6  C   UNL     1     138.610 -20.350  79.303  1.00  0.00     0.142 A 
ATOM      7  O   UNL     1     139.771 -20.825  78.865  1.00  0.00    -0.452 OA
ATOM      8  C   UNL     1     137.457 -21.133  79.193  1.00  0.00     0.094 A 
ATOM      9  C   UNL     1     136.226 -20.647  79.654  1.00  0.00     0.119 A 
ATOM     10  C   UNL     1     136.151 -19.371  80.224  1.00  0.00     0.047 A 
ATOM     11  C   UNL     1     137.298 -18.579  80.337  1.00  0.00     0.020 A 
ENDROOT
BRANCH   1  12
ATOM     12  C   UNL     1     142.143 -20.789  78.426  1.00  0.00     0.025 A 
ATOM     13  C   UNL     1     142.456 -22.124  78.740  1.00  0.00     0.016 A 
ATOM     14  C   UNL     1     143.611 -22.718  78.225  1.00  0.00     0.051 A 
ATOM     15  C   UNL     1     144.461 -21.995  77.380  1.00  0.00     0.157 A 
ATOM     16  C   UNL     1     142.988 -20.075  77.561  1.00  0.00     0.062 A 
ATOM     17  C   UNL     1     144.148 -20.671  77.045  1.00  0.00     0.158 A 
BRANCH  15  18
ATOM     18  O   UNL     1     145.614 -22.583  76.866  1.00  0.00    -0.504 OA
ATOM     19  H   UNL     1     145.913 -23.507  77.157  1.00  0.00     0.293 HD
ENDBRANCH  15  18
BRANCH  17  20
ATOM     20  O   UNL     1     144.992 -19.955  76.198  1.00  0.00    -0.504 OA
ATOM     21  H   UNL     1     145.137 -18.958  76.311  1.00  0.00     0.293 HD
ENDBRANCH  17  20
ENDBRANCH   1  12
BRANCH   2  22
ATOM     22  O   UNL     1     142.096 -18.089  79.500  1.00  0.00    -0.502 OA
ATOM     23  H   UNL     1     142.824 -18.245  80.187  1.00  0.00     0.293 HD
ENDBRANCH   2  22
BRANCH   9  24
ATOM     24  O   UNL     1     135.072 -21.420  79.549  1.00  0.00    -0.508 OA
ATOM     25  H   UNL     1     134.150 -21.009  79.642  1.00  0.00     0.293 HD
ENDBRANCH   9  24
TORSDOF 5
ENDMDL
MODEL 7
REMARK VINA RESULT:    -7.831      1.640      6.753
REMARK INTER + INTRA:          -9.512
REMARK INTER:                  -9.429
REMARK INTRA:                  -0.083
REMARK UNBOUND:                -0.308
REMARK SMILES O=c1c(O)c(-c2ccc(O)c(O)c2)oc2cc(O)ccc12
REMARK SMILES IDX 5 1 3 2 2 3 1 4 21 5 15 6 14 7 16 8 17 9 19 10 20 11 6 12
REMARK SMILES IDX 7 13 8 14 9 15 13 16 11 17 10 18 12 20 4 22 18 24
REMARK H PARENT 10 19 12 21 4 23 18 25
REMARK Flexibility Score: inf
ROOT
ATOM      1  C   UNL     1     138.835 -18.863  80.204  1.00  0.00     0.180 A 
ATOM      2  C   UNL     1     139.085 -20.178  80.648  1.00  0.00     0.208 A 
ATOM      3  C   UNL     1     138.176 -21.192  80.308  1.00  0.00     0.235 A 
ATOM      4  O   UNL     1     138.383 -22.378  80.685  1.00  0.00    -0.285 OA
ATOM      5  C   UNL     1     137.035 -20.871  79.556  1.00  0.00     0.069 A 
ATOM      6  C   UNL     1     136.844 -19.527  79.169  1.00  0.00     0.142 A 
ATOM      7  O   UNL     1     137.734 -18.599  79.505  1.00  0.00    -0.452 OA
ATOM      8  C   UNL     1     135.715 -19.165  78.428  1.00  0.00     0.094 A 
ATOM      9  C   UNL     1     134.770 -20.134  78.063  1.00  0.00     0.119 A 
ATOM     10  C   UNL     1     134.957 -21.468  78.444  1.00  0.00     0.047 A 
ATOM     11  C   UNL     1     136.082 -21.838  79.187  1.00  0.00     0.020 A 
ENDROOT
BRANCH   1  12
ATOM     12  C   UNL     1     139.756 -17.743  80.506  1.00  0.00     0.025 A 
ATOM     13  C   UNL     1     139.329 -16.623  81.242  1.00  0.00     0.016 A 
ATOM     14  C   UNL     1     140.223 -15.589  81.536  1.00  0.00     0.051 A 
ATOM     15  C   UNL     1     141.555 -15.665  81.111  1.00  0.00     0.157 A 
ATOM     16  C   UNL     1     141.098 -17.823  80.100  1.00  0.00     0.062 A 
ATOM     17  C   UNL     1     141.994 -16.785  80.394  1.00  0.00     0.158 A 
BRANCH  15  18
ATOM     18  O   UNL     1     142.448 -14.635  81.399  1.00  0.00    -0.504 OA
ATOM     19  H   UNL     1     143.273 -14.475  80.834  1.00  0.00     0.293 HD
ENDBRANCH  15  18
BRANCH  17  20
ATOM     20  O   UNL     1     143.322 -16.862  79.978  1.00  0.00    -0.504 OA
ATOM     21  H   UNL     1     143.652 -17.620  79.392  1.00  0.00     0.293 HD
ENDBRANCH  17  20
ENDBRANCH   1  12
BRANCH   2  22
ATOM     22  O   UNL     1     140.203 -20.458  81.438  1.00  0.00    -0.502 OA
ATOM     23  H   UNL     1     140.571 -21.396  81.544  1.00  0.00     0.293 HD
ENDBRANCH   2  22
BRANCH   9  24
ATOM     24  O   UNL     1     133.642 -19.784  77.325  1.00  0.00    -0.508 OA
ATOM     25  H   UNL     1     132.802 -20.351  77.341  1.00  0.00     0.293 HD
ENDBRANCH   9  24
TORSDOF 5
ENDMDL
MODEL 8
REMARK VINA RESULT:    -7.743      2.312      4.249
REMARK INTER + INTRA:          -9.409
REMARK INTER:                  -9.439
REMARK INTRA:                   0.030
REMARK UNBOUND:                -0.308
REMARK SMILES O=c1c(O)c(-c2ccc(O)c(O)c2)oc2cc(O)ccc12
REMARK SMILES IDX 5 1 3 2 2 3 1 4 21 5 15 6 14 7 16 8 17 9 19 10 20 11 6 12
REMARK SMILES IDX 7 13 8 14 9 15 13 16 11 17 10 18 12 20 4 22 18 24
REMARK H PARENT 10 19 12 21 4 23 18 25
REMARK Flexibility Score: inf
ROOT
ATOM      1  C   UNL     1     136.064 -19.645  78.242  1.00  0.00     0.180 A 
ATOM      2  C   UNL     1     135.891 -20.439  79.395  1.00  0.00     0.208 A 
ATOM      3  C   UNL     1     136.945 -20.533  80.316  1.00  0.00     0.235 A 
ATOM      4  O   UNL     1     136.812 -21.230  81.360  1.00  0.00    -0.285 OA
ATOM      5  C   UNL     1     138.148 -19.855  80.061  1.00  0.00     0.069 A 
ATOM      6  C   UNL     1     138.250 -19.099  78.873  1.00  0.00     0.142 A 
ATOM      7  O   UNL     1     137.225 -19.030  78.031  1.00  0.00    -0.452 OA
ATOM      8  C   UNL     1     139.435 -18.417  78.578  1.00  0.00     0.094 A 
ATOM      9  C   UNL     1     140.523 -18.478  79.459  1.00  0.00     0.119 A 
ATOM     10  C   UNL     1     140.424 -19.226  80.638  1.00  0.00     0.047 A 
ATOM     11  C   UNL     1     139.244 -19.912  80.941  1.00  0.00     0.020 A 
ENDROOT
BRANCH   1  12
ATOM     12  C   UNL     1     134.993 -19.481  77.233  1.00  0.00     0.025 A 
ATOM     13  C   UNL     1     133.668 -19.198  77.610  1.00  0.00     0.016 A 
ATOM     14  C   UNL     1     132.679 -19.023  76.639  1.00  0.00     0.051 A 
ATOM     15  C   UNL     1     133.001 -19.114  75.279  1.00  0.00     0.157 A 
ATOM     16  C   UNL     1     135.314 -19.550  75.868  1.00  0.00     0.062 A 
ATOM     17  C   UNL     1     134.321 -19.375  74.892  1.00  0.00     0.158 A 
BRANCH  15  18
ATOM     18  O   UNL     1     132.017 -18.942  74.307  1.00  0.00    -0.504 OA
ATOM     19  H   UNL     1     131.877 -19.621  73.568  1.00  0.00     0.293 HD
ENDBRANCH  15  18
BRANCH  17  20
ATOM     20  O   UNL     1     134.641 -19.458  73.538  1.00  0.00    -0.504 OA
ATOM     21  H   UNL     1     135.223 -18.763  73.086  1.00  0.00     0.293 HD
ENDBRANCH  17  20
ENDBRANCH   1  12
BRANCH   2  22
ATOM     22  O   UNL     1     134.701 -21.143  79.598  1.00  0.00    -0.502 OA
ATOM     23  H   UNL     1     134.004 -21.250  78.872  1.00  0.00     0.293 HD
ENDBRANCH   2  22
BRANCH   9  24
ATOM     24  O   UNL     1     141.707 -17.802  79.173  1.00  0.00    -0.508 OA
ATOM     25  H   UNL     1     142.091 -17.780  78.236  1.00  0.00     0.293 HD
ENDBRANCH   9  24
TORSDOF 5
ENDMDL
MODEL 9
REMARK VINA RESULT:    -7.534      1.670      2.970
REMARK INTER + INTRA:          -9.163
REMARK INTER:                  -8.859
REMARK INTRA:                  -0.304
REMARK UNBOUND:                -0.308
REMARK SMILES O=c1c(O)c(-c2ccc(O)c(O)c2)oc2cc(O)ccc12
REMARK SMILES IDX 5 1 3 2 2 3 1 4 21 5 15 6 14 7 16 8 17 9 19 10 20 11 6 12
REMARK SMILES IDX 7 13 8 14 9 15 13 16 11 17 10 18 12 20 4 22 18 24
REMARK H PARENT 10 19 12 21 4 23 18 25
REMARK Flexibility Score: inf
ROOT
ATOM      1  C   UNL     1     138.913 -17.620  80.354  1.00  0.00     0.180 A 
ATOM      2  C   UNL     1     138.397 -16.445  80.941  1.00  0.00     0.208 A 
ATOM      3  C   UNL     1     139.287 -15.421  81.299  1.00  0.00     0.235 A 
ATOM      4  O   UNL     1     138.849 -14.357  81.817  1.00  0.00    -0.285 OA
ATOM      5  C   UNL     1     140.663 -15.596  81.086  1.00  0.00     0.069 A 
ATOM      6  C   UNL     1     141.103 -16.810  80.515  1.00  0.00     0.142 A 
ATOM      7  O   UNL     1     140.227 -17.752  80.182  1.00  0.00    -0.452 OA
ATOM      8  C   UNL     1     142.467 -17.027  80.296  1.00  0.00     0.094 A 
ATOM      9  C   UNL     1     143.403 -16.041  80.639  1.00  0.00     0.119 A 
ATOM     10  C   UNL     1     142.969 -14.836  81.203  1.00  0.00     0.047 A 
ATOM     11  C   UNL     1     141.608 -14.611  81.428  1.00  0.00     0.020 A 
ENDROOT
BRANCH   1  12
ATOM     12  C   UNL     1     138.039 -18.737  79.932  1.00  0.00     0.025 A 
ATOM     13  C   UNL     1     137.597 -19.708  80.848  1.00  0.00     0.016 A 
ATOM     14  C   UNL     1     136.752 -20.740  80.432  1.00  0.00     0.051 A 
ATOM     15  C   UNL     1     136.326 -20.810  79.100  1.00  0.00     0.157 A 
ATOM     16  C   UNL     1     137.591 -18.800  78.602  1.00  0.00     0.062 A 
ATOM     17  C   UNL     1     136.744 -19.837  78.183  1.00  0.00     0.158 A 
BRANCH  15  18
ATOM     18  O   UNL     1     135.485 -21.839  78.680  1.00  0.00    -0.504 OA
ATOM     19  H   UNL     1     135.632 -22.318  77.799  1.00  0.00     0.293 HD
ENDBRANCH  15  18
BRANCH  17  20
ATOM     20  O   UNL     1     136.313 -19.904  76.860  1.00  0.00    -0.504 OA
ATOM     21  H   UNL     1     135.617 -19.264  76.495  1.00  0.00     0.293 HD
ENDBRANCH  17  20
ENDBRANCH   1  12
BRANCH   2  22
ATOM     22  O   UNL     1     137.028 -16.320  81.187  1.00  0.00    -0.502 OA
ATOM     23  H   UNL     1     136.594 -15.429  81.397  1.00  0.00     0.293 HD
ENDBRANCH   2  22
BRANCH   9  24
ATOM     24  O   UNL     1     144.763 -16.247  80.424  1.00  0.00    -0.508 OA
ATOM     25  H   UNL     1     145.446 -15.527  80.626  1.00  0.00     0.293 HD
ENDBRANCH   9  24
TORSDOF 5
ENDMDL
