MODEL 1
REMARK VINA RESULT:    -4.486      0.000      0.000
REMARK INTER + INTRA:          -6.387
REMARK INTER:                  -5.535
REMARK INTRA:                  -0.852
REMARK UNBOUND:                -0.852
REMARK SMILES CC(C)=CCC[C@@H](C)c1ccc(C)cc1
REMARK SMILES IDX 6 1 7 2 8 3 9 4 13 5 12 6 11 7 14 8 10 9 15 10 5 11 4 12
REMARK SMILES IDX 2 13 1 14 3 15
REMARK H PARENT
REMARK Flexibility Score: inf
ROOT
ATOM      1  C   UNL     1     -12.355  -8.092 -26.382  1.00  0.00     0.012 C 
ENDROOT
BRANCH   1   2
ATOM      2  C   UNL     1     -12.425  -9.347 -27.281  1.00  0.00     0.016 C 
ATOM      3  C   UNL     1     -13.845  -9.608 -27.806  1.00  0.00     0.013 C 
BRANCH   2   4
ATOM      4  C   UNL     1     -11.450  -9.222 -28.439  1.00  0.00    -0.045 A 
ATOM      5  C   UNL     1      -8.703  -8.827 -31.749  1.00  0.00     0.044 C 
ATOM      6  C   UNL     1      -9.634  -8.973 -30.582  1.00  0.00    -0.051 A 
ATOM      7  C   UNL     1     -10.293 -10.189 -30.351  1.00  0.00     0.004 A 
ATOM      8  C   UNL     1      -9.905  -7.875 -29.752  1.00  0.00     0.004 A 
ATOM      9  C   UNL     1     -11.189 -10.316 -29.285  1.00  0.00     0.004 A 
ATOM     10  C   UNL     1     -10.801  -8.000 -28.686  1.00  0.00     0.004 A 
ENDBRANCH   2   4
ENDBRANCH   1   2
BRANCH   1  11
ATOM     11  C   UNL     1     -12.603  -8.411 -24.899  1.00  0.00     0.028 C 
BRANCH  11  12
ATOM     12  C   UNL     1     -11.634  -9.459 -24.412  1.00  0.00    -0.028 C 
ATOM     13  C   UNL     1     -11.992 -10.692 -23.986  1.00  0.00    -0.080 C 
ATOM     14  C   UNL     1     -13.426 -11.163 -24.012  1.00  0.00     0.039 C 
ATOM     15  C   UNL     1     -10.914 -11.621 -23.490  1.00  0.00     0.039 C 
ENDBRANCH  11  12
ENDBRANCH   1  11
TORSDOF 4
ENDMDL
MODEL 2
REMARK VINA RESULT:    -4.467      1.529      5.758
REMARK INTER + INTRA:          -6.363
REMARK INTER:                  -5.162
REMARK INTRA:                  -1.202
REMARK UNBOUND:                -0.852
REMARK SMILES CC(C)=CCC[C@@H](C)c1ccc(C)cc1
REMARK SMILES IDX 6 1 7 2 8 3 9 4 13 5 12 6 11 7 14 8 10 9 15 10 5 11 4 12
REMARK SMILES IDX 2 13 1 14 3 15
REMARK H PARENT
REMARK Flexibility Score: inf
ROOT
ATOM      1  C   UNL     1     -11.961  -8.325 -24.934  1.00  0.00     0.012 C 
ENDROOT
BRANCH   1   2
ATOM      2  C   UNL     1     -12.718  -9.004 -23.771  1.00  0.00     0.016 C 
ATOM      3  C   UNL     1     -14.230  -8.736 -23.825  1.00  0.00     0.013 C 
BRANCH   2   4
ATOM      4  C   UNL     1     -12.449 -10.499 -23.767  1.00  0.00    -0.045 A 
ATOM      5  C   UNL     1     -11.653 -14.745 -23.795  1.00  0.00     0.044 C 
ATOM      6  C   UNL     1     -11.930 -13.271 -23.755  1.00  0.00    -0.051 A 
ATOM      7  C   UNL     1     -13.250 -12.799 -23.768  1.00  0.00     0.004 A 
ATOM      8  C   UNL     1     -10.870 -12.352 -23.773  1.00  0.00     0.004 A 
ATOM      9  C   UNL     1     -13.509 -11.425 -23.767  1.00  0.00     0.004 A 
ATOM     10  C   UNL     1     -11.128 -10.978 -23.773  1.00  0.00     0.004 A 
ENDBRANCH   2   4
ENDBRANCH   1   2
BRANCH   1  11
ATOM     11  C   UNL     1     -12.821  -8.188 -26.201  1.00  0.00     0.028 C 
BRANCH  11  12
ATOM     12  C   UNL     1     -11.990  -8.429 -27.436  1.00  0.00    -0.028 C 
ATOM     13  C   UNL     1     -11.766  -9.646 -27.982  1.00  0.00    -0.080 C 
ATOM     14  C   UNL     1     -12.389 -10.902 -27.420  1.00  0.00     0.039 C 
ATOM     15  C   UNL     1     -10.881  -9.735 -29.198  1.00  0.00     0.039 C 
ENDBRANCH  11  12
ENDBRANCH   1  11
TORSDOF 4
ENDMDL
MODEL 3
REMARK VINA RESULT:    -4.313     20.682     22.408
REMARK INTER + INTRA:          -6.173
REMARK INTER:                  -4.790
REMARK INTRA:                  -1.383
REMARK UNBOUND:                -0.852
REMARK SMILES CC(C)=CCC[C@@H](C)c1ccc(C)cc1
REMARK SMILES IDX 6 1 7 2 8 3 9 4 13 5 12 6 11 7 14 8 10 9 15 10 5 11 4 12
REMARK SMILES IDX 2 13 1 14 3 15
REMARK H PARENT
REMARK Flexibility Score: inf
ROOT
ATOM      1  C   UNL     1     -27.179 -22.382 -40.620  1.00  0.00     0.012 C 
ENDROOT
BRANCH   1   2
ATOM      2  C   UNL     1     -26.110 -21.976 -41.659  1.00  0.00     0.016 C 
ATOM      3  C   UNL     1     -26.068 -20.457 -41.888  1.00  0.00     0.013 C 
BRANCH   2   4
ATOM      4  C   UNL     1     -24.742 -22.481 -41.234  1.00  0.00    -0.045 A 
ATOM      5  C   UNL     1     -20.829 -23.889 -40.064  1.00  0.00     0.044 C 
ATOM      6  C   UNL     1     -22.196 -23.400 -40.442  1.00  0.00    -0.051 A 
ATOM      7  C   UNL     1     -23.208 -24.315 -40.770  1.00  0.00     0.004 A 
ATOM      8  C   UNL     1     -22.455 -22.025 -40.536  1.00  0.00     0.004 A 
ATOM      9  C   UNL     1     -24.472 -23.860 -41.157  1.00  0.00     0.004 A 
ATOM     10  C   UNL     1     -23.718 -21.569 -40.923  1.00  0.00     0.004 A 
ENDBRANCH   2   4
ENDBRANCH   1   2
BRANCH   1  11
ATOM     11  C   UNL     1     -27.386 -21.314 -39.535  1.00  0.00     0.028 C 
BRANCH  11  12
ATOM     12  C   UNL     1     -26.491 -21.580 -38.350  1.00  0.00    -0.028 C 
ATOM     13  C   UNL     1     -25.581 -20.704 -37.868  1.00  0.00    -0.080 C 
ATOM     14  C   UNL     1     -25.412 -19.322 -38.452  1.00  0.00     0.039 C 
ATOM     15  C   UNL     1     -24.728 -21.126 -36.699  1.00  0.00     0.039 C 
ENDBRANCH  11  12
ENDBRANCH   1  11
TORSDOF 4
ENDMDL
MODEL 4
REMARK VINA RESULT:    -4.311     20.694     22.582
REMARK INTER + INTRA:          -6.171
REMARK INTER:                  -4.591
REMARK INTRA:                  -1.580
REMARK UNBOUND:                -0.852
REMARK SMILES CC(C)=CCC[C@@H](C)c1ccc(C)cc1
REMARK SMILES IDX 6 1 7 2 8 3 9 4 13 5 12 6 11 7 14 8 10 9 15 10 5 11 4 12
REMARK SMILES IDX 2 13 1 14 3 15
REMARK H PARENT
REMARK Flexibility Score: inf
ROOT
ATOM      1  C   UNL     1     -22.979 -23.405 -40.611  1.00  0.00     0.012 C 
ENDROOT
BRANCH   1   2
ATOM      2  C   UNL     1     -24.396 -23.738 -41.130  1.00  0.00     0.016 C 
ATOM      3  C   UNL     1     -25.050 -24.884 -40.342  1.00  0.00     0.013 C 
BRANCH   2   4
ATOM      4  C   UNL     1     -25.278 -22.502 -41.091  1.00  0.00    -0.045 A 
ATOM      5  C   UNL     1     -27.825 -19.015 -41.000  1.00  0.00     0.044 C 
ATOM      6  C   UNL     1     -26.928 -20.217 -41.006  1.00  0.00    -0.051 A 
ATOM      7  C   UNL     1     -25.674 -20.161 -41.631  1.00  0.00     0.004 A 
ATOM      8  C   UNL     1     -27.364 -21.427 -40.445  1.00  0.00     0.004 A 
ATOM      9  C   UNL     1     -24.852 -21.291 -41.668  1.00  0.00     0.004 A 
ATOM     10  C   UNL     1     -26.544 -22.558 -40.482  1.00  0.00     0.004 A 
ENDBRANCH   2   4
ENDBRANCH   1   2
BRANCH   1  11
ATOM     11  C   UNL     1     -22.940 -23.202 -39.088  1.00  0.00     0.028 C 
BRANCH  11  12
ATOM     12  C   UNL     1     -22.812 -21.737 -38.750  1.00  0.00    -0.028 C 
ATOM     13  C   UNL     1     -23.715 -21.038 -38.026  1.00  0.00    -0.080 C 
ATOM     14  C   UNL     1     -24.939 -21.689 -37.429  1.00  0.00     0.039 C 
ATOM     15  C   UNL     1     -23.471 -19.568 -37.802  1.00  0.00     0.039 C 
ENDBRANCH  11  12
ENDBRANCH   1  11
TORSDOF 4
ENDMDL
MODEL 5
REMARK VINA RESULT:    -4.310     21.192     23.108
REMARK INTER + INTRA:          -6.170
REMARK INTER:                  -5.570
REMARK INTRA:                  -0.600
REMARK UNBOUND:                -0.852
REMARK SMILES CC(C)=CCC[C@@H](C)c1ccc(C)cc1
REMARK SMILES IDX 6 1 7 2 8 3 9 4 13 5 12 6 11 7 14 8 10 9 15 10 5 11 4 12
REMARK SMILES IDX 2 13 1 14 3 15
REMARK H PARENT
REMARK Flexibility Score: inf
ROOT
ATOM      1  C   UNL     1     -25.404 -22.812 -40.022  1.00  0.00     0.012 C 
ENDROOT
BRANCH   1   2
ATOM      2  C   UNL     1     -26.594 -22.429 -40.930  1.00  0.00     0.016 C 
ATOM      3  C   UNL     1     -27.938 -22.908 -40.360  1.00  0.00     0.013 C 
BRANCH   2   4
ATOM      4  C   UNL     1     -26.624 -20.928 -41.157  1.00  0.00    -0.045 A 
ATOM      5  C   UNL     1     -26.758 -16.662 -41.822  1.00  0.00     0.044 C 
ATOM      6  C   UNL     1     -26.695 -18.139 -41.566  1.00  0.00    -0.051 A 
ATOM      7  C   UNL     1     -25.654 -18.906 -42.108  1.00  0.00     0.004 A 
ATOM      8  C   UNL     1     -27.714 -18.775 -40.841  1.00  0.00     0.004 A 
ATOM      9  C   UNL     1     -25.614 -20.288 -41.900  1.00  0.00     0.004 A 
ATOM     10  C   UNL     1     -27.675 -20.156 -40.633  1.00  0.00     0.004 A 
ENDBRANCH   2   4
ENDBRANCH   1   2
BRANCH   1  11
ATOM     11  C   UNL     1     -24.313 -23.593 -40.772  1.00  0.00     0.028 C 
BRANCH  11  12
ATOM     12  C   UNL     1     -22.968 -22.937 -40.587  1.00  0.00    -0.028 C 
ATOM     13  C   UNL     1     -21.786 -23.594 -40.619  1.00  0.00    -0.080 C 
ATOM     14  C   UNL     1     -21.701 -25.075 -40.904  1.00  0.00     0.039 C 
ATOM     15  C   UNL     1     -20.522 -22.810 -40.378  1.00  0.00     0.039 C 
ENDBRANCH  11  12
ENDBRANCH   1  11
TORSDOF 4
ENDMDL
MODEL 6
REMARK VINA RESULT:    -4.292      1.881      4.162
REMARK INTER + INTRA:          -6.148
REMARK INTER:                  -4.710
REMARK INTRA:                  -1.438
REMARK UNBOUND:                -0.852
REMARK SMILES CC(C)=CCC[C@@H](C)c1ccc(C)cc1
REMARK SMILES IDX 6 1 7 2 8 3 9 4 13 5 12 6 11 7 14 8 10 9 15 10 5 11 4 12
REMARK SMILES IDX 2 13 1 14 3 15
REMARK H PARENT
REMARK Flexibility Score: inf
ROOT
ATOM      1  C   UNL     1     -13.852  -8.639 -23.528  1.00  0.00     0.012 C 
ENDROOT
BRANCH   1   2
ATOM      2  C   UNL     1     -12.547  -9.372 -23.909  1.00  0.00     0.016 C 
ATOM      3  C   UNL     1     -12.569 -10.853 -23.498  1.00  0.00     0.013 C 
BRANCH   2   4
ATOM      4  C   UNL     1     -12.285  -9.244 -25.400  1.00  0.00    -0.045 A 
ATOM      5  C   UNL     1     -11.501  -8.915 -29.635  1.00  0.00     0.044 C 
ATOM      6  C   UNL     1     -11.803  -9.027 -28.170  1.00  0.00    -0.051 A 
ATOM      7  C   UNL     1     -11.830  -7.879 -27.365  1.00  0.00     0.004 A 
ATOM      8  C   UNL     1     -11.993 -10.286 -27.581  1.00  0.00     0.004 A 
ATOM      9  C   UNL     1     -12.075  -7.985 -25.992  1.00  0.00     0.004 A 
ATOM     10  C   UNL     1     -12.238 -10.393 -26.209  1.00  0.00     0.004 A 
ENDBRANCH   2   4
ENDBRANCH   1   2
BRANCH   1  11
ATOM     11  C   UNL     1     -15.111  -9.429 -23.920  1.00  0.00     0.028 C 
BRANCH  11  12
ATOM     12  C   UNL     1     -15.827  -8.754 -25.063  1.00  0.00    -0.028 C 
ATOM     13  C   UNL     1     -16.075  -9.334 -26.259  1.00  0.00    -0.080 C 
ATOM     14  C   UNL     1     -15.695 -10.767 -26.548  1.00  0.00     0.039 C 
ATOM     15  C   UNL     1     -16.767  -8.521 -27.322  1.00  0.00     0.039 C 
ENDBRANCH  11  12
ENDBRANCH   1  11
TORSDOF 4
ENDMDL
MODEL 7
REMARK VINA RESULT:    -4.269     20.482     22.361
REMARK INTER + INTRA:          -6.119
REMARK INTER:                  -4.533
REMARK INTRA:                  -1.586
REMARK UNBOUND:                -0.852
REMARK SMILES CC(C)=CCC[C@@H](C)c1ccc(C)cc1
REMARK SMILES IDX 6 1 7 2 8 3 9 4 13 5 12 6 11 7 14 8 10 9 15 10 5 11 4 12
REMARK SMILES IDX 2 13 1 14 3 15
REMARK H PARENT
REMARK Flexibility Score: inf
ROOT
ATOM      1  C   UNL     1     -25.086 -22.806 -41.110  1.00  0.00     0.012 C 
ENDROOT
BRANCH   1   2
ATOM      2  C   UNL     1     -26.476 -22.175 -41.346  1.00  0.00     0.016 C 
ATOM      3  C   UNL     1     -27.496 -22.598 -40.277  1.00  0.00     0.013 C 
BRANCH   2   4
ATOM      4  C   UNL     1     -26.367 -20.661 -41.399  1.00  0.00    -0.045 A 
ATOM      5  C   UNL     1     -26.009 -16.358 -41.528  1.00  0.00     0.044 C 
ATOM      6  C   UNL     1     -26.147 -17.852 -41.509  1.00  0.00    -0.051 A 
ATOM      7  C   UNL     1     -27.263 -18.450 -40.907  1.00  0.00     0.004 A 
ATOM      8  C   UNL     1     -25.130 -18.663 -42.034  1.00  0.00     0.004 A 
ATOM      9  C   UNL     1     -27.376 -19.843 -40.857  1.00  0.00     0.004 A 
ATOM     10  C   UNL     1     -25.242 -20.055 -41.984  1.00  0.00     0.004 A 
ENDBRANCH   2   4
ENDBRANCH   1   2
BRANCH   1  11
ATOM     11  C   UNL     1     -24.750 -22.958 -39.618  1.00  0.00     0.028 C 
BRANCH  11  12
ATOM     12  C   UNL     1     -23.782 -21.887 -39.180  1.00  0.00    -0.028 C 
ATOM     13  C   UNL     1     -24.105 -20.844 -38.383  1.00  0.00    -0.080 C 
ATOM     14  C   UNL     1     -25.489 -20.681 -37.800  1.00  0.00     0.039 C 
ATOM     15  C   UNL     1     -23.039 -19.829 -38.061  1.00  0.00     0.039 C 
ENDBRANCH  11  12
ENDBRANCH   1  11
TORSDOF 4
ENDMDL
MODEL 8
REMARK VINA RESULT:    -4.266      1.158      6.077
REMARK INTER + INTRA:          -6.116
REMARK INTER:                  -5.502
REMARK INTRA:                  -0.614
REMARK UNBOUND:                -0.852
REMARK SMILES CC(C)=CCC[C@@H](C)c1ccc(C)cc1
REMARK SMILES IDX 6 1 7 2 8 3 9 4 13 5 12 6 11 7 14 8 10 9 15 10 5 11 4 12
REMARK SMILES IDX 2 13 1 14 3 15
REMARK H PARENT
REMARK Flexibility Score: inf
ROOT
ATOM      1  C   UNL     1     -11.974  -7.875 -26.014  1.00  0.00     0.012 C 
ENDROOT
BRANCH   1   2
ATOM      2  C   UNL     1     -13.096  -8.219 -25.009  1.00  0.00     0.016 C 
ATOM      3  C   UNL     1     -14.493  -8.120 -25.641  1.00  0.00     0.013 C 
BRANCH   2   4
ATOM      4  C   UNL     1     -12.878  -9.604 -24.427  1.00  0.00    -0.045 A 
ATOM      5  C   UNL     1     -12.297 -13.536 -22.734  1.00  0.00     0.044 C 
ATOM      6  C   UNL     1     -12.494 -12.182 -23.349  1.00  0.00    -0.051 A 
ATOM      7  C   UNL     1     -11.405 -11.314 -23.513  1.00  0.00     0.004 A 
ATOM      8  C   UNL     1     -13.780 -11.747 -23.704  1.00  0.00     0.004 A 
ATOM      9  C   UNL     1     -11.593 -10.038 -24.053  1.00  0.00     0.004 A 
ATOM     10  C   UNL     1     -13.969 -10.472 -24.243  1.00  0.00     0.004 A 
ENDBRANCH   2   4
ENDBRANCH   1   2
BRANCH   1  11
ATOM     11  C   UNL     1     -12.201  -8.511 -27.395  1.00  0.00     0.028 C 
BRANCH  11  12
ATOM     12  C   UNL     1     -11.099  -8.119 -28.348  1.00  0.00    -0.028 C 
ATOM     13  C   UNL     1     -10.697  -8.866 -29.400  1.00  0.00    -0.080 C 
ATOM     14  C   UNL     1     -11.367 -10.171 -29.759  1.00  0.00     0.039 C 
ATOM     15  C   UNL     1      -9.554  -8.363 -30.244  1.00  0.00     0.039 C 
ENDBRANCH  11  12
ENDBRANCH   1  11
TORSDOF 4
ENDMDL
