MODEL 1
REMARK VINA RESULT:    -3.870      0.000      0.000
REMARK INTER + INTRA:          -9.256
REMARK INTER:                  -7.264
REMARK INTRA:                  -1.993
REMARK UNBOUND:                -1.993
REMARK SMILES CCCCCCCCC=CCCCCCCCC(=O)[O-]
REMARK SMILES IDX 10 1 9 2 11 3 12 4 13 5 14 6 15 7 16 8 17 9 18 10 19 11
REMARK SMILES IDX 20 12 8 13 7 14 6 15 5 16 4 17 3 18 2 19 1 20
REMARK H PARENT
REMARK Flexibility Score: inf
ROOT
ATOM      1  C   UNL     1      43.442  27.486   1.894  1.00  0.00    -0.031 C 
ATOM      2  C   UNL     1      44.223  26.498   2.375  1.00  0.00    -0.031 C 
ENDROOT
BRANCH   1   3
ATOM      3  C   UNL     1      43.132  28.783   2.603  1.00  0.00     0.027 C 
BRANCH   3   4
ATOM      4  C   UNL     1      43.744  29.988   1.875  1.00  0.00     0.004 C 
BRANCH   4   5
ATOM      5  C   UNL     1      45.277  30.009   1.967  1.00  0.00     0.000 C 
BRANCH   5   6
ATOM      6  C   UNL     1      45.912  30.093   0.572  1.00  0.00     0.000 C 
BRANCH   6   7
ATOM      7  C   UNL     1      46.229  28.709  -0.026  1.00  0.00     0.000 C 
BRANCH   7   8
ATOM      8  C   UNL     1      46.962  28.738  -1.379  1.00  0.00     0.006 C 
BRANCH   8   9
ATOM      9  C   UNL     1      46.007  28.658  -2.577  1.00  0.00     0.053 C 
BRANCH   9  10
ATOM     10  C   UNL     1      46.170  27.352  -3.289  1.00  0.00     0.041 C 
ATOM     11  O   UNL     1      47.123  26.583  -2.993  1.00  0.00    -0.550 OA
ATOM     12  O   UNL     1      45.298  27.006  -4.314  1.00  0.00    -0.550 OA
ENDBRANCH   9  10
ENDBRANCH   8   9
ENDBRANCH   7   8
ENDBRANCH   6   7
ENDBRANCH   5   6
ENDBRANCH   4   5
ENDBRANCH   3   4
ENDBRANCH   1   3
BRANCH   2  13
ATOM     13  C   UNL     1      44.975  26.530   3.684  1.00  0.00     0.027 C 
BRANCH  13  14
ATOM     14  C   UNL     1      46.489  26.653   3.466  1.00  0.00     0.004 C 
BRANCH  14  15
ATOM     15  C   UNL     1      47.125  27.721   4.365  1.00  0.00     0.000 C 
BRANCH  15  16
ATOM     16  C   UNL     1      46.091  28.318   5.328  1.00  0.00     0.000 C 
BRANCH  16  17
ATOM     17  C   UNL     1      46.497  28.077   6.790  1.00  0.00    -0.000 C 
BRANCH  17  18
ATOM     18  C   UNL     1      46.074  26.680   7.290  1.00  0.00    -0.000 C 
BRANCH  18  19
ATOM     19  C   UNL     1      45.742  26.638   8.790  1.00  0.00    -0.003 C 
ATOM     20  C   UNL     1      45.347  28.001   9.353  1.00  0.00     0.004 C 
ENDBRANCH  18  19
ENDBRANCH  17  18
ENDBRANCH  16  17
ENDBRANCH  15  16
ENDBRANCH  14  15
ENDBRANCH  13  14
ENDBRANCH   2  13
TORSDOF 15
ENDMDL
MODEL 2
REMARK VINA RESULT:    -3.761      4.335      9.007
REMARK INTER + INTRA:          -9.052
REMARK INTER:                  -7.981
REMARK INTRA:                  -1.071
REMARK UNBOUND:                -1.993
REMARK SMILES CCCCCCCCC=CCCCCCCCC(=O)[O-]
REMARK SMILES IDX 10 1 9 2 11 3 12 4 13 5 14 6 15 7 16 8 17 9 18 10 19 11
REMARK SMILES IDX 20 12 8 13 7 14 6 15 5 16 4 17 3 18 2 19 1 20
REMARK H PARENT
REMARK Flexibility Score: inf
ROOT
ATOM      1  C   UNL     1      43.423  28.548   2.251  1.00  0.00    -0.031 C 
ATOM      2  C   UNL     1      44.110  29.650   1.890  1.00  0.00    -0.031 C 
ENDROOT
BRANCH   1   3
ATOM      3  C   UNL     1      43.894  27.124   2.076  1.00  0.00     0.027 C 
BRANCH   3   4
ATOM      4  C   UNL     1      44.447  26.544   3.385  1.00  0.00     0.004 C 
BRANCH   4   5
ATOM      5  C   UNL     1      45.944  26.830   3.565  1.00  0.00     0.000 C 
BRANCH   5   6
ATOM      6  C   UNL     1      46.418  26.430   4.970  1.00  0.00     0.000 C 
BRANCH   6   7
ATOM      7  C   UNL     1      46.835  27.638   5.828  1.00  0.00     0.000 C 
BRANCH   7   8
ATOM      8  C   UNL     1      46.088  27.774   7.167  1.00  0.00     0.006 C 
BRANCH   8   9
ATOM      9  C   UNL     1      45.981  26.446   7.928  1.00  0.00     0.053 C 
BRANCH   9  10
ATOM     10  C   UNL     1      45.621  26.692   9.359  1.00  0.00     0.041 C 
ATOM     11  O   UNL     1      45.040  27.759   9.694  1.00  0.00    -0.550 OA
ATOM     12  O   UNL     1      45.972  25.765  10.333  1.00  0.00    -0.550 OA
ENDBRANCH   9  10
ENDBRANCH   8   9
ENDBRANCH   7   8
ENDBRANCH   6   7
ENDBRANCH   5   6
ENDBRANCH   4   5
ENDBRANCH   3   4
ENDBRANCH   1   3
BRANCH   2  13
ATOM     13  C   UNL     1      45.498  29.667   1.297  1.00  0.00     0.027 C 
BRANCH  13  14
ATOM     14  C   UNL     1      45.459  29.755  -0.234  1.00  0.00     0.004 C 
BRANCH  14  15
ATOM     15  C   UNL     1      46.030  28.500  -0.908  1.00  0.00     0.000 C 
BRANCH  15  16
ATOM     16  C   UNL     1      46.200  28.713  -2.417  1.00  0.00     0.000 C 
BRANCH  16  17
ATOM     17  C   UNL     1      46.451  27.379  -3.136  1.00  0.00    -0.000 C 
BRANCH  17  18
ATOM     18  C   UNL     1      45.230  26.924  -3.963  1.00  0.00    -0.000 C 
BRANCH  18  19
ATOM     19  C   UNL     1      44.836  27.913  -5.072  1.00  0.00    -0.003 C 
ATOM     20  C   UNL     1      43.397  27.732  -5.550  1.00  0.00     0.004 C 
ENDBRANCH  18  19
ENDBRANCH  17  18
ENDBRANCH  16  17
ENDBRANCH  15  16
ENDBRANCH  14  15
ENDBRANCH  13  14
ENDBRANCH   2  13
TORSDOF 15
ENDMDL
MODEL 3
REMARK VINA RESULT:    -3.743      1.540      2.313
REMARK INTER + INTRA:          -9.018
REMARK INTER:                  -7.908
REMARK INTRA:                  -1.109
REMARK UNBOUND:                -1.993
REMARK SMILES CCCCCCCCC=CCCCCCCCC(=O)[O-]
REMARK SMILES IDX 10 1 9 2 11 3 12 4 13 5 14 6 15 7 16 8 17 9 18 10 19 11
REMARK SMILES IDX 20 12 8 13 7 14 6 15 5 16 4 17 3 18 2 19 1 20
REMARK H PARENT
REMARK Flexibility Score: inf
ROOT
ATOM      1  C   UNL     1      43.964  27.447   1.681  1.00  0.00    -0.031 C 
ATOM      2  C   UNL     1      44.120  27.052   2.960  1.00  0.00    -0.031 C 
ENDROOT
BRANCH   1   3
ATOM      3  C   UNL     1      45.077  27.871   0.751  1.00  0.00     0.027 C 
BRANCH   3   4
ATOM      4  C   UNL     1      45.163  29.399   0.629  1.00  0.00     0.004 C 
BRANCH   4   5
ATOM      5  C   UNL     1      45.816  29.844  -0.687  1.00  0.00     0.000 C 
BRANCH   5   6
ATOM      6  C   UNL     1      46.519  28.668  -1.379  1.00  0.00     0.000 C 
BRANCH   6   7
ATOM      7  C   UNL     1      46.196  28.577  -2.882  1.00  0.00     0.000 C 
BRANCH   7   8
ATOM      8  C   UNL     1      45.628  27.223  -3.344  1.00  0.00     0.006 C 
BRANCH   8   9
ATOM      9  C   UNL     1      45.593  27.081  -4.872  1.00  0.00     0.053 C 
BRANCH   9  10
ATOM     10  C   UNL     1      44.401  27.789  -5.435  1.00  0.00     0.041 C 
ATOM     11  O   UNL     1      43.261  27.256  -5.378  1.00  0.00    -0.550 OA
ATOM     12  O   UNL     1      44.558  29.016  -6.067  1.00  0.00    -0.550 OA
ENDBRANCH   9  10
ENDBRANCH   8   9
ENDBRANCH   7   8
ENDBRANCH   6   7
ENDBRANCH   5   6
ENDBRANCH   4   5
ENDBRANCH   3   4
ENDBRANCH   1   3
BRANCH   2  13
ATOM     13  C   UNL     1      45.439  26.905   3.681  1.00  0.00     0.027 C 
BRANCH  13  14
ATOM     14  C   UNL     1      45.933  28.247   4.237  1.00  0.00     0.004 C 
BRANCH  14  15
ATOM     15  C   UNL     1      46.654  28.093   5.583  1.00  0.00     0.000 C 
BRANCH  15  16
ATOM     16  C   UNL     1      46.604  26.640   6.072  1.00  0.00     0.000 C 
BRANCH  16  17
ATOM     17  C   UNL     1      46.116  26.566   7.526  1.00  0.00    -0.000 C 
BRANCH  17  18
ATOM     18  C   UNL     1      45.674  27.943   8.065  1.00  0.00    -0.000 C 
BRANCH  18  19
ATOM     19  C   UNL     1      45.300  27.929   9.556  1.00  0.00    -0.003 C 
ATOM     20  C   UNL     1      45.961  26.790  10.328  1.00  0.00     0.004 C 
ENDBRANCH  18  19
ENDBRANCH  17  18
ENDBRANCH  16  17
ENDBRANCH  15  16
ENDBRANCH  14  15
ENDBRANCH  13  14
ENDBRANCH   2  13
TORSDOF 15
ENDMDL
MODEL 4
REMARK VINA RESULT:    -3.710      2.816      4.774
REMARK INTER + INTRA:          -8.955
REMARK INTER:                  -7.177
REMARK INTRA:                  -1.778
REMARK UNBOUND:                -1.993
REMARK SMILES CCCCCCCCC=CCCCCCCCC(=O)[O-]
REMARK SMILES IDX 10 1 9 2 11 3 12 4 13 5 14 6 15 7 16 8 17 9 18 10 19 11
REMARK SMILES IDX 20 12 8 13 7 14 6 15 5 16 4 17 3 18 2 19 1 20
REMARK H PARENT
REMARK Flexibility Score: inf
ROOT
ATOM      1  C   UNL     1      45.628  29.827   0.498  1.00  0.00    -0.031 C 
ATOM      2  C   UNL     1      46.069  30.119   1.738  1.00  0.00    -0.031 C 
ENDROOT
BRANCH   1   3
ATOM      3  C   UNL     1      45.855  28.523  -0.229  1.00  0.00     0.027 C 
BRANCH   3   4
ATOM      4  C   UNL     1      46.304  28.753  -1.679  1.00  0.00     0.004 C 
BRANCH   4   5
ATOM      5  C   UNL     1      45.866  30.123  -2.216  1.00  0.00     0.000 C 
BRANCH   5   6
ATOM      6  C   UNL     1      45.271  29.999  -3.626  1.00  0.00     0.000 C 
BRANCH   6   7
ATOM      7  C   UNL     1      45.131  28.537  -4.090  1.00  0.00     0.000 C 
BRANCH   7   8
ATOM      8  C   UNL     1      45.138  28.336  -5.616  1.00  0.00     0.006 C 
BRANCH   8   9
ATOM      9  C   UNL     1      43.898  27.588  -6.125  1.00  0.00     0.053 C 
BRANCH   9  10
ATOM     10  C   UNL     1      42.720  28.509  -6.183  1.00  0.00     0.041 C 
ATOM     11  O   UNL     1      42.685  29.443  -7.028  1.00  0.00    -0.550 OA
ATOM     12  O   UNL     1      41.682  28.367  -5.271  1.00  0.00    -0.550 OA
ENDBRANCH   9  10
ENDBRANCH   8   9
ENDBRANCH   7   8
ENDBRANCH   6   7
ENDBRANCH   5   6
ENDBRANCH   4   5
ENDBRANCH   3   4
ENDBRANCH   1   3
BRANCH   2  13
ATOM     13  C   UNL     1      46.820  29.178   2.649  1.00  0.00     0.027 C 
BRANCH  13  14
ATOM     14  C   UNL     1      45.878  28.464   3.628  1.00  0.00     0.004 C 
BRANCH  14  15
ATOM     15  C   UNL     1      45.830  26.949   3.394  1.00  0.00     0.000 C 
BRANCH  15  16
ATOM     16  C   UNL     1      44.384  26.460   3.238  1.00  0.00     0.000 C 
BRANCH  16  17
ATOM     17  C   UNL     1      43.676  27.193   2.089  1.00  0.00    -0.000 C 
BRANCH  17  18
ATOM     18  C   UNL     1      42.383  27.895   2.554  1.00  0.00    -0.000 C 
BRANCH  18  19
ATOM     19  C   UNL     1      42.481  29.429   2.554  1.00  0.00    -0.003 C 
ATOM     20  C   UNL     1      41.222  30.109   3.087  1.00  0.00     0.004 C 
ENDBRANCH  18  19
ENDBRANCH  17  18
ENDBRANCH  16  17
ENDBRANCH  15  16
ENDBRANCH  14  15
ENDBRANCH  13  14
ENDBRANCH   2  13
TORSDOF 15
ENDMDL
MODEL 5
REMARK VINA RESULT:    -3.539      2.386      4.086
REMARK INTER + INTRA:          -8.635
REMARK INTER:                  -7.743
REMARK INTRA:                  -0.892
REMARK UNBOUND:                -1.993
REMARK SMILES CCCCCCCCC=CCCCCCCCC(=O)[O-]
REMARK SMILES IDX 10 1 9 2 11 3 12 4 13 5 14 6 15 7 16 8 17 9 18 10 19 11
REMARK SMILES IDX 20 12 8 13 7 14 6 15 5 16 4 17 3 18 2 19 1 20
REMARK H PARENT
REMARK Flexibility Score: inf
ROOT
ATOM      1  C   UNL     1      46.737  28.568  -0.260  1.00  0.00    -0.031 C 
ATOM      2  C   UNL     1      46.416  28.250   1.010  1.00  0.00    -0.031 C 
ENDROOT
BRANCH   1   3
ATOM      3  C   UNL     1      45.981  29.533  -1.141  1.00  0.00     0.027 C 
BRANCH   3   4
ATOM      4  C   UNL     1      45.979  29.079  -2.608  1.00  0.00     0.004 C 
BRANCH   4   5
ATOM      5  C   UNL     1      46.025  27.550  -2.745  1.00  0.00     0.000 C 
BRANCH   5   6
ATOM      6  C   UNL     1      45.538  27.107  -4.132  1.00  0.00     0.000 C 
BRANCH   6   7
ATOM      7  C   UNL     1      45.534  28.253  -5.161  1.00  0.00     0.000 C 
BRANCH   7   8
ATOM      8  C   UNL     1      44.399  28.192  -6.198  1.00  0.00     0.006 C 
BRANCH   8   9
ATOM      9  C   UNL     1      43.045  27.819  -5.580  1.00  0.00     0.053 C 
BRANCH   9  10
ATOM     10  C   UNL     1      42.127  29.001  -5.582  1.00  0.00     0.041 C 
ATOM     11  O   UNL     1      41.253  29.125  -6.481  1.00  0.00    -0.550 OA
ATOM     12  O   UNL     1      42.268  29.992  -4.618  1.00  0.00    -0.550 OA
ENDBRANCH   9  10
ENDBRANCH   8   9
ENDBRANCH   7   8
ENDBRANCH   6   7
ENDBRANCH   5   6
ENDBRANCH   4   5
ENDBRANCH   3   4
ENDBRANCH   1   3
BRANCH   2  13
ATOM     13  C   UNL     1      45.275  28.842   1.803  1.00  0.00     0.027 C 
BRANCH  13  14
ATOM     14  C   UNL     1      44.419  27.754   2.464  1.00  0.00     0.004 C 
BRANCH  14  15
ATOM     15  C   UNL     1      45.244  26.829   3.369  1.00  0.00     0.000 C 
BRANCH  15  16
ATOM     16  C   UNL     1      45.981  27.629   4.451  1.00  0.00     0.000 C 
BRANCH  16  17
ATOM     17  C   UNL     1      46.361  26.730   5.636  1.00  0.00    -0.000 C 
BRANCH  17  18
ATOM     18  C   UNL     1      46.003  27.372   6.993  1.00  0.00    -0.000 C 
BRANCH  18  19
ATOM     19  C   UNL     1      46.160  26.416   8.187  1.00  0.00    -0.003 C 
ATOM     20  C   UNL     1      45.375  26.862   9.418  1.00  0.00     0.004 C 
ENDBRANCH  18  19
ENDBRANCH  17  18
ENDBRANCH  16  17
ENDBRANCH  15  16
ENDBRANCH  14  15
ENDBRANCH  13  14
ENDBRANCH   2  13
TORSDOF 15
ENDMDL
MODEL 6
REMARK VINA RESULT:    -3.492      4.412      9.382
REMARK INTER + INTRA:          -8.546
REMARK INTER:                  -7.678
REMARK INTRA:                  -0.868
REMARK UNBOUND:                -1.993
REMARK SMILES CCCCCCCCC=CCCCCCCCC(=O)[O-]
REMARK SMILES IDX 10 1 9 2 11 3 12 4 13 5 14 6 15 7 16 8 17 9 18 10 19 11
REMARK SMILES IDX 20 12 8 13 7 14 6 15 5 16 4 17 3 18 2 19 1 20
REMARK H PARENT
REMARK Flexibility Score: inf
ROOT
ATOM      1  C   UNL     1      46.046  27.920   1.076  1.00  0.00    -0.031 C 
ATOM      2  C   UNL     1      46.654  28.652   0.121  1.00  0.00    -0.031 C 
ENDROOT
BRANCH   1   3
ATOM      3  C   UNL     1      44.553  27.791   1.266  1.00  0.00     0.027 C 
BRANCH   3   4
ATOM      4  C   UNL     1      44.207  27.146   2.615  1.00  0.00     0.004 C 
BRANCH   4   5
ATOM      5  C   UNL     1      45.271  27.426   3.686  1.00  0.00     0.000 C 
BRANCH   5   6
ATOM      6  C   UNL     1      45.784  26.120   4.309  1.00  0.00     0.000 C 
BRANCH   6   7
ATOM      7  C   UNL     1      46.852  26.353   5.394  1.00  0.00     0.000 C 
BRANCH   7   8
ATOM      8  C   UNL     1      46.409  27.258   6.558  1.00  0.00     0.006 C 
BRANCH   8   9
ATOM      9  C   UNL     1      46.057  26.470   7.827  1.00  0.00     0.053 C 
BRANCH   9  10
ATOM     10  C   UNL     1      45.578  27.395   8.900  1.00  0.00     0.041 C 
ATOM     11  O   UNL     1      45.544  27.013  10.100  1.00  0.00    -0.550 OA
ATOM     12  O   UNL     1      45.121  28.665   8.569  1.00  0.00    -0.550 OA
ENDBRANCH   9  10
ENDBRANCH   8   9
ENDBRANCH   7   8
ENDBRANCH   6   7
ENDBRANCH   5   6
ENDBRANCH   4   5
ENDBRANCH   3   4
ENDBRANCH   1   3
BRANCH   2  13
ATOM     13  C   UNL     1      45.956  29.432  -0.967  1.00  0.00     0.027 C 
BRANCH  13  14
ATOM     14  C   UNL     1      46.323  28.912  -2.363  1.00  0.00     0.004 C 
BRANCH  14  15
ATOM     15  C   UNL     1      45.931  27.442  -2.561  1.00  0.00     0.000 C 
BRANCH  15  16
ATOM     16  C   UNL     1      45.586  27.156  -4.028  1.00  0.00     0.000 C 
BRANCH  16  17
ATOM     17  C   UNL     1      45.511  28.458  -4.840  1.00  0.00    -0.000 C 
BRANCH  17  18
ATOM     18  C   UNL     1      44.071  29.007  -4.930  1.00  0.00    -0.000 C 
BRANCH  18  19
ATOM     19  C   UNL     1      43.147  28.166  -5.825  1.00  0.00    -0.003 C 
ATOM     20  C   UNL     1      41.807  28.842  -6.103  1.00  0.00     0.004 C 
ENDBRANCH  18  19
ENDBRANCH  17  18
ENDBRANCH  16  17
ENDBRANCH  15  16
ENDBRANCH  14  15
ENDBRANCH  13  14
ENDBRANCH   2  13
TORSDOF 15
ENDMDL
MODEL 7
REMARK VINA RESULT:    -3.155      2.915      8.489
REMARK INTER + INTRA:          -7.914
REMARK INTER:                  -6.597
REMARK INTRA:                  -1.317
REMARK UNBOUND:                -1.993
REMARK SMILES CCCCCCCCC=CCCCCCCCC(=O)[O-]
REMARK SMILES IDX 10 1 9 2 11 3 12 4 13 5 14 6 15 7 16 8 17 9 18 10 19 11
REMARK SMILES IDX 20 12 8 13 7 14 6 15 5 16 4 17 3 18 2 19 1 20
REMARK H PARENT
REMARK Flexibility Score: inf
ROOT
ATOM      1  C   UNL     1      45.810  28.351   0.126  1.00  0.00    -0.031 C 
ATOM      2  C   UNL     1      46.465  28.331  -1.052  1.00  0.00    -0.031 C 
ENDROOT
BRANCH   1   3
ATOM      3  C   UNL     1      45.200  29.573   0.771  1.00  0.00     0.027 C 
BRANCH   3   4
ATOM      4  C   UNL     1      44.284  29.197   1.944  1.00  0.00     0.004 C 
BRANCH   4   5
ATOM      5  C   UNL     1      44.684  29.904   3.247  1.00  0.00     0.000 C 
BRANCH   5   6
ATOM      6  C   UNL     1      46.210  30.044   3.352  1.00  0.00     0.000 C 
BRANCH   6   7
ATOM      7  C   UNL     1      46.884  28.808   3.974  1.00  0.00     0.000 C 
BRANCH   7   8
ATOM      8  C   UNL     1      46.028  28.051   5.006  1.00  0.00     0.006 C 
BRANCH   8   9
ATOM      9  C   UNL     1      46.472  26.594   5.195  1.00  0.00     0.053 C 
BRANCH   9  10
ATOM     10  C   UNL     1      46.174  25.794   3.967  1.00  0.00     0.041 C 
ATOM     11  O   UNL     1      47.102  25.200   3.356  1.00  0.00    -0.550 OA
ATOM     12  O   UNL     1      44.879  25.744   3.468  1.00  0.00    -0.550 OA
ENDBRANCH   9  10
ENDBRANCH   8   9
ENDBRANCH   7   8
ENDBRANCH   6   7
ENDBRANCH   5   6
ENDBRANCH   4   5
ENDBRANCH   3   4
ENDBRANCH   1   3
BRANCH   2  13
ATOM     13  C   UNL     1      46.660  29.514  -1.970  1.00  0.00     0.027 C 
BRANCH  13  14
ATOM     14  C   UNL     1      46.419  29.138  -3.438  1.00  0.00     0.004 C 
BRANCH  14  15
ATOM     15  C   UNL     1      45.532  27.895  -3.586  1.00  0.00     0.000 C 
BRANCH  15  16
ATOM     16  C   UNL     1      45.788  27.191  -4.924  1.00  0.00     0.000 C 
BRANCH  16  17
ATOM     17  C   UNL     1      46.042  28.211  -6.043  1.00  0.00    -0.000 C 
BRANCH  17  18
ATOM     18  C   UNL     1      44.732  28.819  -6.587  1.00  0.00    -0.000 C 
BRANCH  18  19
ATOM     19  C   UNL     1      43.542  27.846  -6.556  1.00  0.00    -0.003 C 
ATOM     20  C   UNL     1      42.400  28.325  -5.663  1.00  0.00     0.004 C 
ENDBRANCH  18  19
ENDBRANCH  17  18
ENDBRANCH  16  17
ENDBRANCH  15  16
ENDBRANCH  14  15
ENDBRANCH  13  14
ENDBRANCH   2  13
TORSDOF 15
ENDMDL
MODEL 8
REMARK VINA RESULT:    -2.981      2.235      4.570
REMARK INTER + INTRA:          -7.587
REMARK INTER:                  -6.280
REMARK INTRA:                  -1.307
REMARK UNBOUND:                -1.993
REMARK SMILES CCCCCCCCC=CCCCCCCCC(=O)[O-]
REMARK SMILES IDX 10 1 9 2 11 3 12 4 13 5 14 6 15 7 16 8 17 9 18 10 19 11
REMARK SMILES IDX 20 12 8 13 7 14 6 15 5 16 4 17 3 18 2 19 1 20
REMARK H PARENT
REMARK Flexibility Score: inf
ROOT
ATOM      1  C   UNL     1      47.094  28.130   0.937  1.00  0.00    -0.031 C 
ATOM      2  C   UNL     1      47.077  28.883   2.055  1.00  0.00    -0.031 C 
ENDROOT
BRANCH   1   3
ATOM      3  C   UNL     1      46.240  28.358  -0.288  1.00  0.00     0.027 C 
BRANCH   3   4
ATOM      4  C   UNL     1      47.064  28.259  -1.580  1.00  0.00     0.004 C 
BRANCH   4   5
ATOM      5  C   UNL     1      46.198  28.409  -2.838  1.00  0.00     0.000 C 
BRANCH   5   6
ATOM      6  C   UNL     1      46.643  27.429  -3.934  1.00  0.00     0.000 C 
BRANCH   6   7
ATOM      7  C   UNL     1      45.468  26.900  -4.778  1.00  0.00     0.000 C 
BRANCH   7   8
ATOM      8  C   UNL     1      45.079  27.784  -5.977  1.00  0.00     0.006 C 
BRANCH   8   9
ATOM      9  C   UNL     1      43.597  27.661  -6.353  1.00  0.00     0.053 C 
BRANCH   9  10
ATOM     10  C   UNL     1      42.797  28.731  -5.679  1.00  0.00     0.041 C 
ATOM     11  O   UNL     1      43.364  29.573  -4.934  1.00  0.00    -0.550 OA
ATOM     12  O   UNL     1      41.417  28.769  -5.836  1.00  0.00    -0.550 OA
ENDBRANCH   9  10
ENDBRANCH   8   9
ENDBRANCH   7   8
ENDBRANCH   6   7
ENDBRANCH   5   6
ENDBRANCH   4   5
ENDBRANCH   3   4
ENDBRANCH   1   3
BRANCH   2  13
ATOM     13  C   UNL     1      46.244  30.124   2.266  1.00  0.00     0.027 C 
BRANCH  13  14
ATOM     14  C   UNL     1      44.753  29.855   2.024  1.00  0.00     0.004 C 
BRANCH  14  15
ATOM     15  C   UNL     1      44.123  29.010   3.139  1.00  0.00     0.000 C 
BRANCH  15  16
ATOM     16  C   UNL     1      43.323  27.838   2.557  1.00  0.00     0.000 C 
BRANCH  16  17
ATOM     17  C   UNL     1      44.229  26.621   2.314  1.00  0.00    -0.000 C 
BRANCH  17  18
ATOM     18  C   UNL     1      44.703  25.975   3.633  1.00  0.00    -0.000 C 
BRANCH  18  19
ATOM     19  C   UNL     1      46.233  25.906   3.768  1.00  0.00    -0.003 C 
ATOM     20  C   UNL     1      46.743  26.478   5.089  1.00  0.00     0.004 C 
ENDBRANCH  18  19
ENDBRANCH  17  18
ENDBRANCH  16  17
ENDBRANCH  15  16
ENDBRANCH  14  15
ENDBRANCH  13  14
ENDBRANCH   2  13
TORSDOF 15
ENDMDL
