MODEL 1
REMARK VINA RESULT:    -5.842      0.000      0.000
REMARK INTER + INTRA:          -5.842
REMARK INTER:                  -5.842
REMARK INTRA:                   0.000
REMARK UNBOUND:                 0.000
REMARK SMILES Cc1cc2cc3c(C)cc(=O)oc3c(C)c2o1
REMARK SMILES IDX 8 1 7 2 9 3 10 4 11 5 12 6 13 7 6 8 5 9 4 10 3 11 2 12 17 13
REMARK SMILES IDX 16 14 14 15 15 16 1 17
REMARK H PARENT
REMARK Flexibility Score: inf
ROOT
ATOM      1  C   UNL     1       8.987   7.044  22.997  1.00  0.00     0.045 C 
ATOM      2  C   UNL     1       9.674   5.720  22.780  1.00  0.00    -0.033 A 
ATOM      3  C   UNL     1      10.875   5.453  23.449  1.00  0.00     0.098 A 
ATOM      4  C   UNL     1      11.518   4.231  23.252  1.00  0.00     0.336 A 
ATOM      5  O   UNL     1      12.598   3.987  23.850  1.00  0.00    -0.246 OA
ATOM      6  O   UNL     1      11.000   3.320  22.438  1.00  0.00    -0.422 OA
ATOM      7  C   UNL     1       9.863   3.506  21.773  1.00  0.00     0.145 A 
ATOM      8  C   UNL     1       9.143   4.735  21.917  1.00  0.00     0.022 A 
ATOM      9  C   UNL     1       7.939   4.928  21.197  1.00  0.00     0.024 A 
ATOM     10  C   UNL     1       7.502   3.903  20.366  1.00  0.00     0.022 A 
ATOM     11  C   UNL     1       6.394   3.824  19.553  1.00  0.00     0.054 A 
ATOM     12  C   UNL     1       6.493   2.569  18.965  1.00  0.00     0.102 A 
ATOM     13  O   UNL     1       7.574   1.938  19.383  1.00  0.00    -0.461 OA
ATOM     14  C   UNL     1       8.190   2.729  20.229  1.00  0.00     0.140 A 
ATOM     15  C   UNL     1       9.377   2.482  20.925  1.00  0.00     0.036 A 
ATOM     16  C   UNL     1      10.134   1.198  20.739  1.00  0.00     0.052 C 
ATOM     17  C   UNL     1       5.529   2.003  17.977  1.00  0.00     0.087 C 
ENDROOT
TORSDOF 0
ENDMDL
MODEL 2
REMARK VINA RESULT:    -5.619     15.484     16.859
REMARK INTER + INTRA:          -5.619
REMARK INTER:                  -5.619
REMARK INTRA:                   0.000
REMARK UNBOUND:                 0.000
REMARK SMILES Cc1cc2cc3c(C)cc(=O)oc3c(C)c2o1
REMARK SMILES IDX 8 1 7 2 9 3 10 4 11 5 12 6 13 7 6 8 5 9 4 10 3 11 2 12 17 13
REMARK SMILES IDX 16 14 14 15 15 16 1 17
REMARK H PARENT
REMARK Flexibility Score: inf
ROOT
ATOM      1  C   UNL     1       9.870   8.078   4.655  1.00  0.00     0.045 C 
ATOM      2  C   UNL     1      11.229   7.479   4.913  1.00  0.00    -0.033 A 
ATOM      3  C   UNL     1      11.583   6.284   4.276  1.00  0.00     0.098 A 
ATOM      4  C   UNL     1      12.839   5.722   4.510  1.00  0.00     0.336 A 
ATOM      5  O   UNL     1      13.161   4.647   3.941  1.00  0.00    -0.246 OA
ATOM      6  O   UNL     1      13.700   6.313   5.329  1.00  0.00    -0.422 OA
ATOM      7  C   UNL     1      13.430   7.450   5.965  1.00  0.00     0.145 A 
ATOM      8  C   UNL     1      12.162   8.089   5.782  1.00  0.00     0.022 A 
ATOM      9  C   UNL     1      11.880   9.294   6.470  1.00  0.00     0.024 A 
ATOM     10  C   UNL     1      12.860   9.811   7.311  1.00  0.00     0.022 A 
ATOM     11  C   UNL     1      12.853  10.939   8.099  1.00  0.00     0.054 A 
ATOM     12  C   UNL     1      14.101  10.931   8.713  1.00  0.00     0.102 A 
ATOM     13  O   UNL     1      14.805   9.882   8.332  1.00  0.00    -0.461 OA
ATOM     14  C   UNL     1      14.071   9.201   7.485  1.00  0.00     0.140 A 
ATOM     15  C   UNL     1      14.405   8.017   6.820  1.00  0.00     0.036 A 
ATOM     16  C   UNL     1      15.729   7.346   7.047  1.00  0.00     0.052 C 
ATOM     17  C   UNL     1      14.585  11.949   9.689  1.00  0.00     0.087 C 
ENDROOT
TORSDOF 0
ENDMDL
MODEL 3
REMARK VINA RESULT:    -5.361     15.118     16.730
REMARK INTER + INTRA:          -5.361
REMARK INTER:                  -5.361
REMARK INTRA:                   0.000
REMARK UNBOUND:                 0.000
REMARK SMILES Cc1cc2cc3c(C)cc(=O)oc3c(C)c2o1
REMARK SMILES IDX 8 1 7 2 9 3 10 4 11 5 12 6 13 7 6 8 5 9 4 10 3 11 2 12 17 13
REMARK SMILES IDX 16 14 14 15 15 16 1 17
REMARK H PARENT
REMARK Flexibility Score: inf
ROOT
ATOM      1  C   UNL     1      13.760   5.446   5.621  1.00  0.00     0.045 C 
ATOM      2  C   UNL     1      12.731   6.546   5.572  1.00  0.00    -0.033 A 
ATOM      3  C   UNL     1      11.631   6.418   4.715  1.00  0.00     0.098 A 
ATOM      4  C   UNL     1      10.675   7.432   4.663  1.00  0.00     0.336 A 
ATOM      5  O   UNL     1       9.685   7.323   3.893  1.00  0.00    -0.246 OA
ATOM      6  O   UNL     1      10.797   8.515   5.421  1.00  0.00    -0.422 OA
ATOM      7  C   UNL     1      11.814   8.701   6.258  1.00  0.00     0.145 A 
ATOM      8  C   UNL     1      12.841   7.709   6.368  1.00  0.00     0.022 A 
ATOM      9  C   UNL     1      13.925   7.919   7.255  1.00  0.00     0.024 A 
ATOM     10  C   UNL     1      13.949   9.100   7.990  1.00  0.00     0.022 A 
ATOM     11  C   UNL     1      14.870   9.565   8.900  1.00  0.00     0.054 A 
ATOM     12  C   UNL     1      14.365  10.798   9.294  1.00  0.00     0.102 A 
ATOM     13  O   UNL     1      13.231  11.063   8.671  1.00  0.00    -0.461 OA
ATOM     14  C   UNL     1      12.968  10.046   7.884  1.00  0.00     0.140 A 
ATOM     15  C   UNL     1      11.871   9.883   7.034  1.00  0.00     0.036 A 
ATOM     16  C   UNL     1      10.819  10.948   6.910  1.00  0.00     0.052 C 
ATOM     17  C   UNL     1      15.012  11.721  10.270  1.00  0.00     0.087 C 
ENDROOT
TORSDOF 0
ENDMDL
MODEL 4
REMARK VINA RESULT:    -5.204      2.026      2.630
REMARK INTER + INTRA:          -5.204
REMARK INTER:                  -5.204
REMARK INTRA:                   0.000
REMARK UNBOUND:                 0.000
REMARK SMILES Cc1cc2cc3c(C)cc(=O)oc3c(C)c2o1
REMARK SMILES IDX 8 1 7 2 9 3 10 4 11 5 12 6 13 7 6 8 5 9 4 10 3 11 2 12 17 13
REMARK SMILES IDX 16 14 14 15 15 16 1 17
REMARK H PARENT
REMARK Flexibility Score: inf
ROOT
ATOM      1  C   UNL     1       5.397   4.794  23.897  1.00  0.00     0.045 C 
ATOM      2  C   UNL     1       6.684   5.004  23.142  1.00  0.00    -0.033 A 
ATOM      3  C   UNL     1       7.650   5.874  23.664  1.00  0.00     0.098 A 
ATOM      4  C   UNL     1       8.844   6.075  22.970  1.00  0.00     0.336 A 
ATOM      5  O   UNL     1       9.714   6.857  23.434  1.00  0.00    -0.246 OA
ATOM      6  O   UNL     1       9.072   5.449  21.823  1.00  0.00    -0.422 OA
ATOM      7  C   UNL     1       8.200   4.609  21.271  1.00  0.00     0.145 A 
ATOM      8  C   UNL     1       6.949   4.350  21.918  1.00  0.00     0.022 A 
ATOM      9  C   UNL     1       6.022   3.462  21.318  1.00  0.00     0.024 A 
ATOM     10  C   UNL     1       6.371   2.873  20.108  1.00  0.00     0.022 A 
ATOM     11  C   UNL     1       5.672   1.997  19.308  1.00  0.00     0.054 A 
ATOM     12  C   UNL     1       6.521   1.769  18.232  1.00  0.00     0.102 A 
ATOM     13  O   UNL     1       7.642   2.453  18.364  1.00  0.00    -0.461 OA
ATOM     14  C   UNL     1       7.566   3.121  19.491  1.00  0.00     0.140 A 
ATOM     15  C   UNL     1       8.520   3.979  20.045  1.00  0.00     0.036 A 
ATOM     16  C   UNL     1       9.815   4.261  19.338  1.00  0.00     0.052 C 
ATOM     17  C   UNL     1       6.216   0.891  17.066  1.00  0.00     0.087 C 
ENDROOT
TORSDOF 0
ENDMDL
MODEL 5
REMARK VINA RESULT:    -5.089      1.977      3.077
REMARK INTER + INTRA:          -5.089
REMARK INTER:                  -5.089
REMARK INTRA:                   0.000
REMARK UNBOUND:                 0.000
REMARK SMILES Cc1cc2cc3c(C)cc(=O)oc3c(C)c2o1
REMARK SMILES IDX 8 1 7 2 9 3 10 4 11 5 12 6 13 7 6 8 5 9 4 10 3 11 2 12 17 13
REMARK SMILES IDX 16 14 14 15 15 16 1 17
REMARK H PARENT
REMARK Flexibility Score: inf
ROOT
ATOM      1  C   UNL     1      11.510   4.105  22.348  1.00  0.00     0.045 C 
ATOM      2  C   UNL     1      10.202   4.847  22.262  1.00  0.00    -0.033 A 
ATOM      3  C   UNL     1       9.992   5.963  23.081  1.00  0.00     0.098 A 
ATOM      4  C   UNL     1       8.783   6.655  23.008  1.00  0.00     0.336 A 
ATOM      5  O   UNL     1       8.589   7.659  23.743  1.00  0.00    -0.246 OA
ATOM      6  O   UNL     1       7.831   6.266  22.169  1.00  0.00    -0.422 OA
ATOM      7  C   UNL     1       7.963   5.216  21.362  1.00  0.00     0.145 A 
ATOM      8  C   UNL     1       9.173   4.450  21.377  1.00  0.00     0.022 A 
ATOM      9  C   UNL     1       9.302   3.329  20.521  1.00  0.00     0.024 A 
ATOM     10  C   UNL     1       8.231   3.012  19.693  1.00  0.00     0.022 A 
ATOM     11  C   UNL     1       8.077   1.989  18.786  1.00  0.00     0.054 A 
ATOM     12  C   UNL     1       6.800   2.182  18.270  1.00  0.00     0.102 A 
ATOM     13  O   UNL     1       6.224   3.233  18.821  1.00  0.00    -0.461 OA
ATOM     14  C   UNL     1       7.076   3.745  19.679  1.00  0.00     0.140 A 
ATOM     15  C   UNL     1       6.902   4.867  20.493  1.00  0.00     0.036 A 
ATOM     16  C   UNL     1       5.615   5.642  20.485  1.00  0.00     0.052 C 
ATOM     17  C   UNL     1       6.146   1.315  17.249  1.00  0.00     0.087 C 
ENDROOT
TORSDOF 0
ENDMDL
MODEL 6
REMARK VINA RESULT:    -5.033      6.521      7.501
REMARK INTER + INTRA:          -5.033
REMARK INTER:                  -5.033
REMARK INTRA:                   0.000
REMARK UNBOUND:                 0.000
REMARK SMILES Cc1cc2cc3c(C)cc(=O)oc3c(C)c2o1
REMARK SMILES IDX 8 1 7 2 9 3 10 4 11 5 12 6 13 7 6 8 5 9 4 10 3 11 2 12 17 13
REMARK SMILES IDX 16 14 14 15 15 16 1 17
REMARK H PARENT
REMARK Flexibility Score: inf
ROOT
ATOM      1  C   UNL     1       4.875  12.120  20.196  1.00  0.00     0.045 C 
ATOM      2  C   UNL     1       6.122  11.277  20.258  1.00  0.00    -0.033 A 
ATOM      3  C   UNL     1       6.744  11.062  21.495  1.00  0.00     0.098 A 
ATOM      4  C   UNL     1       7.900  10.284  21.560  1.00  0.00     0.336 A 
ATOM      5  O   UNL     1       8.463  10.089  22.669  1.00  0.00    -0.246 OA
ATOM      6  O   UNL     1       8.413   9.744  20.462  1.00  0.00    -0.422 OA
ATOM      7  C   UNL     1       7.875   9.905  19.256  1.00  0.00     0.145 A 
ATOM      8  C   UNL     1       6.689  10.693  19.102  1.00  0.00     0.022 A 
ATOM      9  C   UNL     1       6.127  10.867  17.814  1.00  0.00     0.024 A 
ATOM     10  C   UNL     1       6.763  10.260  16.736  1.00  0.00     0.022 A 
ATOM     11  C   UNL     1       6.452  10.271  15.396  1.00  0.00     0.054 A 
ATOM     12  C   UNL     1       7.448   9.499  14.810  1.00  0.00     0.102 A 
ATOM     13  O   UNL     1       8.297   9.059  15.719  1.00  0.00    -0.461 OA
ATOM     14  C   UNL     1       7.895   9.508  16.884  1.00  0.00     0.140 A 
ATOM     15  C   UNL     1       8.483   9.294  18.134  1.00  0.00     0.036 A 
ATOM     16  C   UNL     1       9.743   8.489  18.273  1.00  0.00     0.052 C 
ATOM     17  C   UNL     1       7.570   9.215  13.351  1.00  0.00     0.087 C 
ENDROOT
TORSDOF 0
ENDMDL
MODEL 7
REMARK VINA RESULT:    -4.934     15.248     16.654
REMARK INTER + INTRA:          -4.934
REMARK INTER:                  -4.934
REMARK INTRA:                   0.000
REMARK UNBOUND:                 0.000
REMARK SMILES Cc1cc2cc3c(C)cc(=O)oc3c(C)c2o1
REMARK SMILES IDX 8 1 7 2 9 3 10 4 11 5 12 6 13 7 6 8 5 9 4 10 3 11 2 12 17 13
REMARK SMILES IDX 16 14 14 15 15 16 1 17
REMARK H PARENT
REMARK Flexibility Score: inf
ROOT
ATOM      1  C   UNL     1      10.009  11.937   5.143  1.00  0.00     0.045 C 
ATOM      2  C   UNL     1      10.528  10.543   5.383  1.00  0.00    -0.033 A 
ATOM      3  C   UNL     1       9.987   9.476   4.655  1.00  0.00     0.098 A 
ATOM      4  C   UNL     1      10.460   8.181   4.872  1.00  0.00     0.336 A 
ATOM      5  O   UNL     1       9.977   7.219   4.221  1.00  0.00    -0.246 OA
ATOM      6  O   UNL     1      11.419   7.954   5.761  1.00  0.00    -0.422 OA
ATOM      7  C   UNL     1      11.978   8.919   6.486  1.00  0.00     0.145 A 
ATOM      8  C   UNL     1      11.546  10.275   6.326  1.00  0.00     0.022 A 
ATOM      9  C   UNL     1      12.140  11.295   7.108  1.00  0.00     0.024 A 
ATOM     10  C   UNL     1      13.129  10.931   8.015  1.00  0.00     0.022 A 
ATOM     11  C   UNL     1      13.856  11.698   8.898  1.00  0.00     0.054 A 
ATOM     12  C   UNL     1      14.682  10.784   9.541  1.00  0.00     0.102 A 
ATOM     13  O   UNL     1      14.472   9.561   9.089  1.00  0.00    -0.461 OA
ATOM     14  C   UNL     1      13.541   9.636   8.168  1.00  0.00     0.140 A 
ATOM     15  C   UNL     1      12.997   8.594   7.413  1.00  0.00     0.036 A 
ATOM     16  C   UNL     1      13.442   7.173   7.615  1.00  0.00     0.052 C 
ATOM     17  C   UNL     1      15.663  11.117  10.614  1.00  0.00     0.087 C 
ENDROOT
TORSDOF 0
ENDMDL
MODEL 8
REMARK VINA RESULT:    -4.808      6.039      6.893
REMARK INTER + INTRA:          -4.808
REMARK INTER:                  -4.808
REMARK INTRA:                   0.000
REMARK UNBOUND:                 0.000
REMARK SMILES Cc1cc2cc3c(C)cc(=O)oc3c(C)c2o1
REMARK SMILES IDX 8 1 7 2 9 3 10 4 11 5 12 6 13 7 6 8 5 9 4 10 3 11 2 12 17 13
REMARK SMILES IDX 16 14 14 15 15 16 1 17
REMARK H PARENT
REMARK Flexibility Score: inf
ROOT
ATOM      1  C   UNL     1       9.005  10.982  21.990  1.00  0.00     0.045 C 
ATOM      2  C   UNL     1       7.866  10.050  21.669  1.00  0.00    -0.033 A 
ATOM      3  C   UNL     1       7.137   9.473  22.715  1.00  0.00     0.098 A 
ATOM      4  C   UNL     1       6.081   8.607  22.426  1.00  0.00     0.336 A 
ATOM      5  O   UNL     1       5.423   8.084  23.363  1.00  0.00    -0.246 OA
ATOM      6  O   UNL     1       5.762   8.329  21.168  1.00  0.00    -0.422 OA
ATOM      7  C   UNL     1       6.410   8.843  20.126  1.00  0.00     0.145 A 
ATOM      8  C   UNL     1       7.508   9.737  20.337  1.00  0.00     0.022 A 
ATOM      9  C   UNL     1       8.199  10.273  19.223  1.00  0.00     0.024 A 
ATOM     10  C   UNL     1       7.778   9.898  17.951  1.00  0.00     0.022 A 
ATOM     11  C   UNL     1       8.264  10.247  16.712  1.00  0.00     0.054 A 
ATOM     12  C   UNL     1       7.448   9.559  15.821  1.00  0.00     0.102 A 
ATOM     13  O   UNL     1       6.543   8.848  16.466  1.00  0.00    -0.461 OA
ATOM     14  C   UNL     1       6.729   9.045  17.750  1.00  0.00     0.140 A 
ATOM     15  C   UNL     1       6.006   8.498  18.814  1.00  0.00     0.036 A 
ATOM     16  C   UNL     1       4.875   7.539  18.574  1.00  0.00     0.052 C 
ATOM     17  C   UNL     1       7.577   9.592  14.336  1.00  0.00     0.087 C 
ENDROOT
TORSDOF 0
ENDMDL
