MODEL 1
REMARK VINA RESULT:    -7.536      0.000      0.000
REMARK INTER + INTRA:         -12.901
REMARK INTER:                 -11.281
REMARK INTRA:                  -1.620
REMARK UNBOUND:                -1.620
REMARK SMILES C=C(CC[C@H](C(=O)[O-])[C@H]1[C@H](O)C[C@@]2(C)C3=C(CC[C@@]12C)[C@]1(C)CC[C@@H](OC(C)=O)C(C)(C)[C@@H]1CC3)C(C)C
REMARK SMILES IDX 4 1 5 2 6 3 7 4 8 5 9 6 10 7 19 8 12 9 13 10 18 11 20 12
REMARK SMILES IDX 14 13 15 14 17 15 16 16 35 17 21 18 34 19 33 20 23 21 22 22
REMARK SMILES IDX 30 23 24 24 25 25 31 26 32 27 11 28 26 30 27 31 29 32 28 33
REMARK SMILES IDX 3 34 2 35 1 36 36 37 37 38 38 39
REMARK H PARENT 11 29
REMARK Flexibility Score: inf
ROOT
ATOM      1  C   UNL     1      14.265 -32.766  21.009  1.00  0.00     0.014 C 
ENDROOT
BRANCH   1   2
ATOM      2  C   UNL     1      15.808 -32.876  20.985  1.00  0.00     0.042 C 
BRANCH   2   3
ATOM      3  C   UNL     1      16.205 -34.134  20.245  1.00  0.00     0.045 C 
ATOM      4  O   UNL     1      15.497 -35.171  20.334  1.00  0.00    -0.550 OA
ATOM      5  O   UNL     1      17.353 -34.153  19.460  1.00  0.00    -0.550 OA
ENDBRANCH   2   3
BRANCH   2   6
ATOM      6  C   UNL     1      16.438 -32.890  22.423  1.00  0.00     0.033 C 
ATOM      7  C   UNL     1      17.070 -34.266  22.755  1.00  0.00     0.119 C 
ATOM      8  C   UNL     1      17.558 -31.841  22.768  1.00  0.00    -0.017 C 
ATOM      9  C   UNL     1      18.321 -34.017  23.602  1.00  0.00     0.043 C 
ATOM     10  C   UNL     1      18.348 -32.516  23.952  1.00  0.00    -0.003 C 
ATOM     11  C   UNL     1      18.520 -31.643  21.570  1.00  0.00     0.012 C 
ATOM     12  C   UNL     1      16.957 -30.460  23.185  1.00  0.00     0.013 C 
ATOM     13  C   UNL     1      17.598 -32.306  25.308  1.00  0.00     0.017 C 
ATOM     14  C   UNL     1      19.831 -32.073  24.089  1.00  0.00    -0.064 C 
ATOM     15  C   UNL     1      19.703 -30.771  21.959  1.00  0.00     0.032 C 
ATOM     16  C   UNL     1      20.484 -31.334  23.136  1.00  0.00    -0.064 C 
ATOM     17  C   UNL     1      20.635 -32.620  25.249  1.00  0.00     0.032 C 
ATOM     18  C   UNL     1      22.026 -31.068  23.190  1.00  0.00    -0.008 C 
ATOM     19  C   UNL     1      21.608 -31.563  25.715  1.00  0.00     0.009 C 
ATOM     20  C   UNL     1      22.684 -31.288  24.636  1.00  0.00     0.009 C 
ATOM     21  C   UNL     1      22.687 -31.973  22.109  1.00  0.00     0.015 C 
ATOM     22  C   UNL     1      22.289 -29.590  22.789  1.00  0.00     0.016 C 
ATOM     23  C   UNL     1      23.964 -32.242  24.671  1.00  0.00     0.005 C 
ATOM     24  C   UNL     1      22.853 -33.408  22.582  1.00  0.00     0.047 C 
ATOM     25  C   UNL     1      23.766 -33.553  23.816  1.00  0.00     0.182 C 
ATOM     26  C   UNL     1      25.206 -31.430  24.186  1.00  0.00     0.015 C 
ATOM     27  C   UNL     1      24.321 -32.668  26.122  1.00  0.00     0.015 C 
BRANCH   7  28
ATOM     28  O   UNL     1      16.161 -35.113  23.416  1.00  0.00    -0.393 OA
ATOM     29  H   UNL     1      16.445 -36.051  23.254  1.00  0.00     0.210 HD
ENDBRANCH   7  28
BRANCH  25  30
ATOM     30  O   UNL     1      25.027 -34.081  23.386  1.00  0.00    -0.462 OA
BRANCH  30  31
ATOM     31  C   UNL     1      25.176 -35.230  22.601  1.00  0.00     0.302 C 
ATOM     32  O   UNL     1      24.688 -36.333  22.964  1.00  0.00    -0.253 OA
ATOM     33  C   UNL     1      25.876 -35.133  21.287  1.00  0.00     0.139 C 
ENDBRANCH  30  31
ENDBRANCH  25  30
ENDBRANCH   2   6
ENDBRANCH   1   2
BRANCH   1  34
ATOM     34  C   UNL     1      13.753 -31.332  20.794  1.00  0.00     0.031 C 
BRANCH  34  35
ATOM     35  C   UNL     1      12.870 -30.912  21.948  1.00  0.00    -0.075 C 
ATOM     36  C   UNL     1      11.537 -30.873  21.779  1.00  0.00     0.008 C 
BRANCH  35  37
ATOM     37  C   UNL     1      13.503 -30.611  23.300  1.00  0.00     0.008 C 
ATOM     38  C   UNL     1      12.798 -29.441  23.997  1.00  0.00     0.012 C 
ATOM     39  C   UNL     1      13.524 -31.857  24.195  1.00  0.00     0.012 C 
ENDBRANCH  35  37
ENDBRANCH  34  35
ENDBRANCH   1  34
TORSDOF 9
ENDMDL
MODEL 2
REMARK VINA RESULT:    -7.403      2.360      3.497
REMARK INTER + INTRA:         -12.702
REMARK INTER:                 -10.447
REMARK INTRA:                  -2.255
REMARK UNBOUND:                -1.620
REMARK SMILES C=C(CC[C@H](C(=O)[O-])[C@H]1[C@H](O)C[C@@]2(C)C3=C(CC[C@@]12C)[C@]1(C)CC[C@@H](OC(C)=O)C(C)(C)[C@@H]1CC3)C(C)C
REMARK SMILES IDX 4 1 5 2 6 3 7 4 8 5 9 6 10 7 19 8 12 9 13 10 18 11 20 12
REMARK SMILES IDX 14 13 15 14 17 15 16 16 35 17 21 18 34 19 33 20 23 21 22 22
REMARK SMILES IDX 30 23 24 24 25 25 31 26 32 27 11 28 26 30 27 31 29 32 28 33
REMARK SMILES IDX 3 34 2 35 1 36 36 37 37 38 38 39
REMARK H PARENT 11 29
REMARK Flexibility Score: inf
ROOT
ATOM      1  C   UNL     1      15.424 -34.643  21.650  1.00  0.00     0.014 C 
ENDROOT
BRANCH   1   2
ATOM      2  C   UNL     1      16.925 -34.845  21.335  1.00  0.00     0.042 C 
BRANCH   2   3
ATOM      3  C   UNL     1      17.071 -35.361  19.921  1.00  0.00     0.045 C 
ATOM      4  O   UNL     1      16.347 -36.308  19.514  1.00  0.00    -0.550 OA
ATOM      5  O   UNL     1      18.003 -34.792  19.059  1.00  0.00    -0.550 OA
ENDBRANCH   2   3
BRANCH   2   6
ATOM      6  C   UNL     1      17.627 -35.835  22.332  1.00  0.00     0.033 C 
ATOM      7  C   UNL     1      18.615 -36.778  21.597  1.00  0.00     0.119 C 
ATOM      8  C   UNL     1      18.456 -35.240  23.529  1.00  0.00    -0.017 C 
ATOM      9  C   UNL     1      19.809 -37.021  22.524  1.00  0.00     0.043 C 
ATOM     10  C   UNL     1      19.468 -36.393  23.889  1.00  0.00    -0.003 C 
ATOM     11  C   UNL     1      19.255 -33.990  23.083  1.00  0.00     0.012 C 
ATOM     12  C   UNL     1      17.545 -34.868  24.742  1.00  0.00     0.013 C 
ATOM     13  C   UNL     1      18.776 -37.477  24.780  1.00  0.00     0.017 C 
ATOM     14  C   UNL     1      20.790 -35.921  24.555  1.00  0.00    -0.064 C 
ATOM     15  C   UNL     1      20.194 -33.522  24.184  1.00  0.00     0.032 C 
ATOM     16  C   UNL     1      21.167 -34.605  24.623  1.00  0.00    -0.064 C 
ATOM     17  C   UNL     1      21.781 -36.976  24.999  1.00  0.00     0.032 C 
ATOM     18  C   UNL     1      22.588 -34.162  25.112  1.00  0.00    -0.008 C 
ATOM     19  C   UNL     1      22.474 -36.501  26.255  1.00  0.00     0.009 C 
ATOM     20  C   UNL     1      23.371 -35.275  25.961  1.00  0.00     0.009 C 
ATOM     21  C   UNL     1      23.391 -33.724  23.852  1.00  0.00     0.015 C 
ATOM     22  C   UNL     1      22.432 -32.915  26.026  1.00  0.00     0.016 C 
ATOM     23  C   UNL     1      24.854 -35.599  25.467  1.00  0.00     0.005 C 
ATOM     24  C   UNL     1      23.954 -34.909  23.085  1.00  0.00     0.047 C 
ATOM     25  C   UNL     1      24.949 -35.759  23.900  1.00  0.00     0.182 C 
ATOM     26  C   UNL     1      25.809 -34.477  25.982  1.00  0.00     0.015 C 
ATOM     27  C   UNL     1      25.401 -36.902  26.114  1.00  0.00     0.015 C 
BRANCH   7  28
ATOM     28  O   UNL     1      18.001 -37.987  21.221  1.00  0.00    -0.393 OA
ATOM     29  H   UNL     1      18.718 -38.652  21.049  1.00  0.00     0.210 HD
ENDBRANCH   7  28
BRANCH  25  30
ATOM     30  O   UNL     1      26.274 -35.473  23.434  1.00  0.00    -0.462 OA
BRANCH  30  31
ATOM     31  C   UNL     1      26.944 -36.215  22.455  1.00  0.00     0.302 C 
ATOM     32  O   UNL     1      27.828 -35.686  21.731  1.00  0.00    -0.253 OA
ATOM     33  C   UNL     1      26.645 -37.669  22.306  1.00  0.00     0.139 C 
ENDBRANCH  30  31
ENDBRANCH  25  30
ENDBRANCH   2   6
ENDBRANCH   1   2
BRANCH   1  34
ATOM     34  C   UNL     1      14.959 -33.186  21.490  1.00  0.00     0.031 C 
BRANCH  34  35
ATOM     35  C   UNL     1      15.214 -32.411  22.764  1.00  0.00    -0.075 C 
ATOM     36  C   UNL     1      14.626 -32.807  23.907  1.00  0.00     0.008 C 
BRANCH  35  37
ATOM     37  C   UNL     1      16.190 -31.243  22.742  1.00  0.00     0.008 C 
ATOM     38  C   UNL     1      17.080 -31.237  23.992  1.00  0.00     0.012 C 
ATOM     39  C   UNL     1      17.034 -31.244  21.461  1.00  0.00     0.012 C 
ENDBRANCH  35  37
ENDBRANCH  34  35
ENDBRANCH   1  34
TORSDOF 9
ENDMDL
MODEL 3
REMARK VINA RESULT:    -7.402      2.101      3.241
REMARK INTER + INTRA:         -12.700
REMARK INTER:                 -10.698
REMARK INTRA:                  -2.003
REMARK UNBOUND:                -1.620
REMARK SMILES C=C(CC[C@H](C(=O)[O-])[C@H]1[C@H](O)C[C@@]2(C)C3=C(CC[C@@]12C)[C@]1(C)CC[C@@H](OC(C)=O)C(C)(C)[C@@H]1CC3)C(C)C
REMARK SMILES IDX 4 1 5 2 6 3 7 4 8 5 9 6 10 7 19 8 12 9 13 10 18 11 20 12
REMARK SMILES IDX 14 13 15 14 17 15 16 16 35 17 21 18 34 19 33 20 23 21 22 22
REMARK SMILES IDX 30 23 24 24 25 25 31 26 32 27 11 28 26 30 27 31 29 32 28 33
REMARK SMILES IDX 3 34 2 35 1 36 36 37 37 38 38 39
REMARK H PARENT 11 29
REMARK Flexibility Score: inf
ROOT
ATOM      1  C   UNL     1      15.079 -33.933  21.506  1.00  0.00     0.014 C 
ENDROOT
BRANCH   1   2
ATOM      2  C   UNL     1      16.624 -33.862  21.540  1.00  0.00     0.042 C 
BRANCH   2   3
ATOM      3  C   UNL     1      17.154 -33.886  20.124  1.00  0.00     0.045 C 
ATOM      4  O   UNL     1      18.192 -33.240  19.825  1.00  0.00    -0.550 OA
ATOM      5  O   UNL     1      16.500 -34.624  19.143  1.00  0.00    -0.550 OA
ENDBRANCH   2   3
BRANCH   2   6
ATOM      6  C   UNL     1      17.266 -35.035  22.363  1.00  0.00     0.033 C 
ATOM      7  C   UNL     1      18.102 -35.976  21.457  1.00  0.00     0.119 C 
ATOM      8  C   UNL     1      18.221 -34.683  23.563  1.00  0.00    -0.017 C 
ATOM      9  C   UNL     1      19.312 -36.454  22.264  1.00  0.00     0.043 C 
ATOM     10  C   UNL     1      19.118 -35.969  23.714  1.00  0.00    -0.003 C 
ATOM     11  C   UNL     1      19.128 -33.476  23.213  1.00  0.00     0.012 C 
ATOM     12  C   UNL     1      17.426 -34.373  24.871  1.00  0.00     0.013 C 
ATOM     13  C   UNL     1      18.362 -37.079  24.516  1.00  0.00     0.017 C 
ATOM     14  C   UNL     1      20.520 -35.723  24.338  1.00  0.00    -0.064 C 
ATOM     15  C   UNL     1      20.173 -33.247  24.294  1.00  0.00     0.032 C 
ATOM     16  C   UNL     1      21.043 -34.471  24.535  1.00  0.00    -0.064 C 
ATOM     17  C   UNL     1      21.411 -36.921  24.587  1.00  0.00     0.032 C 
ATOM     18  C   UNL     1      22.529 -34.241  24.974  1.00  0.00    -0.008 C 
ATOM     19  C   UNL     1      22.221 -36.680  25.839  1.00  0.00     0.009 C 
ATOM     20  C   UNL     1      23.230 -35.525  25.631  1.00  0.00     0.009 C 
ATOM     21  C   UNL     1      23.304 -33.734  23.722  1.00  0.00     0.015 C 
ATOM     22  C   UNL     1      22.562 -33.108  26.037  1.00  0.00     0.016 C 
ATOM     23  C   UNL     1      24.638 -35.936  25.001  1.00  0.00     0.005 C 
ATOM     24  C   UNL     1      23.689 -34.867  22.785  1.00  0.00     0.047 C 
ATOM     25  C   UNL     1      24.628 -35.909  23.424  1.00  0.00     0.182 C 
ATOM     26  C   UNL     1      25.739 -34.991  25.579  1.00  0.00     0.015 C 
ATOM     27  C   UNL     1      25.073 -37.359  25.451  1.00  0.00     0.015 C 
BRANCH   7  28
ATOM     28  O   UNL     1      17.338 -37.059  20.983  1.00  0.00    -0.393 OA
ATOM     29  H   UNL     1      17.918 -37.604  20.390  1.00  0.00     0.210 HD
ENDBRANCH   7  28
BRANCH  25  30
ATOM     30  O   UNL     1      25.948 -35.705  22.905  1.00  0.00    -0.462 OA
BRANCH  30  31
ATOM     31  C   UNL     1      26.519 -36.464  21.877  1.00  0.00     0.302 C 
ATOM     32  O   UNL     1      26.904 -37.647  22.078  1.00  0.00    -0.253 OA
ATOM     33  C   UNL     1      26.621 -35.881  20.508  1.00  0.00     0.139 C 
ENDBRANCH  30  31
ENDBRANCH  25  30
ENDBRANCH   2   6
ENDBRANCH   1   2
BRANCH   1  34
ATOM     34  C   UNL     1      14.404 -32.554  21.605  1.00  0.00     0.031 C 
BRANCH  34  35
ATOM     35  C   UNL     1      14.588 -31.979  22.992  1.00  0.00    -0.075 C 
ATOM     36  C   UNL     1      14.194 -32.694  24.061  1.00  0.00     0.008 C 
BRANCH  35  37
ATOM     37  C   UNL     1      15.282 -30.634  23.155  1.00  0.00     0.008 C 
ATOM     38  C   UNL     1      16.733 -30.809  23.623  1.00  0.00     0.012 C 
ATOM     39  C   UNL     1      15.214 -29.811  21.862  1.00  0.00     0.012 C 
ENDBRANCH  35  37
ENDBRANCH  34  35
ENDBRANCH   1  34
TORSDOF 9
ENDMDL
MODEL 4
REMARK VINA RESULT:    -7.396      2.650      9.256
REMARK INTER + INTRA:         -12.691
REMARK INTER:                 -10.593
REMARK INTRA:                  -2.098
REMARK UNBOUND:                -1.620
REMARK SMILES C=C(CC[C@H](C(=O)[O-])[C@H]1[C@H](O)C[C@@]2(C)C3=C(CC[C@@]12C)[C@]1(C)CC[C@@H](OC(C)=O)C(C)(C)[C@@H]1CC3)C(C)C
REMARK SMILES IDX 4 1 5 2 6 3 7 4 8 5 9 6 10 7 19 8 12 9 13 10 18 11 20 12
REMARK SMILES IDX 14 13 15 14 17 15 16 16 35 17 21 18 34 19 33 20 23 21 22 22
REMARK SMILES IDX 30 23 24 24 25 25 31 26 32 27 11 28 26 30 27 31 29 32 28 33
REMARK SMILES IDX 3 34 2 35 1 36 36 37 37 38 38 39
REMARK H PARENT 11 29
REMARK Flexibility Score: inf
ROOT
ATOM      1  C   UNL     1      25.018 -31.028  24.110  1.00  0.00     0.014 C 
ENDROOT
BRANCH   1   2
ATOM      2  C   UNL     1      23.611 -30.612  23.621  1.00  0.00     0.042 C 
BRANCH   2   3
ATOM      3  C   UNL     1      23.449 -29.117  23.784  1.00  0.00     0.045 C 
ATOM      4  O   UNL     1      24.001 -28.522  24.746  1.00  0.00    -0.550 OA
ATOM      5  O   UNL     1      22.692 -28.390  22.872  1.00  0.00    -0.550 OA
ENDBRANCH   2   3
BRANCH   2   6
ATOM      6  C   UNL     1      22.458 -31.354  24.387  1.00  0.00     0.033 C 
ATOM      7  C   UNL     1      21.628 -30.373  25.255  1.00  0.00     0.119 C 
ATOM      8  C   UNL     1      21.389 -32.154  23.554  1.00  0.00    -0.017 C 
ATOM      9  C   UNL     1      20.170 -30.837  25.225  1.00  0.00     0.043 C 
ATOM     10  C   UNL     1      20.135 -32.200  24.507  1.00  0.00    -0.003 C 
ATOM     11  C   UNL     1      21.011 -31.391  22.261  1.00  0.00     0.012 C 
ATOM     12  C   UNL     1      21.890 -33.586  23.185  1.00  0.00     0.013 C 
ATOM     13  C   UNL     1      20.293 -33.332  25.574  1.00  0.00     0.017 C 
ATOM     14  C   UNL     1      18.766 -32.337  23.784  1.00  0.00    -0.064 C 
ATOM     15  C   UNL     1      19.851 -32.069  21.547  1.00  0.00     0.032 C 
ATOM     16  C   UNL     1      18.618 -32.199  22.428  1.00  0.00    -0.064 C 
ATOM     17  C   UNL     1      17.520 -32.464  24.634  1.00  0.00     0.032 C 
ATOM     18  C   UNL     1      17.213 -32.138  21.738  1.00  0.00    -0.008 C 
ATOM     19  C   UNL     1      16.538 -33.373  23.932  1.00  0.00     0.009 C 
ATOM     20  C   UNL     1      16.014 -32.720  22.630  1.00  0.00     0.009 C 
ATOM     21  C   UNL     1      16.966 -30.656  21.331  1.00  0.00     0.015 C 
ATOM     22  C   UNL     1      17.263 -32.981  20.434  1.00  0.00     0.016 C 
ATOM     23  C   UNL     1      14.750 -31.758  22.794  1.00  0.00     0.005 C 
ATOM     24  C   UNL     1      16.500 -29.806  22.501  1.00  0.00     0.047 C 
ATOM     25  C   UNL     1      15.159 -30.267  23.108  1.00  0.00     0.182 C 
ATOM     26  C   UNL     1      13.883 -31.848  21.498  1.00  0.00     0.015 C 
ATOM     27  C   UNL     1      13.805 -32.243  23.928  1.00  0.00     0.015 C 
BRANCH   7  28
ATOM     28  O   UNL     1      22.118 -30.299  26.573  1.00  0.00    -0.393 OA
ATOM     29  H   UNL     1      21.834 -29.428  26.955  1.00  0.00     0.210 HD
ENDBRANCH   7  28
BRANCH  25  30
ATOM     30  O   UNL     1      14.137 -29.355  22.690  1.00  0.00    -0.462 OA
BRANCH  30  31
ATOM     31  C   UNL     1      13.379 -28.565  23.562  1.00  0.00     0.302 C 
ATOM     32  O   UNL     1      13.851 -27.507  24.057  1.00  0.00    -0.253 OA
ATOM     33  C   UNL     1      11.971 -28.954  23.865  1.00  0.00     0.139 C 
ENDBRANCH  30  31
ENDBRANCH  25  30
ENDBRANCH   2   6
ENDBRANCH   1   2
BRANCH   1  34
ATOM     34  C   UNL     1      25.004 -32.266  25.023  1.00  0.00     0.031 C 
BRANCH  34  35
ATOM     35  C   UNL     1      25.417 -33.495  24.245  1.00  0.00    -0.075 C 
ATOM     36  C   UNL     1      25.108 -34.714  24.723  1.00  0.00     0.008 C 
BRANCH  35  37
ATOM     37  C   UNL     1      26.110 -33.328  22.900  1.00  0.00     0.008 C 
ATOM     38  C   UNL     1      27.488 -34.001  22.896  1.00  0.00     0.012 C 
ATOM     39  C   UNL     1      25.236 -33.851  21.753  1.00  0.00     0.012 C 
ENDBRANCH  35  37
ENDBRANCH  34  35
ENDBRANCH   1  34
TORSDOF 9
ENDMDL
MODEL 5
REMARK VINA RESULT:    -7.228      1.857      2.535
REMARK INTER + INTRA:         -12.440
REMARK INTER:                 -10.697
REMARK INTRA:                  -1.743
REMARK UNBOUND:                -1.620
REMARK SMILES C=C(CC[C@H](C(=O)[O-])[C@H]1[C@H](O)C[C@@]2(C)C3=C(CC[C@@]12C)[C@]1(C)CC[C@@H](OC(C)=O)C(C)(C)[C@@H]1CC3)C(C)C
REMARK SMILES IDX 4 1 5 2 6 3 7 4 8 5 9 6 10 7 19 8 12 9 13 10 18 11 20 12
REMARK SMILES IDX 14 13 15 14 17 15 16 16 35 17 21 18 34 19 33 20 23 21 22 22
REMARK SMILES IDX 30 23 24 24 25 25 31 26 32 27 11 28 26 30 27 31 29 32 28 33
REMARK SMILES IDX 3 34 2 35 1 36 36 37 37 38 38 39
REMARK H PARENT 11 29
REMARK Flexibility Score: inf
ROOT
ATOM      1  C   UNL     1      15.358 -34.425  21.425  1.00  0.00     0.014 C 
ENDROOT
BRANCH   1   2
ATOM      2  C   UNL     1      16.879 -34.442  21.143  1.00  0.00     0.042 C 
BRANCH   2   3
ATOM      3  C   UNL     1      17.128 -35.084  19.797  1.00  0.00     0.045 C 
ATOM      4  O   UNL     1      16.502 -36.125  19.466  1.00  0.00    -0.550 OA
ATOM      5  O   UNL     1      18.048 -34.528  18.914  1.00  0.00    -0.550 OA
ENDBRANCH   2   3
BRANCH   2   6
ATOM      6  C   UNL     1      17.692 -35.204  22.249  1.00  0.00     0.033 C 
ATOM      7  C   UNL     1      18.698 -36.206  21.627  1.00  0.00     0.119 C 
ATOM      8  C   UNL     1      18.542 -34.366  23.274  1.00  0.00    -0.017 C 
ATOM      9  C   UNL     1      19.952 -36.219  22.506  1.00  0.00     0.043 C 
ATOM     10  C   UNL     1      19.643 -35.383  23.763  1.00  0.00    -0.003 C 
ATOM     11  C   UNL     1      19.237 -33.172  22.573  1.00  0.00     0.012 C 
ATOM     12  C   UNL     1      17.673 -33.838  24.460  1.00  0.00     0.013 C 
ATOM     13  C   UNL     1      19.068 -36.331  24.866  1.00  0.00     0.017 C 
ATOM     14  C   UNL     1      20.965 -34.733  24.255  1.00  0.00    -0.064 C 
ATOM     15  C   UNL     1      20.200 -32.470  23.518  1.00  0.00     0.032 C 
ATOM     16  C   UNL     1      21.261 -33.406  24.075  1.00  0.00    -0.064 C 
ATOM     17  C   UNL     1      22.042 -35.640  24.811  1.00  0.00     0.032 C 
ATOM     18  C   UNL     1      22.674 -32.810  24.392  1.00  0.00    -0.008 C 
ATOM     19  C   UNL     1      22.767 -34.917  25.923  1.00  0.00     0.009 C 
ATOM     20  C   UNL     1      23.568 -33.714  25.369  1.00  0.00     0.009 C 
ATOM     21  C   UNL     1      23.381 -32.555  23.029  1.00  0.00     0.015 C 
ATOM     22  C   UNL     1      22.486 -31.433  25.088  1.00  0.00     0.016 C 
ATOM     23  C   UNL     1      25.041 -34.040  24.847  1.00  0.00     0.005 C 
ATOM     24  C   UNL     1      23.978 -33.824  22.442  1.00  0.00     0.047 C 
ATOM     25  C   UNL     1      25.066 -34.464  23.328  1.00  0.00     0.182 C 
ATOM     26  C   UNL     1      25.949 -32.795  25.104  1.00  0.00     0.015 C 
ATOM     27  C   UNL     1      25.702 -35.179  25.671  1.00  0.00     0.015 C 
BRANCH   7  28
ATOM     28  O   UNL     1      18.144 -37.493  21.501  1.00  0.00    -0.393 OA
ATOM     29  H   UNL     1      17.232 -37.472  21.892  1.00  0.00     0.210 HD
ENDBRANCH   7  28
BRANCH  25  30
ATOM     30  O   UNL     1      26.344 -34.193  22.739  1.00  0.00    -0.462 OA
BRANCH  30  31
ATOM     31  C   UNL     1      27.201 -35.173  22.226  1.00  0.00     0.302 C 
ATOM     32  O   UNL     1      28.431 -34.946  22.074  1.00  0.00    -0.253 OA
ATOM     33  C   UNL     1      26.658 -36.525  21.905  1.00  0.00     0.139 C 
ENDBRANCH  30  31
ENDBRANCH  25  30
ENDBRANCH   2   6
ENDBRANCH   1   2
BRANCH   1  34
ATOM     34  C   UNL     1      14.602 -33.350  20.626  1.00  0.00     0.031 C 
BRANCH  34  35
ATOM     35  C   UNL     1      14.135 -32.244  21.546  1.00  0.00    -0.075 C 
ATOM     36  C   UNL     1      13.129 -31.441  21.156  1.00  0.00     0.008 C 
BRANCH  35  37
ATOM     37  C   UNL     1      14.764 -32.107  22.925  1.00  0.00     0.008 C 
ATOM     38  C   UNL     1      15.823 -30.997  22.947  1.00  0.00     0.012 C 
ATOM     39  C   UNL     1      13.698 -31.876  24.004  1.00  0.00     0.012 C 
ENDBRANCH  35  37
ENDBRANCH  34  35
ENDBRANCH   1  34
TORSDOF 9
ENDMDL
MODEL 6
REMARK VINA RESULT:    -7.080      2.762      9.240
REMARK INTER + INTRA:         -12.218
REMARK INTER:                 -10.220
REMARK INTRA:                  -1.999
REMARK UNBOUND:                -1.620
REMARK SMILES C=C(CC[C@H](C(=O)[O-])[C@H]1[C@H](O)C[C@@]2(C)C3=C(CC[C@@]12C)[C@]1(C)CC[C@@H](OC(C)=O)C(C)(C)[C@@H]1CC3)C(C)C
REMARK SMILES IDX 4 1 5 2 6 3 7 4 8 5 9 6 10 7 19 8 12 9 13 10 18 11 20 12
REMARK SMILES IDX 14 13 15 14 17 15 16 16 35 17 21 18 34 19 33 20 23 21 22 22
REMARK SMILES IDX 30 23 24 24 25 25 31 26 32 27 11 28 26 30 27 31 29 32 28 33
REMARK SMILES IDX 3 34 2 35 1 36 36 37 37 38 38 39
REMARK H PARENT 11 29
REMARK Flexibility Score: inf
ROOT
ATOM      1  C   UNL     1      25.194 -30.423  24.098  1.00  0.00     0.014 C 
ENDROOT
BRANCH   1   2
ATOM      2  C   UNL     1      23.762 -30.092  23.617  1.00  0.00     0.042 C 
BRANCH   2   3
ATOM      3  C   UNL     1      23.498 -28.617  23.815  1.00  0.00     0.045 C 
ATOM      4  O   UNL     1      22.797 -27.981  22.985  1.00  0.00    -0.550 OA
ATOM      5  O   UNL     1      24.027 -27.952  24.917  1.00  0.00    -0.550 OA
ENDBRANCH   2   3
BRANCH   2   6
ATOM      6  C   UNL     1      22.663 -30.929  24.363  1.00  0.00     0.033 C 
ATOM      7  C   UNL     1      21.762 -30.027  25.245  1.00  0.00     0.119 C 
ATOM      8  C   UNL     1      21.658 -31.789  23.511  1.00  0.00    -0.017 C 
ATOM      9  C   UNL     1      20.340 -30.594  25.199  1.00  0.00     0.043 C 
ATOM     10  C   UNL     1      20.406 -31.943  24.456  1.00  0.00    -0.003 C 
ATOM     11  C   UNL     1      21.230 -31.032  22.230  1.00  0.00     0.012 C 
ATOM     12  C   UNL     1      22.262 -33.175  23.119  1.00  0.00     0.013 C 
ATOM     13  C   UNL     1      20.642 -33.080  25.504  1.00  0.00     0.017 C 
ATOM     14  C   UNL     1      19.054 -32.164  23.725  1.00  0.00    -0.064 C 
ATOM     15  C   UNL     1      20.125 -31.778  21.498  1.00  0.00     0.032 C 
ATOM     16  C   UNL     1      18.901 -32.013  22.370  1.00  0.00    -0.064 C 
ATOM     17  C   UNL     1      17.817 -32.397  24.566  1.00  0.00     0.032 C 
ATOM     18  C   UNL     1      17.498 -32.040  21.675  1.00  0.00    -0.008 C 
ATOM     19  C   UNL     1      16.905 -33.361  23.843  1.00  0.00     0.009 C 
ATOM     20  C   UNL     1      16.340 -32.723  22.550  1.00  0.00     0.009 C 
ATOM     21  C   UNL     1      17.146 -30.572  21.293  1.00  0.00     0.015 C 
ATOM     22  C   UNL     1      17.613 -32.854  20.356  1.00  0.00     0.016 C 
ATOM     23  C   UNL     1      15.010 -31.858  22.725  1.00  0.00     0.005 C 
ATOM     24  C   UNL     1      16.615 -29.780  22.477  1.00  0.00     0.047 C 
ATOM     25  C   UNL     1      15.310 -30.348  23.068  1.00  0.00     0.182 C 
ATOM     26  C   UNL     1      14.156 -31.986  21.424  1.00  0.00     0.015 C 
ATOM     27  C   UNL     1      14.098 -32.430  23.846  1.00  0.00     0.015 C 
BRANCH   7  28
ATOM     28  O   UNL     1      22.240 -29.942  26.566  1.00  0.00    -0.393 OA
ATOM     29  H   UNL     1      21.521 -30.263  27.171  1.00  0.00     0.210 HD
ENDBRANCH   7  28
BRANCH  25  30
ATOM     30  O   UNL     1      14.226 -29.504  22.662  1.00  0.00    -0.462 OA
BRANCH  30  31
ATOM     31  C   UNL     1      13.497 -28.682  23.530  1.00  0.00     0.302 C 
ATOM     32  O   UNL     1      13.995 -27.620  23.991  1.00  0.00    -0.253 OA
ATOM     33  C   UNL     1      12.089 -29.041  23.867  1.00  0.00     0.139 C 
ENDBRANCH  30  31
ENDBRANCH  25  30
ENDBRANCH   2   6
ENDBRANCH   1   2
BRANCH   1  34
ATOM     34  C   UNL     1      25.733 -31.751  23.541  1.00  0.00     0.031 C 
BRANCH  34  35
ATOM     35  C   UNL     1      26.019 -32.716  24.671  1.00  0.00    -0.075 C 
ATOM     36  C   UNL     1      26.994 -33.631  24.527  1.00  0.00     0.008 C 
BRANCH  35  37
ATOM     37  C   UNL     1      25.246 -32.585  25.976  1.00  0.00     0.008 C 
ATOM     38  C   UNL     1      24.300 -33.774  26.184  1.00  0.00     0.012 C 
ATOM     39  C   UNL     1      26.194 -32.415  27.171  1.00  0.00     0.012 C 
ENDBRANCH  35  37
ENDBRANCH  34  35
ENDBRANCH   1  34
TORSDOF 9
ENDMDL
MODEL 7
REMARK VINA RESULT:    -6.983      2.913      5.048
REMARK INTER + INTRA:         -12.074
REMARK INTER:                 -10.249
REMARK INTRA:                  -1.824
REMARK UNBOUND:                -1.620
REMARK SMILES C=C(CC[C@H](C(=O)[O-])[C@H]1[C@H](O)C[C@@]2(C)C3=C(CC[C@@]12C)[C@]1(C)CC[C@@H](OC(C)=O)C(C)(C)[C@@H]1CC3)C(C)C
REMARK SMILES IDX 4 1 5 2 6 3 7 4 8 5 9 6 10 7 19 8 12 9 13 10 18 11 20 12
REMARK SMILES IDX 14 13 15 14 17 15 16 16 35 17 21 18 34 19 33 20 23 21 22 22
REMARK SMILES IDX 30 23 24 24 25 25 31 26 32 27 11 28 26 30 27 31 29 32 28 33
REMARK SMILES IDX 3 34 2 35 1 36 36 37 37 38 38 39
REMARK H PARENT 11 29
REMARK Flexibility Score: inf
ROOT
ATOM      1  C   UNL     1      14.965 -32.894  22.847  1.00  0.00     0.014 C 
ENDROOT
BRANCH   1   2
ATOM      2  C   UNL     1      16.055 -31.897  23.304  1.00  0.00     0.042 C 
BRANCH   2   3
ATOM      3  C   UNL     1      15.831 -30.567  22.619  1.00  0.00     0.045 C 
ATOM      4  O   UNL     1      16.135 -29.495  23.203  1.00  0.00    -0.550 OA
ATOM      5  O   UNL     1      15.290 -30.520  21.339  1.00  0.00    -0.550 OA
ENDBRANCH   2   3
BRANCH   2   6
ATOM      6  C   UNL     1      17.509 -32.407  23.002  1.00  0.00     0.033 C 
ATOM      7  C   UNL     1      18.264 -31.443  22.050  1.00  0.00     0.119 C 
ATOM      8  C   UNL     1      18.496 -32.635  24.206  1.00  0.00    -0.017 C 
ATOM      9  C   UNL     1      19.736 -31.423  22.471  1.00  0.00     0.043 C 
ATOM     10  C   UNL     1      19.922 -32.512  23.546  1.00  0.00    -0.003 C 
ATOM     11  C   UNL     1      18.337 -31.522  25.271  1.00  0.00     0.012 C 
ATOM     12  C   UNL     1      18.286 -34.030  24.877  1.00  0.00     0.013 C 
ATOM     13  C   UNL     1      20.320 -33.849  22.839  1.00  0.00     0.017 C 
ATOM     14  C   UNL     1      21.054 -32.061  24.509  1.00  0.00    -0.064 C 
ATOM     15  C   UNL     1      19.409 -31.636  26.344  1.00  0.00     0.032 C 
ATOM     16  C   UNL     1      20.818 -31.582  25.772  1.00  0.00    -0.064 C 
ATOM     17  C   UNL     1      22.466 -31.992  23.968  1.00  0.00     0.032 C 
ATOM     18  C   UNL     1      21.944 -30.943  26.653  1.00  0.00    -0.008 C 
ATOM     19  C   UNL     1      23.432 -32.377  25.065  1.00  0.00     0.009 C 
ATOM     20  C   UNL     1      23.434 -31.319  26.195  1.00  0.00     0.009 C 
ATOM     21  C   UNL     1      21.709 -29.404  26.654  1.00  0.00     0.015 C 
ATOM     22  C   UNL     1      21.775 -31.444  28.115  1.00  0.00     0.016 C 
ATOM     23  C   UNL     1      24.422 -30.083  25.989  1.00  0.00     0.005 C 
ATOM     24  C   UNL     1      22.232 -28.740  25.390  1.00  0.00     0.047 C 
ATOM     25  C   UNL     1      23.753 -28.898  25.191  1.00  0.00     0.182 C 
ATOM     26  C   UNL     1      24.930 -29.610  27.388  1.00  0.00     0.015 C 
ATOM     27  C   UNL     1      25.712 -30.500  25.229  1.00  0.00     0.015 C 
BRANCH   7  28
ATOM     28  O   UNL     1      18.120 -31.821  20.702  1.00  0.00    -0.393 OA
ATOM     29  H   UNL     1      18.139 -30.996  20.150  1.00  0.00     0.210 HD
ENDBRANCH   7  28
BRANCH  25  30
ATOM     30  O   UNL     1      24.381 -27.649  25.503  1.00  0.00    -0.462 OA
BRANCH  30  31
ATOM     31  C   UNL     1      23.691 -26.484  25.859  1.00  0.00     0.302 C 
ATOM     32  O   UNL     1      23.049 -25.821  25.002  1.00  0.00    -0.253 OA
ATOM     33  C   UNL     1      23.670 -26.055  27.288  1.00  0.00     0.139 C 
ENDBRANCH  30  31
ENDBRANCH  25  30
ENDBRANCH   2   6
ENDBRANCH   1   2
BRANCH   1  34
ATOM     34  C   UNL     1      15.520 -34.286  22.500  1.00  0.00     0.031 C 
BRANCH  34  35
ATOM     35  C   UNL     1      15.526 -34.490  21.001  1.00  0.00    -0.075 C 
ATOM     36  C   UNL     1      14.675 -33.784  20.235  1.00  0.00     0.008 C 
BRANCH  35  37
ATOM     37  C   UNL     1      16.544 -35.437  20.382  1.00  0.00     0.008 C 
ATOM     38  C   UNL     1      17.245 -34.793  19.180  1.00  0.00     0.012 C 
ATOM     39  C   UNL     1      17.563 -35.919  21.424  1.00  0.00     0.012 C 
ENDBRANCH  35  37
ENDBRANCH  34  35
ENDBRANCH   1  34
TORSDOF 9
ENDMDL
MODEL 8
REMARK VINA RESULT:    -6.940      2.638      8.608
REMARK INTER + INTRA:         -12.008
REMARK INTER:                 -11.047
REMARK INTRA:                  -0.961
REMARK UNBOUND:                -1.620
REMARK SMILES C=C(CC[C@H](C(=O)[O-])[C@H]1[C@H](O)C[C@@]2(C)C3=C(CC[C@@]12C)[C@]1(C)CC[C@@H](OC(C)=O)C(C)(C)[C@@H]1CC3)C(C)C
REMARK SMILES IDX 4 1 5 2 6 3 7 4 8 5 9 6 10 7 19 8 12 9 13 10 18 11 20 12
REMARK SMILES IDX 14 13 15 14 17 15 16 16 35 17 21 18 34 19 33 20 23 21 22 22
REMARK SMILES IDX 30 23 24 24 25 25 31 26 32 27 11 28 26 30 27 31 29 32 28 33
REMARK SMILES IDX 3 34 2 35 1 36 36 37 37 38 38 39
REMARK H PARENT 11 29
REMARK Flexibility Score: inf
ROOT
ATOM      1  C   UNL     1      22.986 -29.225  23.504  1.00  0.00     0.014 C 
ENDROOT
BRANCH   1   2
ATOM      2  C   UNL     1      23.365 -30.066  24.747  1.00  0.00     0.042 C 
BRANCH   2   3
ATOM      3  C   UNL     1      24.566 -30.923  24.419  1.00  0.00     0.045 C 
ATOM      4  O   UNL     1      24.892 -31.873  25.177  1.00  0.00    -0.550 OA
ATOM      5  O   UNL     1      25.318 -30.670  23.276  1.00  0.00    -0.550 OA
ENDBRANCH   2   3
BRANCH   2   6
ATOM      6  C   UNL     1      22.187 -30.977  25.245  1.00  0.00     0.033 C 
ATOM      7  C   UNL     1      21.180 -30.181  26.114  1.00  0.00     0.119 C 
ATOM      8  C   UNL     1      21.298 -31.715  24.177  1.00  0.00    -0.017 C 
ATOM      9  C   UNL     1      19.778 -30.724  25.826  1.00  0.00     0.043 C 
ATOM     10  C   UNL     1      19.941 -31.971  24.936  1.00  0.00    -0.003 C 
ATOM     11  C   UNL     1      21.026 -30.802  22.956  1.00  0.00     0.012 C 
ATOM     12  C   UNL     1      21.953 -33.048  23.693  1.00  0.00     0.013 C 
ATOM     13  C   UNL     1      20.053 -33.231  25.856  1.00  0.00     0.017 C 
ATOM     14  C   UNL     1      18.690 -32.088  24.023  1.00  0.00    -0.064 C 
ATOM     15  C   UNL     1      20.023 -31.441  22.009  1.00  0.00     0.032 C 
ATOM     16  C   UNL     1      18.703 -31.770  22.689  1.00  0.00    -0.064 C 
ATOM     17  C   UNL     1      17.360 -32.410  24.671  1.00  0.00     0.032 C 
ATOM     18  C   UNL     1      17.395 -31.697  21.830  1.00  0.00    -0.008 C 
ATOM     19  C   UNL     1      16.549 -33.268  23.730  1.00  0.00     0.009 C 
ATOM     20  C   UNL     1      16.143 -32.471  22.466  1.00  0.00     0.009 C 
ATOM     21  C   UNL     1      17.086 -30.190  21.592  1.00  0.00     0.015 C 
ATOM     22  C   UNL     1      17.676 -32.343  20.444  1.00  0.00     0.016 C 
ATOM     23  C   UNL     1      14.797 -31.621  22.583  1.00  0.00     0.005 C 
ATOM     24  C   UNL     1      16.410 -29.544  22.790  1.00  0.00     0.047 C 
ATOM     25  C   UNL     1      15.044 -30.167  23.144  1.00  0.00     0.182 C 
ATOM     26  C   UNL     1      14.109 -31.579  21.181  1.00  0.00     0.015 C 
ATOM     27  C   UNL     1      13.758 -32.317  23.504  1.00  0.00     0.015 C 
BRANCH   7  28
ATOM     28  O   UNL     1      21.492 -30.264  27.484  1.00  0.00    -0.393 OA
ATOM     29  H   UNL     1      21.030 -31.060  27.855  1.00  0.00     0.210 HD
ENDBRANCH   7  28
BRANCH  25  30
ATOM     30  O   UNL     1      14.014 -29.269  22.715  1.00  0.00    -0.462 OA
BRANCH  30  31
ATOM     31  C   UNL     1      13.264 -28.458  23.576  1.00  0.00     0.302 C 
ATOM     32  O   UNL     1      13.749 -27.399  24.057  1.00  0.00    -0.253 OA
ATOM     33  C   UNL     1      11.852 -28.826  23.882  1.00  0.00     0.139 C 
ENDBRANCH  30  31
ENDBRANCH  25  30
ENDBRANCH   2   6
ENDBRANCH   1   2
BRANCH   1  34
ATOM     34  C   UNL     1      23.035 -27.709  23.757  1.00  0.00     0.031 C 
BRANCH  34  35
ATOM     35  C   UNL     1      22.301 -26.971  22.659  1.00  0.00    -0.075 C 
ATOM     36  C   UNL     1      21.918 -25.697  22.862  1.00  0.00     0.008 C 
BRANCH  35  37
ATOM     37  C   UNL     1      22.073 -27.659  21.321  1.00  0.00     0.008 C 
ATOM     38  C   UNL     1      20.584 -27.687  20.955  1.00  0.00     0.012 C 
ATOM     39  C   UNL     1      22.905 -27.007  20.209  1.00  0.00     0.012 C 
ENDBRANCH  35  37
ENDBRANCH  34  35
ENDBRANCH   1  34
TORSDOF 9
ENDMDL
MODEL 9
REMARK VINA RESULT:    -6.859      3.393      9.475
REMARK INTER + INTRA:         -11.887
REMARK INTER:                 -10.209
REMARK INTRA:                  -1.678
REMARK UNBOUND:                -1.620
REMARK SMILES C=C(CC[C@H](C(=O)[O-])[C@H]1[C@H](O)C[C@@]2(C)C3=C(CC[C@@]12C)[C@]1(C)CC[C@@H](OC(C)=O)C(C)(C)[C@@H]1CC3)C(C)C
REMARK SMILES IDX 4 1 5 2 6 3 7 4 8 5 9 6 10 7 19 8 12 9 13 10 18 11 20 12
REMARK SMILES IDX 14 13 15 14 17 15 16 16 35 17 21 18 34 19 33 20 23 21 22 22
REMARK SMILES IDX 30 23 24 24 25 25 31 26 32 27 11 28 26 30 27 31 29 32 28 33
REMARK SMILES IDX 3 34 2 35 1 36 36 37 37 38 38 39
REMARK H PARENT 11 29
REMARK Flexibility Score: inf
ROOT
ATOM      1  C   UNL     1      25.472 -28.896  27.043  1.00  0.00     0.014 C 
ENDROOT
BRANCH   1   2
ATOM      2  C   UNL     1      24.406 -29.307  26.000  1.00  0.00     0.042 C 
BRANCH   2   3
ATOM      3  C   UNL     1      24.047 -28.104  25.156  1.00  0.00     0.045 C 
ATOM      4  O   UNL     1      23.854 -28.234  23.919  1.00  0.00    -0.550 OA
ATOM      5  O   UNL     1      23.926 -26.848  25.741  1.00  0.00    -0.550 OA
ENDBRANCH   2   3
BRANCH   2   6
ATOM      6  C   UNL     1      23.107 -29.894  26.660  1.00  0.00     0.033 C 
ATOM      7  C   UNL     1      21.882 -28.974  26.420  1.00  0.00     0.119 C 
ATOM      8  C   UNL     1      22.623 -31.327  26.230  1.00  0.00    -0.017 C 
ATOM      9  C   UNL     1      20.652 -29.868  26.239  1.00  0.00     0.043 C 
ATOM     10  C   UNL     1      21.082 -31.313  26.559  1.00  0.00    -0.003 C 
ATOM     11  C   UNL     1      22.809 -31.541  24.707  1.00  0.00     0.012 C 
ATOM     12  C   UNL     1      23.372 -32.455  27.009  1.00  0.00     0.013 C 
ATOM     13  C   UNL     1      20.840 -31.582  28.081  1.00  0.00     0.017 C 
ATOM     14  C   UNL     1      20.219 -32.281  25.703  1.00  0.00    -0.064 C 
ATOM     15  C   UNL     1      22.178 -32.851  24.259  1.00  0.00     0.032 C 
ATOM     16  C   UNL     1      20.697 -32.932  24.595  1.00  0.00    -0.064 C 
ATOM     17  C   UNL     1      18.740 -32.380  26.012  1.00  0.00     0.032 C 
ATOM     18  C   UNL     1      19.767 -33.741  23.629  1.00  0.00    -0.008 C 
ATOM     19  C   UNL     1      18.282 -33.800  25.770  1.00  0.00     0.009 C 
ATOM     20  C   UNL     1      18.354 -34.155  24.265  1.00  0.00     0.009 C 
ATOM     21  C   UNL     1      19.594 -32.889  22.338  1.00  0.00     0.015 C 
ATOM     22  C   UNL     1      20.492 -35.057  23.229  1.00  0.00     0.016 C 
ATOM     23  C   UNL     1      17.071 -33.771  23.397  1.00  0.00     0.005 C 
ATOM     24  C   UNL     1      18.563 -31.785  22.509  1.00  0.00     0.047 C 
ATOM     25  C   UNL     1      17.145 -32.304  22.821  1.00  0.00     0.182 C 
ATOM     26  C   UNL     1      16.909 -34.822  22.253  1.00  0.00     0.015 C 
ATOM     27  C   UNL     1      15.762 -33.893  24.225  1.00  0.00     0.015 C 
BRANCH   7  28
ATOM     28  O   UNL     1      21.702 -28.058  27.473  1.00  0.00    -0.393 OA
ATOM     29  H   UNL     1      22.594 -27.704  27.725  1.00  0.00     0.210 HD
ENDBRANCH   7  28
BRANCH  25  30
ATOM     30  O   UNL     1      16.346 -32.174  21.639  1.00  0.00    -0.462 OA
BRANCH  30  31
ATOM     31  C   UNL     1      15.222 -31.348  21.532  1.00  0.00     0.302 C 
ATOM     32  O   UNL     1      15.322 -30.097  21.643  1.00  0.00    -0.253 OA
ATOM     33  C   UNL     1      13.895 -31.954  21.224  1.00  0.00     0.139 C 
ENDBRANCH  30  31
ENDBRANCH  25  30
ENDBRANCH   2   6
ENDBRANCH   1   2
BRANCH   1  34
ATOM     34  C   UNL     1      25.258 -29.545  28.421  1.00  0.00     0.031 C 
BRANCH  34  35
ATOM     35  C   UNL     1      26.458 -30.386  28.797  1.00  0.00    -0.075 C 
ATOM     36  C   UNL     1      26.792 -31.440  28.031  1.00  0.00     0.008 C 
BRANCH  35  37
ATOM     37  C   UNL     1      27.307 -29.979  29.994  1.00  0.00     0.008 C 
ATOM     38  C   UNL     1      26.447 -29.353  31.099  1.00  0.00     0.012 C 
ATOM     39  C   UNL     1      28.120 -31.166  30.529  1.00  0.00     0.012 C 
ENDBRANCH  35  37
ENDBRANCH  34  35
ENDBRANCH   1  34
TORSDOF 9
ENDMDL
