MODEL 1
REMARK VINA RESULT:    14.004      0.000      0.000
REMARK INTER + INTRA:          15.014
REMARK INTER:                  15.232
REMARK INTRA:                  -0.218
REMARK UNBOUND:                -0.218
REMARK SMILES CC1=CCC[C@]2(C)CC[C@@H](C(C)(C)O)C[C@@H]12
REMARK SMILES IDX 11 1 12 2 13 3 10 4 1 5 2 6 3 7 16 8 4 9 6 10 15 11 5 12
REMARK SMILES IDX 7 13 8 14 9 15 14 16
REMARK H PARENT 14 17
REMARK Flexibility Score: inf
ROOT
ATOM      1  C   UNL     1     -33.891  26.152   6.563  1.00  0.00     0.062 C 
ATOM      2  C   UNL     1     -33.364  25.826   5.141  1.00  0.00     0.042 C 
ATOM      3  C   UNL     1     -32.723  25.986   7.554  1.00  0.00     0.042 C 
ENDROOT
BRANCH   1   4
ATOM      4  C   UNL     1     -35.106  25.245   6.993  1.00  0.00     0.021 C 
ATOM      5  C   UNL     1     -39.327  26.897   6.259  1.00  0.00     0.039 C 
ATOM      6  C   UNL     1     -39.054  25.460   6.646  1.00  0.00    -0.074 C 
ATOM      7  C   UNL     1     -40.125  24.641   6.751  1.00  0.00    -0.028 C 
ATOM      8  C   UNL     1     -37.660  24.933   7.008  1.00  0.00     0.021 C 
ATOM      9  C   UNL     1     -40.030  23.147   6.962  1.00  0.00     0.028 C 
ATOM     10  C   UNL     1     -37.501  23.444   6.577  1.00  0.00    -0.026 C 
ATOM     11  C   UNL     1     -36.476  25.807   6.527  1.00  0.00     0.015 C 
ATOM     12  C   UNL     1     -38.616  22.639   7.292  1.00  0.00     0.011 C 
ATOM     13  C   UNL     1     -37.626  23.256   5.038  1.00  0.00     0.012 C 
ATOM     14  C   UNL     1     -36.128  22.910   7.060  1.00  0.00     0.008 C 
ATOM     15  C   UNL     1     -34.950  23.764   6.570  1.00  0.00     0.007 C 
ENDBRANCH   1   4
BRANCH   1  16
ATOM     16  O   UNL     1     -34.275  27.508   6.631  1.00  0.00    -0.390 OA
ATOM     17  H   UNL     1     -33.795  28.016   5.926  1.00  0.00     0.211 HD
ENDBRANCH   1  16
TORSDOF 2
ENDMDL
