MODEL 1
REMARK VINA RESULT:    -3.666      0.000      0.000
REMARK INTER + INTRA:          -5.509
REMARK INTER:                  -5.166
REMARK INTRA:                  -0.343
REMARK UNBOUND:                -0.343
REMARK SMILES CCCCCCCCC(=O)[O-]
REMARK SMILES IDX 6 1 7 2 8 3 9 4 10 5 11 6 5 7 4 8 3 9 2 10 1 11
REMARK H PARENT
REMARK Flexibility Score: inf
ROOT
ATOM      1  C   UNL     1     120.907  70.072  -0.213  1.00  0.00     0.000 C 
ENDROOT
BRANCH   1   2
ATOM      2  C   UNL     1     119.977  70.847   0.728  1.00  0.00     0.006 C 
BRANCH   2   3
ATOM      3  C   UNL     1     120.739  71.951   1.467  1.00  0.00     0.053 C 
BRANCH   3   4
ATOM      4  C   UNL     1     120.607  71.778   2.947  1.00  0.00     0.041 C 
ATOM      5  O   UNL     1     120.623  70.625   3.454  1.00  0.00    -0.550 OA
ATOM      6  O   UNL     1     120.517  72.891   3.772  1.00  0.00    -0.550 OA
ENDBRANCH   3   4
ENDBRANCH   2   3
ENDBRANCH   1   2
BRANCH   1   7
ATOM      7  C   UNL     1     120.164  69.639  -1.486  1.00  0.00     0.000 C 
BRANCH   7   8
ATOM      8  C   UNL     1     120.046  68.112  -1.612  1.00  0.00    -0.000 C 
BRANCH   8   9
ATOM      9  C   UNL     1     120.807  67.367  -0.502  1.00  0.00    -0.000 C 
BRANCH   9  10
ATOM     10  C   UNL     1     119.876  66.544   0.401  1.00  0.00    -0.003 C 
ATOM     11  C   UNL     1     120.071  65.037   0.233  1.00  0.00     0.004 C 
ENDBRANCH   9  10
ENDBRANCH   8   9
ENDBRANCH   7   8
ENDBRANCH   1   7
TORSDOF 7
ENDMDL
MODEL 2
REMARK VINA RESULT:    -3.591      3.533      5.738
REMARK INTER + INTRA:          -5.403
REMARK INTER:                  -5.147
REMARK INTRA:                  -0.256
REMARK UNBOUND:                -0.343
REMARK SMILES CCCCCCCCC(=O)[O-]
REMARK SMILES IDX 6 1 7 2 8 3 9 4 10 5 11 6 5 7 4 8 3 9 2 10 1 11
REMARK H PARENT
REMARK Flexibility Score: inf
ROOT
ATOM      1  C   UNL     1     120.783  71.006   5.117  1.00  0.00     0.000 C 
ENDROOT
BRANCH   1   2
ATOM      2  C   UNL     1     120.231  71.715   6.359  1.00  0.00     0.006 C 
BRANCH   2   3
ATOM      3  C   UNL     1     121.060  71.373   7.601  1.00  0.00     0.053 C 
BRANCH   3   4
ATOM      4  C   UNL     1     120.752  72.323   8.715  1.00  0.00     0.041 C 
ATOM      5  O   UNL     1     120.469  71.885   9.861  1.00  0.00    -0.550 OA
ATOM      6  O   UNL     1     120.825  73.693   8.500  1.00  0.00    -0.550 OA
ENDBRANCH   3   4
ENDBRANCH   2   3
ENDBRANCH   1   2
BRANCH   1   7
ATOM      7  C   UNL     1     120.192  71.609   3.833  1.00  0.00     0.000 C 
BRANCH   7   8
ATOM      8  C   UNL     1     121.208  72.466   3.061  1.00  0.00    -0.000 C 
BRANCH   8   9
ATOM      9  C   UNL     1     120.792  72.705   1.599  1.00  0.00    -0.000 C 
BRANCH   9  10
ATOM     10  C   UNL     1     120.029  71.512   1.002  1.00  0.00    -0.003 C 
ATOM     11  C   UNL     1     120.953  70.505   0.317  1.00  0.00     0.004 C 
ENDBRANCH   9  10
ENDBRANCH   8   9
ENDBRANCH   7   8
ENDBRANCH   1   7
TORSDOF 7
ENDMDL
MODEL 3
REMARK VINA RESULT:    -3.549      1.608      3.204
REMARK INTER + INTRA:          -5.343
REMARK INTER:                  -5.091
REMARK INTRA:                  -0.253
REMARK UNBOUND:                -0.343
REMARK SMILES CCCCCCCCC(=O)[O-]
REMARK SMILES IDX 6 1 7 2 8 3 9 4 10 5 11 6 5 7 4 8 3 9 2 10 1 11
REMARK H PARENT
REMARK Flexibility Score: inf
ROOT
ATOM      1  C   UNL     1     121.029  70.012  -0.249  1.00  0.00     0.000 C 
ENDROOT
BRANCH   1   2
ATOM      2  C   UNL     1     120.183  70.353   0.984  1.00  0.00     0.006 C 
BRANCH   2   3
ATOM      3  C   UNL     1     120.493  71.765   1.490  1.00  0.00     0.053 C 
BRANCH   3   4
ATOM      4  C   UNL     1     120.599  71.776   2.982  1.00  0.00     0.041 C 
ATOM      5  O   UNL     1     120.730  72.866   3.600  1.00  0.00    -0.550 OA
ATOM      6  O   UNL     1     120.505  70.588   3.694  1.00  0.00    -0.550 OA
ENDBRANCH   3   4
ENDBRANCH   2   3
ENDBRANCH   1   2
BRANCH   1   7
ATOM      7  C   UNL     1     120.807  68.555  -0.682  1.00  0.00     0.000 C 
BRANCH   7   8
ATOM      8  C   UNL     1     119.925  68.439  -1.936  1.00  0.00    -0.000 C 
BRANCH   8   9
ATOM      9  C   UNL     1     120.137  69.605  -2.918  1.00  0.00    -0.000 C 
BRANCH   9  10
ATOM     10  C   UNL     1     120.067  69.158  -4.386  1.00  0.00    -0.003 C 
ATOM     11  C   UNL     1     120.524  70.246  -5.356  1.00  0.00     0.004 C 
ENDBRANCH   9  10
ENDBRANCH   8   9
ENDBRANCH   7   8
ENDBRANCH   1   7
TORSDOF 7
ENDMDL
MODEL 4
REMARK VINA RESULT:    -3.503      2.301      4.091
REMARK INTER + INTRA:          -5.279
REMARK INTER:                  -4.935
REMARK INTRA:                  -0.344
REMARK UNBOUND:                -0.343
REMARK SMILES CCCCCCCCC(=O)[O-]
REMARK SMILES IDX 6 1 7 2 8 3 9 4 10 5 11 6 5 7 4 8 3 9 2 10 1 11
REMARK H PARENT
REMARK Flexibility Score: inf
ROOT
ATOM      1  C   UNL     1     121.125  72.400   3.311  1.00  0.00     0.000 C 
ENDROOT
BRANCH   1   2
ATOM      2  C   UNL     1     120.037  72.652   4.362  1.00  0.00     0.006 C 
BRANCH   2   3
ATOM      3  C   UNL     1     119.958  71.493   5.360  1.00  0.00     0.053 C 
BRANCH   3   4
ATOM      4  C   UNL     1     120.314  71.960   6.736  1.00  0.00     0.041 C 
ATOM      5  O   UNL     1     120.861  71.171   7.550  1.00  0.00    -0.550 OA
ATOM      6  O   UNL     1     120.088  73.280   7.102  1.00  0.00    -0.550 OA
ENDBRANCH   3   4
ENDBRANCH   2   3
ENDBRANCH   1   2
BRANCH   1   7
ATOM      7  C   UNL     1     120.777  73.091   1.983  1.00  0.00     0.000 C 
BRANCH   7   8
ATOM      8  C   UNL     1     120.021  72.165   1.017  1.00  0.00    -0.000 C 
BRANCH   8   9
ATOM      9  C   UNL     1     120.405  70.686   1.192  1.00  0.00    -0.000 C 
BRANCH   9  10
ATOM     10  C   UNL     1     121.200  70.138  -0.003  1.00  0.00    -0.003 C 
ATOM     11  C   UNL     1     120.886  68.671  -0.297  1.00  0.00     0.004 C 
ENDBRANCH   9  10
ENDBRANCH   8   9
ENDBRANCH   7   8
ENDBRANCH   1   7
TORSDOF 7
ENDMDL
MODEL 5
REMARK VINA RESULT:    -3.469      1.373      2.124
REMARK INTER + INTRA:          -5.232
REMARK INTER:                  -4.975
REMARK INTRA:                  -0.256
REMARK UNBOUND:                -0.343
REMARK SMILES CCCCCCCCC(=O)[O-]
REMARK SMILES IDX 6 1 7 2 8 3 9 4 10 5 11 6 5 7 4 8 3 9 2 10 1 11
REMARK H PARENT
REMARK Flexibility Score: inf
ROOT
ATOM      1  C   UNL     1     120.317  70.964   1.771  1.00  0.00     0.000 C 
ENDROOT
BRANCH   1   2
ATOM      2  C   UNL     1     120.961  72.130   2.530  1.00  0.00     0.006 C 
BRANCH   2   3
ATOM      3  C   UNL     1     120.423  72.218   3.962  1.00  0.00     0.053 C 
BRANCH   3   4
ATOM      4  C   UNL     1     120.833  71.014   4.751  1.00  0.00     0.041 C 
ATOM      5  O   UNL     1     122.051  70.711   4.856  1.00  0.00    -0.550 OA
ATOM      6  O   UNL     1     119.875  70.256   5.410  1.00  0.00    -0.550 OA
ENDBRANCH   3   4
ENDBRANCH   2   3
ENDBRANCH   1   2
BRANCH   1   7
ATOM      7  C   UNL     1     120.705  70.995   0.285  1.00  0.00     0.000 C 
BRANCH   7   8
ATOM      8  C   UNL     1     120.010  69.893  -0.531  1.00  0.00    -0.000 C 
BRANCH   8   9
ATOM      9  C   UNL     1     120.788  68.566  -0.517  1.00  0.00    -0.000 C 
BRANCH   9  10
ATOM     10  C   UNL     1     119.883  67.350  -0.764  1.00  0.00    -0.003 C 
ATOM     11  C   UNL     1     120.350  66.104  -0.012  1.00  0.00     0.004 C 
ENDBRANCH   9  10
ENDBRANCH   8   9
ENDBRANCH   7   8
ENDBRANCH   1   7
TORSDOF 7
ENDMDL
MODEL 6
REMARK VINA RESULT:    -3.429      2.653      5.441
REMARK INTER + INTRA:          -5.175
REMARK INTER:                  -4.829
REMARK INTRA:                  -0.346
REMARK UNBOUND:                -0.343
REMARK SMILES CCCCCCCCC(=O)[O-]
REMARK SMILES IDX 6 1 7 2 8 3 9 4 10 5 11 6 5 7 4 8 3 9 2 10 1 11
REMARK H PARENT
REMARK Flexibility Score: inf
ROOT
ATOM      1  C   UNL     1     120.888  70.663   1.085  1.00  0.00     0.000 C 
ENDROOT
BRANCH   1   2
ATOM      2  C   UNL     1     121.206  69.982  -0.252  1.00  0.00     0.006 C 
BRANCH   2   3
ATOM      3  C   UNL     1     119.990  69.213  -0.779  1.00  0.00     0.053 C 
BRANCH   3   4
ATOM      4  C   UNL     1     120.185  67.740  -0.602  1.00  0.00     0.041 C 
ATOM      5  O   UNL     1     120.424  67.008  -1.599  1.00  0.00    -0.550 OA
ATOM      6  O   UNL     1     120.152  67.183   0.670  1.00  0.00    -0.550 OA
ENDBRANCH   3   4
ENDBRANCH   2   3
ENDBRANCH   1   2
BRANCH   1   7
ATOM      7  C   UNL     1     120.554  72.148   0.880  1.00  0.00     0.000 C 
BRANCH   7   8
ATOM      8  C   UNL     1     120.890  73.006   2.110  1.00  0.00    -0.000 C 
BRANCH   8   9
ATOM      9  C   UNL     1     121.302  72.159   3.327  1.00  0.00    -0.000 C 
BRANCH   9  10
ATOM     10  C   UNL     1     120.252  72.188   4.447  1.00  0.00    -0.003 C 
ATOM     11  C   UNL     1     120.268  70.922   5.303  1.00  0.00     0.004 C 
ENDBRANCH   9  10
ENDBRANCH   8   9
ENDBRANCH   7   8
ENDBRANCH   1   7
TORSDOF 7
ENDMDL
MODEL 7
REMARK VINA RESULT:    -3.367      2.707      5.732
REMARK INTER + INTRA:          -5.088
REMARK INTER:                  -4.833
REMARK INTRA:                  -0.255
REMARK UNBOUND:                -0.343
REMARK SMILES CCCCCCCCC(=O)[O-]
REMARK SMILES IDX 6 1 7 2 8 3 9 4 10 5 11 6 5 7 4 8 3 9 2 10 1 11
REMARK H PARENT
REMARK Flexibility Score: inf
ROOT
ATOM      1  C   UNL     1     120.792  72.436   1.324  1.00  0.00     0.000 C 
ENDROOT
BRANCH   1   2
ATOM      2  C   UNL     1     120.268  71.009   1.118  1.00  0.00     0.006 C 
BRANCH   2   3
ATOM      3  C   UNL     1     121.114  70.258   0.085  1.00  0.00     0.053 C 
BRANCH   3   4
ATOM      4  C   UNL     1     120.565  68.885  -0.143  1.00  0.00     0.041 C 
ATOM      5  O   UNL     1     120.335  68.481  -1.313  1.00  0.00    -0.550 OA
ATOM      6  O   UNL     1     120.353  68.034   0.933  1.00  0.00    -0.550 OA
ENDBRANCH   3   4
ENDBRANCH   2   3
ENDBRANCH   1   2
BRANCH   1   7
ATOM      7  C   UNL     1     120.978  72.742   2.819  1.00  0.00     0.000 C 
BRANCH   7   8
ATOM      8  C   UNL     1     119.965  71.999   3.705  1.00  0.00    -0.000 C 
BRANCH   8   9
ATOM      9  C   UNL     1     120.629  71.303   4.906  1.00  0.00    -0.000 C 
BRANCH   9  10
ATOM     10  C   UNL     1     120.073  71.794   6.251  1.00  0.00    -0.003 C 
ATOM     11  C   UNL     1     120.925  71.348   7.439  1.00  0.00     0.004 C 
ENDBRANCH   9  10
ENDBRANCH   8   9
ENDBRANCH   7   8
ENDBRANCH   1   7
TORSDOF 7
ENDMDL
MODEL 8
REMARK VINA RESULT:    -3.320      4.491      6.567
REMARK INTER + INTRA:          -5.021
REMARK INTER:                  -4.807
REMARK INTRA:                  -0.214
REMARK UNBOUND:                -0.343
REMARK SMILES CCCCCCCCC(=O)[O-]
REMARK SMILES IDX 6 1 7 2 8 3 9 4 10 5 11 6 5 7 4 8 3 9 2 10 1 11
REMARK H PARENT
REMARK Flexibility Score: inf
ROOT
ATOM      1  C   UNL     1     120.609  69.825  -1.884  1.00  0.00     0.000 C 
ENDROOT
BRANCH   1   2
ATOM      2  C   UNL     1     119.881  69.165  -3.062  1.00  0.00     0.006 C 
BRANCH   2   3
ATOM      3  C   UNL     1     120.248  69.844  -4.385  1.00  0.00     0.053 C 
BRANCH   3   4
ATOM      4  C   UNL     1     120.630  68.822  -5.410  1.00  0.00     0.041 C 
ATOM      5  O   UNL     1     120.996  69.184  -6.559  1.00  0.00    -0.550 OA
ATOM      6  O   UNL     1     120.628  67.473  -5.081  1.00  0.00    -0.550 OA
ENDBRANCH   3   4
ENDBRANCH   2   3
ENDBRANCH   1   2
BRANCH   1   7
ATOM      7  C   UNL     1     120.606  68.906  -0.653  1.00  0.00     0.000 C 
BRANCH   7   8
ATOM      8  C   UNL     1     120.245  69.654   0.641  1.00  0.00    -0.000 C 
BRANCH   8   9
ATOM      9  C   UNL     1     120.767  71.100   0.654  1.00  0.00    -0.000 C 
BRANCH   9  10
ATOM     10  C   UNL     1     120.432  71.835   1.961  1.00  0.00    -0.003 C 
ATOM     11  C   UNL     1     120.988  73.259   1.997  1.00  0.00     0.004 C 
ENDBRANCH   9  10
ENDBRANCH   8   9
ENDBRANCH   7   8
ENDBRANCH   1   7
TORSDOF 7
ENDMDL
MODEL 9
REMARK VINA RESULT:    -3.164      5.802      7.640
REMARK INTER + INTRA:          -4.802
REMARK INTER:                  -4.479
REMARK INTRA:                  -0.323
REMARK UNBOUND:                -0.343
REMARK SMILES CCCCCCCCC(=O)[O-]
REMARK SMILES IDX 6 1 7 2 8 3 9 4 10 5 11 6 5 7 4 8 3 9 2 10 1 11
REMARK H PARENT
REMARK Flexibility Score: inf
ROOT
ATOM      1  C   UNL     1     119.955  68.700  -4.154  1.00  0.00     0.000 C 
ENDROOT
BRANCH   1   2
ATOM      2  C   UNL     1     120.551  68.426  -5.540  1.00  0.00     0.006 C 
BRANCH   2   3
ATOM      3  C   UNL     1     120.798  66.928  -5.746  1.00  0.00     0.053 C 
BRANCH   3   4
ATOM      4  C   UNL     1     121.222  66.656  -7.154  1.00  0.00     0.041 C 
ATOM      5  O   UNL     1     121.011  65.528  -7.672  1.00  0.00    -0.550 OA
ATOM      6  O   UNL     1     121.807  67.663  -7.911  1.00  0.00    -0.550 OA
ENDBRANCH   3   4
ENDBRANCH   2   3
ENDBRANCH   1   2
BRANCH   1   7
ATOM      7  C   UNL     1     119.875  67.408  -3.325  1.00  0.00     0.000 C 
BRANCH   7   8
ATOM      8  C   UNL     1     119.976  67.668  -1.814  1.00  0.00    -0.000 C 
BRANCH   8   9
ATOM      9  C   UNL     1     120.084  69.165  -1.477  1.00  0.00    -0.000 C 
BRANCH   9  10
ATOM     10  C   UNL     1     121.242  69.470  -0.514  1.00  0.00    -0.003 C 
ATOM     11  C   UNL     1     120.949  70.657   0.404  1.00  0.00     0.004 C 
ENDBRANCH   9  10
ENDBRANCH   8   9
ENDBRANCH   7   8
ENDBRANCH   1   7
TORSDOF 7
ENDMDL
