MODEL 1
REMARK VINA RESULT:    -4.357      0.000      0.000
REMARK INTER + INTRA:          -5.038
REMARK INTER:                  -4.994
REMARK INTRA:                  -0.045
REMARK UNBOUND:                -0.045
REMARK SMILES O=C([O-])c1cc(O)c(O)c(O)c1
REMARK SMILES IDX 4 1 5 2 12 3 6 4 10 5 8 6 2 7 1 8 3 9 7 10 11 12 9 14
REMARK H PARENT 7 11 11 13 9 15
REMARK Flexibility Score: inf
ROOT
ATOM      1  C   UNL     1     167.443 163.715 151.905  1.00  0.00     0.005 A 
ATOM      2  C   UNL     1     166.564 164.085 150.873  1.00  0.00     0.060 A 
ATOM      3  C   UNL     1     168.702 163.187 151.573  1.00  0.00     0.060 A 
ATOM      4  C   UNL     1     166.937 163.931 149.531  1.00  0.00     0.162 A 
ATOM      5  C   UNL     1     169.080 163.032 150.232  1.00  0.00     0.162 A 
ATOM      6  C   UNL     1     168.193 163.405 149.208  1.00  0.00     0.200 A 
ENDROOT
BRANCH   1   7
ATOM      7  C   UNL     1     167.043 163.880 153.322  1.00  0.00     0.072 C 
ATOM      8  O   UNL     1     166.588 162.906 153.977  1.00  0.00    -0.545 OA
ATOM      9  O   UNL     1     167.165 165.115 153.949  1.00  0.00    -0.545 OA
ENDBRANCH   1   7
BRANCH   4  10
ATOM     10  O   UNL     1     166.061 164.299 148.511  1.00  0.00    -0.504 OA
ATOM     11  H   UNL     1     166.322 164.228 147.535  1.00  0.00     0.293 HD
ENDBRANCH   4  10
BRANCH   5  12
ATOM     12  O   UNL     1     170.332 162.508 149.914  1.00  0.00    -0.504 OA
ATOM     13  H   UNL     1     170.519 161.513 149.960  1.00  0.00     0.293 HD
ENDBRANCH   5  12
BRANCH   6  14
ATOM     14  O   UNL     1     168.546 163.259 147.866  1.00  0.00    -0.502 OA
ATOM     15  H   UNL     1     168.193 162.500 147.296  1.00  0.00     0.293 HD
ENDBRANCH   6  14
TORSDOF 4
ENDMDL
MODEL 2
REMARK VINA RESULT:    -4.348      0.053      2.422
REMARK INTER + INTRA:          -5.028
REMARK INTER:                  -4.983
REMARK INTRA:                  -0.045
REMARK UNBOUND:                -0.045
REMARK SMILES O=C([O-])c1cc(O)c(O)c(O)c1
REMARK SMILES IDX 4 1 5 2 12 3 6 4 10 5 8 6 2 7 1 8 3 9 7 10 11 12 9 14
REMARK H PARENT 7 11 11 13 9 15
REMARK Flexibility Score: inf
ROOT
ATOM      1  C   UNL     1     167.412 163.735 151.864  1.00  0.00     0.005 A 
ATOM      2  C   UNL     1     168.670 163.205 151.532  1.00  0.00     0.060 A 
ATOM      3  C   UNL     1     166.535 164.109 150.830  1.00  0.00     0.060 A 
ATOM      4  C   UNL     1     169.046 163.049 150.191  1.00  0.00     0.162 A 
ATOM      5  C   UNL     1     166.907 163.956 149.488  1.00  0.00     0.162 A 
ATOM      6  C   UNL     1     168.168 163.424 149.168  1.00  0.00     0.200 A 
ENDROOT
BRANCH   1   7
ATOM      7  C   UNL     1     167.019 163.896 153.282  1.00  0.00     0.072 C 
ATOM      8  O   UNL     1     166.580 162.917 153.941  1.00  0.00    -0.545 OA
ATOM      9  O   UNL     1     167.130 165.132 153.908  1.00  0.00    -0.545 OA
ENDBRANCH   1   7
BRANCH   4  10
ATOM     10  O   UNL     1     170.296 162.523 149.868  1.00  0.00    -0.504 OA
ATOM     11  H   UNL     1     170.957 163.035 149.296  1.00  0.00     0.293 HD
ENDBRANCH   4  10
BRANCH   5  12
ATOM     12  O   UNL     1     166.030 164.330 148.472  1.00  0.00    -0.504 OA
ATOM     13  H   UNL     1     166.306 164.309 147.497  1.00  0.00     0.293 HD
ENDBRANCH   5  12
BRANCH   6  14
ATOM     14  O   UNL     1     168.561 163.262 147.839  1.00  0.00    -0.502 OA
ATOM     15  H   UNL     1     169.274 162.596 147.565  1.00  0.00     0.293 HD
ENDBRANCH   6  14
TORSDOF 4
ENDMDL
MODEL 3
REMARK VINA RESULT:    -4.178      1.393      3.102
REMARK INTER + INTRA:          -4.833
REMARK INTER:                  -4.781
REMARK INTRA:                  -0.052
REMARK UNBOUND:                -0.045
REMARK SMILES O=C([O-])c1cc(O)c(O)c(O)c1
REMARK SMILES IDX 4 1 5 2 12 3 6 4 10 5 8 6 2 7 1 8 3 9 7 10 11 12 9 14
REMARK H PARENT 7 11 11 13 9 15
REMARK Flexibility Score: inf
ROOT
ATOM      1  C   UNL     1     167.793 163.703 150.541  1.00  0.00     0.005 A 
ATOM      2  C   UNL     1     168.441 163.292 149.364  1.00  0.00     0.060 A 
ATOM      3  C   UNL     1     166.577 164.402 150.440  1.00  0.00     0.060 A 
ATOM      4  C   UNL     1     167.885 163.571 148.109  1.00  0.00     0.162 A 
ATOM      5  C   UNL     1     166.017 164.684 149.187  1.00  0.00     0.162 A 
ATOM      6  C   UNL     1     166.674 164.267 148.017  1.00  0.00     0.200 A 
ENDROOT
BRANCH   1   7
ATOM      7  C   UNL     1     168.385 163.405 151.864  1.00  0.00     0.072 C 
ATOM      8  O   UNL     1     169.604 163.106 151.968  1.00  0.00    -0.545 OA
ATOM      9  O   UNL     1     167.603 163.450 153.012  1.00  0.00    -0.545 OA
ENDBRANCH   1   7
BRANCH   4  10
ATOM     10  O   UNL     1     168.534 163.160 146.945  1.00  0.00    -0.504 OA
ATOM     11  H   UNL     1     169.119 162.333 146.927  1.00  0.00     0.293 HD
ENDBRANCH   4  10
BRANCH   5  12
ATOM     12  O   UNL     1     164.811 165.377 149.100  1.00  0.00    -0.504 OA
ATOM     13  H   UNL     1     164.755 166.296 148.677  1.00  0.00     0.293 HD
ENDBRANCH   5  12
BRANCH   6  14
ATOM     14  O   UNL     1     166.137 164.537 146.758  1.00  0.00    -0.502 OA
ATOM     15  H   UNL     1     165.481 163.910 146.307  1.00  0.00     0.293 HD
ENDBRANCH   6  14
TORSDOF 4
ENDMDL
MODEL 4
REMARK VINA RESULT:    -4.170      1.399      2.371
REMARK INTER + INTRA:          -4.825
REMARK INTER:                  -4.773
REMARK INTRA:                  -0.052
REMARK UNBOUND:                -0.045
REMARK SMILES O=C([O-])c1cc(O)c(O)c(O)c1
REMARK SMILES IDX 4 1 5 2 12 3 6 4 10 5 8 6 2 7 1 8 3 9 7 10 11 12 9 14
REMARK H PARENT 7 11 11 13 9 15
REMARK Flexibility Score: inf
ROOT
ATOM      1  C   UNL     1     167.792 163.690 150.530  1.00  0.00     0.005 A 
ATOM      2  C   UNL     1     166.575 164.389 150.465  1.00  0.00     0.060 A 
ATOM      3  C   UNL     1     168.404 163.275 149.334  1.00  0.00     0.060 A 
ATOM      4  C   UNL     1     165.979 164.669 149.229  1.00  0.00     0.162 A 
ATOM      5  C   UNL     1     167.812 163.553 148.095  1.00  0.00     0.162 A 
ATOM      6  C   UNL     1     166.595 164.253 148.043  1.00  0.00     0.200 A 
ENDROOT
BRANCH   1   7
ATOM      7  C   UNL     1     168.418 163.397 151.839  1.00  0.00     0.072 C 
ATOM      8  O   UNL     1     169.642 163.113 151.915  1.00  0.00    -0.545 OA
ATOM      9  O   UNL     1     167.661 163.431 153.005  1.00  0.00    -0.545 OA
ENDBRANCH   1   7
BRANCH   4  10
ATOM     10  O   UNL     1     164.770 165.362 149.172  1.00  0.00    -0.504 OA
ATOM     11  H   UNL     1     163.919 164.978 149.563  1.00  0.00     0.293 HD
ENDBRANCH   4  10
BRANCH   5  12
ATOM     12  O   UNL     1     168.428 163.137 146.916  1.00  0.00    -0.504 OA
ATOM     13  H   UNL     1     168.378 163.689 146.067  1.00  0.00     0.293 HD
ENDBRANCH   5  12
BRANCH   6  14
ATOM     14  O   UNL     1     165.985 164.541 146.821  1.00  0.00    -0.502 OA
ATOM     15  H   UNL     1     165.031 164.878 146.761  1.00  0.00     0.293 HD
ENDBRANCH   6  14
TORSDOF 4
ENDMDL
MODEL 5
REMARK VINA RESULT:    -4.005      1.385      4.402
REMARK INTER + INTRA:          -4.635
REMARK INTER:                  -4.587
REMARK INTRA:                  -0.049
REMARK UNBOUND:                -0.045
REMARK SMILES O=C([O-])c1cc(O)c(O)c(O)c1
REMARK SMILES IDX 4 1 5 2 12 3 6 4 10 5 8 6 2 7 1 8 3 9 7 10 11 12 9 14
REMARK H PARENT 7 11 11 13 9 15
REMARK Flexibility Score: inf
ROOT
ATOM      1  C   UNL     1     166.979 164.181 148.875  1.00  0.00     0.005 A 
ATOM      2  C   UNL     1     168.213 163.533 148.702  1.00  0.00     0.060 A 
ATOM      3  C   UNL     1     166.510 164.418 150.179  1.00  0.00     0.060 A 
ATOM      4  C   UNL     1     168.968 163.129 149.811  1.00  0.00     0.162 A 
ATOM      5  C   UNL     1     167.262 164.016 151.292  1.00  0.00     0.162 A 
ATOM      6  C   UNL     1     168.495 163.369 151.106  1.00  0.00     0.200 A 
ENDROOT
BRANCH   1   7
ATOM      7  C   UNL     1     166.186 164.606 147.699  1.00  0.00     0.072 C 
ATOM      8  O   UNL     1     166.040 163.836 146.713  1.00  0.00    -0.545 OA
ATOM      9  O   UNL     1     165.590 165.861 147.667  1.00  0.00    -0.545 OA
ENDBRANCH   1   7
BRANCH   4  10
ATOM     10  O   UNL     1     170.192 162.486 149.632  1.00  0.00    -0.504 OA
ATOM     11  H   UNL     1     171.058 163.006 149.552  1.00  0.00     0.293 HD
ENDBRANCH   4  10
BRANCH   5  12
ATOM     12  O   UNL     1     166.788 164.257 152.580  1.00  0.00    -0.504 OA
ATOM     13  H   UNL     1     166.051 163.694 152.989  1.00  0.00     0.293 HD
ENDBRANCH   5  12
BRANCH   6  14
ATOM     14  O   UNL     1     169.261 162.959 152.198  1.00  0.00    -0.502 OA
ATOM     15  H   UNL     1     170.259 163.126 152.250  1.00  0.00     0.293 HD
ENDBRANCH   6  14
TORSDOF 4
ENDMDL
MODEL 6
REMARK VINA RESULT:    -3.955      1.861      3.768
REMARK INTER + INTRA:          -4.577
REMARK INTER:                  -4.531
REMARK INTRA:                  -0.047
REMARK UNBOUND:                -0.045
REMARK SMILES O=C([O-])c1cc(O)c(O)c(O)c1
REMARK SMILES IDX 4 1 5 2 12 3 6 4 10 5 8 6 2 7 1 8 3 9 7 10 11 12 9 14
REMARK H PARENT 7 11 11 13 9 15
REMARK Flexibility Score: inf
ROOT
ATOM      1  C   UNL     1     166.171 165.098 149.052  1.00  0.00     0.005 A 
ATOM      2  C   UNL     1     166.761 164.369 148.007  1.00  0.00     0.060 A 
ATOM      3  C   UNL     1     166.676 164.952 150.356  1.00  0.00     0.060 A 
ATOM      4  C   UNL     1     167.837 163.508 148.258  1.00  0.00     0.162 A 
ATOM      5  C   UNL     1     167.753 164.092 150.612  1.00  0.00     0.162 A 
ATOM      6  C   UNL     1     168.335 163.368 149.558  1.00  0.00     0.200 A 
ENDROOT
BRANCH   1   7
ATOM      7  C   UNL     1     165.034 166.007 148.781  1.00  0.00     0.072 C 
ATOM      8  O   UNL     1     163.944 165.871 149.397  1.00  0.00    -0.545 OA
ATOM      9  O   UNL     1     165.153 167.024 147.841  1.00  0.00    -0.545 OA
ENDBRANCH   1   7
BRANCH   4  10
ATOM     10  O   UNL     1     168.418 162.785 147.216  1.00  0.00    -0.504 OA
ATOM     11  H   UNL     1     168.086 161.864 146.959  1.00  0.00     0.293 HD
ENDBRANCH   4  10
BRANCH   5  12
ATOM     12  O   UNL     1     168.246 163.955 151.909  1.00  0.00    -0.504 OA
ATOM     13  H   UNL     1     169.240 163.895 152.096  1.00  0.00     0.293 HD
ENDBRANCH   5  12
BRANCH   6  14
ATOM     14  O   UNL     1     169.407 162.504 149.789  1.00  0.00    -0.502 OA
ATOM     15  H   UNL     1     169.378 161.787 150.504  1.00  0.00     0.293 HD
ENDBRANCH   6  14
TORSDOF 4
ENDMDL
MODEL 7
REMARK VINA RESULT:    -3.948      1.883      3.895
REMARK INTER + INTRA:          -4.570
REMARK INTER:                  -4.523
REMARK INTRA:                  -0.047
REMARK UNBOUND:                -0.045
REMARK SMILES O=C([O-])c1cc(O)c(O)c(O)c1
REMARK SMILES IDX 4 1 5 2 12 3 6 4 10 5 8 6 2 7 1 8 3 9 7 10 11 12 9 14
REMARK H PARENT 7 11 11 13 9 15
REMARK Flexibility Score: inf
ROOT
ATOM      1  C   UNL     1     166.158 165.108 149.035  1.00  0.00     0.005 A 
ATOM      2  C   UNL     1     166.663 164.935 150.334  1.00  0.00     0.060 A 
ATOM      3  C   UNL     1     166.754 164.407 147.972  1.00  0.00     0.060 A 
ATOM      4  C   UNL     1     167.744 164.075 150.570  1.00  0.00     0.162 A 
ATOM      5  C   UNL     1     167.836 163.546 148.203  1.00  0.00     0.162 A 
ATOM      6  C   UNL     1     168.332 163.380 149.507  1.00  0.00     0.200 A 
ENDROOT
BRANCH   1   7
ATOM      7  C   UNL     1     165.015 166.018 148.792  1.00  0.00     0.072 C 
ATOM      8  O   UNL     1     163.930 165.862 149.412  1.00  0.00    -0.545 OA
ATOM      9  O   UNL     1     165.123 167.057 147.876  1.00  0.00    -0.545 OA
ENDBRANCH   1   7
BRANCH   4  10
ATOM     10  O   UNL     1     168.241 163.908 151.862  1.00  0.00    -0.504 OA
ATOM     11  H   UNL     1     168.978 163.243 152.066  1.00  0.00     0.293 HD
ENDBRANCH   4  10
BRANCH   5  12
ATOM     12  O   UNL     1     168.419 162.856 147.142  1.00  0.00    -0.504 OA
ATOM     13  H   UNL     1     169.379 163.021 146.864  1.00  0.00     0.293 HD
ENDBRANCH   5  12
BRANCH   6  14
ATOM     14  O   UNL     1     169.409 162.530 149.761  1.00  0.00    -0.502 OA
ATOM     15  H   UNL     1     169.301 161.523 149.807  1.00  0.00     0.293 HD
ENDBRANCH   6  14
TORSDOF 4
ENDMDL
MODEL 8
REMARK VINA RESULT:    -3.779     13.381     15.345
REMARK INTER + INTRA:          -4.376
REMARK INTER:                  -4.330
REMARK INTRA:                  -0.046
REMARK UNBOUND:                -0.045
REMARK SMILES O=C([O-])c1cc(O)c(O)c(O)c1
REMARK SMILES IDX 4 1 5 2 12 3 6 4 10 5 8 6 2 7 1 8 3 9 7 10 11 12 9 14
REMARK H PARENT 7 11 11 13 9 15
REMARK Flexibility Score: inf
ROOT
ATOM      1  C   UNL     1     153.906 160.539 156.072  1.00  0.00     0.005 A 
ATOM      2  C   UNL     1     153.125 161.011 157.140  1.00  0.00     0.060 A 
ATOM      3  C   UNL     1     155.232 160.987 155.947  1.00  0.00     0.060 A 
ATOM      4  C   UNL     1     153.658 161.915 158.068  1.00  0.00     0.162 A 
ATOM      5  C   UNL     1     155.771 161.892 156.873  1.00  0.00     0.162 A 
ATOM      6  C   UNL     1     154.980 162.357 157.937  1.00  0.00     0.200 A 
ENDROOT
BRANCH   1   7
ATOM      7  C   UNL     1     153.336 159.584 155.095  1.00  0.00     0.072 C 
ATOM      8  O   UNL     1     153.263 159.884 153.874  1.00  0.00    -0.545 OA
ATOM      9  O   UNL     1     152.875 158.340 155.511  1.00  0.00    -0.545 OA
ENDBRANCH   1   7
BRANCH   4  10
ATOM     10  O   UNL     1     152.877 162.381 159.125  1.00  0.00    -0.504 OA
ATOM     11  H   UNL     1     152.029 162.911 158.966  1.00  0.00     0.293 HD
ENDBRANCH   4  10
BRANCH   5  12
ATOM     12  O   UNL     1     157.087 162.329 156.739  1.00  0.00    -0.504 OA
ATOM     13  H   UNL     1     157.872 161.711 156.908  1.00  0.00     0.293 HD
ENDBRANCH   5  12
BRANCH   6  14
ATOM     14  O   UNL     1     155.493 163.258 158.870  1.00  0.00    -0.502 OA
ATOM     15  H   UNL     1     154.981 164.082 159.162  1.00  0.00     0.293 HD
ENDBRANCH   6  14
TORSDOF 4
ENDMDL
