MODEL 1
REMARK VINA RESULT:    -4.689      0.000      0.000
REMARK INTER + INTRA:          -5.279
REMARK INTER:                  -5.100
REMARK INTRA:                  -0.179
REMARK UNBOUND:                -0.179
REMARK SMILES C=C(C)[C@H]1CC[C@H](C)C[C@@H]1O
REMARK SMILES IDX 8 1 7 2 6 3 5 4 4 5 10 6 9 7 11 8 2 10 1 11 3 12
REMARK H PARENT 11 9
REMARK Flexibility Score: inf
ROOT
ATOM      1  C   UNL     1     113.267 116.047 131.115  1.00  0.00     0.008 C 
ATOM      2  C   UNL     1     112.346 116.560 130.003  1.00  0.00    -0.012 C 
ATOM      3  C   UNL     1     113.067 116.517 128.643  1.00  0.00     0.004 C 
ATOM      4  C   UNL     1     112.150 117.013 127.519  1.00  0.00     0.011 C 
ATOM      5  C   UNL     1     110.845 116.191 127.466  1.00  0.00     0.043 C 
ATOM      6  C   UNL     1     110.114 116.228 128.829  1.00  0.00     0.121 C 
ATOM      7  C   UNL     1     111.046 115.734 129.952  1.00  0.00     0.035 C 
ENDROOT
BRANCH   6   8
ATOM      8  O   UNL     1     108.976 115.407 128.770  1.00  0.00    -0.392 OA
ATOM      9  H   UNL     1     108.244 115.959 128.391  1.00  0.00     0.210 HD
ENDBRANCH   6   8
BRANCH   5  10
ATOM     10  C   UNL     1     109.945 116.666 126.331  1.00  0.00    -0.075 C 
ATOM     11  C   UNL     1     109.779 115.933 125.216  1.00  0.00     0.008 C 
ATOM     12  C   UNL     1     109.220 117.983 126.443  1.00  0.00     0.039 C 
ENDBRANCH   5  10
TORSDOF 2
ENDMDL
MODEL 2
REMARK VINA RESULT:    -4.650      1.845      4.585
REMARK INTER + INTRA:          -5.237
REMARK INTER:                  -5.131
REMARK INTRA:                  -0.106
REMARK UNBOUND:                -0.179
REMARK SMILES C=C(C)[C@H]1CC[C@H](C)C[C@@H]1O
REMARK SMILES IDX 8 1 7 2 6 3 5 4 4 5 10 6 9 7 11 8 2 10 1 11 3 12
REMARK H PARENT 11 9
REMARK Flexibility Score: inf
ROOT
ATOM      1  C   UNL     1     109.457 117.729 124.551  1.00  0.00     0.008 C 
ATOM      2  C   UNL     1     109.451 117.498 126.066  1.00  0.00    -0.012 C 
ATOM      3  C   UNL     1     109.737 116.019 126.387  1.00  0.00     0.004 C 
ATOM      4  C   UNL     1     109.750 115.778 127.901  1.00  0.00     0.011 C 
ATOM      5  C   UNL     1     110.779 116.693 128.598  1.00  0.00     0.043 C 
ATOM      6  C   UNL     1     110.500 118.181 128.279  1.00  0.00     0.121 C 
ATOM      7  C   UNL     1     110.483 118.411 126.757  1.00  0.00     0.035 C 
ENDROOT
BRANCH   6   8
ATOM      8  O   UNL     1     111.500 118.977 128.862  1.00  0.00    -0.392 OA
ATOM      9  H   UNL     1     112.018 118.388 129.469  1.00  0.00     0.210 HD
ENDBRANCH   6   8
BRANCH   5  10
ATOM     10  C   UNL     1     110.812 116.435 130.100  1.00  0.00    -0.075 C 
ATOM     11  C   UNL     1     109.881 116.954 130.919  1.00  0.00     0.008 C 
ATOM     12  C   UNL     1     111.903 115.585 130.697  1.00  0.00     0.039 C 
ENDBRANCH   5  10
TORSDOF 2
ENDMDL
MODEL 3
REMARK VINA RESULT:    -4.592     13.326     14.339
REMARK INTER + INTRA:          -5.174
REMARK INTER:                  -4.979
REMARK INTRA:                  -0.195
REMARK UNBOUND:                -0.179
REMARK SMILES C=C(C)[C@H]1CC[C@H](C)C[C@@H]1O
REMARK SMILES IDX 8 1 7 2 6 3 5 4 4 5 10 6 9 7 11 8 2 10 1 11 3 12
REMARK H PARENT 11 9
REMARK Flexibility Score: inf
ROOT
ATOM      1  C   UNL     1     115.978 125.187 125.922  1.00  0.00     0.008 C 
ATOM      2  C   UNL     1     116.070 126.694 125.661  1.00  0.00    -0.012 C 
ATOM      3  C   UNL     1     115.228 127.472 126.689  1.00  0.00     0.004 C 
ATOM      4  C   UNL     1     115.325 128.983 126.448  1.00  0.00     0.011 C 
ATOM      5  C   UNL     1     116.793 129.456 126.481  1.00  0.00     0.043 C 
ATOM      6  C   UNL     1     117.647 128.678 125.452  1.00  0.00     0.121 C 
ATOM      7  C   UNL     1     117.538 127.162 125.699  1.00  0.00     0.035 C 
ENDROOT
BRANCH   6   8
ATOM      8  O   UNL     1     118.989 129.076 125.565  1.00  0.00    -0.392 OA
ATOM      9  H   UNL     1     119.521 128.252 125.717  1.00  0.00     0.210 HD
ENDBRANCH   6   8
BRANCH   5  10
ATOM     10  C   UNL     1     116.887 130.962 126.268  1.00  0.00    -0.075 C 
ATOM     11  C   UNL     1     116.445 131.538 125.136  1.00  0.00     0.008 C 
ATOM     12  C   UNL     1     117.487 131.840 127.336  1.00  0.00     0.039 C 
ENDBRANCH   5  10
TORSDOF 2
ENDMDL
MODEL 4
REMARK VINA RESULT:    -4.502      2.090      2.778
REMARK INTER + INTRA:          -5.076
REMARK INTER:                  -4.890
REMARK INTRA:                  -0.187
REMARK UNBOUND:                -0.179
REMARK SMILES C=C(C)[C@H]1CC[C@H](C)C[C@@H]1O
REMARK SMILES IDX 8 1 7 2 6 3 5 4 4 5 10 6 9 7 11 8 2 10 1 11 3 12
REMARK H PARENT 11 9
REMARK Flexibility Score: inf
ROOT
ATOM      1  C   UNL     1     111.127 115.726 130.938  1.00  0.00     0.008 C 
ATOM      2  C   UNL     1     111.101 116.278 129.509  1.00  0.00    -0.012 C 
ATOM      3  C   UNL     1     109.805 115.857 128.791  1.00  0.00     0.004 C 
ATOM      4  C   UNL     1     109.760 116.417 127.365  1.00  0.00     0.011 C 
ATOM      5  C   UNL     1     109.903 117.954 127.369  1.00  0.00     0.043 C 
ATOM      6  C   UNL     1     111.202 118.385 128.089  1.00  0.00     0.121 C 
ATOM      7  C   UNL     1     111.240 117.813 129.518  1.00  0.00     0.035 C 
ENDROOT
BRANCH   6   8
ATOM      8  O   UNL     1     111.260 119.787 128.145  1.00  0.00    -0.392 OA
ATOM      9  H   UNL     1     111.645 120.024 129.028  1.00  0.00     0.210 HD
ENDBRANCH   6   8
BRANCH   5  10
ATOM     10  C   UNL     1     109.831 118.513 125.953  1.00  0.00    -0.075 C 
ATOM     11  C   UNL     1     108.875 119.388 125.594  1.00  0.00     0.008 C 
ATOM     12  C   UNL     1     110.842 118.087 124.920  1.00  0.00     0.039 C 
ENDBRANCH   5  10
TORSDOF 2
ENDMDL
MODEL 5
REMARK VINA RESULT:    -4.485      2.155      4.995
REMARK INTER + INTRA:          -5.058
REMARK INTER:                  -4.945
REMARK INTRA:                  -0.113
REMARK UNBOUND:                -0.179
REMARK SMILES C=C(C)[C@H]1CC[C@H](C)C[C@@H]1O
REMARK SMILES IDX 8 1 7 2 6 3 5 4 4 5 10 6 9 7 11 8 2 10 1 11 3 12
REMARK H PARENT 11 9
REMARK Flexibility Score: inf
ROOT
ATOM      1  C   UNL     1     109.009 119.045 123.007  1.00  0.00     0.008 C 
ATOM      2  C   UNL     1     108.942 118.379 124.385  1.00  0.00    -0.012 C 
ATOM      3  C   UNL     1     110.036 117.303 124.518  1.00  0.00     0.004 C 
ATOM      4  C   UNL     1     109.988 116.640 125.900  1.00  0.00     0.011 C 
ATOM      5  C   UNL     1     110.121 117.690 127.023  1.00  0.00     0.043 C 
ATOM      6  C   UNL     1     109.027 118.776 126.895  1.00  0.00     0.121 C 
ATOM      7  C   UNL     1     109.078 119.431 125.503  1.00  0.00     0.035 C 
ENDROOT
BRANCH   6   8
ATOM      8  O   UNL     1     109.226 119.755 127.882  1.00  0.00    -0.392 OA
ATOM      9  H   UNL     1     109.277 120.628 127.413  1.00  0.00     0.210 HD
ENDBRANCH   6   8
BRANCH   5  10
ATOM     10  C   UNL     1     110.101 117.028 128.395  1.00  0.00    -0.075 C 
ATOM     11  C   UNL     1     109.246 116.031 128.679  1.00  0.00     0.008 C 
ATOM     12  C   UNL     1     111.052 117.489 129.470  1.00  0.00     0.039 C 
ENDBRANCH   5  10
TORSDOF 2
ENDMDL
MODEL 6
REMARK VINA RESULT:    -4.471      2.009      5.058
REMARK INTER + INTRA:          -5.043
REMARK INTER:                  -4.866
REMARK INTRA:                  -0.177
REMARK UNBOUND:                -0.179
REMARK SMILES C=C(C)[C@H]1CC[C@H](C)C[C@@H]1O
REMARK SMILES IDX 8 1 7 2 6 3 5 4 4 5 10 6 9 7 11 8 2 10 1 11 3 12
REMARK H PARENT 11 9
REMARK Flexibility Score: inf
ROOT
ATOM      1  C   UNL     1     109.131 119.346 122.837  1.00  0.00     0.008 C 
ATOM      2  C   UNL     1     109.717 118.700 124.098  1.00  0.00    -0.012 C 
ATOM      3  C   UNL     1     109.051 119.279 125.360  1.00  0.00     0.004 C 
ATOM      4  C   UNL     1     109.617 118.628 126.627  1.00  0.00     0.011 C 
ATOM      5  C   UNL     1     109.452 117.094 126.582  1.00  0.00     0.043 C 
ATOM      6  C   UNL     1     110.117 116.505 125.316  1.00  0.00     0.121 C 
ATOM      7  C   UNL     1     109.546 117.169 124.050  1.00  0.00     0.035 C 
ENDROOT
BRANCH   6   8
ATOM      8  O   UNL     1     109.879 115.121 125.267  1.00  0.00    -0.392 OA
ATOM      9  H   UNL     1     109.742 114.820 126.203  1.00  0.00     0.210 HD
ENDBRANCH   6   8
BRANCH   5  10
ATOM     10  C   UNL     1     109.991 116.449 127.854  1.00  0.00    -0.075 C 
ATOM     11  C   UNL     1     109.164 115.951 128.790  1.00  0.00     0.008 C 
ATOM     12  C   UNL     1     111.477 116.361 128.086  1.00  0.00     0.039 C 
ENDBRANCH   5  10
TORSDOF 2
ENDMDL
MODEL 7
REMARK VINA RESULT:    -4.463     15.867     17.176
REMARK INTER + INTRA:          -5.034
REMARK INTER:                  -4.868
REMARK INTRA:                  -0.166
REMARK UNBOUND:                -0.179
REMARK SMILES C=C(C)[C@H]1CC[C@H](C)C[C@@H]1O
REMARK SMILES IDX 8 1 7 2 6 3 5 4 4 5 10 6 9 7 11 8 2 10 1 11 3 12
REMARK H PARENT 11 9
REMARK Flexibility Score: inf
ROOT
ATOM      1  C   UNL     1     119.031 116.627 116.166  1.00  0.00     0.008 C 
ATOM      2  C   UNL     1     120.439 117.134 115.837  1.00  0.00    -0.012 C 
ATOM      3  C   UNL     1     120.370 118.334 114.875  1.00  0.00     0.004 C 
ATOM      4  C   UNL     1     121.773 118.861 114.552  1.00  0.00     0.011 C 
ATOM      5  C   UNL     1     122.531 119.242 115.841  1.00  0.00     0.043 C 
ATOM      6  C   UNL     1     122.604 118.042 116.814  1.00  0.00     0.121 C 
ATOM      7  C   UNL     1     121.191 117.517 117.127  1.00  0.00     0.035 C 
ENDROOT
BRANCH   6   8
ATOM      8  O   UNL     1     123.229 118.446 118.005  1.00  0.00    -0.392 OA
ATOM      9  H   UNL     1     124.150 118.725 117.765  1.00  0.00     0.210 HD
ENDBRANCH   6   8
BRANCH   5  10
ATOM     10  C   UNL     1     123.916 119.792 115.518  1.00  0.00    -0.075 C 
ATOM     11  C   UNL     1     124.181 121.108 115.590  1.00  0.00     0.008 C 
ATOM     12  C   UNL     1     125.023 118.856 115.106  1.00  0.00     0.039 C 
ENDBRANCH   5  10
TORSDOF 2
ENDMDL
MODEL 8
REMARK VINA RESULT:    -4.463      2.794      4.077
REMARK INTER + INTRA:          -5.033
REMARK INTER:                  -4.863
REMARK INTRA:                  -0.170
REMARK UNBOUND:                -0.179
REMARK SMILES C=C(C)[C@H]1CC[C@H](C)C[C@@H]1O
REMARK SMILES IDX 8 1 7 2 6 3 5 4 4 5 10 6 9 7 11 8 2 10 1 11 3 12
REMARK H PARENT 11 9
REMARK Flexibility Score: inf
ROOT
ATOM      1  C   UNL     1     109.540 115.762 128.355  1.00  0.00     0.008 C 
ATOM      2  C   UNL     1     110.054 116.701 127.258  1.00  0.00    -0.012 C 
ATOM      3  C   UNL     1     110.032 115.996 125.890  1.00  0.00     0.004 C 
ATOM      4  C   UNL     1     110.528 116.931 124.781  1.00  0.00     0.011 C 
ATOM      5  C   UNL     1     109.693 118.228 124.736  1.00  0.00     0.043 C 
ATOM      6  C   UNL     1     109.708 118.942 126.108  1.00  0.00     0.121 C 
ATOM      7  C   UNL     1     109.214 117.992 127.215  1.00  0.00     0.035 C 
ENDROOT
BRANCH   6   8
ATOM      8  O   UNL     1     108.875 120.072 126.054  1.00  0.00    -0.392 OA
ATOM      9  H   UNL     1     108.085 119.873 126.620  1.00  0.00     0.210 HD
ENDBRANCH   6   8
BRANCH   5  10
ATOM     10  C   UNL     1     110.169 119.146 123.617  1.00  0.00    -0.075 C 
ATOM     11  C   UNL     1     109.466 119.285 122.479  1.00  0.00     0.008 C 
ATOM     12  C   UNL     1     111.452 119.921 123.770  1.00  0.00     0.039 C 
ENDBRANCH   5  10
TORSDOF 2
ENDMDL
MODEL 9
REMARK VINA RESULT:    -4.424      1.727      2.390
REMARK INTER + INTRA:          -4.991
REMARK INTER:                  -4.795
REMARK INTRA:                  -0.196
REMARK UNBOUND:                -0.179
REMARK SMILES C=C(C)[C@H]1CC[C@H](C)C[C@@H]1O
REMARK SMILES IDX 8 1 7 2 6 3 5 4 4 5 10 6 9 7 11 8 2 10 1 11 3 12
REMARK H PARENT 11 9
REMARK Flexibility Score: inf
ROOT
ATOM      1  C   UNL     1     111.540 115.683 130.945  1.00  0.00     0.008 C 
ATOM      2  C   UNL     1     111.140 115.694 129.465  1.00  0.00    -0.012 C 
ATOM      3  C   UNL     1     109.649 116.045 129.312  1.00  0.00     0.004 C 
ATOM      4  C   UNL     1     109.241 116.075 127.834  1.00  0.00     0.011 C 
ATOM      5  C   UNL     1     110.116 117.067 127.039  1.00  0.00     0.043 C 
ATOM      6  C   UNL     1     111.616 116.723 127.189  1.00  0.00     0.121 C 
ATOM      7  C   UNL     1     112.014 116.689 128.676  1.00  0.00     0.035 C 
ENDROOT
BRANCH   6   8
ATOM      8  O   UNL     1     112.384 117.690 126.520  1.00  0.00    -0.392 OA
ATOM      9  H   UNL     1     112.722 117.264 125.690  1.00  0.00     0.210 HD
ENDBRANCH   6   8
BRANCH   5  10
ATOM     10  C   UNL     1     109.692 117.117 125.575  1.00  0.00    -0.075 C 
ATOM     11  C   UNL     1     109.720 116.018 124.801  1.00  0.00     0.008 C 
ATOM     12  C   UNL     1     109.233 118.416 124.966  1.00  0.00     0.039 C 
ENDBRANCH   5  10
TORSDOF 2
ENDMDL
