MODEL 1
REMARK VINA RESULT:    -3.468      0.000      0.000
REMARK INTER + INTRA:          -3.898
REMARK INTER:                  -3.874
REMARK INTRA:                  -0.024
REMARK UNBOUND:                -0.024
REMARK SMILES CCCC(=O)[O-]
REMARK SMILES IDX 3 1 4 2 5 3 6 4 2 5 1 6
REMARK H PARENT
REMARK Flexibility Score: inf
ROOT
ATOM      1  C   UNL     1      12.895  14.840  14.888  1.00  0.00     0.052 C 
ENDROOT
BRANCH   1   2
ATOM      2  C   UNL     1      13.282  15.290  13.512  1.00  0.00     0.041 C 
ATOM      3  O   UNL     1      13.782  16.433  13.337  1.00  0.00    -0.550 OA
ATOM      4  O   UNL     1      13.061  14.462  12.420  1.00  0.00    -0.550 OA
ENDBRANCH   1   2
BRANCH   1   5
ATOM      5  C   UNL     1      13.322  13.391  15.154  1.00  0.00     0.003 C 
ATOM      6  C   UNL     1      12.146  12.417  15.085  1.00  0.00     0.004 C 
ENDBRANCH   1   5
TORSDOF 2
ENDMDL
MODEL 2
REMARK VINA RESULT:    -3.201      1.737      2.688
REMARK INTER + INTRA:          -3.599
REMARK INTER:                  -3.564
REMARK INTRA:                  -0.035
REMARK UNBOUND:                -0.024
REMARK SMILES CCCC(=O)[O-]
REMARK SMILES IDX 3 1 4 2 5 3 6 4 2 5 1 6
REMARK H PARENT
REMARK Flexibility Score: inf
ROOT
ATOM      1  C   UNL     1      12.504  12.198  13.780  1.00  0.00     0.052 C 
ENDROOT
BRANCH   1   2
ATOM      2  C   UNL     1      12.378  12.969  12.501  1.00  0.00     0.041 C 
ATOM      3  O   UNL     1      11.766  12.470  11.519  1.00  0.00    -0.550 OA
ATOM      4  O   UNL     1      12.964  14.222  12.381  1.00  0.00    -0.550 OA
ENDBRANCH   1   2
BRANCH   1   5
ATOM      5  C   UNL     1      12.289  13.093  15.007  1.00  0.00     0.003 C 
ATOM      6  C   UNL     1      13.590  13.369  15.761  1.00  0.00     0.004 C 
ENDBRANCH   1   5
TORSDOF 2
ENDMDL
MODEL 3
REMARK VINA RESULT:    -3.157      2.375      3.428
REMARK INTER + INTRA:          -3.550
REMARK INTER:                  -3.538
REMARK INTRA:                  -0.012
REMARK UNBOUND:                -0.024
REMARK SMILES CCCC(=O)[O-]
REMARK SMILES IDX 3 1 4 2 5 3 6 4 2 5 1 6
REMARK H PARENT
REMARK Flexibility Score: inf
ROOT
ATOM      1  C   UNL     1      13.164  13.756  14.676  1.00  0.00     0.052 C 
ENDROOT
BRANCH   1   2
ATOM      2  C   UNL     1      12.513  12.412  14.547  1.00  0.00     0.041 C 
ATOM      3  O   UNL     1      12.744  11.513  15.399  1.00  0.00    -0.550 OA
ATOM      4  O   UNL     1      11.679  12.142  13.470  1.00  0.00    -0.550 OA
ENDBRANCH   1   2
BRANCH   1   5
ATOM      5  C   UNL     1      13.245  14.481  13.326  1.00  0.00     0.003 C 
ATOM      6  C   UNL     1      13.344  15.998  13.487  1.00  0.00     0.004 C 
ENDBRANCH   1   5
TORSDOF 2
ENDMDL
MODEL 4
REMARK VINA RESULT:    -3.103      2.579      3.010
REMARK INTER + INTRA:          -3.490
REMARK INTER:                  -3.481
REMARK INTRA:                  -0.010
REMARK UNBOUND:                -0.024
REMARK SMILES CCCC(=O)[O-]
REMARK SMILES IDX 3 1 4 2 5 3 6 4 2 5 1 6
REMARK H PARENT
REMARK Flexibility Score: inf
ROOT
ATOM      1  C   UNL     1      12.491  12.648  14.070  1.00  0.00     0.052 C 
ENDROOT
BRANCH   1   2
ATOM      2  C   UNL     1      13.142  13.580  15.047  1.00  0.00     0.041 C 
ATOM      3  O   UNL     1      13.839  13.123  15.990  1.00  0.00    -0.550 OA
ATOM      4  O   UNL     1      12.951  14.951  14.934  1.00  0.00    -0.550 OA
ENDBRANCH   1   2
BRANCH   1   5
ATOM      5  C   UNL     1      12.768  13.059  12.619  1.00  0.00     0.003 C 
ATOM      6  C   UNL     1      11.729  12.499  11.647  1.00  0.00     0.004 C 
ENDBRANCH   1   5
TORSDOF 2
ENDMDL
MODEL 5
REMARK VINA RESULT:    -2.564      9.153     10.357
REMARK INTER + INTRA:          -2.888
REMARK INTER:                  -2.881
REMARK INTRA:                  -0.007
REMARK UNBOUND:                -0.024
REMARK SMILES CCCC(=O)[O-]
REMARK SMILES IDX 3 1 4 2 5 3 6 4 2 5 1 6
REMARK H PARENT
REMARK Flexibility Score: inf
ROOT
ATOM      1  C   UNL     1      12.509   5.451  18.832  1.00  0.00     0.052 C 
ENDROOT
BRANCH   1   2
ATOM      2  C   UNL     1      12.754   5.655  17.368  1.00  0.00     0.041 C 
ATOM      3  O   UNL     1      12.397   6.725  16.808  1.00  0.00    -0.550 OA
ATOM      4  O   UNL     1      13.345   4.649  16.614  1.00  0.00    -0.550 OA
ENDBRANCH   1   2
BRANCH   1   5
ATOM      5  C   UNL     1      12.238   3.979  19.165  1.00  0.00     0.003 C 
ATOM      6  C   UNL     1      11.488   3.811  20.487  1.00  0.00     0.004 C 
ENDBRANCH   1   5
TORSDOF 2
ENDMDL
MODEL 6
REMARK VINA RESULT:    -2.449      1.705      2.055
REMARK INTER + INTRA:          -2.760
REMARK INTER:                  -2.783
REMARK INTRA:                   0.023
REMARK UNBOUND:                -0.024
REMARK SMILES CCCC(=O)[O-]
REMARK SMILES IDX 3 1 4 2 5 3 6 4 2 5 1 6
REMARK H PARENT
REMARK Flexibility Score: inf
ROOT
ATOM      1  C   UNL     1      12.728  13.032  13.579  1.00  0.00     0.052 C 
ENDROOT
BRANCH   1   2
ATOM      2  C   UNL     1      13.168  14.271  14.296  1.00  0.00     0.041 C 
ATOM      3  O   UNL     1      13.211  14.294  15.555  1.00  0.00    -0.550 OA
ATOM      4  O   UNL     1      13.500  15.412  13.576  1.00  0.00    -0.550 OA
ENDBRANCH   1   2
BRANCH   1   5
ATOM      5  C   UNL     1      11.837  12.149  14.462  1.00  0.00     0.003 C 
ATOM      6  C   UNL     1      12.621  11.024  15.138  1.00  0.00     0.004 C 
ENDBRANCH   1   5
TORSDOF 2
ENDMDL
MODEL 7
REMARK VINA RESULT:    -2.059     17.215     17.900
REMARK INTER + INTRA:          -2.324
REMARK INTER:                  -2.319
REMARK INTRA:                  -0.005
REMARK UNBOUND:                -0.024
REMARK SMILES CCCC(=O)[O-]
REMARK SMILES IDX 3 1 4 2 5 3 6 4 2 5 1 6
REMARK H PARENT
REMARK Flexibility Score: inf
ROOT
ATOM      1  C   UNL     1      23.478  -0.829  12.745  1.00  0.00     0.052 C 
ENDROOT
BRANCH   1   2
ATOM      2  C   UNL     1      22.825   0.341  12.074  1.00  0.00     0.041 C 
ATOM      3  O   UNL     1      23.524   1.301  11.655  1.00  0.00    -0.550 OA
ATOM      4  O   UNL     1      21.443   0.386  11.941  1.00  0.00    -0.550 OA
ENDBRANCH   1   2
BRANCH   1   5
ATOM      5  C   UNL     1      23.795  -0.537  14.218  1.00  0.00     0.003 C 
ATOM      6  C   UNL     1      24.029  -1.814  15.026  1.00  0.00     0.004 C 
ENDBRANCH   1   5
TORSDOF 2
ENDMDL
MODEL 8
REMARK VINA RESULT:    -2.051     16.302     16.853
REMARK INTER + INTRA:          -2.315
REMARK INTER:                  -2.312
REMARK INTRA:                  -0.004
REMARK UNBOUND:                -0.024
REMARK SMILES CCCC(=O)[O-]
REMARK SMILES IDX 3 1 4 2 5 3 6 4 2 5 1 6
REMARK H PARENT
REMARK Flexibility Score: inf
ROOT
ATOM      1  C   UNL     1      16.580  15.673  29.894  1.00  0.00     0.052 C 
ENDROOT
BRANCH   1   2
ATOM      2  C   UNL     1      15.375  16.552  30.031  1.00  0.00     0.041 C 
ATOM      3  O   UNL     1      15.130  17.125  31.125  1.00  0.00    -0.550 OA
ATOM      4  O   UNL     1      14.503  16.711  28.961  1.00  0.00    -0.550 OA
ENDBRANCH   1   2
BRANCH   1   5
ATOM      5  C   UNL     1      17.563  15.869  31.055  1.00  0.00     0.003 C 
ATOM      6  C   UNL     1      18.523  17.035  30.812  1.00  0.00     0.004 C 
ENDBRANCH   1   5
TORSDOF 2
ENDMDL
MODEL 9
REMARK VINA RESULT:    -2.045     16.904     17.610
REMARK INTER + INTRA:          -2.309
REMARK INTER:                  -2.258
REMARK INTRA:                  -0.050
REMARK UNBOUND:                -0.024
REMARK SMILES CCCC(=O)[O-]
REMARK SMILES IDX 3 1 4 2 5 3 6 4 2 5 1 6
REMARK H PARENT
REMARK Flexibility Score: inf
ROOT
ATOM      1  C   UNL     1      23.985   0.727  12.733  1.00  0.00     0.052 C 
ENDROOT
BRANCH   1   2
ATOM      2  C   UNL     1      23.907   0.596  14.223  1.00  0.00     0.041 C 
ATOM      3  O   UNL     1      23.724  -0.533  14.751  1.00  0.00    -0.550 OA
ATOM      4  O   UNL     1      24.004   1.724  15.028  1.00  0.00    -0.550 OA
ENDBRANCH   1   2
BRANCH   1   5
ATOM      5  C   UNL     1      22.951  -0.162  12.029  1.00  0.00     0.003 C 
ATOM      6  C   UNL     1      21.563   0.478  11.992  1.00  0.00     0.004 C 
ENDBRANCH   1   5
TORSDOF 2
ENDMDL
