MODEL 1
REMARK VINA RESULT:    -4.287      0.000      0.000
REMARK INTER + INTRA:          -4.560
REMARK INTER:                  -4.537
REMARK INTRA:                  -0.023
REMARK UNBOUND:                -0.023
REMARK SMILES O=C([O-])c1cccnc1
REMARK SMILES IDX 4 1 5 2 9 3 6 4 8 5 7 6 2 7 1 8 3 9
REMARK H PARENT
REMARK Flexibility Score: inf
ROOT
ATOM      1  C   UNL     1       4.416  -0.776 -22.519  1.00  0.00     0.016 A 
ATOM      2  C   UNL     1       5.296  -1.551 -23.292  1.00  0.00     0.013 A 
ATOM      3  C   UNL     1       3.148  -1.304 -22.219  1.00  0.00     0.120 A 
ATOM      4  C   UNL     1       4.906  -2.812 -23.746  1.00  0.00     0.021 A 
ATOM      5  N   UNL     1       2.793  -2.536 -22.673  1.00  0.00    -0.264 NA
ATOM      6  C   UNL     1       3.636  -3.293 -23.422  1.00  0.00     0.111 A 
ENDROOT
BRANCH   1   7
ATOM      7  C   UNL     1       4.818   0.561 -22.032  1.00  0.00     0.073 C 
ATOM      8  O   UNL     1       6.034   0.888 -21.986  1.00  0.00    -0.545 OA
ATOM      9  O   UNL     1       3.857   1.477 -21.617  1.00  0.00    -0.545 OA
ENDBRANCH   1   7
TORSDOF 1
ENDMDL
MODEL 2
REMARK VINA RESULT:    -4.223      3.272      3.938
REMARK INTER + INTRA:          -4.493
REMARK INTER:                  -4.472
REMARK INTRA:                  -0.021
REMARK UNBOUND:                -0.023
REMARK SMILES O=C([O-])c1cccnc1
REMARK SMILES IDX 4 1 5 2 9 3 6 4 8 5 7 6 2 7 1 8 3 9
REMARK H PARENT
REMARK Flexibility Score: inf
ROOT
ATOM      1  C   UNL     1       3.014  -2.843 -22.791  1.00  0.00     0.016 A 
ATOM      2  C   UNL     1       4.211  -3.035 -23.501  1.00  0.00     0.013 A 
ATOM      3  C   UNL     1       2.812  -1.613 -22.140  1.00  0.00     0.120 A 
ATOM      4  C   UNL     1       5.167  -2.019 -23.550  1.00  0.00     0.021 A 
ATOM      5  N   UNL     1       3.761  -0.640 -22.204  1.00  0.00    -0.264 NA
ATOM      6  C   UNL     1       4.922  -0.815 -22.888  1.00  0.00     0.111 A 
ENDROOT
BRANCH   1   7
ATOM      7  C   UNL     1       1.993  -3.911 -22.732  1.00  0.00     0.073 C 
ATOM      8  O   UNL     1       2.335  -5.123 -22.680  1.00  0.00    -0.545 OA
ATOM      9  O   UNL     1       0.640  -3.592 -22.736  1.00  0.00    -0.545 OA
ENDBRANCH   1   7
TORSDOF 1
ENDMDL
MODEL 3
REMARK VINA RESULT:    -4.115      2.732      3.407
REMARK INTER + INTRA:          -4.379
REMARK INTER:                  -4.363
REMARK INTRA:                  -0.016
REMARK UNBOUND:                -0.023
REMARK SMILES O=C([O-])c1cccnc1
REMARK SMILES IDX 4 1 5 2 9 3 6 4 8 5 7 6 2 7 1 8 3 9
REMARK H PARENT
REMARK Flexibility Score: inf
ROOT
ATOM      1  C   UNL     1       4.501  -2.458 -23.767  1.00  0.00     0.016 A 
ATOM      2  C   UNL     1       4.453  -1.244 -23.063  1.00  0.00     0.013 A 
ATOM      3  C   UNL     1       3.525  -3.432 -23.488  1.00  0.00     0.120 A 
ATOM      4  C   UNL     1       3.456  -1.024 -22.111  1.00  0.00     0.021 A 
ATOM      5  N   UNL     1       2.564  -3.192 -22.555  1.00  0.00    -0.264 NA
ATOM      6  C   UNL     1       2.510  -2.021 -21.868  1.00  0.00     0.111 A 
ENDROOT
BRANCH   1   7
ATOM      7  C   UNL     1       5.551  -2.702 -24.779  1.00  0.00     0.073 C 
ATOM      8  O   UNL     1       6.610  -3.312 -24.469  1.00  0.00    -0.545 OA
ATOM      9  O   UNL     1       5.386  -2.260 -26.086  1.00  0.00    -0.545 OA
ENDBRANCH   1   7
TORSDOF 1
ENDMDL
MODEL 4
REMARK VINA RESULT:    -4.068      2.791      3.463
REMARK INTER + INTRA:          -4.329
REMARK INTER:                  -4.313
REMARK INTRA:                  -0.016
REMARK UNBOUND:                -0.023
REMARK SMILES O=C([O-])c1cccnc1
REMARK SMILES IDX 4 1 5 2 9 3 6 4 8 5 7 6 2 7 1 8 3 9
REMARK H PARENT
REMARK Flexibility Score: inf
ROOT
ATOM      1  C   UNL     1       4.488  -2.494 -23.688  1.00  0.00     0.016 A 
ATOM      2  C   UNL     1       3.500  -3.460 -23.438  1.00  0.00     0.013 A 
ATOM      3  C   UNL     1       4.428  -1.278 -22.985  1.00  0.00     0.120 A 
ATOM      4  C   UNL     1       2.489  -3.204 -22.510  1.00  0.00     0.021 A 
ATOM      5  N   UNL     1       3.432  -1.054 -22.086  1.00  0.00    -0.264 NA
ATOM      6  C   UNL     1       2.471  -1.982 -21.836  1.00  0.00     0.111 A 
ENDROOT
BRANCH   1   7
ATOM      7  C   UNL     1       5.565  -2.753 -24.668  1.00  0.00     0.073 C 
ATOM      8  O   UNL     1       6.643  -3.296 -24.306  1.00  0.00    -0.545 OA
ATOM      9  O   UNL     1       5.402  -2.400 -26.003  1.00  0.00    -0.545 OA
ENDBRANCH   1   7
TORSDOF 1
ENDMDL
MODEL 5
REMARK VINA RESULT:    -4.021      4.616      6.309
REMARK INTER + INTRA:          -4.279
REMARK INTER:                  -4.257
REMARK INTRA:                  -0.022
REMARK UNBOUND:                -0.023
REMARK SMILES O=C([O-])c1cccnc1
REMARK SMILES IDX 4 1 5 2 9 3 6 4 8 5 7 6 2 7 1 8 3 9
REMARK H PARENT
REMARK Flexibility Score: inf
ROOT
ATOM      1  C   UNL     1       4.843   3.807 -22.471  1.00  0.00     0.016 A 
ATOM      2  C   UNL     1       6.033   4.441 -22.863  1.00  0.00     0.013 A 
ATOM      3  C   UNL     1       3.746   4.610 -22.109  1.00  0.00     0.120 A 
ATOM      4  C   UNL     1       6.111   5.834 -22.888  1.00  0.00     0.021 A 
ATOM      5  N   UNL     1       3.849   5.966 -22.143  1.00  0.00    -0.264 NA
ATOM      6  C   UNL     1       4.996   6.589 -22.520  1.00  0.00     0.111 A 
ENDROOT
BRANCH   1   7
ATOM      7  C   UNL     1       4.748   2.332 -22.441  1.00  0.00     0.073 C 
ATOM      8  O   UNL     1       3.956   1.757 -21.647  1.00  0.00    -0.545 OA
ATOM      9  O   UNL     1       5.535   1.559 -23.288  1.00  0.00    -0.545 OA
ENDBRANCH   1   7
TORSDOF 1
ENDMDL
MODEL 6
REMARK VINA RESULT:    -3.983      4.600      6.329
REMARK INTER + INTRA:          -4.239
REMARK INTER:                  -4.216
REMARK INTRA:                  -0.023
REMARK UNBOUND:                -0.023
REMARK SMILES O=C([O-])c1cccnc1
REMARK SMILES IDX 4 1 5 2 9 3 6 4 8 5 7 6 2 7 1 8 3 9
REMARK H PARENT
REMARK Flexibility Score: inf
ROOT
ATOM      1  C   UNL     1       4.875   3.689 -22.493  1.00  0.00     0.016 A 
ATOM      2  C   UNL     1       3.818   4.515 -22.077  1.00  0.00     0.013 A 
ATOM      3  C   UNL     1       6.027   4.294 -23.027  1.00  0.00     0.120 A 
ATOM      4  C   UNL     1       3.922   5.901 -22.197  1.00  0.00     0.021 A 
ATOM      5  N   UNL     1       6.103   5.648 -23.132  1.00  0.00    -0.264 NA
ATOM      6  C   UNL     1       5.085   6.456 -22.733  1.00  0.00     0.111 A 
ENDROOT
BRANCH   1   7
ATOM      7  C   UNL     1       4.777   2.218 -22.370  1.00  0.00     0.073 C 
ATOM      8  O   UNL     1       5.527   1.467 -23.048  1.00  0.00    -0.545 OA
ATOM      9  O   UNL     1       3.852   1.645 -21.504  1.00  0.00    -0.545 OA
ENDBRANCH   1   7
TORSDOF 1
ENDMDL
MODEL 7
REMARK VINA RESULT:    -3.936      2.766      3.701
REMARK INTER + INTRA:          -4.189
REMARK INTER:                  -4.165
REMARK INTRA:                  -0.024
REMARK UNBOUND:                -0.023
REMARK SMILES O=C([O-])c1cccnc1
REMARK SMILES IDX 4 1 5 2 9 3 6 4 8 5 7 6 2 7 1 8 3 9
REMARK H PARENT
REMARK Flexibility Score: inf
ROOT
ATOM      1  C   UNL     1       4.346  -1.705 -23.230  1.00  0.00     0.016 A 
ATOM      2  C   UNL     1       5.471  -0.868 -23.144  1.00  0.00     0.013 A 
ATOM      3  C   UNL     1       3.174  -1.320 -22.555  1.00  0.00     0.120 A 
ATOM      4  C   UNL     1       5.412   0.313 -22.403  1.00  0.00     0.021 A 
ATOM      5  N   UNL     1       3.143  -0.163 -21.839  1.00  0.00    -0.264 NA
ATOM      6  C   UNL     1       4.226   0.653 -21.750  1.00  0.00     0.111 A 
ENDROOT
BRANCH   1   7
ATOM      7  C   UNL     1       4.396  -2.958 -24.013  1.00  0.00     0.073 C 
ATOM      8  O   UNL     1       3.412  -3.746 -24.025  1.00  0.00    -0.545 OA
ATOM      9  O   UNL     1       5.532  -3.286 -24.745  1.00  0.00    -0.545 OA
ENDBRANCH   1   7
TORSDOF 1
ENDMDL
MODEL 8
REMARK VINA RESULT:    -3.909      2.815      3.990
REMARK INTER + INTRA:          -4.160
REMARK INTER:                  -4.144
REMARK INTRA:                  -0.016
REMARK UNBOUND:                -0.023
REMARK SMILES O=C([O-])c1cccnc1
REMARK SMILES IDX 4 1 5 2 9 3 6 4 8 5 7 6 2 7 1 8 3 9
REMARK H PARENT
REMARK Flexibility Score: inf
ROOT
ATOM      1  C   UNL     1       4.766  -0.487 -23.381  1.00  0.00     0.016 A 
ATOM      2  C   UNL     1       5.396   0.249 -22.364  1.00  0.00     0.013 A 
ATOM      3  C   UNL     1       4.292   0.204 -24.511  1.00  0.00     0.120 A 
ATOM      4  C   UNL     1       5.541   1.632 -22.486  1.00  0.00     0.021 A 
ATOM      5  N   UNL     1       4.447   1.552 -24.605  1.00  0.00    -0.264 NA
ATOM      6  C   UNL     1       5.055   2.273 -23.627  1.00  0.00     0.111 A 
ENDROOT
BRANCH   1   7
ATOM      7  C   UNL     1       4.607  -1.952 -23.263  1.00  0.00     0.073 C 
ATOM      8  O   UNL     1       3.587  -2.444 -22.710  1.00  0.00    -0.545 OA
ATOM      9  O   UNL     1       5.584  -2.808 -23.760  1.00  0.00    -0.545 OA
ENDBRANCH   1   7
TORSDOF 1
ENDMDL
MODEL 9
REMARK VINA RESULT:    -3.813      3.143      3.753
REMARK INTER + INTRA:          -4.059
REMARK INTER:                  -4.038
REMARK INTRA:                  -0.021
REMARK UNBOUND:                -0.023
REMARK SMILES O=C([O-])c1cccnc1
REMARK SMILES IDX 4 1 5 2 9 3 6 4 8 5 7 6 2 7 1 8 3 9
REMARK H PARENT
REMARK Flexibility Score: inf
ROOT
ATOM      1  C   UNL     1       2.941  -2.814 -23.559  1.00  0.00     0.016 A 
ATOM      2  C   UNL     1       4.307  -2.978 -23.276  1.00  0.00     0.013 A 
ATOM      3  C   UNL     1       2.573  -2.354 -24.836  1.00  0.00     0.120 A 
ATOM      4  C   UNL     1       5.264  -2.687 -24.249  1.00  0.00     0.021 A 
ATOM      5  N   UNL     1       3.527  -2.078 -25.766  1.00  0.00    -0.264 NA
ATOM      6  C   UNL     1       4.851  -2.233 -25.502  1.00  0.00     0.111 A 
ENDROOT
BRANCH   1   7
ATOM      7  C   UNL     1       1.917  -3.120 -22.537  1.00  0.00     0.073 C 
ATOM      8  O   UNL     1       2.123  -2.852 -21.323  1.00  0.00    -0.545 OA
ATOM      9  O   UNL     1       0.712  -3.711 -22.903  1.00  0.00    -0.545 OA
ENDBRANCH   1   7
TORSDOF 1
ENDMDL
