MODEL 1
REMARK VINA RESULT:   117.936      0.000      0.000
REMARK INTER + INTRA:         127.914
REMARK INTER:                 128.277
REMARK INTRA:                  -0.364
REMARK UNBOUND:                -0.364
REMARK SMILES C=C(C)[C@@H]1CC[C@]2(C)CC[C@]3(C)[C@@H](CC[C@H]4[C@]5(C)CC[C@@H](O)C(C)(C)[C@@H]5CC[C@@]43C)[C@@H]12
REMARK SMILES IDX 4 1 5 2 6 3 7 4 31 5 13 6 14 7 15 8 16 9 17 10 19 11 20 12
REMARK SMILES IDX 21 13 23 14 26 15 27 16 28 17 29 18 11 19 10 20 9 21 12 22
REMARK SMILES IDX 30 23 24 24 25 25 18 26 8 27 2 28 3 29 1 30 22 31
REMARK H PARENT 22 32
REMARK Flexibility Score: inf
ROOT
ATOM      1  C   UNL     1      -5.597   1.496  -0.326  1.00  0.00     0.018 C 
ATOM      2  C   UNL     1      -6.633   0.671  -1.125  1.00  0.00     0.009 C 
ATOM      3  C   UNL     1      -6.482  -0.800  -0.676  1.00  0.00     0.008 C 
ATOM      4  C   UNL     1      -5.134  -0.860   0.072  1.00  0.00    -0.029 C 
ATOM      5  C   UNL     1      -5.158   0.516   0.769  1.00  0.00     0.006 C 
ATOM      6  C   UNL     1      -3.949   0.845   1.692  1.00  0.00    -0.000 C 
ATOM      7  C   UNL     1      -2.683   1.234   0.888  1.00  0.00     0.005 C 
ATOM      8  C   UNL     1      -1.444   1.425   1.748  1.00  0.00     0.005 C 
ATOM      9  C   UNL     1      -1.189   0.169   2.616  1.00  0.00     0.002 C 
ATOM     10  C   UNL     1       0.314   0.048   3.157  1.00  0.00    -0.026 C 
ATOM     11  C   UNL     1       1.248  -0.361   1.953  1.00  0.00     0.010 C 
ATOM     12  C   UNL     1       1.416  -1.869   1.775  1.00  0.00     0.033 C 
ATOM     13  C   UNL     1       2.053  -2.566   2.996  1.00  0.00     0.120 C 
ATOM     14  C   UNL     1       1.806  -1.829   4.364  1.00  0.00    -0.006 C 
ATOM     15  C   UNL     1       0.429  -1.026   4.330  1.00  0.00     0.003 C 
ATOM     16  C   UNL     1      -0.790  -1.993   4.312  1.00  0.00     0.005 C 
ATOM     17  C   UNL     1      -2.085  -1.252   4.605  1.00  0.00     0.008 C 
ATOM     18  C   UNL     1      -2.392  -0.052   3.635  1.00  0.00    -0.024 C 
ATOM     19  C   UNL     1      -3.767  -0.288   2.799  1.00  0.00    -0.024 C 
ATOM     20  C   UNL     1      -3.839  -1.720   2.117  1.00  0.00     0.008 C 
ATOM     21  C   UNL     1      -5.041  -1.955   1.153  1.00  0.00     0.007 C 
ATOM     22  C   UNL     1      -4.983  -0.210   3.790  1.00  0.00     0.012 C 
ATOM     23  C   UNL     1      -2.559   1.197   4.571  1.00  0.00     0.012 C 
ATOM     24  C   UNL     1       1.806  -2.890   5.504  1.00  0.00     0.014 C 
ATOM     25  C   UNL     1       2.988  -0.875   4.713  1.00  0.00     0.014 C 
ATOM     26  C   UNL     1       0.821   1.443   3.643  1.00  0.00     0.012 C 
ATOM     27  C   UNL     1      -4.026  -1.106  -0.999  1.00  0.00     0.011 C 
ENDROOT
BRANCH   1  28
ATOM     28  C   UNL     1      -6.155   2.854   0.110  1.00  0.00    -0.077 C 
ATOM     29  C   UNL     1      -6.622   3.170   1.514  1.00  0.00     0.039 C 
ATOM     30  C   UNL     1      -6.169   3.848  -0.792  1.00  0.00     0.008 C 
ENDBRANCH   1  28
BRANCH  13  31
ATOM     31  O   UNL     1       3.425  -2.751   2.756  1.00  0.00    -0.393 OA
ATOM     32  H   UNL     1       3.891  -2.644   3.626  1.00  0.00     0.210 HD
ENDBRANCH  13  31
TORSDOF 2
ENDMDL
MODEL 2
REMARK VINA RESULT:   118.797      2.393      7.570
REMARK INTER + INTRA:         128.851
REMARK INTER:                 129.006
REMARK INTRA:                  -0.155
REMARK UNBOUND:                -0.364
REMARK SMILES C=C(C)[C@@H]1CC[C@]2(C)CC[C@]3(C)[C@@H](CC[C@H]4[C@]5(C)CC[C@@H](O)C(C)(C)[C@@H]5CC[C@@]43C)[C@@H]12
REMARK SMILES IDX 4 1 5 2 6 3 7 4 31 5 13 6 14 7 15 8 16 9 17 10 19 11 20 12
REMARK SMILES IDX 21 13 23 14 26 15 27 16 28 17 29 18 11 19 10 20 9 21 12 22
REMARK SMILES IDX 30 23 24 24 25 25 18 26 8 27 2 28 3 29 1 30 22 31
REMARK H PARENT 22 32
REMARK Flexibility Score: inf
ROOT
ATOM      1  C   UNL     1       1.856  -1.068   5.596  1.00  0.00     0.018 C 
ATOM      2  C   UNL     1       3.294  -1.367   5.115  1.00  0.00     0.009 C 
ATOM      3  C   UNL     1       3.299  -1.211   3.578  1.00  0.00     0.008 C 
ATOM      4  C   UNL     1       1.812  -1.203   3.167  1.00  0.00    -0.029 C 
ATOM      5  C   UNL     1       1.213  -0.429   4.359  1.00  0.00     0.006 C 
ATOM      6  C   UNL     1      -0.319  -0.159   4.309  1.00  0.00    -0.000 C 
ATOM      7  C   UNL     1      -1.151  -1.417   4.661  1.00  0.00     0.005 C 
ATOM      8  C   UNL     1      -2.650  -1.232   4.486  1.00  0.00     0.005 C 
ATOM      9  C   UNL     1      -2.970  -0.735   3.056  1.00  0.00     0.002 C 
ATOM     10  C   UNL     1      -4.485  -0.988   2.605  1.00  0.00    -0.026 C 
ATOM     11  C   UNL     1      -4.671  -2.527   2.317  1.00  0.00     0.010 C 
ATOM     12  C   UNL     1      -4.398  -2.931   0.869  1.00  0.00     0.033 C 
ATOM     13  C   UNL     1      -5.332  -2.244  -0.149  1.00  0.00     0.120 C 
ATOM     14  C   UNL     1      -5.889  -0.850   0.321  1.00  0.00    -0.006 C 
ATOM     15  C   UNL     1      -4.861  -0.138   1.308  1.00  0.00     0.003 C 
ATOM     16  C   UNL     1      -3.575   0.316   0.558  1.00  0.00     0.005 C 
ATOM     17  C   UNL     1      -2.748   1.269   1.408  1.00  0.00     0.008 C 
ATOM     18  C   UNL     1      -2.325   0.701   2.813  1.00  0.00    -0.024 C 
ATOM     19  C   UNL     1      -0.709   0.595   2.960  1.00  0.00    -0.024 C 
ATOM     20  C   UNL     1      -0.020  -0.126   1.724  1.00  0.00     0.008 C 
ATOM     21  C   UNL     1       1.502  -0.425   1.872  1.00  0.00     0.007 C 
ATOM     22  C   UNL     1      -0.109   2.046   3.013  1.00  0.00     0.012 C 
ATOM     23  C   UNL     1      -2.877   1.737   3.854  1.00  0.00     0.012 C 
ATOM     24  C   UNL     1      -6.152   0.028  -0.939  1.00  0.00     0.014 C 
ATOM     25  C   UNL     1      -7.284  -0.998   0.996  1.00  0.00     0.014 C 
ATOM     26  C   UNL     1      -5.456  -0.647   3.780  1.00  0.00     0.012 C 
ATOM     27  C   UNL     1       1.379  -2.691   2.983  1.00  0.00     0.011 C 
ENDROOT
BRANCH   1  28
ATOM     28  C   UNL     1       1.840  -0.271   6.904  1.00  0.00    -0.077 C 
ATOM     29  C   UNL     1       3.079   0.267   7.587  1.00  0.00     0.039 C 
ATOM     30  C   UNL     1       0.648   0.027   7.445  1.00  0.00     0.008 C 
ENDBRANCH   1  28
BRANCH  13  31
ATOM     31  O   UNL     1      -6.375  -3.125  -0.484  1.00  0.00    -0.393 OA
ATOM     32  H   UNL     1      -6.786  -3.426   0.369  1.00  0.00     0.210 HD
ENDBRANCH  13  31
TORSDOF 2
ENDMDL
