MODEL 1
REMARK VINA RESULT:    -5.516      0.000      0.000
REMARK INTER + INTRA:         -10.119
REMARK INTER:                  -8.418
REMARK INTRA:                  -1.701
REMARK UNBOUND:                -1.701
REMARK SMILES OC[C@@H]1O[C@@H](O[C@@]2(CO)O[C@H](CO)[C@H](O)[C@H]2O)[C@@H](O)[C@@H](O)[C@H]1O
REMARK SMILES IDX 6 1 5 2 3 3 22 4 4 5 20 6 18 7 2 8 1 9 23 11 21 13 19 15
REMARK SMILES IDX 7 17 16 18 10 19 14 20 11 21 8 22 9 23 17 25 15 27 12 29
REMARK SMILES IDX 13 30
REMARK H PARENT 1 10 23 12 21 14 19 16 9 24 17 26 15 28 13 31
REMARK Flexibility Score: inf
ROOT
ATOM      1  O   UNL     1     -14.017  44.802  35.176  1.00  0.00    -0.313 OA
ENDROOT
BRANCH   1   2
ATOM      2  C   UNL     1     -13.559  44.814  33.828  1.00  0.00     0.285 C 
ATOM      3  C   UNL     1     -13.809  47.153  33.627  1.00  0.00     0.178 C 
ATOM      4  C   UNL     1     -14.988  47.023  32.634  1.00  0.00     0.177 C 
ATOM      5  O   UNL     1     -12.924  46.047  33.511  1.00  0.00    -0.341 OA
ATOM      6  C   UNL     1     -15.735  45.701  32.870  1.00  0.00     0.179 C 
ATOM      7  C   UNL     1     -14.732  44.536  32.864  1.00  0.00     0.202 C 
BRANCH   3   8
ATOM      8  C   UNL     1     -13.015  48.436  33.340  1.00  0.00     0.191 C 
BRANCH   8   9
ATOM      9  O   UNL     1     -13.561  49.520  34.041  1.00  0.00    -0.394 OA
ATOM     10  H   UNL     1     -12.946  50.287  33.905  1.00  0.00     0.210 HD
ENDBRANCH   8   9
ENDBRANCH   3   8
BRANCH   4  11
ATOM     11  O   UNL     1     -15.871  48.104  32.795  1.00  0.00    -0.387 OA
ATOM     12  H   UNL     1     -15.667  48.749  32.068  1.00  0.00     0.211 HD
ENDBRANCH   4  11
BRANCH   6  13
ATOM     13  O   UNL     1     -16.427  45.758  34.093  1.00  0.00    -0.387 OA
ATOM     14  H   UNL     1     -16.395  46.702  34.401  1.00  0.00     0.211 HD
ENDBRANCH   6  13
BRANCH   7  15
ATOM     15  O   UNL     1     -15.383  43.342  33.212  1.00  0.00    -0.385 OA
ATOM     16  H   UNL     1     -16.293  43.387  32.818  1.00  0.00     0.211 HD
ENDBRANCH   7  15
ENDBRANCH   1   2
BRANCH   1  17
ATOM     17  C   UNL     1     -13.279  43.941  36.047  1.00  0.00     0.224 C 
ATOM     18  C   UNL     1     -14.271  43.092  36.863  1.00  0.00     0.208 C 
ATOM     19  O   UNL     1     -12.482  44.672  36.971  1.00  0.00    -0.337 OA
ATOM     20  C   UNL     1     -14.413  43.876  38.141  1.00  0.00     0.180 C 
ATOM     21  C   UNL     1     -13.038  44.538  38.264  1.00  0.00     0.179 C 
BRANCH  17  22
ATOM     22  C   UNL     1     -12.377  43.007  35.212  1.00  0.00     0.225 C 
BRANCH  22  23
ATOM     23  O   UNL     1     -12.747  41.664  35.376  1.00  0.00    -0.391 OA
ATOM     24  H   UNL     1     -12.543  41.199  34.524  1.00  0.00     0.210 HD
ENDBRANCH  22  23
ENDBRANCH  17  22
BRANCH  18  25
ATOM     25  O   UNL     1     -15.498  42.872  36.205  1.00  0.00    -0.385 OA
ATOM     26  H   UNL     1     -15.319  42.661  35.252  1.00  0.00     0.211 HD
ENDBRANCH  18  25
BRANCH  20  27
ATOM     27  O   UNL     1     -14.717  43.045  39.232  1.00  0.00    -0.387 OA
ATOM     28  H   UNL     1     -14.284  43.453  40.026  1.00  0.00     0.211 HD
ENDBRANCH  20  27
BRANCH  21  29
ATOM     29  C   UNL     1     -12.055  43.754  39.149  1.00  0.00     0.191 C 
BRANCH  29  30
ATOM     30  O   UNL     1     -12.211  44.143  40.485  1.00  0.00    -0.394 OA
ATOM     31  H   UNL     1     -12.648  43.380  40.945  1.00  0.00     0.210 HD
ENDBRANCH  29  30
ENDBRANCH  21  29
ENDBRANCH   1  17
TORSDOF 13
ENDMDL
MODEL 2
REMARK VINA RESULT:    -5.488      8.996     11.147
REMARK INTER + INTRA:         -10.076
REMARK INTER:                  -8.513
REMARK INTRA:                  -1.563
REMARK UNBOUND:                -1.701
REMARK SMILES OC[C@@H]1O[C@@H](O[C@@]2(CO)O[C@H](CO)[C@H](O)[C@H]2O)[C@@H](O)[C@@H](O)[C@H]1O
REMARK SMILES IDX 6 1 5 2 3 3 22 4 4 5 20 6 18 7 2 8 1 9 23 11 21 13 19 15
REMARK SMILES IDX 7 17 16 18 10 19 14 20 11 21 8 22 9 23 17 25 15 27 12 29
REMARK SMILES IDX 13 30
REMARK H PARENT 1 10 23 12 21 14 19 16 9 24 17 26 15 28 13 31
REMARK Flexibility Score: inf
ROOT
ATOM      1  O   UNL     1      -5.510  43.092  29.994  1.00  0.00    -0.313 OA
ENDROOT
BRANCH   1   2
ATOM      2  C   UNL     1      -6.093  43.886  31.022  1.00  0.00     0.285 C 
ATOM      3  C   UNL     1      -5.902  45.879  29.773  1.00  0.00     0.178 C 
ATOM      4  C   UNL     1      -4.820  46.460  30.713  1.00  0.00     0.177 C 
ATOM      5  O   UNL     1      -6.776  45.010  30.481  1.00  0.00    -0.341 OA
ATOM      6  C   UNL     1      -4.032  45.322  31.380  1.00  0.00     0.179 C 
ATOM      7  C   UNL     1      -5.013  44.332  32.030  1.00  0.00     0.202 C 
BRANCH   3   8
ATOM      8  C   UNL     1      -6.741  47.015  29.166  1.00  0.00     0.191 C 
BRANCH   8   9
ATOM      9  O   UNL     1      -6.004  47.707  28.196  1.00  0.00    -0.394 OA
ATOM     10  H   UNL     1      -5.318  47.076  27.855  1.00  0.00     0.210 HD
ENDBRANCH   8   9
ENDBRANCH   3   8
BRANCH   4  11
ATOM     11  O   UNL     1      -3.944  47.283  29.984  1.00  0.00    -0.387 OA
ATOM     12  H   UNL     1      -3.026  46.949  30.162  1.00  0.00     0.211 HD
ENDBRANCH   4  11
BRANCH   6  13
ATOM     13  O   UNL     1      -3.229  44.675  30.424  1.00  0.00    -0.387 OA
ATOM     14  H   UNL     1      -2.861  43.861  30.857  1.00  0.00     0.211 HD
ENDBRANCH   6  13
BRANCH   7  15
ATOM     15  O   UNL     1      -4.311  43.220  32.524  1.00  0.00    -0.385 OA
ATOM     16  H   UNL     1      -4.661  42.425  32.045  1.00  0.00     0.211 HD
ENDBRANCH   7  15
ENDBRANCH   1   2
BRANCH   1  17
ATOM     17  C   UNL     1      -6.212  41.880  29.709  1.00  0.00     0.224 C 
ATOM     18  C   UNL     1      -5.241  40.695  29.870  1.00  0.00     0.208 C 
ATOM     19  O   UNL     1      -6.705  41.849  28.375  1.00  0.00    -0.337 OA
ATOM     20  C   UNL     1      -4.751  40.468  28.463  1.00  0.00     0.180 C 
ATOM     21  C   UNL     1      -5.959  40.906  27.631  1.00  0.00     0.179 C 
BRANCH  17  22
ATOM     22  C   UNL     1      -7.385  41.714  30.698  1.00  0.00     0.225 C 
BRANCH  22  23
ATOM     23  O   UNL     1      -8.576  41.400  30.027  1.00  0.00    -0.391 OA
ATOM     24  H   UNL     1      -8.889  42.230  29.582  1.00  0.00     0.210 HD
ENDBRANCH  22  23
ENDBRANCH  17  22
BRANCH  18  25
ATOM     25  O   UNL     1      -4.201  40.940  30.789  1.00  0.00    -0.385 OA
ATOM     26  H   UNL     1      -4.086  40.141  31.366  1.00  0.00     0.211 HD
ENDBRANCH  18  25
BRANCH  20  27
ATOM     27  O   UNL     1      -4.398  39.126  28.245  1.00  0.00    -0.387 OA
ATOM     28  H   UNL     1      -5.229  38.594  28.358  1.00  0.00     0.211 HD
ENDBRANCH  20  27
BRANCH  21  29
ATOM     29  C   UNL     1      -6.884  39.746  27.229  1.00  0.00     0.191 C 
BRANCH  29  30
ATOM     30  O   UNL     1      -8.221  40.142  27.364  1.00  0.00    -0.394 OA
ATOM     31  H   UNL     1      -8.293  40.567  28.258  1.00  0.00     0.210 HD
ENDBRANCH  29  30
ENDBRANCH  21  29
ENDBRANCH   1  17
TORSDOF 13
ENDMDL
MODEL 3
REMARK VINA RESULT:    -4.943      2.833      5.920
REMARK INTER + INTRA:          -9.244
REMARK INTER:                  -7.593
REMARK INTRA:                  -1.651
REMARK UNBOUND:                -1.701
REMARK SMILES OC[C@@H]1O[C@@H](O[C@@]2(CO)O[C@H](CO)[C@H](O)[C@H]2O)[C@@H](O)[C@@H](O)[C@H]1O
REMARK SMILES IDX 6 1 5 2 3 3 22 4 4 5 20 6 18 7 2 8 1 9 23 11 21 13 19 15
REMARK SMILES IDX 7 17 16 18 10 19 14 20 11 21 8 22 9 23 17 25 15 27 12 29
REMARK SMILES IDX 13 30
REMARK H PARENT 1 10 23 12 21 14 19 16 9 24 17 26 15 28 13 31
REMARK Flexibility Score: inf
ROOT
ATOM      1  O   UNL     1     -12.942  43.148  37.198  1.00  0.00    -0.313 OA
ENDROOT
BRANCH   1   2
ATOM      2  C   UNL     1     -13.970  43.926  37.802  1.00  0.00     0.285 C 
ATOM      3  C   UNL     1     -14.324  42.359  39.530  1.00  0.00     0.178 C 
ATOM      4  C   UNL     1     -15.718  41.958  38.991  1.00  0.00     0.177 C 
ATOM      5  O   UNL     1     -14.024  43.710  39.206  1.00  0.00    -0.341 OA
ATOM      6  C   UNL     1     -15.782  42.181  37.472  1.00  0.00     0.179 C 
ATOM      7  C   UNL     1     -15.331  43.614  37.145  1.00  0.00     0.202 C 
BRANCH   3   8
ATOM      8  C   UNL     1     -14.285  42.210  41.059  1.00  0.00     0.191 C 
BRANCH   8   9
ATOM      9  O   UNL     1     -14.333  40.858  41.424  1.00  0.00    -0.394 OA
ATOM     10  H   UNL     1     -14.619  40.355  40.617  1.00  0.00     0.210 HD
ENDBRANCH   8   9
ENDBRANCH   3   8
BRANCH   4  11
ATOM     11  O   UNL     1     -15.976  40.609  39.286  1.00  0.00    -0.387 OA
ATOM     12  H   UNL     1     -15.984  40.124  38.420  1.00  0.00     0.211 HD
ENDBRANCH   4  11
BRANCH   6  13
ATOM     13  O   UNL     1     -14.968  41.239  36.819  1.00  0.00    -0.387 OA
ATOM     14  H   UNL     1     -14.901  41.523  35.869  1.00  0.00     0.211 HD
ENDBRANCH   6  13
BRANCH   7  15
ATOM     15  O   UNL     1     -15.257  43.785  35.753  1.00  0.00    -0.385 OA
ATOM     16  H   UNL     1     -16.036  43.309  35.364  1.00  0.00     0.211 HD
ENDBRANCH   7  15
ENDBRANCH   1   2
BRANCH   1  17
ATOM     17  C   UNL     1     -11.884  43.911  36.613  1.00  0.00     0.224 C 
ATOM     18  C   UNL     1     -11.468  43.246  35.288  1.00  0.00     0.208 C 
ATOM     19  O   UNL     1     -10.733  43.957  37.447  1.00  0.00    -0.337 OA
ATOM     20  C   UNL     1     -10.303  42.382  35.696  1.00  0.00     0.180 C 
ATOM     21  C   UNL     1      -9.709  43.178  36.861  1.00  0.00     0.179 C 
BRANCH  17  22
ATOM     22  C   UNL     1     -12.375  45.347  36.329  1.00  0.00     0.225 C 
BRANCH  22  23
ATOM     23  O   UNL     1     -12.843  45.473  35.013  1.00  0.00    -0.391 OA
ATOM     24  H   UNL     1     -13.510  46.208  35.009  1.00  0.00     0.210 HD
ENDBRANCH  22  23
ENDBRANCH  17  22
BRANCH  18  25
ATOM     25  O   UNL     1     -12.508  42.524  34.669  1.00  0.00    -0.385 OA
ATOM     26  H   UNL     1     -12.220  42.264  33.756  1.00  0.00     0.211 HD
ENDBRANCH  18  25
BRANCH  20  27
ATOM     27  O   UNL     1      -9.394  42.201  34.641  1.00  0.00    -0.387 OA
ATOM     28  H   UNL     1      -9.500  41.262  34.336  1.00  0.00     0.211 HD
ENDBRANCH  20  27
BRANCH  21  29
ATOM     29  C   UNL     1      -8.554  44.105  36.448  1.00  0.00     0.191 C 
BRANCH  29  30
ATOM     30  O   UNL     1      -7.349  43.390  36.465  1.00  0.00    -0.394 OA
ATOM     31  H   UNL     1      -6.830  43.743  37.233  1.00  0.00     0.210 HD
ENDBRANCH  29  30
ENDBRANCH  21  29
ENDBRANCH   1  17
TORSDOF 13
ENDMDL
MODEL 4
REMARK VINA RESULT:    -4.935      8.775     10.512
REMARK INTER + INTRA:          -9.231
REMARK INTER:                  -7.946
REMARK INTRA:                  -1.285
REMARK UNBOUND:                -1.701
REMARK SMILES OC[C@@H]1O[C@@H](O[C@@]2(CO)O[C@H](CO)[C@H](O)[C@H]2O)[C@@H](O)[C@@H](O)[C@H]1O
REMARK SMILES IDX 6 1 5 2 3 3 22 4 4 5 20 6 18 7 2 8 1 9 23 11 21 13 19 15
REMARK SMILES IDX 7 17 16 18 10 19 14 20 11 21 8 22 9 23 17 25 15 27 12 29
REMARK SMILES IDX 13 30
REMARK H PARENT 1 10 23 12 21 14 19 16 9 24 17 26 15 28 13 31
REMARK Flexibility Score: inf
ROOT
ATOM      1  O   UNL     1      -5.355  40.989  30.722  1.00  0.00    -0.313 OA
ENDROOT
BRANCH   1   2
ATOM      2  C   UNL     1      -5.500  42.044  29.778  1.00  0.00     0.285 C 
ATOM      3  C   UNL     1      -7.639  41.316  29.095  1.00  0.00     0.178 C 
ATOM      4  C   UNL     1      -7.136  40.887  27.697  1.00  0.00     0.177 C 
ATOM      5  O   UNL     1      -6.867  42.395  29.603  1.00  0.00    -0.341 OA
ATOM      6  C   UNL     1      -5.648  40.509  27.762  1.00  0.00     0.179 C 
ATOM      7  C   UNL     1      -4.859  41.646  28.431  1.00  0.00     0.202 C 
BRANCH   3   8
ATOM      8  C   UNL     1      -9.105  41.768  29.015  1.00  0.00     0.191 C 
BRANCH   8   9
ATOM      9  O   UNL     1      -9.943  40.677  28.745  1.00  0.00    -0.394 OA
ATOM     10  H   UNL     1     -10.868  41.034  28.690  1.00  0.00     0.210 HD
ENDBRANCH   8   9
ENDBRANCH   3   8
BRANCH   4  11
ATOM     11  O   UNL     1      -7.885  39.793  27.233  1.00  0.00    -0.387 OA
ATOM     12  H   UNL     1      -8.728  39.781  27.757  1.00  0.00     0.211 HD
ENDBRANCH   4  11
BRANCH   6  13
ATOM     13  O   UNL     1      -5.494  39.307  28.476  1.00  0.00    -0.387 OA
ATOM     14  H   UNL     1      -4.971  38.692  27.897  1.00  0.00     0.211 HD
ENDBRANCH   6  13
BRANCH   7  15
ATOM     15  O   UNL     1      -3.523  41.256  28.618  1.00  0.00    -0.385 OA
ATOM     16  H   UNL     1      -3.146  41.086  27.716  1.00  0.00     0.211 HD
ENDBRANCH   7  15
ENDBRANCH   1   2
BRANCH   1  17
ATOM     17  C   UNL     1      -4.753  41.377  31.960  1.00  0.00     0.224 C 
ATOM     18  C   UNL     1      -5.768  41.153  33.096  1.00  0.00     0.208 C 
ATOM     19  O   UNL     1      -4.396  42.753  31.972  1.00  0.00    -0.337 OA
ATOM     20  C   UNL     1      -6.405  42.509  33.250  1.00  0.00     0.180 C 
ATOM     21  C   UNL     1      -5.263  43.446  32.849  1.00  0.00     0.179 C 
BRANCH  17  22
ATOM     22  C   UNL     1      -3.499  40.515  32.220  1.00  0.00     0.225 C 
BRANCH  22  23
ATOM     23  O   UNL     1      -3.205  39.700  31.117  1.00  0.00    -0.391 OA
ATOM     24  H   UNL     1      -2.707  40.258  30.466  1.00  0.00     0.210 HD
ENDBRANCH  22  23
ENDBRANCH  17  22
BRANCH  18  25
ATOM     25  O   UNL     1      -6.697  40.127  32.828  1.00  0.00    -0.385 OA
ATOM     26  H   UNL     1      -6.684  39.477  33.577  1.00  0.00     0.211 HD
ENDBRANCH  18  25
BRANCH  20  27
ATOM     27  O   UNL     1      -6.853  42.728  34.563  1.00  0.00    -0.387 OA
ATOM     28  H   UNL     1      -7.606  43.372  34.500  1.00  0.00     0.211 HD
ENDBRANCH  20  27
BRANCH  21  29
ATOM     29  C   UNL     1      -4.448  43.970  34.042  1.00  0.00     0.191 C 
BRANCH  29  30
ATOM     30  O   UNL     1      -3.080  43.822  33.779  1.00  0.00    -0.394 OA
ATOM     31  H   UNL     1      -2.643  44.644  34.121  1.00  0.00     0.210 HD
ENDBRANCH  29  30
ENDBRANCH  21  29
ENDBRANCH   1  17
TORSDOF 13
ENDMDL
MODEL 5
REMARK VINA RESULT:    -4.895      8.675     11.344
REMARK INTER + INTRA:          -9.172
REMARK INTER:                  -7.774
REMARK INTRA:                  -1.398
REMARK UNBOUND:                -1.701
REMARK SMILES OC[C@@H]1O[C@@H](O[C@@]2(CO)O[C@H](CO)[C@H](O)[C@H]2O)[C@@H](O)[C@@H](O)[C@H]1O
REMARK SMILES IDX 6 1 5 2 3 3 22 4 4 5 20 6 18 7 2 8 1 9 23 11 21 13 19 15
REMARK SMILES IDX 7 17 16 18 10 19 14 20 11 21 8 22 9 23 17 25 15 27 12 29
REMARK SMILES IDX 13 30
REMARK H PARENT 1 10 23 12 21 14 19 16 9 24 17 26 15 28 13 31
REMARK Flexibility Score: inf
ROOT
ATOM      1  O   UNL     1      -4.600  41.985  31.158  1.00  0.00    -0.313 OA
ENDROOT
BRANCH   1   2
ATOM      2  C   UNL     1      -5.069  41.128  32.194  1.00  0.00     0.285 C 
ATOM      3  C   UNL     1      -4.992  42.836  33.821  1.00  0.00     0.178 C 
ATOM      4  C   UNL     1      -3.815  42.175  34.576  1.00  0.00     0.177 C 
ATOM      5  O   UNL     1      -5.795  41.857  33.176  1.00  0.00    -0.341 OA
ATOM      6  C   UNL     1      -2.972  41.332  33.607  1.00  0.00     0.179 C 
ATOM      7  C   UNL     1      -3.888  40.369  32.834  1.00  0.00     0.202 C 
BRANCH   3   8
ATOM      8  C   UNL     1      -5.880  43.616  34.803  1.00  0.00     0.191 C 
BRANCH   8   9
ATOM      9  O   UNL     1      -5.817  43.047  36.082  1.00  0.00    -0.394 OA
ATOM     10  H   UNL     1      -4.983  43.382  36.503  1.00  0.00     0.210 HD
ENDBRANCH   8   9
ENDBRANCH   3   8
BRANCH   4  11
ATOM     11  O   UNL     1      -3.012  43.163  35.170  1.00  0.00    -0.387 OA
ATOM     12  H   UNL     1      -3.568  43.604  35.864  1.00  0.00     0.211 HD
ENDBRANCH   4  11
BRANCH   6  13
ATOM     13  O   UNL     1      -2.275  42.176  32.724  1.00  0.00    -0.387 OA
ATOM     14  H   UNL     1      -1.371  42.318  33.110  1.00  0.00     0.211 HD
ENDBRANCH   6  13
BRANCH   7  15
ATOM     15  O   UNL     1      -3.148  39.690  31.852  1.00  0.00    -0.385 OA
ATOM     16  H   UNL     1      -2.252  39.514  32.240  1.00  0.00     0.211 HD
ENDBRANCH   7  15
ENDBRANCH   1   2
BRANCH   1  17
ATOM     17  C   UNL     1      -5.254  41.808  29.899  1.00  0.00     0.224 C 
ATOM     18  C   UNL     1      -6.068  43.077  29.581  1.00  0.00     0.208 C 
ATOM     19  O   UNL     1      -6.162  40.713  29.916  1.00  0.00    -0.337 OA
ATOM     20  C   UNL     1      -7.445  42.728  30.081  1.00  0.00     0.180 C 
ATOM     21  C   UNL     1      -7.484  41.212  29.873  1.00  0.00     0.179 C 
BRANCH  17  22
ATOM     22  C   UNL     1      -4.200  41.590  28.792  1.00  0.00     0.225 C 
BRANCH  22  23
ATOM     23  O   UNL     1      -3.481  40.405  29.003  1.00  0.00    -0.391 OA
ATOM     24  H   UNL     1      -3.293  40.014  28.111  1.00  0.00     0.210 HD
ENDBRANCH  22  23
ENDBRANCH  17  22
BRANCH  18  25
ATOM     25  O   UNL     1      -5.541  44.245  30.168  1.00  0.00    -0.385 OA
ATOM     26  H   UNL     1      -4.586  44.094  30.387  1.00  0.00     0.211 HD
ENDBRANCH  18  25
BRANCH  20  27
ATOM     27  O   UNL     1      -8.447  43.402  29.363  1.00  0.00    -0.387 OA
ATOM     28  H   UNL     1      -9.315  43.082  29.723  1.00  0.00     0.211 HD
ENDBRANCH  20  27
BRANCH  21  29
ATOM     29  C   UNL     1      -8.132  40.788  28.545  1.00  0.00     0.191 C 
BRANCH  29  30
ATOM     30  O   UNL     1      -9.526  40.769  28.686  1.00  0.00    -0.394 OA
ATOM     31  H   UNL     1      -9.896  40.856  27.770  1.00  0.00     0.210 HD
ENDBRANCH  29  30
ENDBRANCH  21  29
ENDBRANCH   1  17
TORSDOF 13
ENDMDL
MODEL 6
REMARK VINA RESULT:    -4.811      1.742      2.275
REMARK INTER + INTRA:          -9.044
REMARK INTER:                  -7.616
REMARK INTRA:                  -1.428
REMARK UNBOUND:                -1.701
REMARK SMILES OC[C@@H]1O[C@@H](O[C@@]2(CO)O[C@H](CO)[C@H](O)[C@H]2O)[C@@H](O)[C@@H](O)[C@H]1O
REMARK SMILES IDX 6 1 5 2 3 3 22 4 4 5 20 6 18 7 2 8 1 9 23 11 21 13 19 15
REMARK SMILES IDX 7 17 16 18 10 19 14 20 11 21 8 22 9 23 17 25 15 27 12 29
REMARK SMILES IDX 13 30
REMARK H PARENT 1 10 23 12 21 14 19 16 9 24 17 26 15 28 13 31
REMARK Flexibility Score: inf
ROOT
ATOM      1  O   UNL     1     -14.945  43.295  34.878  1.00  0.00    -0.313 OA
ENDROOT
BRANCH   1   2
ATOM      2  C   UNL     1     -14.186  43.384  33.677  1.00  0.00     0.285 C 
ATOM      3  C   UNL     1     -15.275  45.358  32.978  1.00  0.00     0.178 C 
ATOM      4  C   UNL     1     -15.993  44.644  31.809  1.00  0.00     0.177 C 
ATOM      5  O   UNL     1     -14.030  44.736  33.264  1.00  0.00    -0.341 OA
ATOM      6  C   UNL     1     -16.190  43.156  32.137  1.00  0.00     0.179 C 
ATOM      7  C   UNL     1     -14.847  42.543  32.564  1.00  0.00     0.202 C 
BRANCH   3   8
ATOM      8  C   UNL     1     -15.008  46.827  32.618  1.00  0.00     0.191 C 
BRANCH   8   9
ATOM      9  O   UNL     1     -16.111  47.625  32.951  1.00  0.00    -0.394 OA
ATOM     10  H   UNL     1     -15.794  48.286  33.621  1.00  0.00     0.210 HD
ENDBRANCH   8   9
ENDBRANCH   3   8
BRANCH   4  11
ATOM     11  O   UNL     1     -17.240  45.249  31.571  1.00  0.00    -0.387 OA
ATOM     12  H   UNL     1     -17.673  45.367  32.456  1.00  0.00     0.211 HD
ENDBRANCH   4  11
BRANCH   6  13
ATOM     13  O   UNL     1     -17.149  43.018  33.157  1.00  0.00    -0.387 OA
ATOM     14  H   UNL     1     -17.311  42.044  33.273  1.00  0.00     0.211 HD
ENDBRANCH   6  13
BRANCH   7  15
ATOM     15  O   UNL     1     -15.041  41.221  32.995  1.00  0.00    -0.385 OA
ATOM     16  H   UNL     1     -16.013  41.114  33.162  1.00  0.00     0.211 HD
ENDBRANCH   7  15
ENDBRANCH   1   2
BRANCH   1  17
ATOM     17  C   UNL     1     -14.261  42.676  35.969  1.00  0.00     0.224 C 
ATOM     18  C   UNL     1     -15.166  41.581  36.565  1.00  0.00     0.208 C 
ATOM     19  O   UNL     1     -13.968  43.600  37.010  1.00  0.00    -0.337 OA
ATOM     20  C   UNL     1     -15.850  42.293  37.703  1.00  0.00     0.180 C 
ATOM     21  C   UNL     1     -14.790  43.313  38.124  1.00  0.00     0.179 C 
BRANCH  17  22
ATOM     22  C   UNL     1     -12.952  42.033  35.464  1.00  0.00     0.225 C 
BRANCH  22  23
ATOM     23  O   UNL     1     -11.857  42.424  36.249  1.00  0.00    -0.391 OA
ATOM     24  H   UNL     1     -11.698  43.386  36.070  1.00  0.00     0.210 HD
ENDBRANCH  22  23
ENDBRANCH  17  22
BRANCH  18  25
ATOM     25  O   UNL     1     -16.066  41.026  35.633  1.00  0.00    -0.385 OA
ATOM     26  H   UNL     1     -16.539  40.263  36.057  1.00  0.00     0.211 HD
ENDBRANCH  18  25
BRANCH  20  27
ATOM     27  O   UNL     1     -16.197  41.409  38.738  1.00  0.00    -0.387 OA
ATOM     28  H   UNL     1     -15.396  40.847  38.908  1.00  0.00     0.211 HD
ENDBRANCH  20  27
BRANCH  21  29
ATOM     29  C   UNL     1     -13.903  42.836  39.286  1.00  0.00     0.191 C 
BRANCH  29  30
ATOM     30  O   UNL     1     -14.600  42.970  40.494  1.00  0.00    -0.394 OA
ATOM     31  H   UNL     1     -15.184  42.172  40.565  1.00  0.00     0.210 HD
ENDBRANCH  29  30
ENDBRANCH  21  29
ENDBRANCH   1  17
TORSDOF 13
ENDMDL
MODEL 7
REMARK VINA RESULT:    -4.794      1.577      6.221
REMARK INTER + INTRA:          -9.016
REMARK INTER:                  -7.267
REMARK INTRA:                  -1.749
REMARK UNBOUND:                -1.701
REMARK SMILES OC[C@@H]1O[C@@H](O[C@@]2(CO)O[C@H](CO)[C@H](O)[C@H]2O)[C@@H](O)[C@@H](O)[C@H]1O
REMARK SMILES IDX 6 1 5 2 3 3 22 4 4 5 20 6 18 7 2 8 1 9 23 11 21 13 19 15
REMARK SMILES IDX 7 17 16 18 10 19 14 20 11 21 8 22 9 23 17 25 15 27 12 29
REMARK SMILES IDX 13 30
REMARK H PARENT 1 10 23 12 21 14 19 16 9 24 17 26 15 28 13 31
REMARK Flexibility Score: inf
ROOT
ATOM      1  O   UNL     1     -13.819  44.146  35.852  1.00  0.00    -0.313 OA
ENDROOT
BRANCH   1   2
ATOM      2  C   UNL     1     -13.128  42.975  36.275  1.00  0.00     0.285 C 
ATOM      3  C   UNL     1     -14.735  42.463  37.925  1.00  0.00     0.178 C 
ATOM      4  C   UNL     1     -13.762  42.777  39.086  1.00  0.00     0.177 C 
ATOM      5  O   UNL     1     -14.029  41.999  36.783  1.00  0.00    -0.341 OA
ATOM      6  C   UNL     1     -12.717  43.809  38.636  1.00  0.00     0.179 C 
ATOM      7  C   UNL     1     -12.060  43.338  37.329  1.00  0.00     0.202 C 
BRANCH   3   8
ATOM      8  C   UNL     1     -15.732  41.373  38.350  1.00  0.00     0.191 C 
BRANCH   8   9
ATOM      9  O   UNL     1     -16.724  41.910  39.181  1.00  0.00    -0.394 OA
ATOM     10  H   UNL     1     -17.197  41.141  39.596  1.00  0.00     0.210 HD
ENDBRANCH   8   9
ENDBRANCH   3   8
BRANCH   4  11
ATOM     11  O   UNL     1     -14.477  43.272  40.190  1.00  0.00    -0.387 OA
ATOM     12  H   UNL     1     -15.427  43.337  39.909  1.00  0.00     0.211 HD
ENDBRANCH   4  11
BRANCH   6  13
ATOM     13  O   UNL     1     -13.332  45.063  38.463  1.00  0.00    -0.387 OA
ATOM     14  H   UNL     1     -13.873  45.235  39.277  1.00  0.00     0.211 HD
ENDBRANCH   6  13
BRANCH   7  15
ATOM     15  O   UNL     1     -11.203  44.336  36.838  1.00  0.00    -0.385 OA
ATOM     16  H   UNL     1     -10.508  44.483  37.531  1.00  0.00     0.211 HD
ENDBRANCH   7  15
ENDBRANCH   1   2
BRANCH   1  17
ATOM     17  C   UNL     1     -13.783  44.382  34.442  1.00  0.00     0.224 C 
ATOM     18  C   UNL     1     -13.524  45.880  34.197  1.00  0.00     0.208 C 
ATOM     19  O   UNL     1     -15.015  44.053  33.813  1.00  0.00    -0.337 OA
ATOM     20  C   UNL     1     -14.912  46.436  34.017  1.00  0.00     0.180 C 
ATOM     21  C   UNL     1     -15.656  45.246  33.406  1.00  0.00     0.179 C 
BRANCH  17  22
ATOM     22  C   UNL     1     -12.641  43.558  33.808  1.00  0.00     0.225 C 
BRANCH  22  23
ATOM     23  O   UNL     1     -11.450  44.297  33.755  1.00  0.00    -0.391 OA
ATOM     24  H   UNL     1     -10.915  43.935  33.003  1.00  0.00     0.210 HD
ENDBRANCH  22  23
ENDBRANCH  17  22
BRANCH  18  25
ATOM     25  O   UNL     1     -12.803  46.504  35.235  1.00  0.00    -0.385 OA
ATOM     26  H   UNL     1     -12.358  47.315  34.875  1.00  0.00     0.211 HD
ENDBRANCH  18  25
BRANCH  20  27
ATOM     27  O   UNL     1     -14.917  47.567  33.184  1.00  0.00    -0.387 OA
ATOM     28  H   UNL     1     -14.162  48.139  33.482  1.00  0.00     0.211 HD
ENDBRANCH  20  27
BRANCH  21  29
ATOM     29  C   UNL     1     -15.714  45.279  31.870  1.00  0.00     0.191 C 
BRANCH  29  30
ATOM     30  O   UNL     1     -16.773  46.098  31.457  1.00  0.00    -0.394 OA
ATOM     31  H   UNL     1     -17.586  45.743  31.903  1.00  0.00     0.210 HD
ENDBRANCH  29  30
ENDBRANCH  21  29
ENDBRANCH   1  17
TORSDOF 13
ENDMDL
MODEL 8
REMARK VINA RESULT:    -4.789      8.341     10.339
REMARK INTER + INTRA:          -9.009
REMARK INTER:                  -7.647
REMARK INTRA:                  -1.362
REMARK UNBOUND:                -1.701
REMARK SMILES OC[C@@H]1O[C@@H](O[C@@]2(CO)O[C@H](CO)[C@H](O)[C@H]2O)[C@@H](O)[C@@H](O)[C@H]1O
REMARK SMILES IDX 6 1 5 2 3 3 22 4 4 5 20 6 18 7 2 8 1 9 23 11 21 13 19 15
REMARK SMILES IDX 7 17 16 18 10 19 14 20 11 21 8 22 9 23 17 25 15 27 12 29
REMARK SMILES IDX 13 30
REMARK H PARENT 1 10 23 12 21 14 19 16 9 24 17 26 15 28 13 31
REMARK Flexibility Score: inf
ROOT
ATOM      1  O   UNL     1      -7.228  42.919  30.248  1.00  0.00    -0.313 OA
ENDROOT
BRANCH   1   2
ATOM      2  C   UNL     1      -7.081  44.016  29.352  1.00  0.00     0.285 C 
ATOM      3  C   UNL     1      -5.313  44.965  30.594  1.00  0.00     0.178 C 
ATOM      4  C   UNL     1      -6.169  46.172  31.043  1.00  0.00     0.177 C 
ATOM      5  O   UNL     1      -5.739  44.485  29.326  1.00  0.00    -0.341 OA
ATOM      6  C   UNL     1      -7.655  45.783  31.079  1.00  0.00     0.179 C 
ATOM      7  C   UNL     1      -8.053  45.152  29.736  1.00  0.00     0.202 C 
BRANCH   3   8
ATOM      8  C   UNL     1      -3.836  45.375  30.482  1.00  0.00     0.191 C 
BRANCH   8   9
ATOM      9  O   UNL     1      -3.725  46.701  30.041  1.00  0.00    -0.394 OA
ATOM     10  H   UNL     1      -2.805  46.999  30.262  1.00  0.00     0.210 HD
ENDBRANCH   8   9
ENDBRANCH   3   8
BRANCH   4  11
ATOM     11  O   UNL     1      -5.758  46.604  32.316  1.00  0.00    -0.387 OA
ATOM     12  H   UNL     1      -5.491  45.791  32.820  1.00  0.00     0.211 HD
ENDBRANCH   4  11
BRANCH   6  13
ATOM     13  O   UNL     1      -7.886  44.889  32.140  1.00  0.00    -0.387 OA
ATOM     14  H   UNL     1      -7.157  45.027  32.800  1.00  0.00     0.211 HD
ENDBRANCH   6  13
BRANCH   7  15
ATOM     15  O   UNL     1      -9.370  44.671  29.805  1.00  0.00    -0.385 OA
ATOM     16  H   UNL     1      -9.703  44.612  28.872  1.00  0.00     0.211 HD
ENDBRANCH   7  15
ENDBRANCH   1   2
BRANCH   1  17
ATOM     17  C   UNL     1      -7.409  41.652  29.612  1.00  0.00     0.224 C 
ATOM     18  C   UNL     1      -6.451  40.633  30.258  1.00  0.00     0.208 C 
ATOM     19  O   UNL     1      -7.106  41.702  28.224  1.00  0.00    -0.337 OA
ATOM     20  C   UNL     1      -5.259  40.661  29.337  1.00  0.00     0.180 C 
ATOM     21  C   UNL     1      -5.905  40.992  27.989  1.00  0.00     0.179 C 
BRANCH  17  22
ATOM     22  C   UNL     1      -8.865  41.176  29.808  1.00  0.00     0.225 C 
BRANCH  22  23
ATOM     23  O   UNL     1      -9.436  40.776  28.591  1.00  0.00    -0.391 OA
ATOM     24  H   UNL     1     -10.334  41.193  28.538  1.00  0.00     0.210 HD
ENDBRANCH  22  23
ENDBRANCH  17  22
BRANCH  18  25
ATOM     25  O   UNL     1      -6.129  40.932  31.596  1.00  0.00    -0.385 OA
ATOM     26  H   UNL     1      -6.732  40.420  32.195  1.00  0.00     0.211 HD
ENDBRANCH  18  25
BRANCH  20  27
ATOM     27  O   UNL     1      -4.579  39.432  29.327  1.00  0.00    -0.387 OA
ATOM     28  H   UNL     1      -3.625  39.637  29.513  1.00  0.00     0.211 HD
ENDBRANCH  20  27
BRANCH  21  29
ATOM     29  C   UNL     1      -6.220  39.753  27.136  1.00  0.00     0.191 C 
BRANCH  29  30
ATOM     30  O   UNL     1      -7.478  39.901  26.537  1.00  0.00    -0.394 OA
ATOM     31  H   UNL     1      -7.347  39.709  25.572  1.00  0.00     0.210 HD
ENDBRANCH  29  30
ENDBRANCH  21  29
ENDBRANCH   1  17
TORSDOF 13
ENDMDL
MODEL 9
REMARK VINA RESULT:    -4.703      7.877      9.197
REMARK INTER + INTRA:          -8.878
REMARK INTER:                  -7.273
REMARK INTRA:                  -1.605
REMARK UNBOUND:                -1.701
REMARK SMILES OC[C@@H]1O[C@@H](O[C@@]2(CO)O[C@H](CO)[C@H](O)[C@H]2O)[C@@H](O)[C@@H](O)[C@H]1O
REMARK SMILES IDX 6 1 5 2 3 3 22 4 4 5 20 6 18 7 2 8 1 9 23 11 21 13 19 15
REMARK SMILES IDX 7 17 16 18 10 19 14 20 11 21 8 22 9 23 17 25 15 27 12 29
REMARK SMILES IDX 13 30
REMARK H PARENT 1 10 23 12 21 14 19 16 9 24 17 26 15 28 13 31
REMARK Flexibility Score: inf
ROOT
ATOM      1  O   UNL     1      -6.468  42.511  31.234  1.00  0.00    -0.313 OA
ENDROOT
BRANCH   1   2
ATOM      2  C   UNL     1      -6.641  42.527  29.821  1.00  0.00     0.285 C 
ATOM      3  C   UNL     1      -7.062  44.849  29.768  1.00  0.00     0.178 C 
ATOM      4  C   UNL     1      -8.548  44.653  29.384  1.00  0.00     0.177 C 
ATOM      5  O   UNL     1      -6.265  43.783  29.270  1.00  0.00    -0.341 OA
ATOM      6  C   UNL     1      -9.056  43.301  29.910  1.00  0.00     0.179 C 
ATOM      7  C   UNL     1      -8.101  42.184  29.459  1.00  0.00     0.202 C 
BRANCH   3   8
ATOM      8  C   UNL     1      -6.532  46.164  29.176  1.00  0.00     0.191 C 
BRANCH   8   9
ATOM      9  O   UNL     1      -7.074  46.385  27.902  1.00  0.00    -0.394 OA
ATOM     10  H   UNL     1      -6.387  46.099  27.246  1.00  0.00     0.210 HD
ENDBRANCH   8   9
ENDBRANCH   3   8
BRANCH   4  11
ATOM     11  O   UNL     1      -9.323  45.694  29.921  1.00  0.00    -0.387 OA
ATOM     12  H   UNL     1      -9.174  46.488  29.344  1.00  0.00     0.211 HD
ENDBRANCH   4  11
BRANCH   6  13
ATOM     13  O   UNL     1      -9.151  43.342  31.312  1.00  0.00    -0.387 OA
ATOM     14  H   UNL     1      -8.431  42.756  31.669  1.00  0.00     0.211 HD
ENDBRANCH   6  13
BRANCH   7  15
ATOM     15  O   UNL     1      -8.481  40.965  30.045  1.00  0.00    -0.385 OA
ATOM     16  H   UNL     1      -9.131  41.184  30.763  1.00  0.00     0.211 HD
ENDBRANCH   7  15
ENDBRANCH   1   2
BRANCH   1  17
ATOM     17  C   UNL     1      -5.346  41.749  31.687  1.00  0.00     0.224 C 
ATOM     18  C   UNL     1      -5.812  40.801  32.809  1.00  0.00     0.208 C 
ATOM     19  O   UNL     1      -4.321  42.574  32.224  1.00  0.00    -0.337 OA
ATOM     20  C   UNL     1      -5.492  41.577  34.059  1.00  0.00     0.180 C 
ATOM     21  C   UNL     1      -4.270  42.391  33.626  1.00  0.00     0.179 C 
BRANCH  17  22
ATOM     22  C   UNL     1      -4.780  40.914  30.519  1.00  0.00     0.225 C 
BRANCH  22  23
ATOM     23  O   UNL     1      -3.664  40.167  30.922  1.00  0.00    -0.391 OA
ATOM     24  H   UNL     1      -3.155  39.935  30.102  1.00  0.00     0.210 HD
ENDBRANCH  22  23
ENDBRANCH  17  22
BRANCH  18  25
ATOM     25  O   UNL     1      -7.170  40.437  32.711  1.00  0.00    -0.385 OA
ATOM     26  H   UNL     1      -7.688  41.213  32.375  1.00  0.00     0.211 HD
ENDBRANCH  18  25
BRANCH  20  27
ATOM     27  O   UNL     1      -5.223  40.728  35.145  1.00  0.00    -0.387 OA
ATOM     28  H   UNL     1      -5.213  39.803  34.784  1.00  0.00     0.211 HD
ENDBRANCH  20  27
BRANCH  21  29
ATOM     29  C   UNL     1      -2.930  41.732  33.992  1.00  0.00     0.191 C 
BRANCH  29  30
ATOM     30  O   UNL     1      -2.064  41.784  32.892  1.00  0.00    -0.394 OA
ATOM     31  H   UNL     1      -2.639  41.723  32.086  1.00  0.00     0.210 HD
ENDBRANCH  29  30
ENDBRANCH  21  29
ENDBRANCH   1  17
TORSDOF 13
ENDMDL
