MODEL 1
REMARK VINA RESULT:     1.588      0.000      0.000
REMARK INTER + INTRA:           3.753
REMARK INTER:                   2.145
REMARK INTRA:                   1.609
REMARK UNBOUND:                 1.609
REMARK SMILES COc1ccc(-c2cc(=O)c3c(OC)c(OC)c(OC)c(OC)c3o2)cc1
REMARK SMILES IDX 7 1 8 2 9 3 10 4 11 5 24 6 25 7 21 8 18 9 15 10 12 11 6 12
REMARK SMILES IDX 3 13 4 14 27 15 5 16 26 17 2 18 1 19 22 20 23 21 13 22 14 23
REMARK SMILES IDX 19 24 20 25 16 26 17 27
REMARK H PARENT
REMARK Flexibility Score: inf
ROOT
ATOM      1  C   UNL     1       6.025  -8.377  -2.307  1.00  0.00     0.138 A 
ATOM      2  C   UNL     1       4.718  -7.927  -2.513  1.00  0.00     0.100 A 
ATOM      3  C   UNL     1       3.792  -8.027  -1.480  1.00  0.00     0.197 A 
ATOM      4  O   UNL     1       2.616  -7.620  -1.690  1.00  0.00    -0.289 OA
ATOM      5  C   UNL     1       4.180  -8.578  -0.234  1.00  0.00     0.115 A 
ATOM      6  C   UNL     1       5.521  -9.015  -0.099  1.00  0.00     0.188 A 
ATOM      7  O   UNL     1       6.357  -8.901  -1.130  1.00  0.00    -0.452 OA
ATOM      8  C   UNL     1       5.980  -9.554   1.127  1.00  0.00     0.209 A 
ATOM      9  C   UNL     1       5.080  -9.666   2.216  1.00  0.00     0.211 A 
ATOM     10  C   UNL     1       3.734  -9.268   2.069  1.00  0.00     0.208 A 
ATOM     11  C   UNL     1       3.280  -8.704   0.851  1.00  0.00     0.179 A 
ENDROOT
BRANCH   1  12
ATOM     12  C   UNL     1       7.054  -8.287  -3.372  1.00  0.00     0.018 A 
ATOM     13  C   UNL     1       8.975  -8.044  -5.429  1.00  0.00     0.118 A 
ATOM     14  C   UNL     1       8.849  -7.043  -4.448  1.00  0.00     0.047 A 
ATOM     15  C   UNL     1       8.141  -9.165  -5.369  1.00  0.00     0.047 A 
ATOM     16  C   UNL     1       7.898  -7.167  -3.431  1.00  0.00     0.016 A 
ATOM     17  C   UNL     1       7.183  -9.286  -4.357  1.00  0.00     0.016 A 
BRANCH  13  18
ATOM     18  O   UNL     1       9.908  -7.961  -6.473  1.00  0.00    -0.497 OA
ATOM     19  C   UNL     1       9.596  -7.530  -7.796  1.00  0.00     0.278 C 
ENDBRANCH  13  18
ENDBRANCH   1  12
BRANCH   8  20
ATOM     20  O   UNL     1       7.313  -9.970   1.320  1.00  0.00    -0.490 OA
ATOM     21  C   UNL     1       8.330 -10.114   0.333  1.00  0.00     0.278 C 
ENDBRANCH   8  20
BRANCH  11  22
ATOM     22  O   UNL     1       1.952  -8.262   0.666  1.00  0.00    -0.492 OA
ATOM     23  C   UNL     1       1.267  -7.242   1.386  1.00  0.00     0.278 C 
ENDBRANCH  11  22
BRANCH   9  24
ATOM     24  O   UNL     1       5.473 -10.125   3.489  1.00  0.00    -0.490 OA
ATOM     25  C   UNL     1       6.742  -9.976   4.118  1.00  0.00     0.279 C 
ENDBRANCH   9  24
BRANCH  10  26
ATOM     26  O   UNL     1       2.838  -9.395   3.141  1.00  0.00    -0.490 OA
ATOM     27  C   UNL     1       3.221  -9.688   4.482  1.00  0.00     0.278 C 
ENDBRANCH  10  26
TORSDOF 6
ENDMDL
MODEL 2
REMARK VINA RESULT:     3.640      2.850      8.773
REMARK INTER + INTRA:           6.525
REMARK INTER:                   7.029
REMARK INTRA:                  -0.504
REMARK UNBOUND:                 1.609
REMARK SMILES COc1ccc(-c2cc(=O)c3c(OC)c(OC)c(OC)c(OC)c3o2)cc1
REMARK SMILES IDX 7 1 8 2 9 3 10 4 11 5 24 6 25 7 21 8 18 9 15 10 12 11 6 12
REMARK SMILES IDX 3 13 4 14 27 15 5 16 26 17 2 18 1 19 22 20 23 21 13 22 14 23
REMARK SMILES IDX 19 24 20 25 16 26 17 27
REMARK H PARENT
REMARK Flexibility Score: inf
ROOT
ATOM      1  C   UNL     1       1.195  -7.116   1.784  1.00  0.00     0.138 A 
ATOM      2  C   UNL     1       1.999  -7.838   2.671  1.00  0.00     0.100 A 
ATOM      3  C   UNL     1       3.053  -8.596   2.171  1.00  0.00     0.197 A 
ATOM      4  O   UNL     1       3.762  -9.245   2.988  1.00  0.00    -0.289 OA
ATOM      5  C   UNL     1       3.302  -8.628   0.777  1.00  0.00     0.115 A 
ATOM      6  C   UNL     1       2.444  -7.873  -0.060  1.00  0.00     0.188 A 
ATOM      7  O   UNL     1       1.445  -7.175   0.480  1.00  0.00    -0.452 OA
ATOM      8  C   UNL     1       2.652  -7.843  -1.460  1.00  0.00     0.209 A 
ATOM      9  C   UNL     1       3.720  -8.588  -2.020  1.00  0.00     0.211 A 
ATOM     10  C   UNL     1       4.549  -9.372  -1.190  1.00  0.00     0.208 A 
ATOM     11  C   UNL     1       4.359  -9.382   0.214  1.00  0.00     0.179 A 
ENDROOT
BRANCH   1  12
ATOM     12  C   UNL     1       0.063  -6.285   2.265  1.00  0.00     0.018 A 
ATOM     13  C   UNL     1      -2.055  -4.635   3.141  1.00  0.00     0.118 A 
ATOM     14  C   UNL     1      -1.811  -4.813   1.767  1.00  0.00     0.047 A 
ATOM     15  C   UNL     1      -1.240  -5.292   4.068  1.00  0.00     0.047 A 
ATOM     16  C   UNL     1      -0.762  -5.631   1.337  1.00  0.00     0.016 A 
ATOM     17  C   UNL     1      -0.185  -6.104   3.639  1.00  0.00     0.016 A 
BRANCH  13  18
ATOM     18  O   UNL     1      -3.090  -3.819   3.622  1.00  0.00    -0.497 OA
ATOM     19  C   UNL     1      -3.743  -2.813   2.851  1.00  0.00     0.278 C 
ENDBRANCH  13  18
ENDBRANCH   1  12
BRANCH   8  20
ATOM     20  O   UNL     1       1.846  -7.080  -2.329  1.00  0.00    -0.490 OA
ATOM     21  C   UNL     1       2.100  -5.769  -2.824  1.00  0.00     0.278 C 
ENDBRANCH   8  20
BRANCH  11  22
ATOM     22  O   UNL     1       5.182 -10.125   1.089  1.00  0.00    -0.492 OA
ATOM     23  C   UNL     1       6.551  -9.889   1.405  1.00  0.00     0.278 C 
ENDBRANCH  11  22
BRANCH   9  24
ATOM     24  O   UNL     1       4.038  -8.557  -3.391  1.00  0.00    -0.490 OA
ATOM     25  C   UNL     1       3.506  -9.374  -4.430  1.00  0.00     0.279 C 
ENDBRANCH   9  24
BRANCH  10  26
ATOM     26  O   UNL     1       5.596 -10.124  -1.744  1.00  0.00    -0.490 OA
ATOM     27  C   UNL     1       6.803  -9.569  -2.258  1.00  0.00     0.278 C 
ENDBRANCH  10  26
TORSDOF 6
ENDMDL
MODEL 3
REMARK VINA RESULT:     4.125      1.251      1.416
REMARK INTER + INTRA:           7.181
REMARK INTER:                   5.759
REMARK INTRA:                   1.422
REMARK UNBOUND:                 1.609
REMARK SMILES COc1ccc(-c2cc(=O)c3c(OC)c(OC)c(OC)c(OC)c3o2)cc1
REMARK SMILES IDX 7 1 8 2 9 3 10 4 11 5 24 6 25 7 21 8 18 9 15 10 12 11 6 12
REMARK SMILES IDX 3 13 4 14 27 15 5 16 26 17 2 18 1 19 22 20 23 21 13 22 14 23
REMARK SMILES IDX 19 24 20 25 16 26 17 27
REMARK H PARENT
REMARK Flexibility Score: inf
ROOT
ATOM      1  C   UNL     1       6.410  -8.774  -3.465  1.00  0.00     0.138 A 
ATOM      2  C   UNL     1       5.084  -8.373  -3.652  1.00  0.00     0.100 A 
ATOM      3  C   UNL     1       4.199  -8.422  -2.580  1.00  0.00     0.197 A 
ATOM      4  O   UNL     1       3.006  -8.061  -2.772  1.00  0.00    -0.289 OA
ATOM      5  C   UNL     1       4.648  -8.874  -1.314  1.00  0.00     0.115 A 
ATOM      6  C   UNL     1       6.005  -9.266  -1.201  1.00  0.00     0.188 A 
ATOM      7  O   UNL     1       6.799  -9.205  -2.269  1.00  0.00    -0.452 OA
ATOM      8  C   UNL     1       6.522  -9.706   0.041  1.00  0.00     0.209 A 
ATOM      9  C   UNL     1       5.667  -9.763   1.169  1.00  0.00     0.211 A 
ATOM     10  C   UNL     1       4.306  -9.411   1.046  1.00  0.00     0.208 A 
ATOM     11  C   UNL     1       3.792  -8.946  -0.189  1.00  0.00     0.179 A 
ENDROOT
BRANCH   1  12
ATOM     12  C   UNL     1       7.396  -8.733  -4.573  1.00  0.00     0.018 A 
ATOM     13  C   UNL     1       9.229  -8.591  -6.717  1.00  0.00     0.118 A 
ATOM     14  C   UNL     1       9.049  -7.491  -5.859  1.00  0.00     0.047 A 
ATOM     15  C   UNL     1       8.494  -9.759  -6.491  1.00  0.00     0.047 A 
ATOM     16  C   UNL     1       8.141  -7.565  -4.798  1.00  0.00     0.016 A 
ATOM     17  C   UNL     1       7.580  -9.831  -5.435  1.00  0.00     0.016 A 
BRANCH  13  18
ATOM     18  O   UNL     1      10.122  -8.563  -7.800  1.00  0.00    -0.497 OA
ATOM     19  C   UNL     1       9.725  -8.438  -9.163  1.00  0.00     0.278 C 
ENDBRANCH  13  18
ENDBRANCH   1  12
BRANCH   8  20
ATOM     20  O   UNL     1       7.873 -10.074   0.211  1.00  0.00    -0.490 OA
ATOM     21  C   UNL     1       8.664  -9.958   1.389  1.00  0.00     0.278 C 
ENDBRANCH   8  20
BRANCH  11  22
ATOM     22  O   UNL     1       2.447  -8.551  -0.354  1.00  0.00    -0.492 OA
ATOM     23  C   UNL     1       1.300  -9.391  -0.450  1.00  0.00     0.278 C 
ENDBRANCH  11  22
BRANCH   9  24
ATOM     24  O   UNL     1       6.118 -10.122   2.455  1.00  0.00    -0.490 OA
ATOM     25  C   UNL     1       5.512  -9.824   3.708  1.00  0.00     0.279 C 
ENDBRANCH   9  24
BRANCH  10  26
ATOM     26  O   UNL     1       3.454  -9.484   2.158  1.00  0.00    -0.490 OA
ATOM     27  C   UNL     1       2.947  -8.353   2.861  1.00  0.00     0.278 C 
ENDBRANCH  10  26
TORSDOF 6
ENDMDL
