MODEL 1
REMARK VINA RESULT:    -4.115      0.000      0.000
REMARK INTER + INTRA:          -8.880
REMARK INTER:                  -7.003
REMARK INTRA:                  -1.878
REMARK UNBOUND:                -1.878
REMARK SMILES CCCCCCCCCCCCCC(=O)[O-]
REMARK SMILES IDX 8 1 9 2 10 3 11 4 12 5 13 6 14 7 15 8 16 9 7 10 6 11 5 12
REMARK SMILES IDX 4 13 3 14 2 15 1 16
REMARK H PARENT
REMARK Flexibility Score: inf
ROOT
ATOM      1  C   UNL     1      16.965 -37.566  -2.248  1.00  0.00     0.000 C 
ENDROOT
BRANCH   1   2
ATOM      2  C   UNL     1      15.462 -37.260  -2.125  1.00  0.00     0.000 C 
BRANCH   2   3
ATOM      3  C   UNL     1      14.803 -38.004  -0.952  1.00  0.00     0.000 C 
BRANCH   3   4
ATOM      4  C   UNL     1      15.173 -37.400   0.416  1.00  0.00     0.000 C 
BRANCH   4   5
ATOM      5  C   UNL     1      16.186 -38.262   1.185  1.00  0.00     0.006 C 
BRANCH   5   6
ATOM      6  C   UNL     1      17.479 -37.501   1.509  1.00  0.00     0.053 C 
BRANCH   6   7
ATOM      7  C   UNL     1      18.668 -38.391   1.323  1.00  0.00     0.041 C 
ATOM      8  O   UNL     1      19.342 -38.333   0.261  1.00  0.00    -0.550 OA
ATOM      9  O   UNL     1      19.061 -39.250   2.342  1.00  0.00    -0.550 OA
ENDBRANCH   6   7
ENDBRANCH   5   6
ENDBRANCH   4   5
ENDBRANCH   3   4
ENDBRANCH   2   3
ENDBRANCH   1   2
BRANCH   1  10
ATOM     10  C   UNL     1      17.815 -36.294  -2.406  1.00  0.00     0.000 C 
BRANCH  10  11
ATOM     11  C   UNL     1      17.476 -35.222  -1.357  1.00  0.00    -0.000 C 
BRANCH  11  12
ATOM     12  C   UNL     1      17.459 -33.803  -1.949  1.00  0.00    -0.000 C 
BRANCH  12  13
ATOM     13  C   UNL     1      16.050 -33.183  -1.960  1.00  0.00    -0.000 C 
BRANCH  13  14
ATOM     14  C   UNL     1      15.135 -33.779  -0.879  1.00  0.00    -0.000 C 
BRANCH  14  15
ATOM     15  C   UNL     1      13.727 -34.093  -1.404  1.00  0.00    -0.003 C 
ATOM     16  C   UNL     1      13.616 -33.786  -2.895  1.00  0.00     0.004 C 
ENDBRANCH  14  15
ENDBRANCH  13  14
ENDBRANCH  12  13
ENDBRANCH  11  12
ENDBRANCH  10  11
ENDBRANCH   1  10
TORSDOF 12
ENDMDL
MODEL 2
REMARK VINA RESULT:    -3.871      1.273      3.064
REMARK INTER + INTRA:          -8.465
REMARK INTER:                  -6.543
REMARK INTRA:                  -1.923
REMARK UNBOUND:                -1.878
REMARK SMILES CCCCCCCCCCCCCC(=O)[O-]
REMARK SMILES IDX 8 1 9 2 10 3 11 4 12 5 13 6 14 7 15 8 16 9 7 10 6 11 5 12
REMARK SMILES IDX 4 13 3 14 2 15 1 16
REMARK H PARENT
REMARK Flexibility Score: inf
ROOT
ATOM      1  C   UNL     1      13.602 -35.659  -1.155  1.00  0.00     0.000 C 
ENDROOT
BRANCH   1   2
ATOM      2  C   UNL     1      13.869 -35.305   0.319  1.00  0.00     0.000 C 
BRANCH   2   3
ATOM      3  C   UNL     1      14.891 -36.248   0.974  1.00  0.00     0.000 C 
BRANCH   3   4
ATOM      4  C   UNL     1      16.032 -35.490   1.678  1.00  0.00     0.000 C 
BRANCH   4   5
ATOM      5  C   UNL     1      17.402 -36.151   1.458  1.00  0.00     0.006 C 
BRANCH   5   6
ATOM      6  C   UNL     1      17.441 -37.603   1.952  1.00  0.00     0.053 C 
BRANCH   6   7
ATOM      7  C   UNL     1      18.283 -38.441   1.042  1.00  0.00     0.041 C 
ATOM      8  O   UNL     1      17.786 -39.442   0.462  1.00  0.00    -0.550 OA
ATOM      9  O   UNL     1      19.605 -38.089   0.796  1.00  0.00    -0.550 OA
ENDBRANCH   6   7
ENDBRANCH   5   6
ENDBRANCH   4   5
ENDBRANCH   3   4
ENDBRANCH   2   3
ENDBRANCH   1   2
BRANCH   1  10
ATOM     10  C   UNL     1      13.725 -34.441  -2.086  1.00  0.00     0.000 C 
BRANCH  10  11
ATOM     11  C   UNL     1      14.511 -33.284  -1.445  1.00  0.00    -0.000 C 
BRANCH  11  12
ATOM     12  C   UNL     1      15.886 -33.073  -2.098  1.00  0.00    -0.000 C 
BRANCH  12  13
ATOM     13  C   UNL     1      17.020 -33.780  -1.335  1.00  0.00    -0.000 C 
BRANCH  13  14
ATOM     14  C   UNL     1      17.729 -34.845  -2.187  1.00  0.00    -0.000 C 
BRANCH  14  15
ATOM     15  C   UNL     1      17.003 -36.197  -2.168  1.00  0.00    -0.003 C 
ATOM     16  C   UNL     1      17.976 -37.347  -2.411  1.00  0.00     0.004 C 
ENDBRANCH  14  15
ENDBRANCH  13  14
ENDBRANCH  12  13
ENDBRANCH  11  12
ENDBRANCH  10  11
ENDBRANCH   1  10
TORSDOF 12
ENDMDL
MODEL 3
REMARK VINA RESULT:    -3.864      1.994      4.085
REMARK INTER + INTRA:          -8.452
REMARK INTER:                  -7.096
REMARK INTRA:                  -1.356
REMARK UNBOUND:                -1.878
REMARK SMILES CCCCCCCCCCCCCC(=O)[O-]
REMARK SMILES IDX 8 1 9 2 10 3 11 4 12 5 13 6 14 7 15 8 16 9 7 10 6 11 5 12
REMARK SMILES IDX 4 13 3 14 2 15 1 16
REMARK H PARENT
REMARK Flexibility Score: inf
ROOT
ATOM      1  C   UNL     1      16.810 -35.083  -1.936  1.00  0.00     0.000 C 
ENDROOT
BRANCH   1   2
ATOM      2  C   UNL     1      17.359 -34.119  -0.870  1.00  0.00     0.000 C 
BRANCH   2   3
ATOM      3  C   UNL     1      17.770 -34.843   0.423  1.00  0.00     0.000 C 
BRANCH   3   4
ATOM      4  C   UNL     1      16.606 -35.626   1.059  1.00  0.00     0.000 C 
BRANCH   4   5
ATOM      5  C   UNL     1      17.090 -36.698   2.050  1.00  0.00     0.006 C 
BRANCH   5   6
ATOM      6  C   UNL     1      17.206 -38.086   1.405  1.00  0.00     0.053 C 
BRANCH   6   7
ATOM      7  C   UNL     1      18.627 -38.554   1.427  1.00  0.00     0.041 C 
ATOM      8  O   UNL     1      19.481 -38.022   0.671  1.00  0.00    -0.550 OA
ATOM      9  O   UNL     1      19.018 -39.546   2.317  1.00  0.00    -0.550 OA
ENDBRANCH   6   7
ENDBRANCH   5   6
ENDBRANCH   4   5
ENDBRANCH   3   4
ENDBRANCH   2   3
ENDBRANCH   1   2
BRANCH   1  10
ATOM     10  C   UNL     1      17.866 -36.095  -2.416  1.00  0.00     0.000 C 
BRANCH  10  11
ATOM     11  C   UNL     1      17.440 -37.553  -2.173  1.00  0.00    -0.000 C 
BRANCH  11  12
ATOM     12  C   UNL     1      15.915 -37.736  -2.218  1.00  0.00    -0.000 C 
BRANCH  12  13
ATOM     13  C   UNL     1      15.496 -39.217  -2.250  1.00  0.00    -0.000 C 
BRANCH  13  14
ATOM     14  C   UNL     1      14.883 -39.627  -3.599  1.00  0.00    -0.000 C 
BRANCH  14  15
ATOM     15  C   UNL     1      15.861 -40.423  -4.475  1.00  0.00    -0.003 C 
ATOM     16  C   UNL     1      15.335 -40.560  -5.901  1.00  0.00     0.004 C 
ENDBRANCH  14  15
ENDBRANCH  13  14
ENDBRANCH  12  13
ENDBRANCH  11  12
ENDBRANCH  10  11
ENDBRANCH   1  10
TORSDOF 12
ENDMDL
MODEL 4
REMARK VINA RESULT:    -3.750      1.387      3.871
REMARK INTER + INTRA:          -8.259
REMARK INTER:                  -6.867
REMARK INTRA:                  -1.392
REMARK UNBOUND:                -1.878
REMARK SMILES CCCCCCCCCCCCCC(=O)[O-]
REMARK SMILES IDX 8 1 9 2 10 3 11 4 12 5 13 6 14 7 15 8 16 9 7 10 6 11 5 12
REMARK SMILES IDX 4 13 3 14 2 15 1 16
REMARK H PARENT
REMARK Flexibility Score: inf
ROOT
ATOM      1  C   UNL     1      16.012 -32.938  -2.113  1.00  0.00     0.000 C 
ENDROOT
BRANCH   1   2
ATOM      2  C   UNL     1      17.279 -33.809  -2.056  1.00  0.00     0.000 C 
BRANCH   2   3
ATOM      3  C   UNL     1      16.972 -35.272  -1.694  1.00  0.00     0.000 C 
BRANCH   3   4
ATOM      4  C   UNL     1      17.818 -36.273  -2.501  1.00  0.00     0.000 C 
BRANCH   4   5
ATOM      5  C   UNL     1      18.040 -37.596  -1.750  1.00  0.00     0.006 C 
BRANCH   5   6
ATOM      6  C   UNL     1      17.879 -37.445  -0.232  1.00  0.00     0.053 C 
BRANCH   6   7
ATOM      7  C   UNL     1      18.816 -38.365   0.486  1.00  0.00     0.041 C 
ATOM      8  O   UNL     1      18.655 -39.611   0.417  1.00  0.00    -0.550 OA
ATOM      9  O   UNL     1      19.895 -37.848   1.192  1.00  0.00    -0.550 OA
ENDBRANCH   6   7
ENDBRANCH   5   6
ENDBRANCH   4   5
ENDBRANCH   3   4
ENDBRANCH   2   3
ENDBRANCH   1   2
BRANCH   1  10
ATOM     10  C   UNL     1      14.942 -33.386  -1.103  1.00  0.00     0.000 C 
BRANCH  10  11
ATOM     11  C   UNL     1      13.610 -33.757  -1.778  1.00  0.00    -0.000 C 
BRANCH  11  12
ATOM     12  C   UNL     1      13.150 -35.181  -1.428  1.00  0.00    -0.000 C 
BRANCH  12  13
ATOM     13  C   UNL     1      13.526 -36.209  -2.510  1.00  0.00    -0.000 C 
BRANCH  13  14
ATOM     14  C   UNL     1      13.726 -37.622  -1.938  1.00  0.00    -0.000 C 
BRANCH  14  15
ATOM     15  C   UNL     1      14.738 -38.447  -2.745  1.00  0.00    -0.003 C 
ATOM     16  C   UNL     1      15.137 -39.714  -1.992  1.00  0.00     0.004 C 
ENDBRANCH  14  15
ENDBRANCH  13  14
ENDBRANCH  12  13
ENDBRANCH  11  12
ENDBRANCH  10  11
ENDBRANCH   1  10
TORSDOF 12
ENDMDL
MODEL 5
REMARK VINA RESULT:    -3.692      1.383      3.720
REMARK INTER + INTRA:          -8.160
REMARK INTER:                  -6.264
REMARK INTRA:                  -1.897
REMARK UNBOUND:                -1.878
REMARK SMILES CCCCCCCCCCCCCC(=O)[O-]
REMARK SMILES IDX 8 1 9 2 10 3 11 4 12 5 13 6 14 7 15 8 16 9 7 10 6 11 5 12
REMARK SMILES IDX 4 13 3 14 2 15 1 16
REMARK H PARENT
REMARK Flexibility Score: inf
ROOT
ATOM      1  C   UNL     1      15.211 -33.297  -1.548  1.00  0.00     0.000 C 
ENDROOT
BRANCH   1   2
ATOM      2  C   UNL     1      16.630 -33.453  -2.123  1.00  0.00     0.000 C 
BRANCH   2   3
ATOM      3  C   UNL     1      17.480 -34.459  -1.329  1.00  0.00     0.000 C 
BRANCH   3   4
ATOM      4  C   UNL     1      17.731 -35.766  -2.105  1.00  0.00     0.000 C 
BRANCH   4   5
ATOM      5  C   UNL     1      17.437 -37.017  -1.261  1.00  0.00     0.006 C 
BRANCH   5   6
ATOM      6  C   UNL     1      17.999 -36.912   0.163  1.00  0.00     0.053 C 
BRANCH   6   7
ATOM      7  C   UNL     1      18.817 -38.121   0.491  1.00  0.00     0.041 C 
ATOM      8  O   UNL     1      18.852 -38.561   1.670  1.00  0.00    -0.550 OA
ATOM      9  O   UNL     1      19.502 -38.792  -0.515  1.00  0.00    -0.550 OA
ENDBRANCH   6   7
ENDBRANCH   5   6
ENDBRANCH   4   5
ENDBRANCH   3   4
ENDBRANCH   2   3
ENDBRANCH   1   2
BRANCH   1  10
ATOM     10  C   UNL     1      14.122 -33.415  -2.627  1.00  0.00     0.000 C 
BRANCH  10  11
ATOM     11  C   UNL     1      13.240 -34.662  -2.444  1.00  0.00    -0.000 C 
BRANCH  11  12
ATOM     12  C   UNL     1      14.061 -35.923  -2.128  1.00  0.00    -0.000 C 
BRANCH  12  13
ATOM     13  C   UNL     1      13.357 -36.854  -1.125  1.00  0.00    -0.000 C 
BRANCH  13  14
ATOM     14  C   UNL     1      14.077 -36.910   0.232  1.00  0.00    -0.000 C 
BRANCH  14  15
ATOM     15  C   UNL     1      13.883 -35.630   1.057  1.00  0.00    -0.003 C 
ATOM     16  C   UNL     1      15.191 -35.193   1.710  1.00  0.00     0.004 C 
ENDBRANCH  14  15
ENDBRANCH  13  14
ENDBRANCH  12  13
ENDBRANCH  11  12
ENDBRANCH  10  11
ENDBRANCH   1  10
TORSDOF 12
ENDMDL
MODEL 6
REMARK VINA RESULT:    -3.654      1.576      3.018
REMARK INTER + INTRA:          -8.095
REMARK INTER:                  -6.108
REMARK INTRA:                  -1.987
REMARK UNBOUND:                -1.878
REMARK SMILES CCCCCCCCCCCCCC(=O)[O-]
REMARK SMILES IDX 8 1 9 2 10 3 11 4 12 5 13 6 14 7 15 8 16 9 7 10 6 11 5 12
REMARK SMILES IDX 4 13 3 14 2 15 1 16
REMARK H PARENT
REMARK Flexibility Score: inf
ROOT
ATOM      1  C   UNL     1      17.715 -35.227   0.563  1.00  0.00     0.000 C 
ENDROOT
BRANCH   1   2
ATOM      2  C   UNL     1      16.419 -35.249   1.394  1.00  0.00     0.000 C 
BRANCH   2   3
ATOM      3  C   UNL     1      16.563 -36.068   2.687  1.00  0.00     0.000 C 
BRANCH   3   4
ATOM      4  C   UNL     1      15.679 -37.329   2.692  1.00  0.00     0.000 C 
BRANCH   4   5
ATOM      5  C   UNL     1      16.503 -38.626   2.632  1.00  0.00     0.006 C 
BRANCH   5   6
ATOM      6  C   UNL     1      17.142 -38.853   1.255  1.00  0.00     0.053 C 
BRANCH   6   7
ATOM      7  C   UNL     1      18.634 -38.824   1.362  1.00  0.00     0.041 C 
ATOM      8  O   UNL     1      19.201 -39.212   2.416  1.00  0.00    -0.550 OA
ATOM      9  O   UNL     1      19.401 -38.414   0.279  1.00  0.00    -0.550 OA
ENDBRANCH   6   7
ENDBRANCH   5   6
ENDBRANCH   4   5
ENDBRANCH   3   4
ENDBRANCH   2   3
ENDBRANCH   1   2
BRANCH   1  10
ATOM     10  C   UNL     1      17.615 -34.299  -0.660  1.00  0.00     0.000 C 
BRANCH  10  11
ATOM     11  C   UNL     1      16.979 -34.992  -1.878  1.00  0.00    -0.000 C 
BRANCH  11  12
ATOM     12  C   UNL     1      17.677 -36.315  -2.233  1.00  0.00    -0.000 C 
BRANCH  12  13
ATOM     13  C   UNL     1      16.723 -37.522  -2.176  1.00  0.00    -0.000 C 
BRANCH  13  14
ATOM     14  C   UNL     1      15.243 -37.104  -2.170  1.00  0.00    -0.000 C 
BRANCH  14  15
ATOM     15  C   UNL     1      14.479 -37.655  -0.959  1.00  0.00    -0.003 C 
ATOM     16  C   UNL     1      13.575 -36.588  -0.348  1.00  0.00     0.004 C 
ENDBRANCH  14  15
ENDBRANCH  13  14
ENDBRANCH  12  13
ENDBRANCH  11  12
ENDBRANCH  10  11
ENDBRANCH   1  10
TORSDOF 12
ENDMDL
MODEL 7
REMARK VINA RESULT:    -3.652      1.197      3.177
REMARK INTER + INTRA:          -8.091
REMARK INTER:                  -6.518
REMARK INTRA:                  -1.573
REMARK UNBOUND:                -1.878
REMARK SMILES CCCCCCCCCCCCCC(=O)[O-]
REMARK SMILES IDX 8 1 9 2 10 3 11 4 12 5 13 6 14 7 15 8 16 9 7 10 6 11 5 12
REMARK SMILES IDX 4 13 3 14 2 15 1 16
REMARK H PARENT
REMARK Flexibility Score: inf
ROOT
ATOM      1  C   UNL     1      17.405 -33.739  -2.059  1.00  0.00     0.000 C 
ENDROOT
BRANCH   1   2
ATOM      2  C   UNL     1      17.280 -35.099  -1.350  1.00  0.00     0.000 C 
BRANCH   2   3
ATOM      3  C   UNL     1      17.378 -36.283  -2.326  1.00  0.00     0.000 C 
BRANCH   3   4
ATOM      4  C   UNL     1      18.091 -37.502  -1.710  1.00  0.00     0.000 C 
BRANCH   4   5
ATOM      5  C   UNL     1      18.005 -37.520  -0.175  1.00  0.00     0.006 C 
BRANCH   5   6
ATOM      6  C   UNL     1      17.339 -38.795   0.361  1.00  0.00     0.053 C 
BRANCH   6   7
ATOM      7  C   UNL     1      18.324 -39.611   1.138  1.00  0.00     0.041 C 
ATOM      8  O   UNL     1      18.854 -39.141   2.179  1.00  0.00    -0.550 OA
ATOM      9  O   UNL     1      18.622 -40.908   0.739  1.00  0.00    -0.550 OA
ENDBRANCH   6   7
ENDBRANCH   5   6
ENDBRANCH   4   5
ENDBRANCH   3   4
ENDBRANCH   2   3
ENDBRANCH   1   2
BRANCH   1  10
ATOM     10  C   UNL     1      16.068 -32.980  -2.119  1.00  0.00     0.000 C 
BRANCH  10  11
ATOM     11  C   UNL     1      14.914 -33.765  -1.472  1.00  0.00    -0.000 C 
BRANCH  11  12
ATOM     12  C   UNL     1      13.767 -34.046  -2.457  1.00  0.00    -0.000 C 
BRANCH  12  13
ATOM     13  C   UNL     1      13.047 -35.374  -2.165  1.00  0.00    -0.000 C 
BRANCH  13  14
ATOM     14  C   UNL     1      13.973 -36.592  -2.313  1.00  0.00    -0.000 C 
BRANCH  14  15
ATOM     15  C   UNL     1      13.894 -37.543  -1.111  1.00  0.00    -0.003 C 
ATOM     16  C   UNL     1      14.237 -36.818   0.187  1.00  0.00     0.004 C 
ENDBRANCH  14  15
ENDBRANCH  13  14
ENDBRANCH  12  13
ENDBRANCH  11  12
ENDBRANCH  10  11
ENDBRANCH   1  10
TORSDOF 12
ENDMDL
MODEL 8
REMARK VINA RESULT:    -3.647      1.781      3.417
REMARK INTER + INTRA:          -8.084
REMARK INTER:                  -6.536
REMARK INTRA:                  -1.548
REMARK UNBOUND:                -1.878
REMARK SMILES CCCCCCCCCCCCCC(=O)[O-]
REMARK SMILES IDX 8 1 9 2 10 3 11 4 12 5 13 6 14 7 15 8 16 9 7 10 6 11 5 12
REMARK SMILES IDX 4 13 3 14 2 15 1 16
REMARK H PARENT
REMARK Flexibility Score: inf
ROOT
ATOM      1  C   UNL     1      16.879 -33.821  -1.292  1.00  0.00     0.000 C 
ENDROOT
BRANCH   1   2
ATOM      2  C   UNL     1      17.708 -34.800  -2.143  1.00  0.00     0.000 C 
BRANCH   2   3
ATOM      3  C   UNL     1      17.043 -36.180  -2.268  1.00  0.00     0.000 C 
BRANCH   3   4
ATOM      4  C   UNL     1      18.031 -37.338  -2.033  1.00  0.00     0.000 C 
BRANCH   4   5
ATOM      5  C   UNL     1      17.802 -38.043  -0.686  1.00  0.00     0.006 C 
BRANCH   5   6
ATOM      6  C   UNL     1      18.305 -37.215   0.504  1.00  0.00     0.053 C 
BRANCH   6   7
ATOM      7  C   UNL     1      17.152 -36.611   1.243  1.00  0.00     0.041 C 
ATOM      8  O   UNL     1      16.061 -37.232   1.331  1.00  0.00    -0.550 OA
ATOM      9  O   UNL     1      17.299 -35.383   1.877  1.00  0.00    -0.550 OA
ENDBRANCH   6   7
ENDBRANCH   5   6
ENDBRANCH   4   5
ENDBRANCH   3   4
ENDBRANCH   2   3
ENDBRANCH   1   2
BRANCH   1  10
ATOM     10  C   UNL     1      15.894 -32.994  -2.136  1.00  0.00     0.000 C 
BRANCH  10  11
ATOM     11  C   UNL     1      14.428 -33.223  -1.728  1.00  0.00    -0.000 C 
BRANCH  11  12
ATOM     12  C   UNL     1      13.578 -33.785  -2.879  1.00  0.00    -0.000 C 
BRANCH  12  13
ATOM     13  C   UNL     1      13.022 -35.188  -2.574  1.00  0.00    -0.000 C 
BRANCH  13  14
ATOM     14  C   UNL     1      13.649 -35.810  -1.316  1.00  0.00    -0.000 C 
BRANCH  14  15
ATOM     15  C   UNL     1      13.591 -37.344  -1.324  1.00  0.00    -0.003 C 
ATOM     16  C   UNL     1      13.956 -37.900  -2.698  1.00  0.00     0.004 C 
ENDBRANCH  14  15
ENDBRANCH  13  14
ENDBRANCH  12  13
ENDBRANCH  11  12
ENDBRANCH  10  11
ENDBRANCH   1  10
TORSDOF 12
ENDMDL
MODEL 9
REMARK VINA RESULT:    -3.605      1.385      2.372
REMARK INTER + INTRA:          -8.011
REMARK INTER:                  -6.066
REMARK INTRA:                  -1.945
REMARK UNBOUND:                -1.878
REMARK SMILES CCCCCCCCCCCCCC(=O)[O-]
REMARK SMILES IDX 8 1 9 2 10 3 11 4 12 5 13 6 14 7 15 8 16 9 7 10 6 11 5 12
REMARK SMILES IDX 4 13 3 14 2 15 1 16
REMARK H PARENT
REMARK Flexibility Score: inf
ROOT
ATOM      1  C   UNL     1      17.516 -36.054  -0.794  1.00  0.00     0.000 C 
ENDROOT
BRANCH   1   2
ATOM      2  C   UNL     1      17.716 -36.427  -2.273  1.00  0.00     0.000 C 
BRANCH   2   3
ATOM      3  C   UNL     1      17.274 -37.867  -2.582  1.00  0.00     0.000 C 
BRANCH   3   4
ATOM      4  C   UNL     1      15.802 -38.128  -2.213  1.00  0.00     0.000 C 
BRANCH   4   5
ATOM      5  C   UNL     1      15.630 -39.370  -1.323  1.00  0.00     0.006 C 
BRANCH   5   6
ATOM      6  C   UNL     1      15.398 -39.010   0.151  1.00  0.00     0.053 C 
BRANCH   6   7
ATOM      7  C   UNL     1      16.641 -39.249   0.948  1.00  0.00     0.041 C 
ATOM      8  O   UNL     1      17.659 -39.747   0.400  1.00  0.00    -0.550 OA
ATOM      9  O   UNL     1      16.693 -38.875   2.285  1.00  0.00    -0.550 OA
ENDBRANCH   6   7
ENDBRANCH   5   6
ENDBRANCH   4   5
ENDBRANCH   3   4
ENDBRANCH   2   3
ENDBRANCH   1   2
BRANCH   1  10
ATOM     10  C   UNL     1      17.283 -34.546  -0.592  1.00  0.00     0.000 C 
BRANCH  10  11
ATOM     11  C   UNL     1      17.355 -33.756  -1.910  1.00  0.00    -0.000 C 
BRANCH  11  12
ATOM     12  C   UNL     1      16.054 -32.995  -2.212  1.00  0.00    -0.000 C 
BRANCH  12  13
ATOM     13  C   UNL     1      14.845 -33.563  -1.448  1.00  0.00    -0.000 C 
BRANCH  13  14
ATOM     14  C   UNL     1      13.899 -34.366  -2.355  1.00  0.00    -0.000 C 
BRANCH  14  15
ATOM     15  C   UNL     1      13.335 -35.614  -1.662  1.00  0.00    -0.003 C 
ATOM     16  C   UNL     1      13.746 -35.659  -0.192  1.00  0.00     0.004 C 
ENDBRANCH  14  15
ENDBRANCH  13  14
ENDBRANCH  12  13
ENDBRANCH  11  12
ENDBRANCH  10  11
ENDBRANCH   1  10
TORSDOF 12
ENDMDL
