MODEL 1
REMARK VINA RESULT:    -3.092      0.000      0.000
REMARK INTER + INTRA:          -3.751
REMARK INTER:                  -3.635
REMARK INTRA:                  -0.116
REMARK UNBOUND:                -0.116
REMARK SMILES O=C([O-])CCC(=O)[O-]
REMARK SMILES IDX 4 1 2 2 1 3 3 4 5 5 6 6 7 7 8 8
REMARK H PARENT
REMARK Flexibility Score: inf
ROOT
ATOM      1  C   UNL     1       3.764  44.076  10.470  1.00  0.00     0.059 C 
ENDROOT
BRANCH   1   2
ATOM      2  C   UNL     1       2.446  43.497  10.877  1.00  0.00     0.042 C 
ATOM      3  O   UNL     1       1.954  43.770  12.004  1.00  0.00    -0.550 OA
ATOM      4  O   UNL     1       1.736  42.694   9.994  1.00  0.00    -0.550 OA
ENDBRANCH   1   2
BRANCH   1   5
ATOM      5  C   UNL     1       4.229  45.116  11.489  1.00  0.00     0.059 C 
BRANCH   5   6
ATOM      6  C   UNL     1       5.471  44.650  12.182  1.00  0.00     0.042 C 
ATOM      7  O   UNL     1       5.398  43.797  13.105  1.00  0.00    -0.550 OA
ATOM      8  O   UNL     1       6.712  45.122  11.776  1.00  0.00    -0.550 OA
ENDBRANCH   5   6
ENDBRANCH   1   5
TORSDOF 3
ENDMDL
MODEL 2
REMARK VINA RESULT:    -3.061      2.356      3.328
REMARK INTER + INTRA:          -3.714
REMARK INTER:                  -3.532
REMARK INTRA:                  -0.182
REMARK UNBOUND:                -0.116
REMARK SMILES O=C([O-])CCC(=O)[O-]
REMARK SMILES IDX 4 1 2 2 1 3 3 4 5 5 6 6 7 7 8 8
REMARK H PARENT
REMARK Flexibility Score: inf
ROOT
ATOM      1  C   UNL     1       6.494  44.964  11.734  1.00  0.00     0.059 C 
ENDROOT
BRANCH   1   2
ATOM      2  C   UNL     1       5.206  44.498  11.133  1.00  0.00     0.042 C 
ATOM      3  O   UNL     1       5.070  44.452   9.881  1.00  0.00    -0.550 OA
ATOM      4  O   UNL     1       4.172  44.066  11.953  1.00  0.00    -0.550 OA
ENDBRANCH   1   2
BRANCH   1   5
ATOM      5  C   UNL     1       7.651  44.075  11.275  1.00  0.00     0.059 C 
BRANCH   5   6
ATOM      6  C   UNL     1       7.457  42.673  11.759  1.00  0.00     0.042 C 
ATOM      7  O   UNL     1       7.526  41.709  10.953  1.00  0.00    -0.550 OA
ATOM      8  O   UNL     1       7.249  42.427  13.111  1.00  0.00    -0.550 OA
ENDBRANCH   5   6
ENDBRANCH   1   5
TORSDOF 3
ENDMDL
MODEL 3
REMARK VINA RESULT:    -3.038      0.147      3.954
REMARK INTER + INTRA:          -3.687
REMARK INTER:                  -3.573
REMARK INTRA:                  -0.114
REMARK UNBOUND:                -0.116
REMARK SMILES O=C([O-])CCC(=O)[O-]
REMARK SMILES IDX 4 1 2 2 1 3 3 4 5 5 6 6 7 7 8 8
REMARK H PARENT
REMARK Flexibility Score: inf
ROOT
ATOM      1  C   UNL     1       4.280  45.090  11.399  1.00  0.00     0.059 C 
ENDROOT
BRANCH   1   2
ATOM      2  C   UNL     1       5.532  44.634  12.077  1.00  0.00     0.042 C 
ATOM      3  O   UNL     1       6.645  45.125  11.751  1.00  0.00    -0.550 OA
ATOM      4  O   UNL     1       5.466  43.702  13.105  1.00  0.00    -0.550 OA
ENDBRANCH   1   2
BRANCH   1   5
ATOM      5  C   UNL     1       3.728  43.987  10.494  1.00  0.00     0.059 C 
BRANCH   5   6
ATOM      6  C   UNL     1       2.377  43.551  10.966  1.00  0.00     0.042 C 
ATOM      7  O   UNL     1       1.985  43.845  12.125  1.00  0.00    -0.550 OA
ATOM      8  O   UNL     1       1.532  42.860  10.107  1.00  0.00    -0.550 OA
ENDBRANCH   5   6
ENDBRANCH   1   5
TORSDOF 3
ENDMDL
MODEL 4
REMARK VINA RESULT:    -3.024      2.109      4.005
REMARK INTER + INTRA:          -3.671
REMARK INTER:                  -3.512
REMARK INTRA:                  -0.158
REMARK UNBOUND:                -0.116
REMARK SMILES O=C([O-])CCC(=O)[O-]
REMARK SMILES IDX 4 1 2 2 1 3 3 4 5 5 6 6 7 7 8 8
REMARK H PARENT
REMARK Flexibility Score: inf
ROOT
ATOM      1  C   UNL     1       7.111  44.311  11.690  1.00  0.00     0.059 C 
ENDROOT
BRANCH   1   2
ATOM      2  C   UNL     1       7.234  42.876  12.093  1.00  0.00     0.042 C 
ATOM      3  O   UNL     1       6.996  42.527  13.280  1.00  0.00    -0.550 OA
ATOM      4  O   UNL     1       7.564  41.914  11.147  1.00  0.00    -0.550 OA
ENDBRANCH   1   2
BRANCH   1   5
ATOM      5  C   UNL     1       5.777  44.888  12.166  1.00  0.00     0.059 C 
BRANCH   5   6
ATOM      6  C   UNL     1       4.656  44.384  11.314  1.00  0.00     0.042 C 
ATOM      7  O   UNL     1       4.756  44.401  10.060  1.00  0.00    -0.550 OA
ATOM      8  O   UNL     1       3.519  43.849  11.907  1.00  0.00    -0.550 OA
ENDBRANCH   5   6
ENDBRANCH   1   5
TORSDOF 3
ENDMDL
MODEL 5
REMARK VINA RESULT:    -3.021      2.147      2.722
REMARK INTER + INTRA:          -3.667
REMARK INTER:                  -3.550
REMARK INTRA:                  -0.117
REMARK UNBOUND:                -0.116
REMARK SMILES O=C([O-])CCC(=O)[O-]
REMARK SMILES IDX 4 1 2 2 1 3 3 4 5 5 6 6 7 7 8 8
REMARK H PARENT
REMARK Flexibility Score: inf
ROOT
ATOM      1  C   UNL     1       5.418  44.403  12.403  1.00  0.00     0.059 C 
ENDROOT
BRANCH   1   2
ATOM      2  C   UNL     1       4.339  44.096  11.414  1.00  0.00     0.042 C 
ATOM      3  O   UNL     1       4.579  44.145  10.178  1.00  0.00    -0.550 OA
ATOM      4  O   UNL     1       3.082  43.705  11.855  1.00  0.00    -0.550 OA
ENDBRANCH   1   2
BRANCH   1   5
ATOM      5  C   UNL     1       6.795  44.142  11.793  1.00  0.00     0.059 C 
BRANCH   5   6
ATOM      6  C   UNL     1       7.229  42.736  12.063  1.00  0.00     0.042 C 
ATOM      7  O   UNL     1       7.247  42.294  13.241  1.00  0.00    -0.550 OA
ATOM      8  O   UNL     1       7.567  41.898  11.008  1.00  0.00    -0.550 OA
ENDBRANCH   5   6
ENDBRANCH   1   5
TORSDOF 3
ENDMDL
MODEL 6
REMARK VINA RESULT:    -2.991      2.098      3.997
REMARK INTER + INTRA:          -3.632
REMARK INTER:                  -3.473
REMARK INTRA:                  -0.160
REMARK UNBOUND:                -0.116
REMARK SMILES O=C([O-])CCC(=O)[O-]
REMARK SMILES IDX 4 1 2 2 1 3 3 4 5 5 6 6 7 7 8 8
REMARK H PARENT
REMARK Flexibility Score: inf
ROOT
ATOM      1  C   UNL     1       7.083  44.398  11.574  1.00  0.00     0.059 C 
ENDROOT
BRANCH   1   2
ATOM      2  C   UNL     1       7.227  42.949  11.914  1.00  0.00     0.042 C 
ATOM      3  O   UNL     1       7.541  42.116  11.022  1.00  0.00    -0.550 OA
ATOM      4  O   UNL     1       7.064  42.523  13.226  1.00  0.00    -0.550 OA
ENDBRANCH   1   2
BRANCH   1   5
ATOM      5  C   UNL     1       5.762  44.946  12.114  1.00  0.00     0.059 C 
BRANCH   5   6
ATOM      6  C   UNL     1       4.615  44.459  11.285  1.00  0.00     0.042 C 
ATOM      7  O   UNL     1       3.547  44.090  11.836  1.00  0.00    -0.550 OA
ATOM      8  O   UNL     1       4.712  44.460   9.899  1.00  0.00    -0.550 OA
ENDBRANCH   5   6
ENDBRANCH   1   5
TORSDOF 3
ENDMDL
MODEL 7
REMARK VINA RESULT:    -2.909      1.405      1.957
REMARK INTER + INTRA:          -3.536
REMARK INTER:                  -3.447
REMARK INTRA:                  -0.089
REMARK UNBOUND:                -0.116
REMARK SMILES O=C([O-])CCC(=O)[O-]
REMARK SMILES IDX 4 1 2 2 1 3 3 4 5 5 6 6 7 7 8 8
REMARK H PARENT
REMARK Flexibility Score: inf
ROOT
ATOM      1  C   UNL     1       4.562  44.778  11.770  1.00  0.00     0.059 C 
ENDROOT
BRANCH   1   2
ATOM      2  C   UNL     1       3.485  43.927  11.176  1.00  0.00     0.042 C 
ATOM      3  O   UNL     1       2.382  43.795  11.770  1.00  0.00    -0.550 OA
ATOM      4  O   UNL     1       3.679  43.320   9.943  1.00  0.00    -0.550 OA
ENDBRANCH   1   2
BRANCH   1   5
ATOM      5  C   UNL     1       5.403  43.966  12.757  1.00  0.00     0.059 C 
BRANCH   5   6
ATOM      6  C   UNL     1       6.733  43.632  12.159  1.00  0.00     0.042 C 
ATOM      7  O   UNL     1       7.280  44.423  11.348  1.00  0.00    -0.550 OA
ATOM      8  O   UNL     1       7.390  42.467  12.535  1.00  0.00    -0.550 OA
ENDBRANCH   5   6
ENDBRANCH   1   5
TORSDOF 3
ENDMDL
MODEL 8
REMARK VINA RESULT:    -2.636      1.856      4.208
REMARK INTER + INTRA:          -3.214
REMARK INTER:                  -3.095
REMARK INTRA:                  -0.120
REMARK UNBOUND:                -0.116
REMARK SMILES O=C([O-])CCC(=O)[O-]
REMARK SMILES IDX 4 1 2 2 1 3 3 4 5 5 6 6 7 7 8 8
REMARK H PARENT
REMARK Flexibility Score: inf
ROOT
ATOM      1  C   UNL     1       6.607  45.040  11.327  1.00  0.00     0.059 C 
ENDROOT
BRANCH   1   2
ATOM      2  C   UNL     1       7.665  44.171  10.725  1.00  0.00     0.042 C 
ATOM      3  O   UNL     1       8.466  44.643   9.875  1.00  0.00    -0.550 OA
ATOM      4  O   UNL     1       7.799  42.851  11.138  1.00  0.00    -0.550 OA
ENDBRANCH   1   2
BRANCH   1   5
ATOM      5  C   UNL     1       5.225  44.633  10.815  1.00  0.00     0.059 C 
BRANCH   5   6
ATOM      6  C   UNL     1       4.418  44.021  11.916  1.00  0.00     0.042 C 
ATOM      7  O   UNL     1       4.978  43.645  12.978  1.00  0.00    -0.550 OA
ATOM      8  O   UNL     1       3.039  43.912  11.789  1.00  0.00    -0.550 OA
ENDBRANCH   5   6
ENDBRANCH   1   5
TORSDOF 3
ENDMDL
