MODEL 1
REMARK VINA RESULT:    -4.260      0.000      0.000
REMARK INTER + INTRA:          -4.819
REMARK INTER:                  -4.633
REMARK INTRA:                  -0.186
REMARK UNBOUND:                -0.186
REMARK SMILES Cc1ccc(C(C)C)c(O)c1
REMARK SMILES IDX 1 1 2 2 11 3 9 4 5 5 4 6 3 7 10 8 6 10 7 11 8 12
REMARK H PARENT 10 9
REMARK Flexibility Score: inf
ROOT
ATOM      1  C   UNL     1     126.875 146.356 105.912  1.00  0.00     0.044 C 
ATOM      2  C   UNL     1     127.310 144.938 106.139  1.00  0.00    -0.047 A 
ATOM      3  C   UNL     1     127.130 144.335 107.388  1.00  0.00     0.049 A 
ATOM      4  C   UNL     1     127.555 143.021 107.623  1.00  0.00     0.119 A 
ATOM      5  C   UNL     1     128.242 142.307 106.604  1.00  0.00    -0.004 A 
ATOM      6  C   UNL     1     128.389 142.919 105.341  1.00  0.00     0.008 A 
ATOM      7  C   UNL     1     127.944 144.223 105.118  1.00  0.00     0.004 A 
ENDROOT
BRANCH   4   8
ATOM      8  O   UNL     1     127.258 142.466 108.871  1.00  0.00    -0.508 OA
ATOM      9  H   UNL     1     127.768 141.698 109.285  1.00  0.00     0.293 HD
ENDBRANCH   4   8
BRANCH   5  10
ATOM     10  C   UNL     1     128.753 140.886 106.833  1.00  0.00     0.017 C 
ATOM     11  C   UNL     1     127.857 139.879 106.105  1.00  0.00     0.012 C 
ATOM     12  C   UNL     1     130.224 140.695 106.429  1.00  0.00     0.012 C 
ENDBRANCH   5  10
TORSDOF 2
ENDMDL
MODEL 2
REMARK VINA RESULT:    -4.033      2.778      4.098
REMARK INTER + INTRA:          -4.572
REMARK INTER:                  -4.386
REMARK INTRA:                  -0.186
REMARK UNBOUND:                -0.186
REMARK SMILES Cc1ccc(C(C)C)c(O)c1
REMARK SMILES IDX 1 1 2 2 11 3 9 4 5 5 4 6 3 7 10 8 6 10 7 11 8 12
REMARK H PARENT 10 9
REMARK Flexibility Score: inf
ROOT
ATOM      1  C   UNL     1     131.618 145.902 109.793  1.00  0.00     0.044 C 
ATOM      2  C   UNL     1     130.496 145.663 108.827  1.00  0.00    -0.047 A 
ATOM      3  C   UNL     1     129.203 145.403 109.296  1.00  0.00     0.049 A 
ATOM      4  C   UNL     1     128.151 145.153 108.406  1.00  0.00     0.119 A 
ATOM      5  C   UNL     1     128.404 145.092 107.009  1.00  0.00    -0.004 A 
ATOM      6  C   UNL     1     129.706 145.385 106.552  1.00  0.00     0.008 A 
ATOM      7  C   UNL     1     130.741 145.650 107.451  1.00  0.00     0.004 A 
ENDROOT
BRANCH   4   8
ATOM      8  O   UNL     1     126.875 144.989 108.954  1.00  0.00    -0.508 OA
ATOM      9  H   UNL     1     126.061 145.510 108.661  1.00  0.00     0.293 HD
ENDBRANCH   4   8
BRANCH   5  10
ATOM     10  C   UNL     1     127.291 144.785 106.010  1.00  0.00     0.017 C 
ATOM     11  C   UNL     1     126.875 146.062 105.273  1.00  0.00     0.012 C 
ATOM     12  C   UNL     1     127.657 143.676 105.009  1.00  0.00     0.012 C 
ENDBRANCH   5  10
TORSDOF 2
ENDMDL
MODEL 3
REMARK VINA RESULT:    -4.032      3.025      4.548
REMARK INTER + INTRA:          -4.572
REMARK INTER:                  -4.389
REMARK INTRA:                  -0.183
REMARK UNBOUND:                -0.186
REMARK SMILES Cc1ccc(C(C)C)c(O)c1
REMARK SMILES IDX 1 1 2 2 11 3 9 4 5 5 4 6 3 7 10 8 6 10 7 11 8 12
REMARK H PARENT 10 9
REMARK Flexibility Score: inf
ROOT
ATOM      1  C   UNL     1     130.247 145.970 110.733  1.00  0.00     0.044 C 
ATOM      2  C   UNL     1     129.708 145.730 109.354  1.00  0.00    -0.047 A 
ATOM      3  C   UNL     1     130.579 145.476 108.290  1.00  0.00     0.049 A 
ATOM      4  C   UNL     1     130.093 145.275 106.992  1.00  0.00     0.119 A 
ATOM      5  C   UNL     1     128.701 145.398 106.730  1.00  0.00    -0.004 A 
ATOM      6  C   UNL     1     127.834 145.626 107.820  1.00  0.00     0.008 A 
ATOM      7  C   UNL     1     128.333 145.806 109.111  1.00  0.00     0.004 A 
ENDROOT
BRANCH   4   8
ATOM      8  O   UNL     1     131.023 144.940 106.003  1.00  0.00    -0.508 OA
ATOM      9  H   UNL     1     131.626 145.607 105.543  1.00  0.00     0.293 HD
ENDBRANCH   4   8
BRANCH   5  10
ATOM     10  C   UNL     1     128.136 145.223 105.323  1.00  0.00     0.017 C 
ATOM     11  C   UNL     1     127.864 143.741 105.043  1.00  0.00     0.012 C 
ATOM     12  C   UNL     1     126.875 146.064 105.062  1.00  0.00     0.012 C 
ENDBRANCH   5  10
TORSDOF 2
ENDMDL
MODEL 4
REMARK VINA RESULT:    -4.025      2.520      4.520
REMARK INTER + INTRA:          -4.564
REMARK INTER:                  -4.380
REMARK INTRA:                  -0.183
REMARK UNBOUND:                -0.186
REMARK SMILES Cc1ccc(C(C)C)c(O)c1
REMARK SMILES IDX 1 1 2 2 11 3 9 4 5 5 4 6 3 7 10 8 6 10 7 11 8 12
REMARK H PARENT 10 9
REMARK Flexibility Score: inf
ROOT
ATOM      1  C   UNL     1     133.013 143.615 105.758  1.00  0.00     0.044 C 
ATOM      2  C   UNL     1     131.557 143.961 105.858  1.00  0.00    -0.047 A 
ATOM      3  C   UNL     1     130.583 142.973 105.679  1.00  0.00     0.049 A 
ATOM      4  C   UNL     1     129.219 143.286 105.743  1.00  0.00     0.119 A 
ATOM      5  C   UNL     1     128.810 144.635 105.924  1.00  0.00    -0.004 A 
ATOM      6  C   UNL     1     129.806 145.614 106.132  1.00  0.00     0.008 A 
ATOM      7  C   UNL     1     131.160 145.283 106.082  1.00  0.00     0.004 A 
ENDROOT
BRANCH   4   8
ATOM      8  O   UNL     1     128.313 142.226 105.641  1.00  0.00    -0.508 OA
ATOM      9  H   UNL     1     127.451 142.165 106.162  1.00  0.00     0.293 HD
ENDBRANCH   4   8
BRANCH   5  10
ATOM     10  C   UNL     1     127.333 145.022 105.963  1.00  0.00     0.017 C 
ATOM     11  C   UNL     1     127.024 145.801 107.246  1.00  0.00     0.012 C 
ATOM     12  C   UNL     1     126.876 145.812 104.726  1.00  0.00     0.012 C 
ENDBRANCH   5  10
TORSDOF 2
ENDMDL
MODEL 5
REMARK VINA RESULT:    -3.931      1.327      4.032
REMARK INTER + INTRA:          -4.462
REMARK INTER:                  -4.277
REMARK INTRA:                  -0.185
REMARK UNBOUND:                -0.186
REMARK SMILES Cc1ccc(C(C)C)c(O)c1
REMARK SMILES IDX 1 1 2 2 11 3 9 4 5 5 4 6 3 7 10 8 6 10 7 11 8 12
REMARK H PARENT 10 9
REMARK Flexibility Score: inf
ROOT
ATOM      1  C   UNL     1     127.932 139.591 107.821  1.00  0.00     0.044 C 
ATOM      2  C   UNL     1     127.990 141.027 107.389  1.00  0.00    -0.047 A 
ATOM      3  C   UNL     1     127.524 142.038 108.236  1.00  0.00     0.049 A 
ATOM      4  C   UNL     1     127.548 143.380 107.836  1.00  0.00     0.119 A 
ATOM      5  C   UNL     1     127.986 143.722 106.528  1.00  0.00    -0.004 A 
ATOM      6  C   UNL     1     128.481 142.693 105.699  1.00  0.00     0.008 A 
ATOM      7  C   UNL     1     128.466 141.362 106.118  1.00  0.00     0.004 A 
ENDROOT
BRANCH   4   8
ATOM      8  O   UNL     1     127.145 144.335 108.775  1.00  0.00    -0.508 OA
ATOM      9  H   UNL     1     126.185 144.612 108.925  1.00  0.00     0.293 HD
ENDBRANCH   4   8
BRANCH   5  10
ATOM     10  C   UNL     1     127.993 145.170 106.043  1.00  0.00     0.017 C 
ATOM     11  C   UNL     1     129.430 145.692 105.956  1.00  0.00     0.012 C 
ATOM     12  C   UNL     1     127.262 145.368 104.705  1.00  0.00     0.012 C 
ENDBRANCH   5  10
TORSDOF 2
ENDMDL
MODEL 6
REMARK VINA RESULT:    -3.924      2.800      4.714
REMARK INTER + INTRA:          -4.454
REMARK INTER:                  -4.267
REMARK INTRA:                  -0.186
REMARK UNBOUND:                -0.186
REMARK SMILES Cc1ccc(C(C)C)c(O)c1
REMARK SMILES IDX 1 1 2 2 11 3 9 4 5 5 4 6 3 7 10 8 6 10 7 11 8 12
REMARK H PARENT 10 9
REMARK Flexibility Score: inf
ROOT
ATOM      1  C   UNL     1     132.912 142.320 105.368  1.00  0.00     0.044 C 
ATOM      2  C   UNL     1     131.670 143.142 105.551  1.00  0.00    -0.047 A 
ATOM      3  C   UNL     1     131.740 144.402 106.155  1.00  0.00     0.049 A 
ATOM      4  C   UNL     1     130.586 145.170 106.356  1.00  0.00     0.119 A 
ATOM      5  C   UNL     1     129.314 144.640 106.008  1.00  0.00    -0.004 A 
ATOM      6  C   UNL     1     129.265 143.381 105.373  1.00  0.00     0.008 A 
ATOM      7  C   UNL     1     130.426 142.636 105.164  1.00  0.00     0.004 A 
ENDROOT
BRANCH   4   8
ATOM      8  O   UNL     1     130.755 146.452 106.886  1.00  0.00    -0.508 OA
ATOM      9  H   UNL     1     131.393 147.141 106.514  1.00  0.00     0.293 HD
ENDBRANCH   4   8
BRANCH   5  10
ATOM     10  C   UNL     1     128.030 145.431 106.245  1.00  0.00     0.017 C 
ATOM     11  C   UNL     1     127.158 145.415 104.986  1.00  0.00     0.012 C 
ATOM     12  C   UNL     1     127.229 144.944 107.465  1.00  0.00     0.012 C 
ENDBRANCH   5  10
TORSDOF 2
ENDMDL
MODEL 7
REMARK VINA RESULT:    -3.858     13.786     15.278
REMARK INTER + INTRA:          -4.382
REMARK INTER:                  -4.193
REMARK INTRA:                  -0.189
REMARK UNBOUND:                -0.186
REMARK SMILES Cc1ccc(C(C)C)c(O)c1
REMARK SMILES IDX 1 1 2 2 11 3 9 4 5 5 4 6 3 7 10 8 6 10 7 11 8 12
REMARK H PARENT 10 9
REMARK Flexibility Score: inf
ROOT
ATOM      1  C   UNL     1     140.540 146.632 105.692  1.00  0.00     0.044 C 
ATOM      2  C   UNL     1     141.536 145.512 105.761  1.00  0.00    -0.047 A 
ATOM      3  C   UNL     1     142.862 145.768 106.126  1.00  0.00     0.049 A 
ATOM      4  C   UNL     1     143.810 144.737 106.169  1.00  0.00     0.119 A 
ATOM      5  C   UNL     1     143.444 143.422 105.772  1.00  0.00    -0.004 A 
ATOM      6  C   UNL     1     142.096 143.176 105.435  1.00  0.00     0.008 A 
ATOM      7  C   UNL     1     141.160 144.211 105.413  1.00  0.00     0.004 A 
ENDROOT
BRANCH   4   8
ATOM      8  O   UNL     1     145.089 145.062 106.628  1.00  0.00    -0.508 OA
ATOM      9  H   UNL     1     145.904 145.133 106.035  1.00  0.00     0.293 HD
ENDBRANCH   4   8
BRANCH   5  10
ATOM     10  C   UNL     1     144.457 142.280 105.770  1.00  0.00     0.017 C 
ATOM     11  C   UNL     1     143.819 141.006 106.334  1.00  0.00     0.012 C 
ATOM     12  C   UNL     1     145.072 142.011 104.386  1.00  0.00     0.012 C 
ENDBRANCH   5  10
TORSDOF 2
ENDMDL
MODEL 8
REMARK VINA RESULT:    -3.849      2.322      4.122
REMARK INTER + INTRA:          -4.372
REMARK INTER:                  -4.194
REMARK INTRA:                  -0.179
REMARK UNBOUND:                -0.186
REMARK SMILES Cc1ccc(C(C)C)c(O)c1
REMARK SMILES IDX 1 1 2 2 11 3 9 4 5 5 4 6 3 7 10 8 6 10 7 11 8 12
REMARK H PARENT 10 9
REMARK Flexibility Score: inf
ROOT
ATOM      1  C   UNL     1     129.506 144.880 111.703  1.00  0.00     0.044 C 
ATOM      2  C   UNL     1     128.884 144.793 110.341  1.00  0.00    -0.047 A 
ATOM      3  C   UNL     1     128.343 143.585 109.888  1.00  0.00     0.049 A 
ATOM      4  C   UNL     1     127.782 143.481 108.609  1.00  0.00     0.119 A 
ATOM      5  C   UNL     1     127.822 144.593 107.726  1.00  0.00    -0.004 A 
ATOM      6  C   UNL     1     128.346 145.812 108.209  1.00  0.00     0.008 A 
ATOM      7  C   UNL     1     128.885 145.904 109.492  1.00  0.00     0.004 A 
ENDROOT
BRANCH   4   8
ATOM      8  O   UNL     1     127.185 142.264 108.269  1.00  0.00    -0.508 OA
ATOM      9  H   UNL     1     127.405 141.381 108.707  1.00  0.00     0.293 HD
ENDBRANCH   4   8
BRANCH   5  10
ATOM     10  C   UNL     1     127.255 144.509 106.311  1.00  0.00     0.017 C 
ATOM     11  C   UNL     1     126.875 145.905 105.808  1.00  0.00     0.012 C 
ATOM     12  C   UNL     1     128.198 143.813 105.315  1.00  0.00     0.012 C 
ENDBRANCH   5  10
TORSDOF 2
ENDMDL
MODEL 9
REMARK VINA RESULT:    -3.821      1.961      4.513
REMARK INTER + INTRA:          -4.342
REMARK INTER:                  -4.160
REMARK INTRA:                  -0.182
REMARK UNBOUND:                -0.186
REMARK SMILES Cc1ccc(C(C)C)c(O)c1
REMARK SMILES IDX 1 1 2 2 11 3 9 4 5 5 4 6 3 7 10 8 6 10 7 11 8 12
REMARK H PARENT 10 9
REMARK Flexibility Score: inf
ROOT
ATOM      1  C   UNL     1     129.949 140.154 106.420  1.00  0.00     0.044 C 
ATOM      2  C   UNL     1     129.385 141.532 106.241  1.00  0.00    -0.047 A 
ATOM      3  C   UNL     1     130.234 142.643 106.204  1.00  0.00     0.049 A 
ATOM      4  C   UNL     1     129.721 143.939 106.063  1.00  0.00     0.119 A 
ATOM      5  C   UNL     1     128.315 144.143 106.025  1.00  0.00    -0.004 A 
ATOM      6  C   UNL     1     127.474 143.010 106.034  1.00  0.00     0.008 A 
ATOM      7  C   UNL     1     128.003 141.724 106.157  1.00  0.00     0.004 A 
ENDROOT
BRANCH   4   8
ATOM      8  O   UNL     1     130.642 144.984 105.948  1.00  0.00    -0.508 OA
ATOM      9  H   UNL     1     131.228 145.137 105.139  1.00  0.00     0.293 HD
ENDBRANCH   4   8
BRANCH   5  10
ATOM     10  C   UNL     1     127.716 145.543 105.909  1.00  0.00     0.017 C 
ATOM     11  C   UNL     1     126.882 145.657 104.629  1.00  0.00     0.012 C 
ATOM     12  C   UNL     1     126.884 145.954 107.136  1.00  0.00     0.012 C 
ENDBRANCH   5  10
TORSDOF 2
ENDMDL
