MODEL 1
REMARK VINA RESULT:    -2.688      0.000      0.000
REMARK INTER + INTRA:          -3.249
REMARK INTER:                  -3.159
REMARK INTRA:                  -0.090
REMARK UNBOUND:                -0.090
REMARK SMILES CCCCC(=O)[O-]
REMARK SMILES IDX 4 1 5 2 6 3 7 4 3 5 2 6 1 7
REMARK H PARENT
REMARK Flexibility Score: inf
ROOT
ATOM      1  C   UNL     1     -99.232  69.121  26.485  1.00  0.00     0.053 C 
ENDROOT
BRANCH   1   2
ATOM      2  C   UNL     1    -100.479  68.850  27.271  1.00  0.00     0.041 C 
ATOM      3  O   UNL     1    -101.606  69.136  26.790  1.00  0.00    -0.550 OA
ATOM      4  O   UNL     1    -100.395  68.311  28.548  1.00  0.00    -0.550 OA
ENDBRANCH   1   2
BRANCH   1   5
ATOM      5  C   UNL     1     -99.452  70.157  25.369  1.00  0.00     0.006 C 
BRANCH   5   6
ATOM      6  C   UNL     1     -99.315  69.582  23.949  1.00  0.00    -0.003 C 
ATOM      7  C   UNL     1     -99.066  68.074  23.931  1.00  0.00     0.004 C 
ENDBRANCH   5   6
ENDBRANCH   1   5
TORSDOF 3
ENDMDL
MODEL 2
REMARK VINA RESULT:    -2.640      8.738      9.876
REMARK INTER + INTRA:          -3.193
REMARK INTER:                  -3.085
REMARK INTRA:                  -0.107
REMARK UNBOUND:                -0.090
REMARK SMILES CCCCC(=O)[O-]
REMARK SMILES IDX 4 1 5 2 6 3 7 4 3 5 2 6 1 7
REMARK H PARENT
REMARK Flexibility Score: inf
ROOT
ATOM      1  C   UNL     1     -99.897  64.343  34.554  1.00  0.00     0.053 C 
ENDROOT
BRANCH   1   2
ATOM      2  C   UNL     1     -98.864  64.724  33.537  1.00  0.00     0.041 C 
ATOM      3  O   UNL     1     -97.875  65.428  33.871  1.00  0.00    -0.550 OA
ATOM      4  O   UNL     1     -99.008  64.329  32.213  1.00  0.00    -0.550 OA
ENDBRANCH   1   2
BRANCH   1   5
ATOM      5  C   UNL     1    -100.924  63.338  34.003  1.00  0.00     0.006 C 
BRANCH   5   6
ATOM      6  C   UNL     1    -100.586  61.870  34.313  1.00  0.00    -0.003 C 
ATOM      7  C   UNL     1    -100.377  61.022  33.058  1.00  0.00     0.004 C 
ENDBRANCH   5   6
ENDBRANCH   1   5
TORSDOF 3
ENDMDL
MODEL 3
REMARK VINA RESULT:    -2.628      0.953      1.477
REMARK INTER + INTRA:          -3.178
REMARK INTER:                  -3.072
REMARK INTRA:                  -0.106
REMARK UNBOUND:                -0.090
REMARK SMILES CCCCC(=O)[O-]
REMARK SMILES IDX 4 1 5 2 6 3 7 4 3 5 2 6 1 7
REMARK H PARENT
REMARK Flexibility Score: inf
ROOT
ATOM      1  C   UNL     1     -99.205  69.123  25.828  1.00  0.00     0.053 C 
ENDROOT
BRANCH   1   2
ATOM      2  C   UNL     1    -100.546  69.181  26.495  1.00  0.00     0.041 C 
ATOM      3  O   UNL     1    -101.451  69.926  26.036  1.00  0.00    -0.550 OA
ATOM      4  O   UNL     1    -100.788  68.437  27.643  1.00  0.00    -0.550 OA
ENDBRANCH   1   2
BRANCH   1   5
ATOM      5  C   UNL     1     -99.260  68.436  24.453  1.00  0.00     0.006 C 
BRANCH   5   6
ATOM      6  C   UNL     1     -99.180  69.412  23.266  1.00  0.00    -0.003 C 
ATOM      7  C   UNL     1     -98.565  70.762  23.637  1.00  0.00     0.004 C 
ENDBRANCH   5   6
ENDBRANCH   1   5
TORSDOF 3
ENDMDL
MODEL 4
REMARK VINA RESULT:    -2.620     12.416     13.612
REMARK INTER + INTRA:          -3.169
REMARK INTER:                  -3.058
REMARK INTRA:                  -0.111
REMARK UNBOUND:                -0.090
REMARK SMILES CCCCC(=O)[O-]
REMARK SMILES IDX 4 1 5 2 6 3 7 4 3 5 2 6 1 7
REMARK H PARENT
REMARK Flexibility Score: inf
ROOT
ATOM      1  C   UNL     1     -97.443  56.839  19.925  1.00  0.00     0.053 C 
ENDROOT
BRANCH   1   2
ATOM      2  C   UNL     1     -97.483  58.329  19.766  1.00  0.00     0.041 C 
ATOM      3  O   UNL     1     -97.361  58.848  18.626  1.00  0.00    -0.550 OA
ATOM      4  O   UNL     1     -97.622  59.147  20.881  1.00  0.00    -0.550 OA
ENDBRANCH   1   2
BRANCH   1   5
ATOM      5  C   UNL     1     -96.017  56.307  20.149  1.00  0.00     0.006 C 
BRANCH   5   6
ATOM      6  C   UNL     1     -95.579  56.304  21.624  1.00  0.00    -0.003 C 
ATOM      7  C   UNL     1     -96.689  55.872  22.582  1.00  0.00     0.004 C 
ENDBRANCH   5   6
ENDBRANCH   1   5
TORSDOF 3
ENDMDL
MODEL 5
REMARK VINA RESULT:    -2.616      1.169      1.854
REMARK INTER + INTRA:          -3.164
REMARK INTER:                  -3.142
REMARK INTRA:                  -0.022
REMARK UNBOUND:                -0.090
REMARK SMILES CCCCC(=O)[O-]
REMARK SMILES IDX 4 1 5 2 6 3 7 4 3 5 2 6 1 7
REMARK H PARENT
REMARK Flexibility Score: inf
ROOT
ATOM      1  C   UNL     1     -98.907  69.463  26.742  1.00  0.00     0.053 C 
ENDROOT
BRANCH   1   2
ATOM      2  C   UNL     1     -99.185  68.822  28.068  1.00  0.00     0.041 C 
ATOM      3  O   UNL     1     -98.249  68.627  28.886  1.00  0.00    -0.550 OA
ATOM      4  O   UNL     1    -100.473  68.409  28.387  1.00  0.00    -0.550 OA
ENDBRANCH   1   2
BRANCH   1   5
ATOM      5  C   UNL     1     -99.865  68.980  25.640  1.00  0.00     0.006 C 
BRANCH   5   6
ATOM      6  C   UNL     1     -99.152  68.430  24.392  1.00  0.00    -0.003 C 
ATOM      7  C   UNL     1     -99.144  69.413  23.221  1.00  0.00     0.004 C 
ENDBRANCH   5   6
ENDBRANCH   1   5
TORSDOF 3
ENDMDL
MODEL 6
REMARK VINA RESULT:    -2.599      1.708      2.579
REMARK INTER + INTRA:          -3.145
REMARK INTER:                  -3.063
REMARK INTRA:                  -0.082
REMARK UNBOUND:                -0.090
REMARK SMILES CCCCC(=O)[O-]
REMARK SMILES IDX 4 1 5 2 6 3 7 4 3 5 2 6 1 7
REMARK H PARENT
REMARK Flexibility Score: inf
ROOT
ATOM      1  C   UNL     1     -99.169  68.415  24.390  1.00  0.00     0.053 C 
ENDROOT
BRANCH   1   2
ATOM      2  C   UNL     1     -99.492  69.009  25.727  1.00  0.00     0.041 C 
ATOM      3  O   UNL     1     -98.626  69.021  26.641  1.00  0.00    -0.550 OA
ATOM      4  O   UNL     1    -100.758  69.523  25.976  1.00  0.00    -0.550 OA
ENDBRANCH   1   2
BRANCH   1   5
ATOM      5  C   UNL     1     -99.419  69.396  23.232  1.00  0.00     0.006 C 
BRANCH   5   6
ATOM      6  C   UNL     1     -98.594  70.692  23.325  1.00  0.00    -0.003 C 
ATOM      7  C   UNL     1     -97.873  71.042  22.023  1.00  0.00     0.004 C 
ENDBRANCH   5   6
ENDBRANCH   1   5
TORSDOF 3
ENDMDL
MODEL 7
REMARK VINA RESULT:    -2.599      9.318     10.572
REMARK INTER + INTRA:          -3.145
REMARK INTER:                  -3.120
REMARK INTRA:                  -0.024
REMARK UNBOUND:                -0.090
REMARK SMILES CCCCC(=O)[O-]
REMARK SMILES IDX 4 1 5 2 6 3 7 4 3 5 2 6 1 7
REMARK H PARENT
REMARK Flexibility Score: inf
ROOT
ATOM      1  C   UNL     1    -100.630  62.414  34.628  1.00  0.00     0.053 C 
ENDROOT
BRANCH   1   2
ATOM      2  C   UNL     1    -100.545  61.059  33.993  1.00  0.00     0.041 C 
ATOM      3  O   UNL     1    -100.185  60.943  32.792  1.00  0.00    -0.550 OA
ATOM      4  O   UNL     1    -100.893  59.926  34.717  1.00  0.00    -0.550 OA
ENDBRANCH   1   2
BRANCH   1   5
ATOM      5  C   UNL     1    -100.132  63.534  33.698  1.00  0.00     0.006 C 
BRANCH   5   6
ATOM      6  C   UNL     1     -99.417  64.681  34.432  1.00  0.00    -0.003 C 
ATOM      7  C   UNL     1     -98.300  65.321  33.608  1.00  0.00     0.004 C 
ENDBRANCH   5   6
ENDBRANCH   1   5
TORSDOF 3
ENDMDL
MODEL 8
REMARK VINA RESULT:    -2.542      2.528      3.960
REMARK INTER + INTRA:          -3.078
REMARK INTER:                  -3.031
REMARK INTRA:                  -0.047
REMARK UNBOUND:                -0.090
REMARK SMILES CCCCC(=O)[O-]
REMARK SMILES IDX 4 1 5 2 6 3 7 4 3 5 2 6 1 7
REMARK H PARENT
REMARK Flexibility Score: inf
ROOT
ATOM      1  C   UNL     1     -99.192  69.975  24.992  1.00  0.00     0.053 C 
ENDROOT
BRANCH   1   2
ATOM      2  C   UNL     1     -99.074  69.145  23.750  1.00  0.00     0.041 C 
ATOM      3  O   UNL     1     -99.107  67.888  23.822  1.00  0.00    -0.550 OA
ATOM      4  O   UNL     1     -98.895  69.756  22.515  1.00  0.00    -0.550 OA
ENDBRANCH   1   2
BRANCH   1   5
ATOM      5  C   UNL     1     -99.141  69.129  26.275  1.00  0.00     0.006 C 
BRANCH   5   6
ATOM      6  C   UNL     1    -100.514  68.913  26.934  1.00  0.00    -0.003 C 
ATOM      7  C   UNL     1    -100.422  68.569  28.421  1.00  0.00     0.004 C 
ENDBRANCH   5   6
ENDBRANCH   1   5
TORSDOF 3
ENDMDL
MODEL 9
REMARK VINA RESULT:    -2.451     10.232     10.847
REMARK INTER + INTRA:          -2.971
REMARK INTER:                  -2.926
REMARK INTRA:                  -0.045
REMARK UNBOUND:                -0.090
REMARK SMILES CCCCC(=O)[O-]
REMARK SMILES IDX 4 1 5 2 6 3 7 4 3 5 2 6 1 7
REMARK H PARENT
REMARK Flexibility Score: inf
ROOT
ATOM      1  C   UNL     1    -100.424  61.048  32.861  1.00  0.00     0.053 C 
ENDROOT
BRANCH   1   2
ATOM      2  C   UNL     1    -101.722  60.425  32.447  1.00  0.00     0.041 C 
ATOM      3  O   UNL     1    -101.775  59.690  31.426  1.00  0.00    -0.550 OA
ATOM      4  O   UNL     1    -102.881  60.681  33.168  1.00  0.00    -0.550 OA
ENDBRANCH   1   2
BRANCH   1   5
ATOM      5  C   UNL     1    -100.564  61.923  34.119  1.00  0.00     0.006 C 
BRANCH   5   6
ATOM      6  C   UNL     1    -100.410  63.430  33.850  1.00  0.00    -0.003 C 
ATOM      7  C   UNL     1     -99.710  64.176  34.985  1.00  0.00     0.004 C 
ENDBRANCH   5   6
ENDBRANCH   1   5
TORSDOF 3
ENDMDL
