MODEL 1
REMARK VINA RESULT:    -4.703      0.000      0.000
REMARK INTER + INTRA:          -5.722
REMARK INTER:                  -5.390
REMARK INTRA:                  -0.332
REMARK UNBOUND:                -0.332
REMARK SMILES COc1ccc(C(C)=O)c(O)c1
REMARK SMILES IDX 6 1 10 2 12 3 3 4 4 5 5 6 7 7 8 8 9 9 11 10 2 12 1 13
REMARK H PARENT 11 11
REMARK Flexibility Score: inf
ROOT
ATOM      1  C   UNL     1     179.910 179.957 176.991  1.00  0.00     0.059 A 
ATOM      2  C   UNL     1     179.528 179.219 175.846  1.00  0.00     0.130 A 
ATOM      3  C   UNL     1     178.423 179.626 175.081  1.00  0.00     0.093 A 
ATOM      4  C   UNL     1     177.683 180.765 175.442  1.00  0.00     0.122 A 
ATOM      5  C   UNL     1     178.059 181.491 176.573  1.00  0.00     0.047 A 
ATOM      6  C   UNL     1     179.158 181.097 177.339  1.00  0.00     0.019 A 
ENDROOT
BRANCH   1   7
ATOM      7  C   UNL     1     181.086 179.554 177.815  1.00  0.00     0.163 C 
ATOM      8  C   UNL     1     181.043 179.577 179.314  1.00  0.00     0.093 C 
ATOM      9  O   UNL     1     182.161 179.206 177.256  1.00  0.00    -0.294 OA
ENDBRANCH   1   7
BRANCH   2  10
ATOM     10  O   UNL     1     180.231 178.075 175.471  1.00  0.00    -0.507 OA
ATOM     11  H   UNL     1     180.110 177.647 174.561  1.00  0.00     0.293 HD
ENDBRANCH   2  10
BRANCH   4  12
ATOM     12  O   UNL     1     176.572 181.206 174.707  1.00  0.00    -0.497 OA
ATOM     13  C   UNL     1     175.460 180.387 174.358  1.00  0.00     0.278 C 
ENDBRANCH   4  12
TORSDOF 3
ENDMDL
MODEL 2
REMARK VINA RESULT:    -4.696      2.962      4.948
REMARK INTER + INTRA:          -5.714
REMARK INTER:                  -5.380
REMARK INTRA:                  -0.335
REMARK UNBOUND:                -0.332
REMARK SMILES COc1ccc(C(C)=O)c(O)c1
REMARK SMILES IDX 6 1 10 2 12 3 3 4 4 5 5 6 7 7 8 8 9 9 11 10 2 12 1 13
REMARK H PARENT 11 11
REMARK Flexibility Score: inf
ROOT
ATOM      1  C   UNL     1     180.790 180.792 176.943  1.00  0.00     0.059 A 
ATOM      2  C   UNL     1     181.187 181.520 175.796  1.00  0.00     0.130 A 
ATOM      3  C   UNL     1     182.288 181.094 175.036  1.00  0.00     0.093 A 
ATOM      4  C   UNL     1     183.012 179.948 175.405  1.00  0.00     0.122 A 
ATOM      5  C   UNL     1     182.622 179.232 176.538  1.00  0.00     0.047 A 
ATOM      6  C   UNL     1     181.527 179.645 177.299  1.00  0.00     0.019 A 
ENDROOT
BRANCH   1   7
ATOM      7  C   UNL     1     179.618 181.216 177.761  1.00  0.00     0.163 C 
ATOM      8  C   UNL     1     179.672 181.247 179.260  1.00  0.00     0.093 C 
ATOM      9  O   UNL     1     178.536 181.534 177.199  1.00  0.00    -0.294 OA
ENDBRANCH   1   7
BRANCH   2  10
ATOM     10  O   UNL     1     180.500 182.672 175.413  1.00  0.00    -0.507 OA
ATOM     11  H   UNL     1     180.580 183.539 175.930  1.00  0.00     0.293 HD
ENDBRANCH   2  10
BRANCH   4  12
ATOM     12  O   UNL     1     184.118 179.487 174.675  1.00  0.00    -0.497 OA
ATOM     13  C   UNL     1     185.218 180.303 174.281  1.00  0.00     0.278 C 
ENDBRANCH   4  12
TORSDOF 3
ENDMDL
MODEL 3
REMARK VINA RESULT:    -4.542      1.354      2.215
REMARK INTER + INTRA:          -5.538
REMARK INTER:                  -5.194
REMARK INTRA:                  -0.343
REMARK UNBOUND:                -0.332
REMARK SMILES COc1ccc(C(C)=O)c(O)c1
REMARK SMILES IDX 6 1 10 2 12 3 3 4 4 5 5 6 7 7 8 8 9 9 11 10 2 12 1 13
REMARK H PARENT 11 11
REMARK Flexibility Score: inf
ROOT
ATOM      1  C   UNL     1     179.792 179.998 176.753  1.00  0.00     0.059 A 
ATOM      2  C   UNL     1     179.091 181.144 177.197  1.00  0.00     0.130 A 
ATOM      3  C   UNL     1     177.933 181.567 176.526  1.00  0.00     0.093 A 
ATOM      4  C   UNL     1     177.459 180.865 175.404  1.00  0.00     0.122 A 
ATOM      5  C   UNL     1     178.153 179.736 174.965  1.00  0.00     0.047 A 
ATOM      6  C   UNL     1     179.304 179.305 175.627  1.00  0.00     0.019 A 
ENDROOT
BRANCH   1   7
ATOM      7  C   UNL     1     181.018 179.521 177.454  1.00  0.00     0.163 C 
ATOM      8  C   UNL     1     182.307 179.288 176.721  1.00  0.00     0.093 C 
ATOM      9  O   UNL     1     180.985 179.275 178.690  1.00  0.00    -0.294 OA
ENDBRANCH   1   7
BRANCH   2  10
ATOM     10  O   UNL     1     179.545 181.873 178.296  1.00  0.00    -0.507 OA
ATOM     11  H   UNL     1     178.906 182.342 178.927  1.00  0.00     0.293 HD
ENDBRANCH   2  10
BRANCH   4  12
ATOM     12  O   UNL     1     176.307 181.253 174.703  1.00  0.00    -0.497 OA
ATOM     13  C   UNL     1     175.490 180.367 173.944  1.00  0.00     0.278 C 
ENDBRANCH   4  12
TORSDOF 3
ENDMDL
MODEL 4
REMARK VINA RESULT:    -4.532      2.749      4.935
REMARK INTER + INTRA:          -5.527
REMARK INTER:                  -5.184
REMARK INTRA:                  -0.343
REMARK UNBOUND:                -0.332
REMARK SMILES COc1ccc(C(C)=O)c(O)c1
REMARK SMILES IDX 6 1 10 2 12 3 3 4 4 5 5 6 7 7 8 8 9 9 11 10 2 12 1 13
REMARK H PARENT 11 11
REMARK Flexibility Score: inf
ROOT
ATOM      1  C   UNL     1     180.757 180.778 176.785  1.00  0.00     0.059 A 
ATOM      2  C   UNL     1     181.457 179.645 177.262  1.00  0.00     0.130 A 
ATOM      3  C   UNL     1     182.618 179.207 176.606  1.00  0.00     0.093 A 
ATOM      4  C   UNL     1     183.097 179.881 175.470  1.00  0.00     0.122 A 
ATOM      5  C   UNL     1     182.403 180.997 174.998  1.00  0.00     0.047 A 
ATOM      6  C   UNL     1     181.249 181.444 175.645  1.00  0.00     0.019 A 
ENDROOT
BRANCH   1   7
ATOM      7  C   UNL     1     179.527 181.272 177.469  1.00  0.00     0.163 C 
ATOM      8  C   UNL     1     178.253 181.524 176.717  1.00  0.00     0.093 C 
ATOM      9  O   UNL     1     179.545 181.516 178.705  1.00  0.00    -0.294 OA
ENDBRANCH   1   7
BRANCH   2  10
ATOM     10  O   UNL     1     180.999 178.944 178.377  1.00  0.00    -0.507 OA
ATOM     11  H   UNL     1     180.927 179.379 179.289  1.00  0.00     0.293 HD
ENDBRANCH   2  10
BRANCH   4  12
ATOM     12  O   UNL     1     184.252 179.477 174.784  1.00  0.00    -0.497 OA
ATOM     13  C   UNL     1     185.251 180.367 174.296  1.00  0.00     0.278 C 
ENDBRANCH   4  12
TORSDOF 3
ENDMDL
MODEL 5
REMARK VINA RESULT:    -4.471      3.095      4.415
REMARK INTER + INTRA:          -5.456
REMARK INTER:                  -5.125
REMARK INTRA:                  -0.332
REMARK UNBOUND:                -0.332
REMARK SMILES COc1ccc(C(C)=O)c(O)c1
REMARK SMILES IDX 6 1 10 2 12 3 3 4 4 5 5 6 7 7 8 8 9 9 11 10 2 12 1 13
REMARK H PARENT 11 11
REMARK Flexibility Score: inf
ROOT
ATOM      1  C   UNL     1     182.750 180.224 175.465  1.00  0.00     0.059 A 
ATOM      2  C   UNL     1     182.826 179.294 176.529  1.00  0.00     0.130 A 
ATOM      3  C   UNL     1     181.833 179.277 177.522  1.00  0.00     0.093 A 
ATOM      4  C   UNL     1     180.759 180.182 177.477  1.00  0.00     0.122 A 
ATOM      5  C   UNL     1     180.688 181.102 176.429  1.00  0.00     0.047 A 
ATOM      6  C   UNL     1     181.667 181.125 175.434  1.00  0.00     0.019 A 
ENDROOT
BRANCH   1   7
ATOM      7  C   UNL     1     183.784 180.257 174.391  1.00  0.00     0.163 C 
ATOM      8  C   UNL     1     184.332 181.550 173.862  1.00  0.00     0.093 C 
ATOM      9  O   UNL     1     184.202 179.182 173.882  1.00  0.00    -0.294 OA
ENDBRANCH   1   7
BRANCH   2  10
ATOM     10  O   UNL     1     183.887 178.394 176.611  1.00  0.00    -0.507 OA
ATOM     11  H   UNL     1     183.869 177.500 176.135  1.00  0.00     0.293 HD
ENDBRANCH   2  10
BRANCH   4  12
ATOM     12  O   UNL     1     179.747 180.200 178.449  1.00  0.00    -0.497 OA
ATOM     13  C   UNL     1     179.623 181.193 179.463  1.00  0.00     0.278 C 
ENDBRANCH   4  12
TORSDOF 3
ENDMDL
MODEL 6
REMARK VINA RESULT:    -4.437      1.580      4.990
REMARK INTER + INTRA:          -5.417
REMARK INTER:                  -5.084
REMARK INTRA:                  -0.333
REMARK UNBOUND:                -0.332
REMARK SMILES COc1ccc(C(C)=O)c(O)c1
REMARK SMILES IDX 6 1 10 2 12 3 3 4 4 5 5 6 7 7 8 8 9 9 11 10 2 12 1 13
REMARK H PARENT 11 11
REMARK Flexibility Score: inf
ROOT
ATOM      1  C   UNL     1     177.982 180.519 175.502  1.00  0.00     0.059 A 
ATOM      2  C   UNL     1     177.856 181.464 176.547  1.00  0.00     0.130 A 
ATOM      3  C   UNL     1     178.800 181.496 177.586  1.00  0.00     0.093 A 
ATOM      4  C   UNL     1     179.874 180.589 177.606  1.00  0.00     0.122 A 
ATOM      5  C   UNL     1     179.995 179.655 176.576  1.00  0.00     0.047 A 
ATOM      6  C   UNL     1     179.064 179.617 175.536  1.00  0.00     0.019 A 
ENDROOT
BRANCH   1   7
ATOM      7  C   UNL     1     177.000 180.471 174.380  1.00  0.00     0.163 C 
ATOM      8  C   UNL     1     176.469 179.171 173.851  1.00  0.00     0.093 C 
ATOM      9  O   UNL     1     176.615 181.538 173.830  1.00  0.00    -0.294 OA
ENDBRANCH   1   7
BRANCH   2  10
ATOM     10  O   UNL     1     176.793 182.366 176.565  1.00  0.00    -0.507 OA
ATOM     11  H   UNL     1     176.925 183.353 176.378  1.00  0.00     0.293 HD
ENDBRANCH   2  10
BRANCH   4  12
ATOM     12  O   UNL     1     180.838 180.585 178.625  1.00  0.00    -0.497 OA
ATOM     13  C   UNL     1     180.991 179.543 179.584  1.00  0.00     0.278 C 
ENDBRANCH   4  12
TORSDOF 3
ENDMDL
MODEL 7
REMARK VINA RESULT:    -4.226      2.590      4.339
REMARK INTER + INTRA:          -5.176
REMARK INTER:                  -4.837
REMARK INTRA:                  -0.340
REMARK UNBOUND:                -0.332
REMARK SMILES COc1ccc(C(C)=O)c(O)c1
REMARK SMILES IDX 6 1 10 2 12 3 3 4 4 5 5 6 7 7 8 8 9 9 11 10 2 12 1 13
REMARK H PARENT 11 11
REMARK Flexibility Score: inf
ROOT
ATOM      1  C   UNL     1     180.870 179.497 177.035  1.00  0.00     0.059 A 
ATOM      2  C   UNL     1     180.309 179.237 175.763  1.00  0.00     0.130 A 
ATOM      3  C   UNL     1     181.125 178.797 174.708  1.00  0.00     0.093 A 
ATOM      4  C   UNL     1     182.505 178.615 174.899  1.00  0.00     0.122 A 
ATOM      5  C   UNL     1     183.059 178.875 176.154  1.00  0.00     0.047 A 
ATOM      6  C   UNL     1     182.256 179.310 177.210  1.00  0.00     0.019 A 
ENDROOT
BRANCH   1   7
ATOM      7  C   UNL     1     180.024 179.954 178.175  1.00  0.00     0.163 C 
ATOM      8  C   UNL     1     180.039 179.250 179.500  1.00  0.00     0.093 C 
ATOM      9  O   UNL     1     179.250 180.938 178.034  1.00  0.00    -0.294 OA
ENDBRANCH   1   7
BRANCH   2  10
ATOM     10  O   UNL     1     178.946 179.424 175.536  1.00  0.00    -0.507 OA
ATOM     11  H   UNL     1     178.475 179.013 174.738  1.00  0.00     0.293 HD
ENDBRANCH   2  10
BRANCH   4  12
ATOM     12  O   UNL     1     183.358 178.178 173.874  1.00  0.00    -0.497 OA
ATOM     13  C   UNL     1     183.000 177.218 172.885  1.00  0.00     0.278 C 
ENDBRANCH   4  12
TORSDOF 3
ENDMDL
MODEL 8
REMARK VINA RESULT:    -4.225      3.173      4.306
REMARK INTER + INTRA:          -5.174
REMARK INTER:                  -5.049
REMARK INTRA:                  -0.126
REMARK UNBOUND:                -0.332
REMARK SMILES COc1ccc(C(C)=O)c(O)c1
REMARK SMILES IDX 6 1 10 2 12 3 3 4 4 5 5 6 7 7 8 8 9 9 11 10 2 12 1 13
REMARK H PARENT 11 11
REMARK Flexibility Score: inf
ROOT
ATOM      1  C   UNL     1     182.558 180.030 175.664  1.00  0.00     0.059 A 
ATOM      2  C   UNL     1     181.780 181.176 175.378  1.00  0.00     0.130 A 
ATOM      3  C   UNL     1     180.763 181.575 176.259  1.00  0.00     0.093 A 
ATOM      4  C   UNL     1     180.502 180.844 177.430  1.00  0.00     0.122 A 
ATOM      5  C   UNL     1     181.268 179.711 177.710  1.00  0.00     0.047 A 
ATOM      6  C   UNL     1     182.284 179.307 176.842  1.00  0.00     0.019 A 
ENDROOT
BRANCH   1   7
ATOM      7  C   UNL     1     183.652 179.590 174.751  1.00  0.00     0.163 C 
ATOM      8  C   UNL     1     184.958 180.325 174.672  1.00  0.00     0.093 C 
ATOM      9  O   UNL     1     183.485 178.594 173.997  1.00  0.00    -0.294 OA
ENDBRANCH   1   7
BRANCH   2  10
ATOM     10  O   UNL     1     182.002 181.914 174.216  1.00  0.00    -0.507 OA
ATOM     11  H   UNL     1     181.595 182.831 174.079  1.00  0.00     0.293 HD
ENDBRANCH   2  10
BRANCH   4  12
ATOM     12  O   UNL     1     179.495 181.207 178.338  1.00  0.00    -0.497 OA
ATOM     13  C   UNL     1     179.602 181.079 179.752  1.00  0.00     0.278 C 
ENDBRANCH   4  12
TORSDOF 3
ENDMDL
MODEL 9
REMARK VINA RESULT:    -4.191      2.971      3.796
REMARK INTER + INTRA:          -5.136
REMARK INTER:                  -4.816
REMARK INTRA:                  -0.320
REMARK UNBOUND:                -0.332
REMARK SMILES COc1ccc(C(C)=O)c(O)c1
REMARK SMILES IDX 6 1 10 2 12 3 3 4 4 5 5 6 7 7 8 8 9 9 11 10 2 12 1 13
REMARK H PARENT 11 11
REMARK Flexibility Score: inf
ROOT
ATOM      1  C   UNL     1     180.661 180.634 177.515  1.00  0.00     0.059 A 
ATOM      2  C   UNL     1     181.755 180.000 176.882  1.00  0.00     0.130 A 
ATOM      3  C   UNL     1     182.236 180.483 175.654  1.00  0.00     0.093 A 
ATOM      4  C   UNL     1     181.637 181.595 175.038  1.00  0.00     0.122 A 
ATOM      5  C   UNL     1     180.555 182.218 175.663  1.00  0.00     0.047 A 
ATOM      6  C   UNL     1     180.071 181.748 176.885  1.00  0.00     0.019 A 
ENDROOT
BRANCH   1   7
ATOM      7  C   UNL     1     180.138 180.149 178.825  1.00  0.00     0.163 C 
ATOM      8  C   UNL     1     179.691 181.099 179.897  1.00  0.00     0.093 C 
ATOM      9  O   UNL     1     180.086 178.913 179.067  1.00  0.00    -0.294 OA
ENDBRANCH   1   7
BRANCH   2  10
ATOM     10  O   UNL     1     182.361 178.884 177.458  1.00  0.00    -0.507 OA
ATOM     11  H   UNL     1     182.559 178.836 178.451  1.00  0.00     0.293 HD
ENDBRANCH   2  10
BRANCH   4  12
ATOM     12  O   UNL     1     182.084 182.110 173.812  1.00  0.00    -0.497 OA
ATOM     13  C   UNL     1     183.455 182.259 173.454  1.00  0.00     0.278 C 
ENDBRANCH   4  12
TORSDOF 3
ENDMDL
