MODEL 1
REMARK VINA RESULT:    -4.665      0.000      0.000
REMARK INTER + INTRA:          -7.822
REMARK INTER:                  -7.119
REMARK INTRA:                  -0.703
REMARK UNBOUND:                -0.703
REMARK SMILES O=C([O-])CCCCCCCCC(=O)[O-]
REMARK SMILES IDX 7 1 6 2 5 3 4 4 2 5 1 6 3 7 8 8 9 9 10 10 11 11 12 12 13 13
REMARK SMILES IDX 14 14
REMARK H PARENT
REMARK Flexibility Score: inf
ROOT
ATOM      1  C   UNL     1     -12.290 -14.149  14.866  1.00  0.00     0.000 C 
ENDROOT
BRANCH   1   2
ATOM      2  C   UNL     1     -12.847 -13.122  15.862  1.00  0.00     0.000 C 
BRANCH   2   3
ATOM      3  C   UNL     1     -13.797 -12.139  15.164  1.00  0.00     0.006 C 
BRANCH   3   4
ATOM      4  C   UNL     1     -13.441 -11.934  13.686  1.00  0.00     0.053 C 
BRANCH   4   5
ATOM      5  C   UNL     1     -14.601 -12.235  12.788  1.00  0.00     0.041 C 
ATOM      6  O   UNL     1     -14.695 -11.672  11.665  1.00  0.00    -0.550 OA
ATOM      7  O   UNL     1     -15.597 -13.110  13.203  1.00  0.00    -0.550 OA
ENDBRANCH   4   5
ENDBRANCH   3   4
ENDBRANCH   2   3
ENDBRANCH   1   2
BRANCH   1   8
ATOM      8  C   UNL     1     -10.754 -14.218  14.882  1.00  0.00     0.000 C 
BRANCH   8   9
ATOM      9  C   UNL     1     -10.113 -12.961  15.497  1.00  0.00     0.000 C 
BRANCH   9  10
ATOM     10  C   UNL     1      -9.742 -11.910  14.438  1.00  0.00     0.006 C 
BRANCH  10  11
ATOM     11  C   UNL     1      -8.294 -11.424  14.573  1.00  0.00     0.053 C 
BRANCH  11  12
ATOM     12  C   UNL     1      -7.418 -12.113  13.574  1.00  0.00     0.041 C 
ATOM     13  O   UNL     1      -6.164 -12.063  13.690  1.00  0.00    -0.550 OA
ATOM     14  O   UNL     1      -7.982 -12.766  12.486  1.00  0.00    -0.550 OA
ENDBRANCH  11  12
ENDBRANCH  10  11
ENDBRANCH   9  10
ENDBRANCH   8   9
ENDBRANCH   1   8
TORSDOF 9
ENDMDL
MODEL 2
REMARK VINA RESULT:    -4.648      1.494      6.496
REMARK INTER + INTRA:          -7.796
REMARK INTER:                  -7.208
REMARK INTRA:                  -0.589
REMARK UNBOUND:                -0.703
REMARK SMILES O=C([O-])CCCCCCCCC(=O)[O-]
REMARK SMILES IDX 7 1 6 2 5 3 4 4 2 5 1 6 3 7 8 8 9 9 10 10 11 11 12 12 13 13
REMARK SMILES IDX 14 14
REMARK H PARENT
REMARK Flexibility Score: inf
ROOT
ATOM      1  C   UNL     1     -10.126 -13.641  15.025  1.00  0.00     0.000 C 
ENDROOT
BRANCH   1   2
ATOM      2  C   UNL     1      -9.206 -12.808  14.120  1.00  0.00     0.000 C 
BRANCH   2   3
ATOM      3  C   UNL     1      -9.352 -11.309  14.419  1.00  0.00     0.006 C 
BRANCH   3   4
ATOM      4  C   UNL     1      -8.118 -10.506  13.988  1.00  0.00     0.053 C 
BRANCH   4   5
ATOM      5  C   UNL     1      -6.877 -10.980  14.680  1.00  0.00     0.041 C 
ATOM      6  O   UNL     1      -6.814 -10.982  15.938  1.00  0.00    -0.550 OA
ATOM      7  O   UNL     1      -5.776 -11.388  13.936  1.00  0.00    -0.550 OA
ENDBRANCH   4   5
ENDBRANCH   3   4
ENDBRANCH   2   3
ENDBRANCH   1   2
BRANCH   1   8
ATOM      8  C   UNL     1     -11.038 -12.770  15.904  1.00  0.00     0.000 C 
BRANCH   8   9
ATOM      9  C   UNL     1     -12.532 -12.989  15.604  1.00  0.00     0.000 C 
BRANCH   9  10
ATOM     10  C   UNL     1     -12.796 -13.307  14.124  1.00  0.00     0.006 C 
BRANCH  10  11
ATOM     11  C   UNL     1     -13.829 -12.364  13.494  1.00  0.00     0.053 C 
BRANCH  11  12
ATOM     12  C   UNL     1     -15.207 -12.931  13.634  1.00  0.00     0.041 C 
ATOM     13  O   UNL     1     -16.086 -12.304  14.284  1.00  0.00    -0.550 OA
ATOM     14  O   UNL     1     -15.508 -14.173  13.092  1.00  0.00    -0.550 OA
ENDBRANCH  11  12
ENDBRANCH  10  11
ENDBRANCH   9  10
ENDBRANCH   8   9
ENDBRANCH   1   8
TORSDOF 9
ENDMDL
MODEL 3
REMARK VINA RESULT:    -4.590      0.486      6.006
REMARK INTER + INTRA:          -7.707
REMARK INTER:                  -7.136
REMARK INTRA:                  -0.571
REMARK UNBOUND:                -0.703
REMARK SMILES O=C([O-])CCCCCCCCC(=O)[O-]
REMARK SMILES IDX 7 1 6 2 5 3 4 4 2 5 1 6 3 7 8 8 9 9 10 10 11 11 12 12 13 13
REMARK SMILES IDX 14 14
REMARK H PARENT
REMARK Flexibility Score: inf
ROOT
ATOM      1  C   UNL     1     -10.757 -14.020  14.812  1.00  0.00     0.000 C 
ENDROOT
BRANCH   1   2
ATOM      2  C   UNL     1     -10.209 -12.862  15.660  1.00  0.00     0.000 C 
BRANCH   2   3
ATOM      3  C   UNL     1      -8.676 -12.901  15.717  1.00  0.00     0.006 C 
BRANCH   3   4
ATOM      4  C   UNL     1      -8.034 -11.732  14.958  1.00  0.00     0.053 C 
BRANCH   4   5
ATOM      5  C   UNL     1      -7.279 -12.200  13.752  1.00  0.00     0.041 C 
ATOM      6  O   UNL     1      -6.030 -12.049  13.689  1.00  0.00    -0.550 OA
ATOM      7  O   UNL     1      -7.957 -12.772  12.683  1.00  0.00    -0.550 OA
ENDBRANCH   4   5
ENDBRANCH   3   4
ENDBRANCH   2   3
ENDBRANCH   1   2
BRANCH   1   8
ATOM      8  C   UNL     1     -12.290 -14.119  14.865  1.00  0.00     0.000 C 
BRANCH   8   9
ATOM      9  C   UNL     1     -12.922 -13.042  15.765  1.00  0.00     0.000 C 
BRANCH   9  10
ATOM     10  C   UNL     1     -13.783 -12.045  14.974  1.00  0.00     0.006 C 
BRANCH  10  11
ATOM     11  C   UNL     1     -13.413 -11.996  13.487  1.00  0.00     0.053 C 
BRANCH  11  12
ATOM     12  C   UNL     1     -14.622 -12.241  12.640  1.00  0.00     0.041 C 
ATOM     13  O   UNL     1     -14.771 -11.619  11.554  1.00  0.00    -0.550 OA
ATOM     14  O   UNL     1     -15.609 -13.118  13.071  1.00  0.00    -0.550 OA
ENDBRANCH  11  12
ENDBRANCH  10  11
ENDBRANCH   9  10
ENDBRANCH   8   9
ENDBRANCH   1   8
TORSDOF 9
ENDMDL
MODEL 4
REMARK VINA RESULT:    -4.568      1.299      1.783
REMARK INTER + INTRA:          -7.674
REMARK INTER:                  -7.167
REMARK INTRA:                  -0.506
REMARK UNBOUND:                -0.703
REMARK SMILES O=C([O-])CCCCCCCCC(=O)[O-]
REMARK SMILES IDX 7 1 6 2 5 3 4 4 2 5 1 6 3 7 8 8 9 9 10 10 11 11 12 12 13 13
REMARK SMILES IDX 14 14
REMARK H PARENT
REMARK Flexibility Score: inf
ROOT
ATOM      1  C   UNL     1     -12.743 -13.724  14.767  1.00  0.00     0.000 C 
ENDROOT
BRANCH   1   2
ATOM      2  C   UNL     1     -13.079 -12.415  14.038  1.00  0.00     0.000 C 
BRANCH   2   3
ATOM      3  C   UNL     1     -14.309 -12.589  13.135  1.00  0.00     0.006 C 
BRANCH   3   4
ATOM      4  C   UNL     1     -15.008 -13.936  13.357  1.00  0.00     0.053 C 
BRANCH   4   5
ATOM      5  C   UNL     1     -16.456 -13.761  13.701  1.00  0.00     0.041 C 
ATOM      6  O   UNL     1     -16.883 -12.643  14.093  1.00  0.00    -0.550 OA
ATOM      7  O   UNL     1     -17.327 -14.841  13.620  1.00  0.00    -0.550 OA
ENDBRANCH   4   5
ENDBRANCH   3   4
ENDBRANCH   2   3
ENDBRANCH   1   2
BRANCH   1   8
ATOM      8  C   UNL     1     -11.240 -13.875  15.051  1.00  0.00     0.000 C 
BRANCH   8   9
ATOM      9  C   UNL     1     -10.686 -12.735  15.925  1.00  0.00     0.000 C 
BRANCH   9  10
ATOM     10  C   UNL     1      -9.240 -12.362  15.561  1.00  0.00     0.006 C 
BRANCH  10  11
ATOM     11  C   UNL     1      -9.116 -11.806  14.137  1.00  0.00     0.053 C 
BRANCH  11  12
ATOM     12  C   UNL     1      -7.894 -12.354  13.468  1.00  0.00     0.041 C 
ATOM     13  O   UNL     1      -6.788 -12.352  14.070  1.00  0.00    -0.550 OA
ATOM     14  O   UNL     1      -7.966 -12.820  12.162  1.00  0.00    -0.550 OA
ENDBRANCH  11  12
ENDBRANCH  10  11
ENDBRANCH   9  10
ENDBRANCH   8   9
ENDBRANCH   1   8
TORSDOF 9
ENDMDL
MODEL 5
REMARK VINA RESULT:    -4.555      1.654      6.688
REMARK INTER + INTRA:          -7.655
REMARK INTER:                  -7.084
REMARK INTRA:                  -0.571
REMARK UNBOUND:                -0.703
REMARK SMILES O=C([O-])CCCCCCCCC(=O)[O-]
REMARK SMILES IDX 7 1 6 2 5 3 4 4 2 5 1 6 3 7 8 8 9 9 10 10 11 11 12 12 13 13
REMARK SMILES IDX 14 14
REMARK H PARENT
REMARK Flexibility Score: inf
ROOT
ATOM      1  C   UNL     1     -11.527 -12.928  13.942  1.00  0.00     0.000 C 
ENDROOT
BRANCH   1   2
ATOM      2  C   UNL     1     -10.841 -13.498  15.193  1.00  0.00     0.000 C 
BRANCH   2   3
ATOM      3  C   UNL     1      -9.672 -12.606  15.633  1.00  0.00     0.006 C 
BRANCH   3   4
ATOM      4  C   UNL     1      -9.256 -11.610  14.543  1.00  0.00     0.053 C 
BRANCH   4   5
ATOM      5  C   UNL     1      -7.945 -11.981  13.922  1.00  0.00     0.041 C 
ATOM      6  O   UNL     1      -7.916 -12.666  12.865  1.00  0.00    -0.550 OA
ATOM      7  O   UNL     1      -6.754 -11.599  14.527  1.00  0.00    -0.550 OA
ENDBRANCH   4   5
ENDBRANCH   3   4
ENDBRANCH   2   3
ENDBRANCH   1   2
BRANCH   1   8
ATOM      8  C   UNL     1     -13.046 -13.164  13.940  1.00  0.00     0.000 C 
BRANCH   8   9
ATOM      9  C   UNL     1     -13.532 -13.901  15.201  1.00  0.00     0.000 C 
BRANCH   9  10
ATOM     10  C   UNL     1     -14.458 -13.036  16.069  1.00  0.00     0.006 C 
BRANCH  10  11
ATOM     11  C   UNL     1     -15.850 -13.656  16.245  1.00  0.00     0.053 C 
BRANCH  11  12
ATOM     12  C   UNL     1     -16.610 -13.606  14.957  1.00  0.00     0.041 C 
ATOM     13  O   UNL     1     -17.244 -14.619  14.557  1.00  0.00    -0.550 OA
ATOM     14  O   UNL     1     -16.579 -12.460  14.175  1.00  0.00    -0.550 OA
ENDBRANCH  11  12
ENDBRANCH  10  11
ENDBRANCH   9  10
ENDBRANCH   8   9
ENDBRANCH   1   8
TORSDOF 9
ENDMDL
MODEL 6
REMARK VINA RESULT:    -4.527      1.279      1.592
REMARK INTER + INTRA:          -7.612
REMARK INTER:                  -7.076
REMARK INTRA:                  -0.535
REMARK UNBOUND:                -0.703
REMARK SMILES O=C([O-])CCCCCCCCC(=O)[O-]
REMARK SMILES IDX 7 1 6 2 5 3 4 4 2 5 1 6 3 7 8 8 9 9 10 10 11 11 12 12 13 13
REMARK SMILES IDX 14 14
REMARK H PARENT
REMARK Flexibility Score: inf
ROOT
ATOM      1  C   UNL     1     -11.588 -12.962  14.067  1.00  0.00     0.000 C 
ENDROOT
BRANCH   1   2
ATOM      2  C   UNL     1     -12.233 -13.299  15.420  1.00  0.00     0.000 C 
BRANCH   2   3
ATOM      3  C   UNL     1     -13.698 -13.723  15.239  1.00  0.00     0.006 C 
BRANCH   3   4
ATOM      4  C   UNL     1     -14.105 -13.795  13.761  1.00  0.00     0.053 C 
BRANCH   4   5
ATOM      5  C   UNL     1     -15.136 -12.764  13.418  1.00  0.00     0.041 C 
ATOM      6  O   UNL     1     -15.220 -12.318  12.243  1.00  0.00    -0.550 OA
ATOM      7  O   UNL     1     -15.983 -12.271  14.403  1.00  0.00    -0.550 OA
ENDBRANCH   4   5
ENDBRANCH   3   4
ENDBRANCH   2   3
ENDBRANCH   1   2
BRANCH   1   8
ATOM      8  C   UNL     1     -10.056 -13.079  14.097  1.00  0.00     0.000 C 
BRANCH   8   9
ATOM      9  C   UNL     1      -9.495 -13.151  15.528  1.00  0.00     0.000 C 
BRANCH   9  10
ATOM     10  C   UNL     1      -8.351 -12.153  15.764  1.00  0.00     0.006 C 
BRANCH  10  11
ATOM     11  C   UNL     1      -8.243 -11.106  14.649  1.00  0.00     0.053 C 
BRANCH  11  12
ATOM     12  C   UNL     1      -6.866 -11.105  14.064  1.00  0.00     0.041 C 
ATOM     13  O   UNL     1      -6.297 -12.194  13.782  1.00  0.00    -0.550 OA
ATOM     14  O   UNL     1      -6.189  -9.908  13.878  1.00  0.00    -0.550 OA
ENDBRANCH  11  12
ENDBRANCH  10  11
ENDBRANCH   9  10
ENDBRANCH   8   9
ENDBRANCH   1   8
TORSDOF 9
ENDMDL
MODEL 7
REMARK VINA RESULT:    -4.509      1.918      6.806
REMARK INTER + INTRA:          -7.585
REMARK INTER:                  -7.135
REMARK INTRA:                  -0.450
REMARK UNBOUND:                -0.703
REMARK SMILES O=C([O-])CCCCCCCCC(=O)[O-]
REMARK SMILES IDX 7 1 6 2 5 3 4 4 2 5 1 6 3 7 8 8 9 9 10 10 11 11 12 12 13 13
REMARK SMILES IDX 14 14
REMARK H PARENT
REMARK Flexibility Score: inf
ROOT
ATOM      1  C   UNL     1     -11.940 -12.910  15.963  1.00  0.00     0.000 C 
ENDROOT
BRANCH   1   2
ATOM      2  C   UNL     1     -10.433 -12.614  15.991  1.00  0.00     0.000 C 
BRANCH   2   3
ATOM      3  C   UNL     1      -9.879 -12.450  14.568  1.00  0.00     0.006 C 
BRANCH   3   4
ATOM      4  C   UNL     1      -9.024 -11.184  14.419  1.00  0.00     0.053 C 
BRANCH   4   5
ATOM      5  C   UNL     1      -7.573 -11.461  14.668  1.00  0.00     0.041 C 
ATOM      6  O   UNL     1      -6.990 -10.942  15.657  1.00  0.00    -0.550 OA
ATOM      7  O   UNL     1      -6.855 -12.264  13.791  1.00  0.00    -0.550 OA
ENDBRANCH   4   5
ENDBRANCH   3   4
ENDBRANCH   2   3
ENDBRANCH   1   2
BRANCH   1   8
ATOM      8  C   UNL     1     -12.527 -12.856  14.543  1.00  0.00     0.000 C 
BRANCH   8   9
ATOM      9  C   UNL     1     -13.126 -14.203  14.100  1.00  0.00     0.000 C 
BRANCH   9  10
ATOM     10  C   UNL     1     -14.523 -14.051  13.478  1.00  0.00     0.006 C 
BRANCH  10  11
ATOM     11  C   UNL     1     -15.417 -13.086  14.266  1.00  0.00     0.053 C 
BRANCH  11  12
ATOM     12  C   UNL     1     -16.430 -13.846  15.064  1.00  0.00     0.041 C 
ATOM     13  O   UNL     1     -16.296 -13.962  16.312  1.00  0.00    -0.550 OA
ATOM     14  O   UNL     1     -17.494 -14.469  14.426  1.00  0.00    -0.550 OA
ENDBRANCH  11  12
ENDBRANCH  10  11
ENDBRANCH   9  10
ENDBRANCH   8   9
ENDBRANCH   1   8
TORSDOF 9
ENDMDL
MODEL 8
REMARK VINA RESULT:    -4.398      1.997      2.679
REMARK INTER + INTRA:          -7.414
REMARK INTER:                  -7.066
REMARK INTRA:                  -0.348
REMARK UNBOUND:                -0.703
REMARK SMILES O=C([O-])CCCCCCCCC(=O)[O-]
REMARK SMILES IDX 7 1 6 2 5 3 4 4 2 5 1 6 3 7 8 8 9 9 10 10 11 11 12 12 13 13
REMARK SMILES IDX 14 14
REMARK H PARENT
REMARK Flexibility Score: inf
ROOT
ATOM      1  C   UNL     1     -11.575 -13.118  14.219  1.00  0.00     0.000 C 
ENDROOT
BRANCH   1   2
ATOM      2  C   UNL     1     -13.035 -12.659  14.355  1.00  0.00     0.000 C 
BRANCH   2   3
ATOM      3  C   UNL     1     -13.885 -13.732  15.050  1.00  0.00     0.006 C 
BRANCH   3   4
ATOM      4  C   UNL     1     -14.456 -13.246  16.389  1.00  0.00     0.053 C 
BRANCH   4   5
ATOM      5  C   UNL     1     -15.918 -13.547  16.512  1.00  0.00     0.041 C 
ATOM      6  O   UNL     1     -16.583 -13.884  15.496  1.00  0.00    -0.550 OA
ATOM      7  O   UNL     1     -16.554 -13.424  17.741  1.00  0.00    -0.550 OA
ENDBRANCH   4   5
ENDBRANCH   3   4
ENDBRANCH   2   3
ENDBRANCH   1   2
BRANCH   1   8
ATOM      8  C   UNL     1     -10.879 -13.291  15.578  1.00  0.00     0.000 C 
BRANCH   8   9
ATOM      9  C   UNL     1      -9.375 -12.973  15.518  1.00  0.00     0.000 C 
BRANCH   9  10
ATOM     10  C   UNL     1      -9.000 -12.124  14.292  1.00  0.00     0.006 C 
BRANCH  10  11
ATOM     11  C   UNL     1      -7.610 -12.465  13.742  1.00  0.00     0.053 C 
BRANCH  11  12
ATOM     12  C   UNL     1      -6.605 -11.455  14.202  1.00  0.00     0.041 C 
ATOM     13  O   UNL     1      -5.593 -11.202  13.495  1.00  0.00    -0.550 OA
ATOM     14  O   UNL     1      -6.759 -10.831  15.432  1.00  0.00    -0.550 OA
ENDBRANCH  11  12
ENDBRANCH  10  11
ENDBRANCH   9  10
ENDBRANCH   8   9
ENDBRANCH   1   8
TORSDOF 9
ENDMDL
MODEL 9
REMARK VINA RESULT:    -4.266      1.698      2.374
REMARK INTER + INTRA:          -7.214
REMARK INTER:                  -6.635
REMARK INTRA:                  -0.579
REMARK UNBOUND:                -0.703
REMARK SMILES O=C([O-])CCCCCCCCC(=O)[O-]
REMARK SMILES IDX 7 1 6 2 5 3 4 4 2 5 1 6 3 7 8 8 9 9 10 10 11 11 12 12 13 13
REMARK SMILES IDX 14 14
REMARK H PARENT
REMARK Flexibility Score: inf
ROOT
ATOM      1  C   UNL     1     -14.031 -13.155  16.612  1.00  0.00     0.000 C 
ENDROOT
BRANCH   1   2
ATOM      2  C   UNL     1     -15.396 -12.582  16.203  1.00  0.00     0.000 C 
BRANCH   2   3
ATOM      3  C   UNL     1     -16.209 -13.615  15.409  1.00  0.00     0.006 C 
BRANCH   3   4
ATOM      4  C   UNL     1     -16.589 -13.107  14.012  1.00  0.00     0.053 C 
BRANCH   4   5
ATOM      5  C   UNL     1     -15.488 -13.329  13.021  1.00  0.00     0.041 C 
ATOM      6  O   UNL     1     -15.074 -12.375  12.310  1.00  0.00    -0.550 OA
ATOM      7  O   UNL     1     -14.941 -14.596  12.858  1.00  0.00    -0.550 OA
ENDBRANCH   4   5
ENDBRANCH   3   4
ENDBRANCH   2   3
ENDBRANCH   1   2
BRANCH   1   8
ATOM      8  C   UNL     1     -12.919 -12.808  15.609  1.00  0.00     0.000 C 
BRANCH   8   9
ATOM      9  C   UNL     1     -12.295 -14.058  14.962  1.00  0.00     0.000 C 
BRANCH   9  10
ATOM     10  C   UNL     1     -10.761 -14.064  15.050  1.00  0.00     0.006 C 
BRANCH  10  11
ATOM     11  C   UNL     1     -10.105 -13.195  13.970  1.00  0.00     0.053 C 
BRANCH  11  12
ATOM     12  C   UNL     1      -8.740 -12.763  14.404  1.00  0.00     0.041 C 
ATOM     13  O   UNL     1      -8.497 -12.566  15.625  1.00  0.00    -0.550 OA
ATOM     14  O   UNL     1      -7.750 -12.530  13.459  1.00  0.00    -0.550 OA
ENDBRANCH  11  12
ENDBRANCH  10  11
ENDBRANCH   9  10
ENDBRANCH   8   9
ENDBRANCH   1   8
TORSDOF 9
ENDMDL
