MODEL 1
REMARK VINA RESULT:    -5.950      0.000      0.000
REMARK INTER + INTRA:          -7.473
REMARK INTER:                  -8.385
REMARK INTRA:                   0.913
REMARK UNBOUND:                 0.913
REMARK SMILES CC1=CCC(=C(C)C)C(=O)CC(C)=CCC1
REMARK SMILES IDX 12 1 14 2 13 3 15 4 16 5 2 6 1 7 3 8 11 10 9 11 10 12 5 13
REMARK SMILES IDX 6 14 7 15 8 16 4 17
REMARK H PARENT
REMARK Flexibility Score: 60.00
ROOT
ATOM      1  C   UNL     1      -8.164  33.237  21.006  1.00  0.00    -0.070 C 
ATOM      2  C   UNL     1      -7.704  34.324  21.667  1.00  0.00    -0.027 C 
ATOM      3  C   UNL     1      -7.484  32.848  19.718  1.00  0.00     0.039 C 
ENDROOT
BRANCH   2   4
ATOM      4  C   UNL     1      -8.166  34.766  23.031  1.00  0.00     0.032 C 
BRANCH   4   5
ATOM      5  C   UNL     1      -7.524  33.884  24.109  1.00  0.00     0.034 C 
BRANCH   5   6
ATOM      6  C   UNL     1      -8.378  33.780  25.357  1.00  0.00    -0.077 C 
ATOM      7  C   UNL     1      -8.122  34.743  26.490  1.00  0.00     0.039 C 
ATOM      8  C   UNL     1      -9.316  32.819  25.546  1.00  0.00    -0.023 CG0
ATOM      9  G   UNL     1      -9.790  31.781  24.543  1.00  0.00     0.000 G0
ENDBRANCH   5   6
ENDBRANCH   4   5
ENDBRANCH   2   4
BRANCH   1  10
ATOM     10  C   UNL     1      -9.339  32.406  21.484  1.00  0.00     0.111 C 
BRANCH  10  11
ATOM     11  C   UNL     1      -8.888  31.160  22.209  1.00  0.00     0.163 C 
ATOM     12  O   UNL     1      -8.625  30.149  21.504  1.00  0.00    -0.294 OA
BRANCH  11  13
ATOM     13  C   UNL     1      -8.763  31.063  23.702  1.00  0.00    -0.002 C 
ATOM     14  C   UNL     1      -7.839  30.229  24.270  1.00  0.00    -0.069 C 
ATOM     15  C   UNL     1      -7.835  29.925  25.752  1.00  0.00     0.039 C 
ATOM     16  C   UNL     1      -6.734  29.601  23.451  1.00  0.00     0.039 C 
BRANCH  13  17
ATOM     17  C   UNL     1      -9.811  31.773  24.552  1.00  0.00     0.066 CG0
ATOM     18  G   UNL     1      -9.295  32.813  25.532  1.00  0.00     0.000 G0
ENDBRANCH  13  17
ENDBRANCH  11  13
ENDBRANCH  10  11
ENDBRANCH   1  10
TORSDOF 0
ENDMDL
MODEL 2
REMARK VINA RESULT:    -5.666      1.766      4.041
REMARK INTER + INTRA:          -7.072
REMARK INTER:                  -7.447
REMARK INTRA:                   0.376
REMARK UNBOUND:                 0.913
REMARK SMILES CC1=CCC(=C(C)C)C(=O)CC(C)=CCC1
REMARK SMILES IDX 12 1 14 2 13 3 15 4 16 5 2 6 1 7 3 8 11 10 9 11 10 12 5 13
REMARK SMILES IDX 6 14 7 15 8 16 4 17
REMARK H PARENT
REMARK Flexibility Score: 60.00
ROOT
ATOM      1  C   UNL     1      -8.183  34.903  25.174  1.00  0.00    -0.070 C 
ATOM      2  C   UNL     1      -8.660  34.199  26.227  1.00  0.00    -0.027 C 
ATOM      3  C   UNL     1      -8.591  36.349  25.045  1.00  0.00     0.039 C 
ENDROOT
BRANCH   2   4
ATOM      4  C   UNL     1      -8.241  32.797  26.588  1.00  0.00     0.032 C 
BRANCH   4   5
ATOM      5  C   UNL     1      -9.421  31.837  26.399  1.00  0.00     0.034 C 
BRANCH   5   6
ATOM      6  C   UNL     1      -9.141  30.772  25.356  1.00  0.00    -0.077 C 
ATOM      7  C   UNL     1      -8.689  29.410  25.819  1.00  0.00     0.039 C 
ATOM      8  C   UNL     1      -9.203  30.996  24.021  1.00  0.00    -0.023 CG0
ATOM      9  G   UNL     1      -9.681  32.254  23.317  1.00  0.00     0.000 G0
ENDBRANCH   5   6
ENDBRANCH   4   5
ENDBRANCH   2   4
BRANCH   1  10
ATOM     10  C   UNL     1      -7.280  34.308  24.112  1.00  0.00     0.111 C 
BRANCH  10  11
ATOM     11  C   UNL     1      -7.990  34.164  22.787  1.00  0.00     0.163 C 
ATOM     12  O   UNL     1      -8.008  35.174  22.032  1.00  0.00    -0.294 OA
BRANCH  11  13
ATOM     13  C   UNL     1      -8.682  32.908  22.343  1.00  0.00    -0.002 C 
ATOM     14  C   UNL     1      -8.546  32.455  21.059  1.00  0.00    -0.069 C 
ATOM     15  C   UNL     1      -9.401  31.336  20.508  1.00  0.00     0.039 C 
ATOM     16  C   UNL     1      -7.493  33.018  20.131  1.00  0.00     0.039 C 
BRANCH  13  17
ATOM     17  C   UNL     1      -9.675  32.265  23.304  1.00  0.00     0.066 CG0
ATOM     18  G   UNL     1      -9.211  31.004  24.014  1.00  0.00     0.000 G0
ENDBRANCH  13  17
ENDBRANCH  11  13
ENDBRANCH  10  11
ENDBRANCH   1  10
TORSDOF 0
ENDMDL
MODEL 3
REMARK VINA RESULT:    -5.402      1.558      3.021
REMARK INTER + INTRA:          -6.700
REMARK INTER:                  -7.291
REMARK INTRA:                   0.591
REMARK UNBOUND:                 0.913
REMARK SMILES CC1=CCC(=C(C)C)C(=O)CC(C)=CCC1
REMARK SMILES IDX 12 1 14 2 13 3 15 4 16 5 2 6 1 7 3 8 11 10 9 11 10 12 5 13
REMARK SMILES IDX 6 14 7 15 8 16 4 17
REMARK H PARENT
REMARK Flexibility Score: 60.00
ROOT
ATOM      1  C   UNL     1      -7.859  30.399  22.664  1.00  0.00    -0.070 C 
ATOM      2  C   UNL     1      -7.512  31.188  21.621  1.00  0.00    -0.027 C 
ATOM      3  C   UNL     1      -6.768  29.625  23.361  1.00  0.00     0.039 C 
ENDROOT
BRANCH   2   4
ATOM      4  C   UNL     1      -8.443  32.136  20.909  1.00  0.00     0.032 C 
BRANCH   4   5
ATOM      5  C   UNL     1      -9.318  32.870  21.931  1.00  0.00     0.034 C 
BRANCH   5   6
ATOM      6  C   UNL     1      -8.516  33.802  22.819  1.00  0.00    -0.077 C 
ATOM      7  C   UNL     1      -7.568  34.779  22.169  1.00  0.00     0.039 C 
ATOM      8  C   UNL     1      -8.547  33.759  24.173  1.00  0.00    -0.023 CG0
ATOM      9  G   UNL     1      -9.452  32.910  25.050  1.00  0.00     0.000 G0
ENDBRANCH   5   6
ENDBRANCH   4   5
ENDBRANCH   2   4
BRANCH   1  10
ATOM     10  C   UNL     1      -9.285  30.240  23.153  1.00  0.00     0.111 C 
BRANCH  10  11
ATOM     11  C   UNL     1      -9.379  30.340  24.657  1.00  0.00     0.163 C 
ATOM     12  O   UNL     1      -9.898  29.366  25.265  1.00  0.00    -0.294 OA
BRANCH  11  13
ATOM     13  C   UNL     1      -8.913  31.530  25.444  1.00  0.00    -0.002 C 
ATOM     14  C   UNL     1      -8.164  31.363  26.578  1.00  0.00    -0.069 C 
ATOM     15  C   UNL     1      -7.874  32.508  27.522  1.00  0.00     0.039 C 
ATOM     16  C   UNL     1      -7.540  30.030  26.923  1.00  0.00     0.039 C 
BRANCH  13  17
ATOM     17  C   UNL     1      -9.452  32.900  25.049  1.00  0.00     0.066 CG0
ATOM     18  G   UNL     1      -8.549  33.756  24.177  1.00  0.00     0.000 G0
ENDBRANCH  13  17
ENDBRANCH  11  13
ENDBRANCH  10  11
ENDBRANCH   1  10
TORSDOF 0
ENDMDL
MODEL 4
REMARK VINA RESULT:    -5.205      1.978      3.823
REMARK INTER + INTRA:          -6.423
REMARK INTER:                  -6.768
REMARK INTRA:                   0.345
REMARK UNBOUND:                 0.913
REMARK SMILES CC1=CCC(=C(C)C)C(=O)CC(C)=CCC1
REMARK SMILES IDX 12 1 14 2 13 3 15 4 16 5 2 6 1 7 3 8 11 10 9 11 10 12 5 13
REMARK SMILES IDX 6 14 7 15 8 16 4 17
REMARK H PARENT
REMARK Flexibility Score: 60.00
ROOT
ATOM      1  C   UNL     1      -7.891  34.680  23.961  1.00  0.00    -0.070 C 
ATOM      2  C   UNL     1      -7.509  34.645  22.663  1.00  0.00    -0.027 C 
ATOM      3  C   UNL     1      -7.054  35.481  24.925  1.00  0.00     0.039 C 
ENDROOT
BRANCH   2   4
ATOM      4  C   UNL     1      -8.304  34.020  21.546  1.00  0.00     0.032 C 
BRANCH   4   5
ATOM      5  C   UNL     1      -7.752  32.624  21.233  1.00  0.00     0.034 C 
BRANCH   5   6
ATOM      6  C   UNL     1      -8.781  31.531  21.454  1.00  0.00    -0.077 C 
ATOM      7  C   UNL     1      -9.750  31.218  20.342  1.00  0.00     0.039 C 
ATOM      8  C   UNL     1      -8.928  30.866  22.626  1.00  0.00    -0.023 CG0
ATOM      9  G   UNL     1      -8.048  30.963  23.860  1.00  0.00     0.000 G0
ENDBRANCH   5   6
ENDBRANCH   4   5
ENDBRANCH   2   4
BRANCH   1  10
ATOM     10  C   UNL     1      -9.102  33.941  24.494  1.00  0.00     0.111 C 
BRANCH  10  11
ATOM     11  C   UNL     1      -8.716  32.863  25.479  1.00  0.00     0.163 C 
ATOM     12  O   UNL     1      -8.344  33.238  26.623  1.00  0.00    -0.294 OA
BRANCH  11  13
ATOM     13  C   UNL     1      -8.730  31.397  25.159  1.00  0.00    -0.002 C 
ATOM     14  C   UNL     1      -9.192  30.490  26.074  1.00  0.00    -0.069 C 
ATOM     15  C   UNL     1      -9.010  29.000  25.888  1.00  0.00     0.039 C 
ATOM     16  C   UNL     1      -9.959  30.928  27.301  1.00  0.00     0.039 C 
BRANCH  13  17
ATOM     17  C   UNL     1      -8.049  30.942  23.873  1.00  0.00     0.066 CG0
ATOM     18  G   UNL     1      -8.924  30.867  22.634  1.00  0.00     0.000 G0
ENDBRANCH  13  17
ENDBRANCH  11  13
ENDBRANCH  10  11
ENDBRANCH   1  10
TORSDOF 0
ENDMDL
MODEL 5
REMARK VINA RESULT:    -5.106      1.684      3.769
REMARK INTER + INTRA:          -6.282
REMARK INTER:                  -6.598
REMARK INTRA:                   0.316
REMARK UNBOUND:                 0.913
REMARK SMILES CC1=CCC(=C(C)C)C(=O)CC(C)=CCC1
REMARK SMILES IDX 12 1 14 2 13 3 15 4 16 5 2 6 1 7 3 8 11 10 9 11 10 12 5 13
REMARK SMILES IDX 6 14 7 15 8 16 4 17
REMARK H PARENT
REMARK Flexibility Score: 60.00
ROOT
ATOM      1  C   UNL     1      -8.308  34.680  24.587  1.00  0.00    -0.070 C 
ATOM      2  C   UNL     1      -8.184  35.415  23.458  1.00  0.00    -0.027 C 
ATOM      3  C   UNL     1      -8.997  35.310  25.771  1.00  0.00     0.039 C 
ENDROOT
BRANCH   2   4
ATOM      4  C   UNL     1      -7.659  34.896  22.144  1.00  0.00     0.032 C 
BRANCH   4   5
ATOM      5  C   UNL     1      -8.727  34.032  21.462  1.00  0.00     0.034 C 
BRANCH   5   6
ATOM      6  C   UNL     1      -8.138  32.809  20.786  1.00  0.00    -0.077 C 
ATOM      7  C   UNL     1      -7.193  33.008  19.628  1.00  0.00     0.039 C 
ATOM      8  C   UNL     1      -8.470  31.537  21.117  1.00  0.00    -0.023 CG0
ATOM      9  G   UNL     1      -9.347  31.082  22.272  1.00  0.00     0.000 G0
ENDBRANCH   5   6
ENDBRANCH   4   5
ENDBRANCH   2   4
BRANCH   1  10
ATOM     10  C   UNL     1      -7.774  33.268  24.727  1.00  0.00     0.111 C 
BRANCH  10  11
ATOM     11  C   UNL     1      -8.858  32.235  24.532  1.00  0.00     0.163 C 
ATOM     12  O   UNL     1      -9.932  32.402  25.171  1.00  0.00    -0.294 OA
BRANCH  11  13
ATOM     13  C   UNL     1      -8.713  31.030  23.649  1.00  0.00    -0.002 C 
ATOM     14  C   UNL     1      -7.899  29.993  24.017  1.00  0.00    -0.069 C 
ATOM     15  C   UNL     1      -7.542  28.875  23.062  1.00  0.00     0.039 C 
ATOM     16  C   UNL     1      -7.348  29.880  25.421  1.00  0.00     0.039 C 
BRANCH  13  17
ATOM     17  C   UNL     1      -9.347  31.081  22.264  1.00  0.00     0.066 CG0
ATOM     18  G   UNL     1      -8.452  31.547  21.128  1.00  0.00     0.000 G0
ENDBRANCH  13  17
ENDBRANCH  11  13
ENDBRANCH  10  11
ENDBRANCH   1  10
TORSDOF 0
ENDMDL
MODEL 6
REMARK VINA RESULT:    -4.965      1.759      3.646
REMARK INTER + INTRA:          -6.084
REMARK INTER:                  -6.600
REMARK INTRA:                   0.516
REMARK UNBOUND:                 0.913
REMARK SMILES CC1=CCC(=C(C)C)C(=O)CC(C)=CCC1
REMARK SMILES IDX 12 1 14 2 13 3 15 4 16 5 2 6 1 7 3 8 11 10 9 11 10 12 5 13
REMARK SMILES IDX 6 14 7 15 8 16 4 17
REMARK H PARENT
REMARK Flexibility Score: 60.00
ROOT
ATOM      1  C   UNL     1      -7.871  33.919  22.217  1.00  0.00    -0.070 C 
ATOM      2  C   UNL     1      -7.934  33.073  21.163  1.00  0.00    -0.027 C 
ATOM      3  C   UNL     1      -8.169  35.377  21.975  1.00  0.00     0.039 C 
ENDROOT
BRANCH   2   4
ATOM      4  C   UNL     1      -7.811  31.574  21.252  1.00  0.00     0.032 C 
BRANCH   4   5
ATOM      5  C   UNL     1      -9.016  30.997  22.004  1.00  0.00     0.034 C 
BRANCH   5   6
ATOM      6  C   UNL     1      -8.606  30.068  23.130  1.00  0.00    -0.077 C 
ATOM      7  C   UNL     1      -7.736  28.880  22.806  1.00  0.00     0.039 C 
ATOM      8  C   UNL     1      -9.039  30.203  24.408  1.00  0.00    -0.023 CG0
ATOM      9  G   UNL     1      -9.867  31.336  24.988  1.00  0.00     0.000 G0
ENDBRANCH   5   6
ENDBRANCH   4   5
ENDBRANCH   2   4
BRANCH   1  10
ATOM     10  C   UNL     1      -7.499  33.480  23.619  1.00  0.00     0.111 C 
BRANCH  10  11
ATOM     11  C   UNL     1      -8.659  33.613  24.577  1.00  0.00     0.163 C 
ATOM     12  O   UNL     1      -9.296  34.700  24.560  1.00  0.00    -0.294 OA
BRANCH  11  13
ATOM     13  C   UNL     1      -9.068  32.541  25.546  1.00  0.00    -0.002 C 
ATOM     14  C   UNL     1      -8.603  32.554  26.833  1.00  0.00    -0.069 C 
ATOM     15  C   UNL     1      -8.798  31.381  27.768  1.00  0.00     0.039 C 
ATOM     16  C   UNL     1      -7.910  33.767  27.410  1.00  0.00     0.039 C 
BRANCH  13  17
ATOM     17  C   UNL     1      -9.857  31.355  25.004  1.00  0.00     0.066 CG0
ATOM     18  G   UNL     1      -9.044  30.218  24.407  1.00  0.00     0.000 G0
ENDBRANCH  13  17
ENDBRANCH  11  13
ENDBRANCH  10  11
ENDBRANCH   1  10
TORSDOF 0
ENDMDL
MODEL 7
REMARK VINA RESULT:    -4.836      1.886      4.760
REMARK INTER + INTRA:          -5.903
REMARK INTER:                  -7.175
REMARK INTRA:                   1.272
REMARK UNBOUND:                 0.913
REMARK SMILES CC1=CCC(=C(C)C)C(=O)CC(C)=CCC1
REMARK SMILES IDX 12 1 14 2 13 3 15 4 16 5 2 6 1 7 3 8 11 10 9 11 10 12 5 13
REMARK SMILES IDX 6 14 7 15 8 16 4 17
REMARK H PARENT
REMARK Flexibility Score: 60.00
ROOT
ATOM      1  C   UNL     1      -8.382  29.946  25.475  1.00  0.00    -0.070 C 
ATOM      2  C   UNL     1      -7.815  29.591  24.299  1.00  0.00    -0.027 C 
ATOM      3  C   UNL     1      -7.724  29.481  26.749  1.00  0.00     0.039 C 
ENDROOT
BRANCH   2   4
ATOM      4  C   UNL     1      -8.252  30.087  22.945  1.00  0.00     0.032 C 
BRANCH   4   5
ATOM      5  C   UNL     1      -7.368  31.262  22.512  1.00  0.00     0.034 C 
BRANCH   5   6
ATOM      6  C   UNL     1      -8.100  32.235  21.607  1.00  0.00    -0.077 C 
ATOM      7  C   UNL     1      -7.546  32.497  20.229  1.00  0.00     0.039 C 
ATOM      8  C   UNL     1      -9.189  32.944  21.994  1.00  0.00    -0.023 CG0
ATOM      9  G   UNL     1      -9.959  32.817  23.298  1.00  0.00     0.000 G0
ENDBRANCH   5   6
ENDBRANCH   4   5
ENDBRANCH   2   4
BRANCH   1  10
ATOM     10  C   UNL     1      -9.652  30.768  25.573  1.00  0.00     0.111 C 
BRANCH  10  11
ATOM     11  C   UNL     1      -9.358  32.241  25.730  1.00  0.00     0.163 C 
ATOM     12  O   UNL     1      -9.206  32.674  26.904  1.00  0.00    -0.294 OA
BRANCH  11  13
ATOM     13  C   UNL     1      -9.263  33.200  24.579  1.00  0.00    -0.002 C 
ATOM     14  C   UNL     1      -8.681  34.428  24.744  1.00  0.00    -0.069 C 
ATOM     15  C   UNL     1      -8.771  35.506  23.686  1.00  0.00     0.039 C 
ATOM     16  C   UNL     1      -7.869  34.759  25.976  1.00  0.00     0.039 C 
BRANCH  13  17
ATOM     17  C   UNL     1      -9.992  32.839  23.290  1.00  0.00     0.066 CG0
ATOM     18  G   UNL     1      -9.182  32.928  22.008  1.00  0.00     0.000 G0
ENDBRANCH  13  17
ENDBRANCH  11  13
ENDBRANCH  10  11
ENDBRANCH   1  10
TORSDOF 0
ENDMDL
MODEL 8
REMARK VINA RESULT:    -4.603     17.633     18.931
REMARK INTER + INTRA:          -5.574
REMARK INTER:                  -5.507
REMARK INTRA:                  -0.068
REMARK UNBOUND:                 0.913
REMARK SMILES CC1=CCC(=C(C)C)C(=O)CC(C)=CCC1
REMARK SMILES IDX 12 1 14 2 13 3 15 4 16 5 2 6 1 7 3 8 11 10 9 11 10 12 5 13
REMARK SMILES IDX 6 14 7 15 8 16 4 17
REMARK H PARENT
REMARK Flexibility Score: 60.00
ROOT
ATOM      1  C   UNL     1       2.494  47.156  16.549  1.00  0.00    -0.070 C 
ATOM      2  C   UNL     1       2.531  47.744  17.767  1.00  0.00    -0.027 C 
ATOM      3  C   UNL     1       3.719  47.257  15.675  1.00  0.00     0.039 C 
ENDROOT
BRANCH   2   4
ATOM      4  C   UNL     1       1.460  47.618  18.820  1.00  0.00     0.032 C 
BRANCH   4   5
ATOM      5  C   UNL     1       0.374  48.674  18.586  1.00  0.00     0.034 C 
BRANCH   5   6
ATOM      6  C   UNL     1      -1.026  48.109  18.732  1.00  0.00    -0.077 C 
ATOM      7  C   UNL     1      -1.470  47.623  20.089  1.00  0.00     0.039 C 
ATOM      8  C   UNL     1      -1.881  47.946  17.693  1.00  0.00    -0.023 CG0
ATOM      9  G   UNL     1      -1.688  48.404  16.257  1.00  0.00     0.000 G0
ENDBRANCH   5   6
ENDBRANCH   4   5
ENDBRANCH   2   4
BRANCH   1  10
ATOM     10  C   UNL     1       1.282  46.420  16.014  1.00  0.00     0.111 C 
BRANCH  10  11
ATOM     11  C   UNL     1       0.412  47.314  15.163  1.00  0.00     0.163 C 
ATOM     12  O   UNL     1       0.994  48.055  14.327  1.00  0.00    -0.294 OA
BRANCH  11  13
ATOM     13  C   UNL     1      -1.084  47.379  15.281  1.00  0.00    -0.002 C 
ATOM     14  C   UNL     1      -1.879  46.662  14.429  1.00  0.00    -0.069 C 
ATOM     15  C   UNL     1      -3.375  46.875  14.358  1.00  0.00     0.039 C 
ATOM     16  C   UNL     1      -1.311  45.576  13.544  1.00  0.00     0.039 C 
BRANCH  13  17
ATOM     17  C   UNL     1      -1.679  48.400  16.244  1.00  0.00     0.066 CG0
ATOM     18  G   UNL     1      -1.878  47.941  17.678  1.00  0.00     0.000 G0
ENDBRANCH  13  17
ENDBRANCH  11  13
ENDBRANCH  10  11
ENDBRANCH   1  10
TORSDOF 0
ENDMDL
MODEL 9
REMARK VINA RESULT:    -4.491     17.683     19.348
REMARK INTER + INTRA:          -5.416
REMARK INTER:                  -5.238
REMARK INTRA:                  -0.178
REMARK UNBOUND:                 0.913
REMARK SMILES CC1=CCC(=C(C)C)C(=O)CC(C)=CCC1
REMARK SMILES IDX 12 1 14 2 13 3 15 4 16 5 2 6 1 7 3 8 11 10 9 11 10 12 5 13
REMARK SMILES IDX 6 14 7 15 8 16 4 17
REMARK H PARENT
REMARK Flexibility Score: 60.00
ROOT
ATOM      1  C   UNL     1      -1.311  46.989  14.746  1.00  0.00    -0.070 C 
ATOM      2  C   UNL     1      -0.166  46.876  14.033  1.00  0.00    -0.027 C 
ATOM      3  C   UNL     1      -2.578  47.331  14.003  1.00  0.00     0.039 C 
ENDROOT
BRANCH   2   4
ATOM      4  C   UNL     1       1.152  46.400  14.586  1.00  0.00     0.032 C 
BRANCH   4   5
ATOM      5  C   UNL     1       2.032  47.605  14.940  1.00  0.00     0.034 C 
BRANCH   5   6
ATOM      6  C   UNL     1       2.782  47.412  16.244  1.00  0.00    -0.077 C 
ATOM      7  C   UNL     1       4.007  46.532  16.249  1.00  0.00     0.039 C 
ATOM      8  C   UNL     1       2.372  47.929  17.429  1.00  0.00    -0.023 CG0
ATOM      9  G   UNL     1       1.214  48.882  17.669  1.00  0.00     0.000 G0
ENDBRANCH   5   6
ENDBRANCH   4   5
ENDBRANCH   2   4
BRANCH   1  10
ATOM     10  C   UNL     1      -1.378  46.811  16.249  1.00  0.00     0.111 C 
BRANCH  10  11
ATOM     11  C   UNL     1      -1.159  48.114  16.981  1.00  0.00     0.163 C 
ATOM     12  O   UNL     1      -1.875  49.093  16.637  1.00  0.00    -0.294 OA
BRANCH  11  13
ATOM     13  C   UNL     1      -0.134  48.302  18.061  1.00  0.00    -0.002 C 
ATOM     14  C   UNL     1      -0.461  48.096  19.374  1.00  0.00    -0.069 C 
ATOM     15  C   UNL     1       0.462  48.495  20.503  1.00  0.00     0.039 C 
ATOM     16  C   UNL     1      -1.749  47.407  19.768  1.00  0.00     0.039 C 
BRANCH  13  17
ATOM     17  C   UNL     1       1.211  48.903  17.669  1.00  0.00     0.066 CG0
ATOM     18  G   UNL     1       2.345  47.921  17.424  1.00  0.00     0.000 G0
ENDBRANCH  13  17
ENDBRANCH  11  13
ENDBRANCH  10  11
ENDBRANCH   1  10
TORSDOF 0
ENDMDL
