MODEL 1
REMARK VINA RESULT:    22.459      0.000      0.000
REMARK INTER + INTRA:          28.291
REMARK INTER:                  27.711
REMARK INTRA:                   0.580
REMARK UNBOUND:                 0.580
REMARK SMILES CC(C)=CCC[C@@H](C)c1ccc(C)cc1
REMARK SMILES IDX 6 1 7 2 8 3 9 4 13 5 12 6 11 7 14 8 10 9 15 10 5 11 4 12
REMARK SMILES IDX 2 13 1 14 3 15
REMARK H PARENT
REMARK Flexibility Score: inf
ROOT
ATOM      1  C   UNL     1      81.875 108.107 103.749  1.00  0.00     0.012 C 
ENDROOT
BRANCH   1   2
ATOM      2  C   UNL     1      82.762 106.926 104.207  1.00  0.00     0.016 C 
ATOM      3  C   UNL     1      83.237 106.061 103.028  1.00  0.00     0.013 C 
BRANCH   2   4
ATOM      4  C   UNL     1      83.952 107.434 105.001  1.00  0.00    -0.045 A 
ATOM      5  C   UNL     1      87.333 108.929 107.236  1.00  0.00     0.044 C 
ATOM      6  C   UNL     1      86.151 108.393 106.483  1.00  0.00    -0.051 A 
ATOM      7  C   UNL     1      84.926 109.074 106.513  1.00  0.00     0.004 A 
ATOM      8  C   UNL     1      86.281 107.244 105.689  1.00  0.00     0.004 A 
ATOM      9  C   UNL     1      83.834 108.596 105.782  1.00  0.00     0.004 A 
ATOM     10  C   UNL     1      85.190 106.765 104.958  1.00  0.00     0.004 A 
ENDBRANCH   2   4
ENDBRANCH   1   2
BRANCH   1  11
ATOM     11  C   UNL     1      82.176 108.553 102.311  1.00  0.00     0.028 C 
BRANCH  11  12
ATOM     12  C   UNL     1      83.622 108.305 101.953  1.00  0.00    -0.028 C 
ATOM     13  C   UNL     1      84.620 109.150 102.286  1.00  0.00    -0.080 C 
ATOM     14  C   UNL     1      84.354 110.422 103.055  1.00  0.00     0.039 C 
ATOM     15  C   UNL     1      86.028 108.805 101.876  1.00  0.00     0.039 C 
ENDBRANCH  11  12
ENDBRANCH   1  11
TORSDOF 4
ENDMDL
MODEL 2
REMARK VINA RESULT:    23.260      2.776      5.032
REMARK INTER + INTRA:          29.279
REMARK INTER:                  29.737
REMARK INTRA:                  -0.458
REMARK UNBOUND:                 0.580
REMARK SMILES CC(C)=CCC[C@@H](C)c1ccc(C)cc1
REMARK SMILES IDX 6 1 7 2 8 3 9 4 13 5 12 6 11 7 14 8 10 9 15 10 5 11 4 12
REMARK SMILES IDX 2 13 1 14 3 15
REMARK H PARENT
REMARK Flexibility Score: inf
ROOT
ATOM      1  C   UNL     1      84.906 111.099 102.922  1.00  0.00     0.012 C 
ENDROOT
BRANCH   1   2
ATOM      2  C   UNL     1      83.824 110.435 103.805  1.00  0.00     0.016 C 
ATOM      3  C   UNL     1      82.542 111.279 103.892  1.00  0.00     0.013 C 
BRANCH   2   4
ATOM      4  C   UNL     1      83.504 109.042 103.293  1.00  0.00    -0.045 A 
ATOM      5  C   UNL     1      82.571 105.067 101.883  1.00  0.00     0.044 C 
ATOM      6  C   UNL     1      82.890 106.458 102.345  1.00  0.00    -0.051 A 
ATOM      7  C   UNL     1      81.885 107.270 102.890  1.00  0.00     0.004 A 
ATOM      8  C   UNL     1      84.209 106.932 102.299  1.00  0.00     0.004 A 
ATOM      9  C   UNL     1      82.189 108.553 103.354  1.00  0.00     0.004 A 
ATOM     10  C   UNL     1      84.514 108.215 102.764  1.00  0.00     0.004 A 
ENDBRANCH   2   4
ENDBRANCH   1   2
BRANCH   1  11
ATOM     11  C   UNL     1      84.924 112.628 103.054  1.00  0.00     0.028 C 
BRANCH  11  12
ATOM     12  C   UNL     1      86.314 113.179 102.839  1.00  0.00    -0.028 C 
ATOM     13  C   UNL     1      86.711 114.382 103.306  1.00  0.00    -0.080 C 
ATOM     14  C   UNL     1      85.776 115.273 104.089  1.00  0.00     0.039 C 
ATOM     15  C   UNL     1      88.121 114.835 103.032  1.00  0.00     0.039 C 
ENDBRANCH  11  12
ENDBRANCH   1  11
TORSDOF 4
ENDMDL
MODEL 3
REMARK VINA RESULT:    23.523      1.553      5.563
REMARK INTER + INTRA:          29.603
REMARK INTER:                  29.066
REMARK INTRA:                   0.537
REMARK UNBOUND:                 0.580
REMARK SMILES CC(C)=CCC[C@@H](C)c1ccc(C)cc1
REMARK SMILES IDX 6 1 7 2 8 3 9 4 13 5 12 6 11 7 14 8 10 9 15 10 5 11 4 12
REMARK SMILES IDX 2 13 1 14 3 15
REMARK H PARENT
REMARK Flexibility Score: inf
ROOT
ATOM      1  C   UNL     1      86.983 107.341 105.958  1.00  0.00     0.012 C 
ENDROOT
BRANCH   1   2
ATOM      2  C   UNL     1      85.628 108.025 106.252  1.00  0.00     0.016 C 
ATOM      3  C   UNL     1      85.780 109.529 106.528  1.00  0.00     0.013 C 
BRANCH   2   4
ATOM      4  C   UNL     1      84.660 107.794 105.106  1.00  0.00    -0.045 A 
ATOM      5  C   UNL     1      81.875 107.104 101.876  1.00  0.00     0.044 C 
ATOM      6  C   UNL     1      82.845 107.373 102.989  1.00  0.00    -0.051 A 
ATOM      7  C   UNL     1      82.382 107.776 104.249  1.00  0.00     0.004 A 
ATOM      8  C   UNL     1      84.217 107.155 102.797  1.00  0.00     0.004 A 
ATOM      9  C   UNL     1      83.282 107.990 105.297  1.00  0.00     0.004 A 
ATOM     10  C   UNL     1      85.118 107.369 103.845  1.00  0.00     0.004 A 
ENDBRANCH   2   4
ENDBRANCH   1   2
BRANCH   1  11
ATOM     11  C   UNL     1      88.180 108.143 106.490  1.00  0.00     0.028 C 
BRANCH  11  12
ATOM     12  C   UNL     1      88.100 108.317 107.988  1.00  0.00    -0.028 C 
ATOM     13  C   UNL     1      88.159 109.522 108.594  1.00  0.00    -0.080 C 
ATOM     14  C   UNL     1      88.310 110.798 107.801  1.00  0.00     0.039 C 
ATOM     15  C   UNL     1      88.071 109.581 110.097  1.00  0.00     0.039 C 
ENDBRANCH  11  12
ENDBRANCH   1  11
TORSDOF 4
ENDMDL
MODEL 4
REMARK VINA RESULT:    23.943      2.590      4.067
REMARK INTER + INTRA:          30.121
REMARK INTER:                  30.636
REMARK INTRA:                  -0.515
REMARK UNBOUND:                 0.580
REMARK SMILES CC(C)=CCC[C@@H](C)c1ccc(C)cc1
REMARK SMILES IDX 6 1 7 2 8 3 9 4 13 5 12 6 11 7 14 8 10 9 15 10 5 11 4 12
REMARK SMILES IDX 2 13 1 14 3 15
REMARK H PARENT
REMARK Flexibility Score: inf
ROOT
ATOM      1  C   UNL     1      84.049 111.121 103.064  1.00  0.00     0.012 C 
ENDROOT
BRANCH   1   2
ATOM      2  C   UNL     1      83.968 109.624 102.689  1.00  0.00     0.016 C 
ATOM      3  C   UNL     1      85.201 109.151 101.901  1.00  0.00     0.013 C 
BRANCH   2   4
ATOM      4  C   UNL     1      83.782 108.776 103.934  1.00  0.00    -0.045 A 
ATOM      5  C   UNL     1      83.292 106.330 107.461  1.00  0.00     0.044 C 
ATOM      6  C   UNL     1      83.456 107.204 106.253  1.00  0.00    -0.051 A 
ATOM      7  C   UNL     1      84.717 107.716 105.916  1.00  0.00     0.004 A 
ATOM      8  C   UNL     1      82.362 107.458 105.412  1.00  0.00     0.004 A 
ATOM      9  C   UNL     1      84.877 108.500 104.770  1.00  0.00     0.004 A 
ATOM     10  C   UNL     1      82.522 108.242 104.265  1.00  0.00     0.004 A 
ENDBRANCH   2   4
ENDBRANCH   1   2
BRANCH   1  11
ATOM     11  C   UNL     1      85.357 111.780 102.600  1.00  0.00     0.028 C 
BRANCH  11  12
ATOM     12  C   UNL     1      85.491 113.178 103.154  1.00  0.00    -0.028 C 
ATOM     13  C   UNL     1      86.612 113.918 103.025  1.00  0.00    -0.080 C 
ATOM     14  C   UNL     1      87.829 113.388 102.304  1.00  0.00     0.039 C 
ATOM     15  C   UNL     1      86.638 115.303 103.618  1.00  0.00     0.039 C 
ENDBRANCH  11  12
ENDBRANCH   1  11
TORSDOF 4
ENDMDL
MODEL 5
REMARK VINA RESULT:    24.638      2.057      5.672
REMARK INTER + INTRA:          30.980
REMARK INTER:                  31.463
REMARK INTRA:                  -0.484
REMARK UNBOUND:                 0.580
REMARK SMILES CC(C)=CCC[C@@H](C)c1ccc(C)cc1
REMARK SMILES IDX 6 1 7 2 8 3 9 4 13 5 12 6 11 7 14 8 10 9 15 10 5 11 4 12
REMARK SMILES IDX 2 13 1 14 3 15
REMARK H PARENT
REMARK Flexibility Score: inf
ROOT
ATOM      1  C   UNL     1      86.927 107.784 106.287  1.00  0.00     0.012 C 
ENDROOT
BRANCH   1   2
ATOM      2  C   UNL     1      85.510 108.370 106.482  1.00  0.00     0.016 C 
ATOM      3  C   UNL     1      85.533 109.887 106.727  1.00  0.00     0.013 C 
BRANCH   2   4
ATOM      4  C   UNL     1      84.634 108.042 105.286  1.00  0.00    -0.045 A 
ATOM      5  C   UNL     1      82.116 107.072 101.912  1.00  0.00     0.044 C 
ATOM      6  C   UNL     1      82.989 107.438 103.076  1.00  0.00    -0.051 A 
ATOM      7  C   UNL     1      82.421 107.708 104.329  1.00  0.00     0.004 A 
ATOM      8  C   UNL     1      84.384 107.445 102.937  1.00  0.00     0.004 A 
ATOM      9  C   UNL     1      83.235 108.014 105.423  1.00  0.00     0.004 A 
ATOM     10  C   UNL     1      85.201 107.750 104.031  1.00  0.00     0.004 A 
ENDBRANCH   2   4
ENDBRANCH   1   2
BRANCH   1  11
ATOM     11  C   UNL     1      88.008 108.585 107.027  1.00  0.00     0.028 C 
BRANCH  11  12
ATOM     12  C   UNL     1      89.210 107.726 107.338  1.00  0.00    -0.028 C 
ATOM     13  C   UNL     1      90.476 108.100 107.057  1.00  0.00    -0.080 C 
ATOM     14  C   UNL     1      90.781 109.427 106.404  1.00  0.00     0.039 C 
ATOM     15  C   UNL     1      91.602 107.163 107.409  1.00  0.00     0.039 C 
ENDBRANCH  11  12
ENDBRANCH   1  11
TORSDOF 4
ENDMDL
