MODEL 1
REMARK VINA RESULT:    -4.092      0.000      0.000
REMARK INTER + INTRA:         -11.828
REMARK INTER:                 -10.313
REMARK INTRA:                  -1.515
REMARK UNBOUND:                -1.515
REMARK SMILES CCCCCCCCCCCCCCCCCCCCCCCCCCCC(=O)[O-]
REMARK SMILES IDX 15 1 16 2 17 3 18 4 19 5 20 6 21 7 22 8 23 9 24 10 25 11
REMARK SMILES IDX 26 12 27 13 28 14 29 15 30 16 14 17 13 18 12 19 11 20 10 21
REMARK SMILES IDX 9 22 8 23 7 24 6 25 5 26 4 27 3 28 2 29 1 30
REMARK H PARENT
REMARK Flexibility Score: inf
ROOT
ATOM      1  C   UNL     1       3.614  15.950  22.262  1.00  0.00     0.000 C 
ENDROOT
BRANCH   1   2
ATOM      2  C   UNL     1       2.281  16.358  22.914  1.00  0.00     0.000 C 
BRANCH   2   3
ATOM      3  C   UNL     1       1.057  16.252  21.975  1.00  0.00     0.000 C 
BRANCH   3   4
ATOM      4  C   UNL     1      -0.287  16.061  22.704  1.00  0.00     0.000 C 
BRANCH   4   5
ATOM      5  C   UNL     1      -1.436  16.957  22.212  1.00  0.00     0.000 C 
BRANCH   5   6
ATOM      6  C   UNL     1      -2.664  16.158  21.737  1.00  0.00     0.000 C 
BRANCH   6   7
ATOM      7  C   UNL     1      -3.864  16.283  22.694  1.00  0.00     0.000 C 
BRANCH   7   8
ATOM      8  C   UNL     1      -5.235  16.377  22.001  1.00  0.00     0.000 C 
BRANCH   8   9
ATOM      9  C   UNL     1      -5.611  15.091  21.245  1.00  0.00     0.000 C 
BRANCH   9  10
ATOM     10  C   UNL     1      -7.108  14.751  21.349  1.00  0.00     0.000 C 
BRANCH  10  11
ATOM     11  C   UNL     1      -7.855  15.469  22.487  1.00  0.00     0.000 C 
BRANCH  11  12
ATOM     12  C   UNL     1      -9.108  16.217  22.001  1.00  0.00     0.006 C 
BRANCH  12  13
ATOM     13  C   UNL     1      -8.959  17.741  22.118  1.00  0.00     0.053 C 
BRANCH  13  14
ATOM     14  C   UNL     1      -8.857  18.398  20.775  1.00  0.00     0.041 C 
ATOM     15  O   UNL     1      -8.742  19.650  20.689  1.00  0.00    -0.550 OA
ATOM     16  O   UNL     1      -8.947  17.635  19.618  1.00  0.00    -0.550 OA
ENDBRANCH  13  14
ENDBRANCH  12  13
ENDBRANCH  11  12
ENDBRANCH  10  11
ENDBRANCH   9  10
ENDBRANCH   8   9
ENDBRANCH   7   8
ENDBRANCH   6   7
ENDBRANCH   5   6
ENDBRANCH   4   5
ENDBRANCH   3   4
ENDBRANCH   2   3
ENDBRANCH   1   2
BRANCH   1  17
ATOM     17  C   UNL     1       3.987  16.836  21.060  1.00  0.00     0.000 C 
BRANCH  17  18
ATOM     18  C   UNL     1       5.505  16.970  20.877  1.00  0.00     0.000 C 
BRANCH  18  19
ATOM     19  C   UNL     1       6.293  15.906  21.667  1.00  0.00     0.000 C 
BRANCH  19  20
ATOM     20  C   UNL     1       7.683  16.400  22.096  1.00  0.00     0.000 C 
BRANCH  20  21
ATOM     21  C   UNL     1       8.421  17.141  20.969  1.00  0.00     0.000 C 
BRANCH  21  22
ATOM     22  C   UNL     1       9.652  16.373  20.457  1.00  0.00    -0.000 C 
BRANCH  22  23
ATOM     23  C   UNL     1      10.317  15.491  21.537  1.00  0.00    -0.000 C 
BRANCH  23  24
ATOM     24  C   UNL     1      11.125  14.334  20.922  1.00  0.00    -0.000 C 
BRANCH  24  25
ATOM     25  C   UNL     1      10.246  13.391  20.069  1.00  0.00    -0.000 C 
BRANCH  25  26
ATOM     26  C   UNL     1      11.052  12.449  19.160  1.00  0.00    -0.000 C 
BRANCH  26  27
ATOM     27  C   UNL     1      10.273  12.013  17.908  1.00  0.00    -0.000 C 
BRANCH  27  28
ATOM     28  C   UNL     1      10.004  10.493  17.888  1.00  0.00    -0.000 C 
BRANCH  28  29
ATOM     29  C   UNL     1      10.540   9.755  19.126  1.00  0.00    -0.003 C 
ATOM     30  C   UNL     1      11.125   8.382  18.797  1.00  0.00     0.004 C 
ENDBRANCH  28  29
ENDBRANCH  27  28
ENDBRANCH  26  27
ENDBRANCH  25  26
ENDBRANCH  24  25
ENDBRANCH  23  24
ENDBRANCH  22  23
ENDBRANCH  21  22
ENDBRANCH  20  21
ENDBRANCH  19  20
ENDBRANCH  18  19
ENDBRANCH  17  18
ENDBRANCH   1  17
TORSDOF 26
ENDMDL
MODEL 2
REMARK VINA RESULT:    -3.978      5.557     15.223
REMARK INTER + INTRA:         -11.540
REMARK INTER:                  -9.467
REMARK INTRA:                  -2.072
REMARK UNBOUND:                -1.515
REMARK SMILES CCCCCCCCCCCCCCCCCCCCCCCCCCCC(=O)[O-]
REMARK SMILES IDX 15 1 16 2 17 3 18 4 19 5 20 6 21 7 22 8 23 9 24 10 25 11
REMARK SMILES IDX 26 12 27 13 28 14 29 15 30 16 14 17 13 18 12 19 11 20 10 21
REMARK SMILES IDX 9 22 8 23 7 24 6 25 5 26 4 27 3 28 2 29 1 30
REMARK H PARENT
REMARK Flexibility Score: inf
ROOT
ATOM      1  C   UNL     1       1.858  15.939  21.632  1.00  0.00     0.000 C 
ENDROOT
BRANCH   1   2
ATOM      2  C   UNL     1       3.122  16.589  22.225  1.00  0.00     0.000 C 
BRANCH   2   3
ATOM      3  C   UNL     1       3.994  15.629  23.065  1.00  0.00     0.000 C 
BRANCH   3   4
ATOM      4  C   UNL     1       4.666  14.506  22.250  1.00  0.00     0.000 C 
BRANCH   4   5
ATOM      5  C   UNL     1       5.166  13.305  23.070  1.00  0.00     0.000 C 
BRANCH   5   6
ATOM      6  C   UNL     1       6.693  13.119  23.000  1.00  0.00     0.000 C 
BRANCH   6   7
ATOM      7  C   UNL     1       7.377  14.150  22.082  1.00  0.00     0.000 C 
BRANCH   7   8
ATOM      8  C   UNL     1       7.975  15.367  22.811  1.00  0.00     0.000 C 
BRANCH   8   9
ATOM      9  C   UNL     1       7.761  16.684  22.045  1.00  0.00     0.000 C 
BRANCH   9  10
ATOM     10  C   UNL     1       8.444  16.692  20.666  1.00  0.00     0.000 C 
BRANCH  10  11
ATOM     11  C   UNL     1       9.681  17.602  20.564  1.00  0.00     0.000 C 
BRANCH  11  12
ATOM     12  C   UNL     1      10.979  16.820  20.297  1.00  0.00     0.006 C 
BRANCH  12  13
ATOM     13  C   UNL     1      10.974  15.438  20.965  1.00  0.00     0.053 C 
BRANCH  13  14
ATOM     14  C   UNL     1      10.948  14.330  19.958  1.00  0.00     0.041 C 
ATOM     15  O   UNL     1      10.755  14.585  18.739  1.00  0.00    -0.550 OA
ATOM     16  O   UNL     1      11.077  13.009  20.371  1.00  0.00    -0.550 OA
ENDBRANCH  13  14
ENDBRANCH  12  13
ENDBRANCH  11  12
ENDBRANCH  10  11
ENDBRANCH   9  10
ENDBRANCH   8   9
ENDBRANCH   7   8
ENDBRANCH   6   7
ENDBRANCH   5   6
ENDBRANCH   4   5
ENDBRANCH   3   4
ENDBRANCH   2   3
ENDBRANCH   1   2
BRANCH   1  17
ATOM     17  C   UNL     1       0.569  16.371  22.355  1.00  0.00     0.000 C 
BRANCH  17  18
ATOM     18  C   UNL     1      -0.672  15.636  21.829  1.00  0.00     0.000 C 
BRANCH  18  19
ATOM     19  C   UNL     1      -1.754  16.600  21.304  1.00  0.00     0.000 C 
BRANCH  19  20
ATOM     20  C   UNL     1      -2.645  17.153  22.426  1.00  0.00     0.000 C 
BRANCH  20  21
ATOM     21  C   UNL     1      -3.465  16.056  23.125  1.00  0.00     0.000 C 
BRANCH  21  22
ATOM     22  C   UNL     1      -4.949  16.069  22.716  1.00  0.00    -0.000 C 
BRANCH  22  23
ATOM     23  C   UNL     1      -5.187  15.615  21.260  1.00  0.00    -0.000 C 
BRANCH  23  24
ATOM     24  C   UNL     1      -6.619  15.093  21.043  1.00  0.00    -0.000 C 
BRANCH  24  25
ATOM     25  C   UNL     1      -7.467  15.150  22.334  1.00  0.00    -0.000 C 
BRANCH  25  26
ATOM     26  C   UNL     1      -8.817  15.865  22.154  1.00  0.00    -0.000 C 
BRANCH  26  27
ATOM     27  C   UNL     1      -8.847  17.258  22.804  1.00  0.00    -0.000 C 
BRANCH  27  28
ATOM     28  C   UNL     1      -7.977  18.278  22.039  1.00  0.00    -0.000 C 
BRANCH  28  29
ATOM     29  C   UNL     1      -8.739  19.041  20.943  1.00  0.00    -0.003 C 
ATOM     30  C   UNL     1      -8.362  18.596  19.531  1.00  0.00     0.004 C 
ENDBRANCH  28  29
ENDBRANCH  27  28
ENDBRANCH  26  27
ENDBRANCH  25  26
ENDBRANCH  24  25
ENDBRANCH  23  24
ENDBRANCH  22  23
ENDBRANCH  21  22
ENDBRANCH  20  21
ENDBRANCH  19  20
ENDBRANCH  18  19
ENDBRANCH  17  18
ENDBRANCH   1  17
TORSDOF 26
ENDMDL
MODEL 3
REMARK VINA RESULT:    -3.874      5.289     15.459
REMARK INTER + INTRA:         -11.277
REMARK INTER:                  -9.221
REMARK INTRA:                  -2.056
REMARK UNBOUND:                -1.515
REMARK SMILES CCCCCCCCCCCCCCCCCCCCCCCCCCCC(=O)[O-]
REMARK SMILES IDX 15 1 16 2 17 3 18 4 19 5 20 6 21 7 22 8 23 9 24 10 25 11
REMARK SMILES IDX 26 12 27 13 28 14 29 15 30 16 14 17 13 18 12 19 11 20 10 21
REMARK SMILES IDX 9 22 8 23 7 24 6 25 5 26 4 27 3 28 2 29 1 30
REMARK H PARENT
REMARK Flexibility Score: inf
ROOT
ATOM      1  C   UNL     1      -0.189  15.798  21.567  1.00  0.00     0.000 C 
ENDROOT
BRANCH   1   2
ATOM      2  C   UNL     1       0.432  16.460  22.810  1.00  0.00     0.000 C 
BRANCH   2   3
ATOM      3  C   UNL     1       1.902  16.060  23.073  1.00  0.00     0.000 C 
BRANCH   3   4
ATOM      4  C   UNL     1       2.688  15.668  21.807  1.00  0.00     0.000 C 
BRANCH   4   5
ATOM      5  C   UNL     1       4.029  16.397  21.612  1.00  0.00     0.000 C 
BRANCH   5   6
ATOM      6  C   UNL     1       5.076  16.033  22.681  1.00  0.00     0.000 C 
BRANCH   6   7
ATOM      7  C   UNL     1       6.022  14.906  22.230  1.00  0.00     0.000 C 
BRANCH   7   8
ATOM      8  C   UNL     1       7.511  15.295  22.177  1.00  0.00     0.000 C 
BRANCH   8   9
ATOM      9  C   UNL     1       7.725  16.802  21.955  1.00  0.00     0.000 C 
BRANCH   9  10
ATOM     10  C   UNL     1       8.463  17.114  20.641  1.00  0.00     0.000 C 
BRANCH  10  11
ATOM     11  C   UNL     1       9.921  17.573  20.813  1.00  0.00     0.000 C 
BRANCH  11  12
ATOM     12  C   UNL     1      10.940  16.469  20.479  1.00  0.00     0.006 C 
BRANCH  12  13
ATOM     13  C   UNL     1      10.354  15.398  19.549  1.00  0.00     0.053 C 
BRANCH  13  14
ATOM     14  C   UNL     1      10.289  14.056  20.211  1.00  0.00     0.041 C 
ATOM     15  O   UNL     1       9.440  13.204  19.834  1.00  0.00    -0.550 OA
ATOM     16  O   UNL     1      11.125  13.766  21.282  1.00  0.00    -0.550 OA
ENDBRANCH  13  14
ENDBRANCH  12  13
ENDBRANCH  11  12
ENDBRANCH  10  11
ENDBRANCH   9  10
ENDBRANCH   8   9
ENDBRANCH   7   8
ENDBRANCH   6   7
ENDBRANCH   5   6
ENDBRANCH   4   5
ENDBRANCH   3   4
ENDBRANCH   2   3
ENDBRANCH   1   2
BRANCH   1  17
ATOM     17  C   UNL     1      -1.690  16.104  21.415  1.00  0.00     0.000 C 
BRANCH  17  18
ATOM     18  C   UNL     1      -2.337  16.540  22.737  1.00  0.00     0.000 C 
BRANCH  18  19
ATOM     19  C   UNL     1      -3.766  17.085  22.547  1.00  0.00     0.000 C 
BRANCH  19  20
ATOM     20  C   UNL     1      -4.831  15.980  22.602  1.00  0.00     0.000 C 
BRANCH  20  21
ATOM     21  C   UNL     1      -5.056  15.308  21.237  1.00  0.00     0.000 C 
BRANCH  21  22
ATOM     22  C   UNL     1      -6.537  15.289  20.820  1.00  0.00    -0.000 C 
BRANCH  22  23
ATOM     23  C   UNL     1      -7.446  14.540  21.819  1.00  0.00    -0.000 C 
BRANCH  23  24
ATOM     24  C   UNL     1      -8.696  15.358  22.190  1.00  0.00    -0.000 C 
BRANCH  24  25
ATOM     25  C   UNL     1      -8.365  16.545  23.123  1.00  0.00    -0.000 C 
BRANCH  25  26
ATOM     26  C   UNL     1      -8.980  17.878  22.667  1.00  0.00    -0.000 C 
BRANCH  26  27
ATOM     27  C   UNL     1      -7.945  18.834  22.050  1.00  0.00    -0.000 C 
BRANCH  27  28
ATOM     28  C   UNL     1      -7.460  18.355  20.666  1.00  0.00    -0.000 C 
BRANCH  28  29
ATOM     29  C   UNL     1      -8.560  18.355  19.591  1.00  0.00    -0.003 C 
ATOM     30  C   UNL     1      -8.805  19.736  18.986  1.00  0.00     0.004 C 
ENDBRANCH  28  29
ENDBRANCH  27  28
ENDBRANCH  26  27
ENDBRANCH  25  26
ENDBRANCH  24  25
ENDBRANCH  23  24
ENDBRANCH  22  23
ENDBRANCH  21  22
ENDBRANCH  20  21
ENDBRANCH  19  20
ENDBRANCH  18  19
ENDBRANCH  17  18
ENDBRANCH   1  17
TORSDOF 26
ENDMDL
MODEL 4
REMARK VINA RESULT:    -3.793      1.729      2.706
REMARK INTER + INTRA:         -11.074
REMARK INTER:                  -9.892
REMARK INTRA:                  -1.182
REMARK UNBOUND:                -1.515
REMARK SMILES CCCCCCCCCCCCCCCCCCCCCCCCCCCC(=O)[O-]
REMARK SMILES IDX 15 1 16 2 17 3 18 4 19 5 20 6 21 7 22 8 23 9 24 10 25 11
REMARK SMILES IDX 26 12 27 13 28 14 29 15 30 16 14 17 13 18 12 19 11 20 10 21
REMARK SMILES IDX 9 22 8 23 7 24 6 25 5 26 4 27 3 28 2 29 1 30
REMARK H PARENT
REMARK Flexibility Score: inf
ROOT
ATOM      1  C   UNL     1       5.546  14.754  22.451  1.00  0.00     0.000 C 
ENDROOT
BRANCH   1   2
ATOM      2  C   UNL     1       4.143  15.076  22.998  1.00  0.00     0.000 C 
BRANCH   2   3
ATOM      3  C   UNL     1       3.308  16.007  22.091  1.00  0.00     0.000 C 
BRANCH   3   4
ATOM      4  C   UNL     1       1.928  16.382  22.666  1.00  0.00     0.000 C 
BRANCH   4   5
ATOM      5  C   UNL     1       0.722  15.985  21.796  1.00  0.00     0.000 C 
BRANCH   5   6
ATOM      6  C   UNL     1      -0.619  16.497  22.354  1.00  0.00     0.000 C 
BRANCH   6   7
ATOM      7  C   UNL     1      -1.828  16.023  21.527  1.00  0.00     0.000 C 
BRANCH   7   8
ATOM      8  C   UNL     1      -3.164  15.999  22.291  1.00  0.00     0.000 C 
BRANCH   8   9
ATOM      9  C   UNL     1      -4.340  15.521  21.421  1.00  0.00     0.000 C 
BRANCH   9  10
ATOM     10  C   UNL     1      -5.686  15.548  22.166  1.00  0.00     0.000 C 
BRANCH  10  11
ATOM     11  C   UNL     1      -6.819  14.765  21.481  1.00  0.00     0.000 C 
BRANCH  11  12
ATOM     12  C   UNL     1      -8.148  15.539  21.447  1.00  0.00     0.006 C 
BRANCH  12  13
ATOM     13  C   UNL     1      -8.058  16.813  20.595  1.00  0.00     0.053 C 
BRANCH  13  14
ATOM     14  C   UNL     1      -8.719  17.981  21.261  1.00  0.00     0.041 C 
ATOM     15  O   UNL     1      -9.124  17.885  22.451  1.00  0.00    -0.550 OA
ATOM     16  O   UNL     1      -8.941  19.154  20.552  1.00  0.00    -0.550 OA
ENDBRANCH  13  14
ENDBRANCH  12  13
ENDBRANCH  11  12
ENDBRANCH  10  11
ENDBRANCH   9  10
ENDBRANCH   8   9
ENDBRANCH   7   8
ENDBRANCH   6   7
ENDBRANCH   5   6
ENDBRANCH   4   5
ENDBRANCH   3   4
ENDBRANCH   2   3
ENDBRANCH   1   2
BRANCH   1  17
ATOM     17  C   UNL     1       6.527  15.930  22.594  1.00  0.00     0.000 C 
BRANCH  17  18
ATOM     18  C   UNL     1       7.814  15.723  21.783  1.00  0.00     0.000 C 
BRANCH  18  19
ATOM     19  C   UNL     1       8.441  17.051  21.315  1.00  0.00     0.000 C 
BRANCH  19  20
ATOM     20  C   UNL     1       9.893  16.884  20.843  1.00  0.00     0.000 C 
BRANCH  20  21
ATOM     21  C   UNL     1      10.000  16.082  19.535  1.00  0.00     0.000 C 
BRANCH  21  22
ATOM     22  C   UNL     1      10.951  14.878  19.651  1.00  0.00    -0.000 C 
BRANCH  22  23
ATOM     23  C   UNL     1      10.279  13.621  20.244  1.00  0.00    -0.000 C 
BRANCH  23  24
ATOM     24  C   UNL     1      11.125  12.354  20.023  1.00  0.00    -0.000 C 
BRANCH  24  25
ATOM     25  C   UNL     1      10.647  11.169  20.892  1.00  0.00    -0.000 C 
BRANCH  25  26
ATOM     26  C   UNL     1      10.832   9.797  20.222  1.00  0.00    -0.000 C 
BRANCH  26  27
ATOM     27  C   UNL     1       9.757   8.779  20.637  1.00  0.00    -0.000 C 
BRANCH  27  28
ATOM     28  C   UNL     1       9.682   8.600  22.168  1.00  0.00    -0.000 C 
BRANCH  28  29
ATOM     29  C   UNL     1       8.253   8.689  22.731  1.00  0.00    -0.003 C 
ATOM     30  C   UNL     1       7.791  10.127  22.964  1.00  0.00     0.004 C 
ENDBRANCH  28  29
ENDBRANCH  27  28
ENDBRANCH  26  27
ENDBRANCH  25  26
ENDBRANCH  24  25
ENDBRANCH  23  24
ENDBRANCH  22  23
ENDBRANCH  21  22
ENDBRANCH  20  21
ENDBRANCH  19  20
ENDBRANCH  18  19
ENDBRANCH  17  18
ENDBRANCH   1  17
TORSDOF 26
ENDMDL
MODEL 5
REMARK VINA RESULT:    -3.730      1.126      2.173
REMARK INTER + INTRA:         -10.915
REMARK INTER:                  -9.384
REMARK INTRA:                  -1.531
REMARK UNBOUND:                -1.515
REMARK SMILES CCCCCCCCCCCCCCCCCCCCCCCCCCCC(=O)[O-]
REMARK SMILES IDX 15 1 16 2 17 3 18 4 19 5 20 6 21 7 22 8 23 9 24 10 25 11
REMARK SMILES IDX 26 12 27 13 28 14 29 15 30 16 14 17 13 18 12 19 11 20 10 21
REMARK SMILES IDX 9 22 8 23 7 24 6 25 5 26 4 27 3 28 2 29 1 30
REMARK H PARENT
REMARK Flexibility Score: inf
ROOT
ATOM      1  C   UNL     1       5.099  15.342  22.040  1.00  0.00     0.000 C 
ENDROOT
BRANCH   1   2
ATOM      2  C   UNL     1       4.697  16.632  21.302  1.00  0.00     0.000 C 
BRANCH   2   3
ATOM      3  C   UNL     1       3.249  17.096  21.579  1.00  0.00     0.000 C 
BRANCH   3   4
ATOM      4  C   UNL     1       2.387  16.067  22.335  1.00  0.00     0.000 C 
BRANCH   4   5
ATOM      5  C   UNL     1       1.066  15.682  21.648  1.00  0.00     0.000 C 
BRANCH   5   6
ATOM      6  C   UNL     1      -0.073  16.680  21.929  1.00  0.00     0.000 C 
BRANCH   6   7
ATOM      7  C   UNL     1      -1.421  15.985  22.200  1.00  0.00     0.000 C 
BRANCH   7   8
ATOM      8  C   UNL     1      -2.524  16.908  22.749  1.00  0.00     0.000 C 
BRANCH   8   9
ATOM      9  C   UNL     1      -3.809  16.146  23.118  1.00  0.00     0.000 C 
BRANCH   9  10
ATOM     10  C   UNL     1      -4.973  16.435  22.154  1.00  0.00     0.000 C 
BRANCH  10  11
ATOM     11  C   UNL     1      -5.683  15.184  21.607  1.00  0.00     0.000 C 
BRANCH  11  12
ATOM     12  C   UNL     1      -7.203  15.373  21.460  1.00  0.00     0.006 C 
BRANCH  12  13
ATOM     13  C   UNL     1      -7.557  16.623  20.642  1.00  0.00     0.053 C 
BRANCH  13  14
ATOM     14  C   UNL     1      -8.269  17.650  21.468  1.00  0.00     0.041 C 
ATOM     15  O   UNL     1      -8.474  18.804  21.005  1.00  0.00    -0.550 OA
ATOM     16  O   UNL     1      -8.655  17.352  22.769  1.00  0.00    -0.550 OA
ENDBRANCH  13  14
ENDBRANCH  12  13
ENDBRANCH  11  12
ENDBRANCH  10  11
ENDBRANCH   9  10
ENDBRANCH   8   9
ENDBRANCH   7   8
ENDBRANCH   6   7
ENDBRANCH   5   6
ENDBRANCH   4   5
ENDBRANCH   3   4
ENDBRANCH   2   3
ENDBRANCH   1   2
BRANCH   1  17
ATOM     17  C   UNL     1       6.622  15.207  22.219  1.00  0.00     0.000 C 
BRANCH  17  18
ATOM     18  C   UNL     1       7.217  16.343  23.061  1.00  0.00     0.000 C 
BRANCH  18  19
ATOM     19  C   UNL     1       8.170  17.245  22.252  1.00  0.00     0.000 C 
BRANCH  19  20
ATOM     20  C   UNL     1       8.319  16.785  20.794  1.00  0.00     0.000 C 
BRANCH  20  21
ATOM     21  C   UNL     1       9.710  17.093  20.216  1.00  0.00     0.000 C 
BRANCH  21  22
ATOM     22  C   UNL     1      10.604  15.844  20.116  1.00  0.00    -0.000 C 
BRANCH  22  23
ATOM     23  C   UNL     1      10.524  14.933  21.360  1.00  0.00    -0.000 C 
BRANCH  23  24
ATOM     24  C   UNL     1       9.656  13.686  21.109  1.00  0.00    -0.000 C 
BRANCH  24  25
ATOM     25  C   UNL     1      10.394  12.614  20.277  1.00  0.00    -0.000 C 
BRANCH  25  26
ATOM     26  C   UNL     1      10.017  12.622  18.786  1.00  0.00    -0.000 C 
BRANCH  26  27
ATOM     27  C   UNL     1      10.448  11.341  18.052  1.00  0.00    -0.000 C 
BRANCH  27  28
ATOM     28  C   UNL     1      11.001  10.273  19.019  1.00  0.00    -0.000 C 
BRANCH  28  29
ATOM     29  C   UNL     1      10.345   8.891  18.853  1.00  0.00    -0.003 C 
ATOM     30  C   UNL     1       9.211   8.887  17.829  1.00  0.00     0.004 C 
ENDBRANCH  28  29
ENDBRANCH  27  28
ENDBRANCH  26  27
ENDBRANCH  25  26
ENDBRANCH  24  25
ENDBRANCH  23  24
ENDBRANCH  22  23
ENDBRANCH  21  22
ENDBRANCH  20  21
ENDBRANCH  19  20
ENDBRANCH  18  19
ENDBRANCH  17  18
ENDBRANCH   1  17
TORSDOF 26
ENDMDL
MODEL 6
REMARK VINA RESULT:    -3.564      1.838      3.507
REMARK INTER + INTRA:         -10.496
REMARK INTER:                  -8.842
REMARK INTRA:                  -1.654
REMARK UNBOUND:                -1.515
REMARK SMILES CCCCCCCCCCCCCCCCCCCCCCCCCCCC(=O)[O-]
REMARK SMILES IDX 15 1 16 2 17 3 18 4 19 5 20 6 21 7 22 8 23 9 24 10 25 11
REMARK SMILES IDX 26 12 27 13 28 14 29 15 30 16 14 17 13 18 12 19 11 20 10 21
REMARK SMILES IDX 9 22 8 23 7 24 6 25 5 26 4 27 3 28 2 29 1 30
REMARK H PARENT
REMARK Flexibility Score: inf
ROOT
ATOM      1  C   UNL     1       0.520  15.639  21.600  1.00  0.00     0.000 C 
ENDROOT
BRANCH   1   2
ATOM      2  C   UNL     1      -1.010  15.627  21.425  1.00  0.00     0.000 C 
BRANCH   2   3
ATOM      3  C   UNL     1      -1.732  16.826  22.080  1.00  0.00     0.000 C 
BRANCH   3   4
ATOM      4  C   UNL     1      -3.038  16.458  22.810  1.00  0.00     0.000 C 
BRANCH   4   5
ATOM      5  C   UNL     1      -4.303  16.452  21.934  1.00  0.00     0.000 C 
BRANCH   5   6
ATOM      6  C   UNL     1      -5.552  15.949  22.681  1.00  0.00     0.000 C 
BRANCH   6   7
ATOM      7  C   UNL     1      -6.668  15.482  21.728  1.00  0.00     0.000 C 
BRANCH   7   8
ATOM      8  C   UNL     1      -7.255  16.586  20.830  1.00  0.00     0.000 C 
BRANCH   8   9
ATOM      9  C   UNL     1      -8.674  17.006  21.253  1.00  0.00     0.000 C 
BRANCH   9  10
ATOM     10  C   UNL     1      -8.677  18.035  22.397  1.00  0.00     0.000 C 
BRANCH  10  11
ATOM     11  C   UNL     1      -7.520  19.048  22.357  1.00  0.00     0.000 C 
BRANCH  11  12
ATOM     12  C   UNL     1      -7.963  20.478  22.715  1.00  0.00     0.006 C 
BRANCH  12  13
ATOM     13  C   UNL     1      -8.847  21.102  21.626  1.00  0.00     0.053 C 
BRANCH  13  14
ATOM     14  C   UNL     1      -8.403  22.488  21.271  1.00  0.00     0.041 C 
ATOM     15  O   UNL     1      -8.141  23.322  22.179  1.00  0.00    -0.550 OA
ATOM     16  O   UNL     1      -8.335  22.878  19.939  1.00  0.00    -0.550 OA
ENDBRANCH  13  14
ENDBRANCH  12  13
ENDBRANCH  11  12
ENDBRANCH  10  11
ENDBRANCH   9  10
ENDBRANCH   8   9
ENDBRANCH   7   8
ENDBRANCH   6   7
ENDBRANCH   5   6
ENDBRANCH   4   5
ENDBRANCH   3   4
ENDBRANCH   2   3
ENDBRANCH   1   2
BRANCH   1  17
ATOM     17  C   UNL     1       0.954  15.991  23.034  1.00  0.00     0.000 C 
BRANCH  17  18
ATOM     18  C   UNL     1       2.434  16.392  23.118  1.00  0.00     0.000 C 
BRANCH  18  19
ATOM     19  C   UNL     1       3.121  16.413  21.739  1.00  0.00     0.000 C 
BRANCH  19  20
ATOM     20  C   UNL     1       4.653  16.440  21.845  1.00  0.00     0.000 C 
BRANCH  20  21
ATOM     21  C   UNL     1       5.182  15.577  23.002  1.00  0.00     0.000 C 
BRANCH  21  22
ATOM     22  C   UNL     1       6.702  15.350  22.931  1.00  0.00    -0.000 C 
BRANCH  22  23
ATOM     23  C   UNL     1       7.108  14.221  21.960  1.00  0.00    -0.000 C 
BRANCH  23  24
ATOM     24  C   UNL     1       8.542  13.724  22.217  1.00  0.00    -0.000 C 
BRANCH  24  25
ATOM     25  C   UNL     1       9.600  14.817  21.941  1.00  0.00    -0.000 C 
BRANCH  25  26
ATOM     26  C   UNL     1      10.862  14.290  21.237  1.00  0.00    -0.000 C 
BRANCH  26  27
ATOM     27  C   UNL     1      11.119  14.971  19.883  1.00  0.00    -0.000 C 
BRANCH  27  28
ATOM     28  C   UNL     1      10.673  14.094  18.694  1.00  0.00    -0.000 C 
BRANCH  28  29
ATOM     29  C   UNL     1      10.519  12.605  19.048  1.00  0.00    -0.003 C 
ATOM     30  C   UNL     1      10.426  11.704  17.818  1.00  0.00     0.004 C 
ENDBRANCH  28  29
ENDBRANCH  27  28
ENDBRANCH  26  27
ENDBRANCH  25  26
ENDBRANCH  24  25
ENDBRANCH  23  24
ENDBRANCH  22  23
ENDBRANCH  21  22
ENDBRANCH  20  21
ENDBRANCH  19  20
ENDBRANCH  18  19
ENDBRANCH  17  18
ENDBRANCH   1  17
TORSDOF 26
ENDMDL
MODEL 7
REMARK VINA RESULT:    -3.374      5.539     16.069
REMARK INTER + INTRA:         -10.018
REMARK INTER:                  -8.768
REMARK INTRA:                  -1.250
REMARK UNBOUND:                -1.515
REMARK SMILES CCCCCCCCCCCCCCCCCCCCCCCCCCCC(=O)[O-]
REMARK SMILES IDX 15 1 16 2 17 3 18 4 19 5 20 6 21 7 22 8 23 9 24 10 25 11
REMARK SMILES IDX 26 12 27 13 28 14 29 15 30 16 14 17 13 18 12 19 11 20 10 21
REMARK SMILES IDX 9 22 8 23 7 24 6 25 5 26 4 27 3 28 2 29 1 30
REMARK H PARENT
REMARK Flexibility Score: inf
ROOT
ATOM      1  C   UNL     1      -1.063  16.953  21.784  1.00  0.00     0.000 C 
ENDROOT
BRANCH   1   2
ATOM      2  C   UNL     1      -0.016  15.828  21.691  1.00  0.00     0.000 C 
BRANCH   2   3
ATOM      3  C   UNL     1       1.159  15.973  22.684  1.00  0.00     0.000 C 
BRANCH   3   4
ATOM      4  C   UNL     1       2.512  16.301  22.023  1.00  0.00     0.000 C 
BRANCH   4   5
ATOM      5  C   UNL     1       3.755  15.990  22.874  1.00  0.00     0.000 C 
BRANCH   5   6
ATOM      6  C   UNL     1       4.927  15.426  22.049  1.00  0.00     0.000 C 
BRANCH   6   7
ATOM      7  C   UNL     1       6.292  15.641  22.729  1.00  0.00     0.000 C 
BRANCH   7   8
ATOM      8  C   UNL     1       7.290  14.483  22.553  1.00  0.00     0.000 C 
BRANCH   8   9
ATOM      9  C   UNL     1       8.719  14.968  22.253  1.00  0.00     0.000 C 
BRANCH   9  10
ATOM     10  C   UNL     1       9.267  14.428  20.921  1.00  0.00     0.000 C 
BRANCH  10  11
ATOM     11  C   UNL     1       9.502  12.908  20.889  1.00  0.00     0.000 C 
BRANCH  11  12
ATOM     12  C   UNL     1      10.975  12.534  20.644  1.00  0.00     0.006 C 
BRANCH  12  13
ATOM     13  C   UNL     1      11.125  11.402  19.617  1.00  0.00     0.053 C 
BRANCH  13  14
ATOM     14  C   UNL     1      10.651  11.814  18.257  1.00  0.00     0.041 C 
ATOM     15  O   UNL     1      11.125  12.843  17.705  1.00  0.00    -0.550 OA
ATOM     16  O   UNL     1       9.644  11.097  17.623  1.00  0.00    -0.550 OA
ENDBRANCH  13  14
ENDBRANCH  12  13
ENDBRANCH  11  12
ENDBRANCH  10  11
ENDBRANCH   9  10
ENDBRANCH   8   9
ENDBRANCH   7   8
ENDBRANCH   6   7
ENDBRANCH   5   6
ENDBRANCH   4   5
ENDBRANCH   3   4
ENDBRANCH   2   3
ENDBRANCH   1   2
BRANCH   1  17
ATOM     17  C   UNL     1      -1.819  16.955  23.125  1.00  0.00     0.000 C 
BRANCH  17  18
ATOM     18  C   UNL     1      -3.301  17.323  22.963  1.00  0.00     0.000 C 
BRANCH  18  19
ATOM     19  C   UNL     1      -4.211  16.084  22.849  1.00  0.00     0.000 C 
BRANCH  19  20
ATOM     20  C   UNL     1      -4.369  15.601  21.400  1.00  0.00     0.000 C 
BRANCH  20  21
ATOM     21  C   UNL     1      -5.772  15.043  21.113  1.00  0.00     0.000 C 
BRANCH  21  22
ATOM     22  C   UNL     1      -6.815  15.487  22.154  1.00  0.00    -0.000 C 
BRANCH  22  23
ATOM     23  C   UNL     1      -8.270  15.383  21.647  1.00  0.00    -0.000 C 
BRANCH  23  24
ATOM     24  C   UNL     1      -9.110  16.609  22.047  1.00  0.00    -0.000 C 
BRANCH  24  25
ATOM     25  C   UNL     1      -8.262  17.708  22.726  1.00  0.00    -0.000 C 
BRANCH  25  26
ATOM     26  C   UNL     1      -9.070  18.954  23.124  1.00  0.00    -0.000 C 
BRANCH  26  27
ATOM     27  C   UNL     1      -8.888  20.124  22.142  1.00  0.00    -0.000 C 
BRANCH  27  28
ATOM     28  C   UNL     1      -8.129  21.307  22.779  1.00  0.00    -0.000 C 
BRANCH  28  29
ATOM     29  C   UNL     1      -7.818  22.445  21.791  1.00  0.00    -0.003 C 
ATOM     30  C   UNL     1      -6.681  23.351  22.260  1.00  0.00     0.004 C 
ENDBRANCH  28  29
ENDBRANCH  27  28
ENDBRANCH  26  27
ENDBRANCH  25  26
ENDBRANCH  24  25
ENDBRANCH  23  24
ENDBRANCH  22  23
ENDBRANCH  21  22
ENDBRANCH  20  21
ENDBRANCH  19  20
ENDBRANCH  18  19
ENDBRANCH  17  18
ENDBRANCH   1  17
TORSDOF 26
ENDMDL
MODEL 8
REMARK VINA RESULT:    -3.343      5.588     15.484
REMARK INTER + INTRA:          -9.938
REMARK INTER:                  -8.162
REMARK INTRA:                  -1.776
REMARK UNBOUND:                -1.515
REMARK SMILES CCCCCCCCCCCCCCCCCCCCCCCCCCCC(=O)[O-]
REMARK SMILES IDX 15 1 16 2 17 3 18 4 19 5 20 6 21 7 22 8 23 9 24 10 25 11
REMARK SMILES IDX 26 12 27 13 28 14 29 15 30 16 14 17 13 18 12 19 11 20 10 21
REMARK SMILES IDX 9 22 8 23 7 24 6 25 5 26 4 27 3 28 2 29 1 30
REMARK H PARENT
REMARK Flexibility Score: inf
ROOT
ATOM      1  C   UNL     1      -1.325  17.359  21.679  1.00  0.00     0.000 C 
ENDROOT
BRANCH   1   2
ATOM      2  C   UNL     1      -0.899  15.972  21.165  1.00  0.00     0.000 C 
BRANCH   2   3
ATOM      3  C   UNL     1       0.238  15.316  21.980  1.00  0.00     0.000 C 
BRANCH   3   4
ATOM      4  C   UNL     1       0.957  16.273  22.950  1.00  0.00     0.000 C 
BRANCH   4   5
ATOM      5  C   UNL     1       2.494  16.232  22.899  1.00  0.00     0.000 C 
BRANCH   5   6
ATOM      6  C   UNL     1       3.067  16.726  21.559  1.00  0.00     0.000 C 
BRANCH   6   7
ATOM      7  C   UNL     1       4.590  16.521  21.450  1.00  0.00     0.000 C 
BRANCH   7   8
ATOM      8  C   UNL     1       5.171  15.474  22.417  1.00  0.00     0.000 C 
BRANCH   8   9
ATOM      9  C   UNL     1       6.694  15.608  22.596  1.00  0.00     0.000 C 
BRANCH   9  10
ATOM     10  C   UNL     1       7.375  16.314  21.410  1.00  0.00     0.000 C 
BRANCH  10  11
ATOM     11  C   UNL     1       8.874  16.604  21.607  1.00  0.00     0.000 C 
BRANCH  11  12
ATOM     12  C   UNL     1       9.588  16.981  20.297  1.00  0.00     0.006 C 
BRANCH  12  13
ATOM     13  C   UNL     1      10.945  16.277  20.151  1.00  0.00     0.053 C 
BRANCH  13  14
ATOM     14  C   UNL     1      10.821  14.790  20.276  1.00  0.00     0.041 C 
ATOM     15  O   UNL     1      10.539  14.090  19.266  1.00  0.00    -0.550 OA
ATOM     16  O   UNL     1      10.959  14.181  21.517  1.00  0.00    -0.550 OA
ENDBRANCH  13  14
ENDBRANCH  12  13
ENDBRANCH  11  12
ENDBRANCH  10  11
ENDBRANCH   9  10
ENDBRANCH   8   9
ENDBRANCH   7   8
ENDBRANCH   6   7
ENDBRANCH   5   6
ENDBRANCH   4   5
ENDBRANCH   3   4
ENDBRANCH   2   3
ENDBRANCH   1   2
BRANCH   1  17
ATOM     17  C   UNL     1      -2.052  17.297  23.034  1.00  0.00     0.000 C 
BRANCH  17  18
ATOM     18  C   UNL     1      -3.217  18.293  23.122  1.00  0.00     0.000 C 
BRANCH  18  19
ATOM     19  C   UNL     1      -4.239  18.112  21.982  1.00  0.00     0.000 C 
BRANCH  19  20
ATOM     20  C   UNL     1      -5.376  17.152  22.359  1.00  0.00     0.000 C 
BRANCH  20  21
ATOM     21  C   UNL     1      -5.145  15.726  21.833  1.00  0.00     0.000 C 
BRANCH  21  22
ATOM     22  C   UNL     1      -6.321  15.205  20.987  1.00  0.00    -0.000 C 
BRANCH  22  23
ATOM     23  C   UNL     1      -7.503  14.688  21.835  1.00  0.00    -0.000 C 
BRANCH  23  24
ATOM     24  C   UNL     1      -8.691  15.668  21.830  1.00  0.00    -0.000 C 
BRANCH  24  25
ATOM     25  C   UNL     1      -8.646  16.639  20.628  1.00  0.00    -0.000 C 
BRANCH  25  26
ATOM     26  C   UNL     1      -8.671  18.122  21.033  1.00  0.00    -0.000 C 
BRANCH  26  27
ATOM     27  C   UNL     1      -8.611  18.328  22.556  1.00  0.00    -0.000 C 
BRANCH  27  28
ATOM     28  C   UNL     1      -8.271  19.785  22.935  1.00  0.00    -0.000 C 
BRANCH  28  29
ATOM     29  C   UNL     1      -8.855  20.828  21.966  1.00  0.00    -0.003 C 
ATOM     30  C   UNL     1      -8.065  22.135  21.948  1.00  0.00     0.004 C 
ENDBRANCH  28  29
ENDBRANCH  27  28
ENDBRANCH  26  27
ENDBRANCH  25  26
ENDBRANCH  24  25
ENDBRANCH  23  24
ENDBRANCH  22  23
ENDBRANCH  21  22
ENDBRANCH  20  21
ENDBRANCH  19  20
ENDBRANCH  18  19
ENDBRANCH  17  18
ENDBRANCH   1  17
TORSDOF 26
ENDMDL
