MODEL 1
REMARK VINA RESULT:    -5.134      0.000      0.000
REMARK INTER + INTRA:          -6.025
REMARK INTER:                  -5.884
REMARK INTRA:                  -0.141
REMARK UNBOUND:                -0.141
REMARK SMILES CC=Cc1ccc(O)c(OC)c1
REMARK SMILES IDX 4 1 12 2 9 3 7 4 6 5 5 6 3 7 1 8 2 9 10 10 11 11 8 12
REMARK H PARENT 8 13
REMARK Flexibility Score: inf
ROOT
ATOM      1  C   UNL     1      45.978   7.697  19.064  1.00  0.00    -0.022 A 
ATOM      2  C   UNL     1      46.461   6.940  17.977  1.00  0.00     0.058 A 
ATOM      3  C   UNL     1      45.746   6.884  16.763  1.00  0.00     0.161 A 
ATOM      4  C   UNL     1      44.543   7.603  16.640  1.00  0.00     0.157 A 
ATOM      5  C   UNL     1      44.073   8.367  17.711  1.00  0.00     0.051 A 
ATOM      6  C   UNL     1      44.784   8.419  18.910  1.00  0.00     0.012 A 
ENDROOT
BRANCH   1   7
ATOM      7  C   UNL     1      46.701   7.792  20.355  1.00  0.00     0.003 C 
ATOM      8  C   UNL     1      47.867   6.911  22.338  1.00  0.00     0.035 C 
ATOM      9  C   UNL     1      47.160   6.734  21.034  1.00  0.00    -0.030 C 
ENDBRANCH   1   7
BRANCH   3  10
ATOM     10  O   UNL     1      46.200   6.133  15.667  1.00  0.00    -0.493 OA
ATOM     11  C   UNL     1      47.457   5.468  15.605  1.00  0.00     0.278 C 
ENDBRANCH   3  10
BRANCH   4  12
ATOM     12  O   UNL     1      43.804   7.573  15.458  1.00  0.00    -0.504 OA
ATOM     13  H   UNL     1      44.192   7.238  14.585  1.00  0.00     0.293 HD
ENDBRANCH   4  12
TORSDOF 3
ENDMDL
MODEL 2
REMARK VINA RESULT:    -4.862      2.870      4.618
REMARK INTER + INTRA:          -5.714
REMARK INTER:                  -5.571
REMARK INTRA:                  -0.143
REMARK UNBOUND:                -0.141
REMARK SMILES CC=Cc1ccc(O)c(OC)c1
REMARK SMILES IDX 4 1 12 2 9 3 7 4 6 5 5 6 3 7 1 8 2 9 10 10 11 11 8 12
REMARK H PARENT 8 13
REMARK Flexibility Score: inf
ROOT
ATOM      1  C   UNL     1      45.995   7.520  18.381  1.00  0.00    -0.022 A 
ATOM      2  C   UNL     1      46.752   7.312  19.553  1.00  0.00     0.058 A 
ATOM      3  C   UNL     1      46.342   7.868  20.782  1.00  0.00     0.161 A 
ATOM      4  C   UNL     1      45.159   8.627  20.833  1.00  0.00     0.157 A 
ATOM      5  C   UNL     1      44.400   8.819  19.676  1.00  0.00     0.051 A 
ATOM      6  C   UNL     1      44.810   8.267  18.461  1.00  0.00     0.012 A 
ENDROOT
BRANCH   1   7
ATOM      7  C   UNL     1      46.384   6.948  17.069  1.00  0.00     0.003 C 
ATOM      8  C   UNL     1      47.544   5.380  15.565  1.00  0.00     0.035 C 
ATOM      9  C   UNL     1      47.187   5.887  16.924  1.00  0.00    -0.030 C 
ENDBRANCH   1   7
BRANCH   3  10
ATOM     10  O   UNL     1      47.077   7.683  21.964  1.00  0.00    -0.493 OA
ATOM     11  C   UNL     1      48.030   6.646  22.171  1.00  0.00     0.278 C 
ENDBRANCH   3  10
BRANCH   4  12
ATOM     12  O   UNL     1      44.719   9.197  22.029  1.00  0.00    -0.504 OA
ATOM     13  H   UNL     1      45.283   9.192  22.869  1.00  0.00     0.293 HD
ENDBRANCH   4  12
TORSDOF 3
ENDMDL
MODEL 3
REMARK VINA RESULT:    -4.844      2.356      3.978
REMARK INTER + INTRA:          -5.693
REMARK INTER:                  -5.597
REMARK INTRA:                  -0.096
REMARK UNBOUND:                -0.141
REMARK SMILES CC=Cc1ccc(O)c(OC)c1
REMARK SMILES IDX 4 1 12 2 9 3 7 4 6 5 5 6 3 7 1 8 2 9 10 10 11 11 8 12
REMARK H PARENT 8 13
REMARK Flexibility Score: inf
ROOT
ATOM      1  C   UNL     1      45.165   7.945  16.633  1.00  0.00    -0.022 A 
ATOM      2  C   UNL     1      45.593   7.334  15.437  1.00  0.00     0.058 A 
ATOM      3  C   UNL     1      46.610   6.357  15.452  1.00  0.00     0.161 A 
ATOM      4  C   UNL     1      47.190   5.986  16.678  1.00  0.00     0.157 A 
ATOM      5  C   UNL     1      46.753   6.579  17.866  1.00  0.00     0.051 A 
ATOM      6  C   UNL     1      45.747   7.545  17.846  1.00  0.00     0.012 A 
ENDROOT
BRANCH   1   7
ATOM      7  C   UNL     1      44.093   8.970  16.666  1.00  0.00     0.003 C 
ATOM      8  C   UNL     1      42.663  10.681  17.712  1.00  0.00     0.035 C 
ATOM      9  C   UNL     1      43.767   9.675  17.756  1.00  0.00    -0.030 C 
ENDBRANCH   1   7
BRANCH   3  10
ATOM     10  O   UNL     1      47.062   5.736  14.276  1.00  0.00    -0.493 OA
ATOM     11  C   UNL     1      46.721   4.413  13.875  1.00  0.00     0.278 C 
ENDBRANCH   3  10
BRANCH   4  12
ATOM     12  O   UNL     1      48.200   5.026  16.737  1.00  0.00    -0.504 OA
ATOM     13  H   UNL     1      48.046   4.101  17.118  1.00  0.00     0.293 HD
ENDBRANCH   4  12
TORSDOF 3
ENDMDL
MODEL 4
REMARK VINA RESULT:    -4.816      2.679      5.387
REMARK INTER + INTRA:          -5.661
REMARK INTER:                  -5.539
REMARK INTRA:                  -0.123
REMARK UNBOUND:                -0.141
REMARK SMILES CC=Cc1ccc(O)c(OC)c1
REMARK SMILES IDX 4 1 12 2 9 3 7 4 6 5 5 6 3 7 1 8 2 9 10 10 11 11 8 12
REMARK H PARENT 8 13
REMARK Flexibility Score: inf
ROOT
ATOM      1  C   UNL     1      44.897   7.655  17.264  1.00  0.00    -0.022 A 
ATOM      2  C   UNL     1      44.516   8.409  18.393  1.00  0.00     0.058 A 
ATOM      3  C   UNL     1      45.263   8.342  19.588  1.00  0.00     0.161 A 
ATOM      4  C   UNL     1      46.403   7.521  19.642  1.00  0.00     0.157 A 
ATOM      5  C   UNL     1      46.790   6.787  18.518  1.00  0.00     0.051 A 
ATOM      6  C   UNL     1      46.048   6.856  17.337  1.00  0.00     0.012 A 
ENDROOT
BRANCH   1   7
ATOM      7  C   UNL     1      44.148   7.700  15.985  1.00  0.00     0.003 C 
ATOM      8  C   UNL     1      43.261   6.788  13.876  1.00  0.00     0.035 C 
ATOM      9  C   UNL     1      44.020   6.657  15.156  1.00  0.00    -0.030 C 
ENDBRANCH   1   7
BRANCH   3  10
ATOM     10  O   UNL     1      44.904   9.076  20.730  1.00  0.00    -0.493 OA
ATOM     11  C   UNL     1      44.203   8.544  21.849  1.00  0.00     0.278 C 
ENDBRANCH   3  10
BRANCH   4  12
ATOM     12  O   UNL     1      47.167   7.424  20.805  1.00  0.00    -0.504 OA
ATOM     13  H   UNL     1      46.972   7.980  21.628  1.00  0.00     0.293 HD
ENDBRANCH   4  12
TORSDOF 3
ENDMDL
MODEL 5
REMARK VINA RESULT:    -4.798      7.367      9.356
REMARK INTER + INTRA:          -5.640
REMARK INTER:                  -5.477
REMARK INTRA:                  -0.163
REMARK UNBOUND:                -0.141
REMARK SMILES CC=Cc1ccc(O)c(OC)c1
REMARK SMILES IDX 4 1 12 2 9 3 7 4 6 5 5 6 3 7 1 8 2 9 10 10 11 11 8 12
REMARK H PARENT 8 13
REMARK Flexibility Score: inf
ROOT
ATOM      1  C   UNL     1      46.364  -1.995  15.186  1.00  0.00    -0.022 A 
ATOM      2  C   UNL     1      46.519  -0.661  14.756  1.00  0.00     0.058 A 
ATOM      3  C   UNL     1      45.408   0.088  14.315  1.00  0.00     0.161 A 
ATOM      4  C   UNL     1      44.134  -0.507  14.317  1.00  0.00     0.157 A 
ATOM      5  C   UNL     1      43.977  -1.823  14.759  1.00  0.00     0.051 A 
ATOM      6  C   UNL     1      45.079  -2.559  15.195  1.00  0.00     0.012 A 
ENDROOT
BRANCH   1   7
ATOM      7  C   UNL     1      47.501  -2.816  15.667  1.00  0.00     0.003 C 
ATOM      8  C   UNL     1      48.741  -4.192  17.290  1.00  0.00     0.035 C 
ATOM      9  C   UNL     1      47.550  -3.392  16.874  1.00  0.00    -0.030 C 
ENDBRANCH   1   7
BRANCH   3  10
ATOM     10  O   UNL     1      45.534   1.415  13.875  1.00  0.00    -0.493 OA
ATOM     11  C   UNL     1      46.748   2.158  13.876  1.00  0.00     0.278 C 
ENDBRANCH   3  10
BRANCH   4  12
ATOM     12  O   UNL     1      43.009   0.197  13.886  1.00  0.00    -0.504 OA
ATOM     13  H   UNL     1      42.868   1.175  14.104  1.00  0.00     0.293 HD
ENDBRANCH   4  12
TORSDOF 3
ENDMDL
MODEL 6
REMARK VINA RESULT:    -4.794      4.399      6.389
REMARK INTER + INTRA:          -5.636
REMARK INTER:                  -5.475
REMARK INTRA:                  -0.161
REMARK UNBOUND:                -0.141
REMARK SMILES CC=Cc1ccc(O)c(OC)c1
REMARK SMILES IDX 4 1 12 2 9 3 7 4 6 5 5 6 3 7 1 8 2 9 10 10 11 11 8 12
REMARK H PARENT 8 13
REMARK Flexibility Score: inf
ROOT
ATOM      1  C   UNL     1      45.842   8.243  20.923  1.00  0.00    -0.022 A 
ATOM      2  C   UNL     1      44.643   8.721  21.491  1.00  0.00     0.058 A 
ATOM      3  C   UNL     1      44.522   8.883  22.887  1.00  0.00     0.161 A 
ATOM      4  C   UNL     1      45.618   8.575  23.712  1.00  0.00     0.157 A 
ATOM      5  C   UNL     1      46.812   8.118  23.148  1.00  0.00     0.051 A 
ATOM      6  C   UNL     1      46.926   7.958  21.767  1.00  0.00     0.012 A 
ENDROOT
BRANCH   1   7
ATOM      7  C   UNL     1      46.017   8.065  19.461  1.00  0.00     0.003 C 
ATOM      8  C   UNL     1      46.758   6.902  17.420  1.00  0.00     0.035 C 
ATOM      9  C   UNL     1      46.606   7.000  18.903  1.00  0.00    -0.030 C 
ENDBRANCH   1   7
BRANCH   3  10
ATOM     10  O   UNL     1      43.339   9.351  23.480  1.00  0.00    -0.493 OA
ATOM     11  C   UNL     1      43.063  10.716  23.773  1.00  0.00     0.278 C 
ENDBRANCH   3  10
BRANCH   4  12
ATOM     12  O   UNL     1      45.539   8.719  25.097  1.00  0.00    -0.504 OA
ATOM     13  H   UNL     1      46.145   9.347  25.611  1.00  0.00     0.293 HD
ENDBRANCH   4  12
TORSDOF 3
ENDMDL
MODEL 7
REMARK VINA RESULT:    -4.788      1.237      2.982
REMARK INTER + INTRA:          -5.629
REMARK INTER:                  -5.458
REMARK INTRA:                  -0.171
REMARK UNBOUND:                -0.141
REMARK SMILES CC=Cc1ccc(O)c(OC)c1
REMARK SMILES IDX 4 1 12 2 9 3 7 4 6 5 5 6 3 7 1 8 2 9 10 10 11 11 8 12
REMARK H PARENT 8 13
REMARK Flexibility Score: inf
ROOT
ATOM      1  C   UNL     1      46.028   7.837  19.298  1.00  0.00    -0.022 A 
ATOM      2  C   UNL     1      44.942   8.718  19.112  1.00  0.00     0.058 A 
ATOM      3  C   UNL     1      44.240   8.748  17.889  1.00  0.00     0.161 A 
ATOM      4  C   UNL     1      44.627   7.880  16.853  1.00  0.00     0.157 A 
ATOM      5  C   UNL     1      45.692   6.996  17.042  1.00  0.00     0.051 A 
ATOM      6  C   UNL     1      46.383   6.970  18.254  1.00  0.00     0.012 A 
ENDROOT
BRANCH   1   7
ATOM      7  C   UNL     1      46.788   7.765  20.569  1.00  0.00     0.003 C 
ATOM      8  C   UNL     1      47.983   6.634  22.402  1.00  0.00     0.035 C 
ATOM      9  C   UNL     1      47.237   6.625  21.107  1.00  0.00    -0.030 C 
ENDBRANCH   1   7
BRANCH   3  10
ATOM     10  O   UNL     1      43.159   9.618  17.674  1.00  0.00    -0.493 OA
ATOM     11  C   UNL     1      42.931  10.822  18.399  1.00  0.00     0.278 C 
ENDBRANCH   3  10
BRANCH   4  12
ATOM     12  O   UNL     1      43.962   7.881  15.627  1.00  0.00    -0.504 OA
ATOM     13  H   UNL     1      44.246   8.473  14.857  1.00  0.00     0.293 HD
ENDBRANCH   4  12
TORSDOF 3
ENDMDL
MODEL 8
REMARK VINA RESULT:    -4.714      3.343      5.716
REMARK INTER + INTRA:          -5.544
REMARK INTER:                  -5.364
REMARK INTRA:                  -0.180
REMARK UNBOUND:                -0.141
REMARK SMILES CC=Cc1ccc(O)c(OC)c1
REMARK SMILES IDX 4 1 12 2 9 3 7 4 6 5 5 6 3 7 1 8 2 9 10 10 11 11 8 12
REMARK H PARENT 8 13
REMARK Flexibility Score: inf
ROOT
ATOM      1  C   UNL     1      45.307   8.995  19.657  1.00  0.00    -0.022 A 
ATOM      2  C   UNL     1      45.542   9.129  21.041  1.00  0.00     0.058 A 
ATOM      3  C   UNL     1      46.359   8.205  21.725  1.00  0.00     0.161 A 
ATOM      4  C   UNL     1      46.952   7.149  21.009  1.00  0.00     0.157 A 
ATOM      5  C   UNL     1      46.733   7.026  19.635  1.00  0.00     0.051 A 
ATOM      6  C   UNL     1      45.923   7.942  18.962  1.00  0.00     0.012 A 
ENDROOT
BRANCH   1   7
ATOM      7  C   UNL     1      44.462   9.947  18.895  1.00  0.00     0.003 C 
ATOM      8  C   UNL     1      42.986  10.652  17.053  1.00  0.00     0.035 C 
ATOM      9  C   UNL     1      43.806   9.630  17.772  1.00  0.00    -0.030 C 
ENDBRANCH   1   7
BRANCH   3  10
ATOM     10  O   UNL     1      46.606   8.310  23.103  1.00  0.00    -0.493 OA
ATOM     11  C   UNL     1      45.605   8.532  24.091  1.00  0.00     0.278 C 
ENDBRANCH   3  10
BRANCH   4  12
ATOM     12  O   UNL     1      47.765   6.213  21.648  1.00  0.00    -0.504 OA
ATOM     13  H   UNL     1      48.050   6.314  22.614  1.00  0.00     0.293 HD
ENDBRANCH   4  12
TORSDOF 3
ENDMDL
MODEL 9
REMARK VINA RESULT:    -4.593      1.403      2.728
REMARK INTER + INTRA:          -5.406
REMARK INTER:                  -5.223
REMARK INTRA:                  -0.183
REMARK UNBOUND:                -0.141
REMARK SMILES CC=Cc1ccc(O)c(OC)c1
REMARK SMILES IDX 4 1 12 2 9 3 7 4 6 5 5 6 3 7 1 8 2 9 10 10 11 11 8 12
REMARK H PARENT 8 13
REMARK Flexibility Score: inf
ROOT
ATOM      1  C   UNL     1      45.592   7.676  18.086  1.00  0.00    -0.022 A 
ATOM      2  C   UNL     1      44.810   7.886  16.932  1.00  0.00     0.058 A 
ATOM      3  C   UNL     1      45.151   7.272  15.709  1.00  0.00     0.161 A 
ATOM      4  C   UNL     1      46.278   6.434  15.652  1.00  0.00     0.157 A 
ATOM      5  C   UNL     1      47.044   6.212  16.800  1.00  0.00     0.051 A 
ATOM      6  C   UNL     1      46.702   6.822  18.007  1.00  0.00     0.012 A 
ENDROOT
BRANCH   1   7
ATOM      7  C   UNL     1      45.266   8.295  19.394  1.00  0.00     0.003 C 
ATOM      8  C   UNL     1      45.567   8.737  21.799  1.00  0.00     0.035 C 
ATOM      9  C   UNL     1      45.969   8.089  20.514  1.00  0.00    -0.030 C 
ENDBRANCH   1   7
BRANCH   3  10
ATOM     10  O   UNL     1      44.395   7.468  14.542  1.00  0.00    -0.493 OA
ATOM     11  C   UNL     1      43.283   6.668  14.153  1.00  0.00     0.278 C 
ENDBRANCH   3  10
BRANCH   4  12
ATOM     12  O   UNL     1      46.652   5.809  14.462  1.00  0.00    -0.504 OA
ATOM     13  H   UNL     1      46.092   5.083  14.033  1.00  0.00     0.293 HD
ENDBRANCH   4  12
TORSDOF 3
ENDMDL
