MODEL 1
REMARK VINA RESULT:    -4.799      0.000      0.000
REMARK INTER + INTRA:          -6.198
REMARK INTER:                  -5.921
REMARK INTRA:                  -0.276
REMARK UNBOUND:                -0.276
REMARK SMILES CCOC(=O)c1ccc(O)c(O)c1
REMARK SMILES IDX 4 1 5 2 3 3 2 4 1 5 6 6 13 7 7 8 11 9 8 10 9 11 12 12 10 14
REMARK H PARENT 12 13 10 15
REMARK Flexibility Score: inf
ROOT
ATOM      1  C   UNL     1      36.908 -32.083   9.819  1.00  0.00     0.338 C 
ATOM      2  O   UNL     1      38.158 -31.955   9.943  1.00  0.00    -0.246 OA
ENDROOT
BRANCH   1   3
ATOM      3  O   UNL     1      36.383 -33.122   9.039  1.00  0.00    -0.462 OA
BRANCH   3   4
ATOM      4  C   UNL     1      35.776 -32.921   7.764  1.00  0.00     0.230 C 
ATOM      5  C   UNL     1      36.789 -32.368   6.767  1.00  0.00     0.049 C 
ENDBRANCH   3   4
ENDBRANCH   1   3
BRANCH   1   6
ATOM      6  C   UNL     1      35.994 -31.142  10.502  1.00  0.00     0.064 A 
ATOM      7  C   UNL     1      34.908 -31.616  11.259  1.00  0.00     0.065 A 
ATOM      8  C   UNL     1      36.203 -29.755  10.405  1.00  0.00     0.020 A 
ATOM      9  C   UNL     1      34.044 -30.724  11.907  1.00  0.00     0.158 A 
ATOM     10  C   UNL     1      35.343 -28.863  11.050  1.00  0.00     0.051 A 
ATOM     11  C   UNL     1      34.262 -29.340  11.802  1.00  0.00     0.157 A 
BRANCH   9  12
ATOM     12  O   UNL     1      32.978 -31.232  12.648  1.00  0.00    -0.504 OA
ATOM     13  H   UNL     1      32.013 -31.037  12.407  1.00  0.00     0.293 HD
ENDBRANCH   9  12
BRANCH  11  14
ATOM     14  O   UNL     1      33.405 -28.448  12.444  1.00  0.00    -0.504 OA
ATOM     15  H   UNL     1      33.751 -27.771  13.115  1.00  0.00     0.293 HD
ENDBRANCH  11  14
ENDBRANCH   1   6
TORSDOF 5
ENDMDL
MODEL 2
REMARK VINA RESULT:    -4.480      1.220      2.042
REMARK INTER + INTRA:          -5.803
REMARK INTER:                  -5.669
REMARK INTRA:                  -0.134
REMARK UNBOUND:                -0.276
REMARK SMILES CCOC(=O)c1ccc(O)c(O)c1
REMARK SMILES IDX 4 1 5 2 3 3 2 4 1 5 6 6 13 7 7 8 11 9 8 10 9 11 12 12 10 14
REMARK H PARENT 12 13 10 15
REMARK Flexibility Score: inf
ROOT
ATOM      1  C   UNL     1      36.700 -31.977   9.227  1.00  0.00     0.338 C 
ATOM      2  O   UNL     1      37.257 -32.946   9.814  1.00  0.00    -0.246 OA
ENDROOT
BRANCH   1   3
ATOM      3  O   UNL     1      36.865 -31.803   7.846  1.00  0.00    -0.462 OA
BRANCH   3   4
ATOM      4  C   UNL     1      36.471 -32.773   6.877  1.00  0.00     0.230 C 
ATOM      5  C   UNL     1      36.819 -32.299   5.470  1.00  0.00     0.049 C 
ENDBRANCH   3   4
ENDBRANCH   1   3
BRANCH   1   6
ATOM      6  C   UNL     1      35.863 -31.028   9.993  1.00  0.00     0.064 A 
ATOM      7  C   UNL     1      36.422 -29.862  10.547  1.00  0.00     0.065 A 
ATOM      8  C   UNL     1      34.492 -31.278  10.175  1.00  0.00     0.020 A 
ATOM      9  C   UNL     1      35.629 -28.963  11.271  1.00  0.00     0.158 A 
ATOM     10  C   UNL     1      33.698 -30.383  10.897  1.00  0.00     0.051 A 
ATOM     11  C   UNL     1      34.260 -29.224  11.448  1.00  0.00     0.157 A 
BRANCH   9  12
ATOM     12  O   UNL     1      36.219 -27.819  11.806  1.00  0.00    -0.504 OA
ATOM     13  H   UNL     1      35.671 -27.027  12.120  1.00  0.00     0.293 HD
ENDBRANCH   9  12
BRANCH  11  14
ATOM     14  O   UNL     1      33.466 -28.333  12.168  1.00  0.00    -0.504 OA
ATOM     15  H   UNL     1      33.225 -27.421  11.798  1.00  0.00     0.293 HD
ENDBRANCH  11  14
ENDBRANCH   1   6
TORSDOF 5
ENDMDL
MODEL 3
REMARK VINA RESULT:    -4.144      1.504      2.730
REMARK INTER + INTRA:          -5.389
REMARK INTER:                  -5.218
REMARK INTRA:                  -0.171
REMARK UNBOUND:                -0.276
REMARK SMILES CCOC(=O)c1ccc(O)c(O)c1
REMARK SMILES IDX 4 1 5 2 3 3 2 4 1 5 6 6 13 7 7 8 11 9 8 10 9 11 12 12 10 14
REMARK H PARENT 12 13 10 15
REMARK Flexibility Score: inf
ROOT
ATOM      1  C   UNL     1      36.993 -31.978   8.609  1.00  0.00     0.338 C 
ATOM      2  O   UNL     1      36.771 -31.677   7.403  1.00  0.00    -0.246 OA
ENDROOT
BRANCH   1   3
ATOM      3  O   UNL     1      38.101 -32.766   8.945  1.00  0.00    -0.462 OA
BRANCH   3   4
ATOM      4  C   UNL     1      38.635 -32.853  10.265  1.00  0.00     0.230 C 
ATOM      5  C   UNL     1      39.558 -31.674  10.551  1.00  0.00     0.049 C 
ENDBRANCH   3   4
ENDBRANCH   1   3
BRANCH   1   6
ATOM      6  C   UNL     1      36.087 -31.492   9.672  1.00  0.00     0.064 A 
ATOM      7  C   UNL     1      36.065 -30.133  10.034  1.00  0.00     0.065 A 
ATOM      8  C   UNL     1      35.229 -32.387  10.336  1.00  0.00     0.020 A 
ATOM      9  C   UNL     1      35.206 -29.675  11.040  1.00  0.00     0.158 A 
ATOM     10  C   UNL     1      34.371 -31.932  11.341  1.00  0.00     0.051 A 
ATOM     11  C   UNL     1      34.354 -30.578  11.697  1.00  0.00     0.157 A 
BRANCH   9  12
ATOM     12  O   UNL     1      35.213 -28.320  11.371  1.00  0.00    -0.504 OA
ATOM     13  H   UNL     1      34.654 -27.640  10.869  1.00  0.00     0.293 HD
ENDBRANCH   9  12
BRANCH  11  14
ATOM     14  O   UNL     1      33.497 -30.127  12.700  1.00  0.00    -0.504 OA
ATOM     15  H   UNL     1      33.845 -29.618  13.505  1.00  0.00     0.293 HD
ENDBRANCH  11  14
ENDBRANCH   1   6
TORSDOF 5
ENDMDL
MODEL 4
REMARK VINA RESULT:    -3.702      1.586      4.943
REMARK INTER + INTRA:          -4.844
REMARK INTER:                  -4.600
REMARK INTRA:                  -0.244
REMARK UNBOUND:                -0.276
REMARK SMILES CCOC(=O)c1ccc(O)c(O)c1
REMARK SMILES IDX 4 1 5 2 3 3 2 4 1 5 6 6 13 7 7 8 11 9 8 10 9 11 12 12 10 14
REMARK H PARENT 12 13 10 15
REMARK Flexibility Score: inf
ROOT
ATOM      1  C   UNL     1      34.610 -29.625  11.380  1.00  0.00     0.338 C 
ATOM      2  O   UNL     1      33.758 -30.073  12.197  1.00  0.00    -0.246 OA
ENDROOT
BRANCH   1   3
ATOM      3  O   UNL     1      34.945 -28.264  11.388  1.00  0.00    -0.462 OA
BRANCH   3   4
ATOM      4  C   UNL     1      35.652 -27.634  12.455  1.00  0.00     0.230 C 
ATOM      5  C   UNL     1      37.132 -27.504  12.116  1.00  0.00     0.049 C 
ENDBRANCH   3   4
ENDBRANCH   1   3
BRANCH   1   6
ATOM      6  C   UNL     1      35.262 -30.537  10.415  1.00  0.00     0.064 A 
ATOM      7  C   UNL     1      34.496 -31.379   9.590  1.00  0.00     0.065 A 
ATOM      8  C   UNL     1      36.663 -30.571  10.308  1.00  0.00     0.020 A 
ATOM      9  C   UNL     1      35.115 -32.242   8.677  1.00  0.00     0.158 A 
ATOM     10  C   UNL     1      37.284 -31.431   9.398  1.00  0.00     0.051 A 
ATOM     11  C   UNL     1      36.515 -32.268   8.580  1.00  0.00     0.157 A 
BRANCH   9  12
ATOM     12  O   UNL     1      34.321 -33.061   7.876  1.00  0.00    -0.504 OA
ATOM     13  H   UNL     1      34.030 -32.786   6.945  1.00  0.00     0.293 HD
ENDBRANCH   9  12
BRANCH  11  14
ATOM     14  O   UNL     1      37.137 -33.125   7.672  1.00  0.00    -0.504 OA
ATOM     15  H   UNL     1      37.658 -33.937   7.982  1.00  0.00     0.293 HD
ENDBRANCH  11  14
ENDBRANCH   1   6
TORSDOF 5
ENDMDL
MODEL 5
REMARK VINA RESULT:    -3.623      1.411      5.115
REMARK INTER + INTRA:          -4.747
REMARK INTER:                  -4.617
REMARK INTRA:                  -0.130
REMARK UNBOUND:                -0.276
REMARK SMILES CCOC(=O)c1ccc(O)c(O)c1
REMARK SMILES IDX 4 1 5 2 3 3 2 4 1 5 6 6 13 7 7 8 11 9 8 10 9 11 12 12 10 14
REMARK H PARENT 12 13 10 15
REMARK Flexibility Score: inf
ROOT
ATOM      1  C   UNL     1      33.981 -30.464  10.895  1.00  0.00     0.338 C 
ATOM      2  O   UNL     1      32.965 -30.143  10.217  1.00  0.00    -0.246 OA
ENDROOT
BRANCH   1   3
ATOM      3  O   UNL     1      34.031 -30.177  12.265  1.00  0.00    -0.462 OA
BRANCH   3   4
ATOM      4  C   UNL     1      34.075 -28.851  12.790  1.00  0.00     0.230 C 
ATOM      5  C   UNL     1      34.647 -27.883  11.761  1.00  0.00     0.049 C 
ENDBRANCH   3   4
ENDBRANCH   1   3
BRANCH   1   6
ATOM      6  C   UNL     1      35.118 -31.153  10.245  1.00  0.00     0.064 A 
ATOM      7  C   UNL     1      36.440 -30.894  10.648  1.00  0.00     0.065 A 
ATOM      8  C   UNL     1      34.890 -32.081   9.215  1.00  0.00     0.020 A 
ATOM      9  C   UNL     1      37.516 -31.547  10.033  1.00  0.00     0.158 A 
ATOM     10  C   UNL     1      35.961 -32.734   8.600  1.00  0.00     0.051 A 
ATOM     11  C   UNL     1      37.276 -32.472   9.004  1.00  0.00     0.157 A 
BRANCH   9  12
ATOM     12  O   UNL     1      38.812 -31.263  10.460  1.00  0.00    -0.504 OA
ATOM     13  H   UNL     1      39.054 -30.384  10.901  1.00  0.00     0.293 HD
ENDBRANCH   9  12
BRANCH  11  14
ATOM     14  O   UNL     1      38.343 -33.124   8.388  1.00  0.00    -0.504 OA
ATOM     15  H   UNL     1      38.197 -33.773   7.623  1.00  0.00     0.293 HD
ENDBRANCH  11  14
ENDBRANCH   1   6
TORSDOF 5
ENDMDL
MODEL 6
REMARK VINA RESULT:    -3.409     20.195     22.268
REMARK INTER + INTRA:          -4.482
REMARK INTER:                  -4.319
REMARK INTRA:                  -0.163
REMARK UNBOUND:                -0.276
REMARK SMILES CCOC(=O)c1ccc(O)c(O)c1
REMARK SMILES IDX 4 1 5 2 3 3 2 4 1 5 6 6 13 7 7 8 11 9 8 10 9 11 12 12 10 14
REMARK H PARENT 12 13 10 15
REMARK Flexibility Score: inf
ROOT
ATOM      1  C   UNL     1      21.026 -15.472   6.524  1.00  0.00     0.338 C 
ATOM      2  O   UNL     1      19.944 -15.823   7.071  1.00  0.00    -0.246 OA
ENDROOT
BRANCH   1   3
ATOM      3  O   UNL     1      22.215 -15.455   7.265  1.00  0.00    -0.462 OA
BRANCH   3   4
ATOM      4  C   UNL     1      23.231 -16.450   7.148  1.00  0.00     0.230 C 
ATOM      5  C   UNL     1      23.953 -16.640   8.477  1.00  0.00     0.049 C 
ENDBRANCH   3   4
ENDBRANCH   1   3
BRANCH   1   6
ATOM      6  C   UNL     1      21.043 -15.087   5.096  1.00  0.00     0.064 A 
ATOM      7  C   UNL     1      21.040 -16.066   4.086  1.00  0.00     0.065 A 
ATOM      8  C   UNL     1      21.060 -13.730   4.728  1.00  0.00     0.020 A 
ATOM      9  C   UNL     1      21.056 -15.699   2.735  1.00  0.00     0.158 A 
ATOM     10  C   UNL     1      21.075 -13.361   3.381  1.00  0.00     0.051 A 
ATOM     11  C   UNL     1      21.073 -14.341   2.379  1.00  0.00     0.157 A 
BRANCH   9  12
ATOM     12  O   UNL     1      21.052 -16.699   1.763  1.00  0.00    -0.504 OA
ATOM     13  H   UNL     1      20.204 -16.983   1.286  1.00  0.00     0.293 HD
ENDBRANCH   9  12
BRANCH  11  14
ATOM     14  O   UNL     1      21.088 -13.970   1.035  1.00  0.00    -0.504 OA
ATOM     15  H   UNL     1      20.585 -14.501   0.334  1.00  0.00     0.293 HD
ENDBRANCH  11  14
ENDBRANCH   1   6
TORSDOF 5
ENDMDL
MODEL 7
REMARK VINA RESULT:    -3.381     20.087     22.222
REMARK INTER + INTRA:          -4.448
REMARK INTER:                  -4.271
REMARK INTRA:                  -0.177
REMARK UNBOUND:                -0.276
REMARK SMILES CCOC(=O)c1ccc(O)c(O)c1
REMARK SMILES IDX 4 1 5 2 3 3 2 4 1 5 6 6 13 7 7 8 11 9 8 10 9 11 12 12 10 14
REMARK H PARENT 12 13 10 15
REMARK Flexibility Score: inf
ROOT
ATOM      1  C   UNL     1      20.964 -15.558   6.411  1.00  0.00     0.338 C 
ATOM      2  O   UNL     1      19.941 -15.604   7.149  1.00  0.00    -0.246 OA
ENDROOT
BRANCH   1   3
ATOM      3  O   UNL     1      22.235 -15.404   6.980  1.00  0.00    -0.462 OA
BRANCH   3   4
ATOM      4  C   UNL     1      23.172 -16.471   7.114  1.00  0.00     0.230 C 
ATOM      5  C   UNL     1      23.811 -16.455   8.499  1.00  0.00     0.049 C 
ENDBRANCH   3   4
ENDBRANCH   1   3
BRANCH   1   6
ATOM      6  C   UNL     1      20.825 -15.676   4.943  1.00  0.00     0.064 A 
ATOM      7  C   UNL     1      21.275 -14.649   4.093  1.00  0.00     0.065 A 
ATOM      8  C   UNL     1      20.240 -16.821   4.375  1.00  0.00     0.020 A 
ATOM      9  C   UNL     1      21.144 -14.762   2.703  1.00  0.00     0.158 A 
ATOM     10  C   UNL     1      20.108 -16.937   2.990  1.00  0.00     0.051 A 
ATOM     11  C   UNL     1      20.557 -15.911   2.148  1.00  0.00     0.157 A 
BRANCH   9  12
ATOM     12  O   UNL     1      21.602 -13.723   1.894  1.00  0.00    -0.504 OA
ATOM     13  H   UNL     1      22.343 -13.856   1.216  1.00  0.00     0.293 HD
ENDBRANCH   9  12
BRANCH  11  14
ATOM     14  O   UNL     1      20.424 -16.028   0.765  1.00  0.00    -0.504 OA
ATOM     15  H   UNL     1      19.642 -15.612   0.271  1.00  0.00     0.293 HD
ENDBRANCH  11  14
ENDBRANCH   1   6
TORSDOF 5
ENDMDL
MODEL 8
REMARK VINA RESULT:    -3.185     20.225     21.696
REMARK INTER + INTRA:          -4.207
REMARK INTER:                  -3.985
REMARK INTRA:                  -0.222
REMARK UNBOUND:                -0.276
REMARK SMILES CCOC(=O)c1ccc(O)c(O)c1
REMARK SMILES IDX 4 1 5 2 3 3 2 4 1 5 6 6 13 7 7 8 11 9 8 10 9 11 12 12 10 14
REMARK H PARENT 12 13 10 15
REMARK Flexibility Score: inf
ROOT
ATOM      1  C   UNL     1      20.393 -15.951   4.948  1.00  0.00     0.338 C 
ATOM      2  O   UNL     1      19.875 -16.997   5.430  1.00  0.00    -0.246 OA
ENDROOT
BRANCH   1   3
ATOM      3  O   UNL     1      20.049 -15.526   3.659  1.00  0.00    -0.462 OA
BRANCH   3   4
ATOM      4  C   UNL     1      20.845 -15.787   2.504  1.00  0.00     0.230 C 
ATOM      5  C   UNL     1      20.663 -17.228   2.041  1.00  0.00     0.049 C 
ENDBRANCH   3   4
ENDBRANCH   1   3
BRANCH   1   6
ATOM      6  C   UNL     1      21.360 -15.167   5.748  1.00  0.00     0.064 A 
ATOM      7  C   UNL     1      22.235 -15.805   6.646  1.00  0.00     0.065 A 
ATOM      8  C   UNL     1      21.418 -13.769   5.618  1.00  0.00     0.020 A 
ATOM      9  C   UNL     1      23.150 -15.062   7.402  1.00  0.00     0.158 A 
ATOM     10  C   UNL     1      22.329 -13.025   6.371  1.00  0.00     0.051 A 
ATOM     11  C   UNL     1      23.198 -13.665   7.264  1.00  0.00     0.157 A 
BRANCH   9  12
ATOM     12  O   UNL     1      24.001 -15.730   8.281  1.00  0.00    -0.504 OA
ATOM     13  H   UNL     1      24.972 -15.913   8.055  1.00  0.00     0.293 HD
ENDBRANCH   9  12
BRANCH  11  14
ATOM     14  O   UNL     1      24.107 -12.920   8.014  1.00  0.00    -0.504 OA
ATOM     15  H   UNL     1      24.833 -13.367   8.563  1.00  0.00     0.293 HD
ENDBRANCH  11  14
ENDBRANCH   1   6
TORSDOF 5
ENDMDL
MODEL 9
REMARK VINA RESULT:    -2.954     19.949     22.017
REMARK INTER + INTRA:          -3.920
REMARK INTER:                  -3.825
REMARK INTRA:                  -0.096
REMARK UNBOUND:                -0.276
REMARK SMILES CCOC(=O)c1ccc(O)c(O)c1
REMARK SMILES IDX 4 1 5 2 3 3 2 4 1 5 6 6 13 7 7 8 11 9 8 10 9 11 12 12 10 14
REMARK H PARENT 12 13 10 15
REMARK Flexibility Score: inf
ROOT
ATOM      1  C   UNL     1      20.429 -14.133   4.834  1.00  0.00     0.338 C 
ATOM      2  O   UNL     1      19.897 -12.993   4.940  1.00  0.00    -0.246 OA
ENDROOT
BRANCH   1   3
ATOM      3  O   UNL     1      20.068 -14.981   3.779  1.00  0.00    -0.462 OA
BRANCH   3   4
ATOM      4  C   UNL     1      20.935 -15.301   2.693  1.00  0.00     0.230 C 
ATOM      5  C   UNL     1      20.133 -15.767   1.483  1.00  0.00     0.049 C 
ENDBRANCH   3   4
ENDBRANCH   1   3
BRANCH   1   6
ATOM      6  C   UNL     1      21.442 -14.572   5.817  1.00  0.00     0.064 A 
ATOM      7  C   UNL     1      22.226 -13.633   6.512  1.00  0.00     0.065 A 
ATOM      8  C   UNL     1      21.635 -15.941   6.074  1.00  0.00     0.020 A 
ATOM      9  C   UNL     1      23.184 -14.050   7.444  1.00  0.00     0.158 A 
ATOM     10  C   UNL     1      22.590 -16.360   7.002  1.00  0.00     0.051 A 
ATOM     11  C   UNL     1      23.368 -15.421   7.691  1.00  0.00     0.157 A 
BRANCH   9  12
ATOM     12  O   UNL     1      23.940 -13.089   8.113  1.00  0.00    -0.504 OA
ATOM     13  H   UNL     1      23.865 -12.101   7.901  1.00  0.00     0.293 HD
ENDBRANCH   9  12
BRANCH  11  14
ATOM     14  O   UNL     1      24.321 -15.842   8.618  1.00  0.00    -0.504 OA
ATOM     15  H   UNL     1      25.241 -16.152   8.327  1.00  0.00     0.293 HD
ENDBRANCH  11  14
ENDBRANCH   1   6
TORSDOF 5
ENDMDL
