MODEL 1
REMARK VINA RESULT:    -4.886      0.000      0.000
REMARK INTER + INTRA:          -8.423
REMARK INTER:                  -7.457
REMARK INTRA:                  -0.966
REMARK UNBOUND:                -0.966
REMARK SMILES CCCCCCCCCCC(=O)[O-]
REMARK SMILES IDX 7 1 8 2 9 3 10 4 11 5 12 6 13 7 6 8 5 9 4 10 3 11 2 12 1 13
REMARK H PARENT
REMARK Flexibility Score: inf
ROOT
ATOM      1  C   UNL     1      16.044  74.498  70.951  1.00  0.00     0.000 C 
ENDROOT
BRANCH   1   2
ATOM      2  C   UNL     1      15.041  74.774  72.085  1.00  0.00     0.000 C 
BRANCH   2   3
ATOM      3  C   UNL     1      15.426  75.990  72.939  1.00  0.00     0.006 C 
BRANCH   3   4
ATOM      4  C   UNL     1      16.474  76.851  72.226  1.00  0.00     0.053 C 
BRANCH   4   5
ATOM      5  C   UNL     1      17.762  76.846  72.986  1.00  0.00     0.041 C 
ATOM      6  O   UNL     1      18.343  75.760  73.241  1.00  0.00    -0.550 OA
ATOM      7  O   UNL     1      18.347  78.047  73.369  1.00  0.00    -0.550 OA
ENDBRANCH   4   5
ENDBRANCH   3   4
ENDBRANCH   2   3
ENDBRANCH   1   2
BRANCH   1   8
ATOM      8  C   UNL     1      15.533  73.554  69.845  1.00  0.00     0.000 C 
BRANCH   8   9
ATOM      9  C   UNL     1      14.869  74.254  68.640  1.00  0.00    -0.000 C 
BRANCH   9  10
ATOM     10  C   UNL     1      13.393  74.639  68.846  1.00  0.00    -0.000 C 
BRANCH  10  11
ATOM     11  C   UNL     1      13.116  76.119  68.539  1.00  0.00    -0.000 C 
BRANCH  11  12
ATOM     12  C   UNL     1      13.481  77.004  69.735  1.00  0.00    -0.003 C 
ATOM     13  C   UNL     1      14.117  78.314  69.278  1.00  0.00     0.004 C 
ENDBRANCH  11  12
ENDBRANCH  10  11
ENDBRANCH   9  10
ENDBRANCH   8   9
ENDBRANCH   1   8
TORSDOF 9
ENDMDL
MODEL 2
REMARK VINA RESULT:    -4.821      2.353      4.820
REMARK INTER + INTRA:          -8.323
REMARK INTER:                  -7.518
REMARK INTRA:                  -0.806
REMARK UNBOUND:                -0.966
REMARK SMILES CCCCCCCCCCC(=O)[O-]
REMARK SMILES IDX 7 1 8 2 9 3 10 4 11 5 12 6 13 7 6 8 5 9 4 10 3 11 2 12 1 13
REMARK H PARENT
REMARK Flexibility Score: inf
ROOT
ATOM      1  C   UNL     1      15.290  73.553  69.604  1.00  0.00     0.000 C 
ENDROOT
BRANCH   1   2
ATOM      2  C   UNL     1      14.669  74.288  68.402  1.00  0.00     0.000 C 
BRANCH   2   3
ATOM      3  C   UNL     1      13.306  74.917  68.728  1.00  0.00     0.006 C 
BRANCH   3   4
ATOM      4  C   UNL     1      13.261  76.384  68.289  1.00  0.00     0.053 C 
BRANCH   4   5
ATOM      5  C   UNL     1      13.576  77.285  69.441  1.00  0.00     0.041 C 
ATOM      6  O   UNL     1      14.213  78.354  69.254  1.00  0.00    -0.550 OA
ATOM      7  O   UNL     1      13.120  76.968  70.715  1.00  0.00    -0.550 OA
ENDBRANCH   4   5
ENDBRANCH   3   4
ENDBRANCH   2   3
ENDBRANCH   1   2
BRANCH   1   8
ATOM      8  C   UNL     1      15.912  74.470  70.676  1.00  0.00     0.000 C 
BRANCH   8   9
ATOM      9  C   UNL     1      15.087  74.618  71.972  1.00  0.00    -0.000 C 
BRANCH   9  10
ATOM     10  C   UNL     1      15.687  75.575  73.018  1.00  0.00    -0.000 C 
BRANCH  10  11
ATOM     11  C   UNL     1      16.296  76.837  72.390  1.00  0.00    -0.000 C 
BRANCH  11  12
ATOM     12  C   UNL     1      17.681  77.128  72.979  1.00  0.00    -0.003 C 
ATOM     13  C   UNL     1      18.524  75.858  73.060  1.00  0.00     0.004 C 
ENDBRANCH  11  12
ENDBRANCH  10  11
ENDBRANCH   9  10
ENDBRANCH   8   9
ENDBRANCH   1   8
TORSDOF 9
ENDMDL
MODEL 3
REMARK VINA RESULT:    -4.781      2.488      5.367
REMARK INTER + INTRA:          -8.263
REMARK INTER:                  -7.612
REMARK INTRA:                  -0.651
REMARK UNBOUND:                -0.966
REMARK SMILES CCCCCCCCCCC(=O)[O-]
REMARK SMILES IDX 7 1 8 2 9 3 10 4 11 5 12 6 13 7 6 8 5 9 4 10 3 11 2 12 1 13
REMARK H PARENT
REMARK Flexibility Score: inf
ROOT
ATOM      1  C   UNL     1      14.410  76.635  70.281  1.00  0.00     0.000 C 
ENDROOT
BRANCH   1   2
ATOM      2  C   UNL     1      13.485  76.348  69.085  1.00  0.00     0.000 C 
BRANCH   2   3
ATOM      3  C   UNL     1      13.440  74.860  68.710  1.00  0.00     0.006 C 
BRANCH   3   4
ATOM      4  C   UNL     1      14.783  74.400  68.133  1.00  0.00     0.053 C 
BRANCH   4   5
ATOM      5  C   UNL     1      15.291  73.206  68.877  1.00  0.00     0.041 C 
ATOM      6  O   UNL     1      15.067  72.046  68.444  1.00  0.00    -0.550 OA
ATOM      7  O   UNL     1      16.057  73.377  70.024  1.00  0.00    -0.550 OA
ENDBRANCH   4   5
ENDBRANCH   3   4
ENDBRANCH   2   3
ENDBRANCH   1   2
BRANCH   1   8
ATOM      8  C   UNL     1      14.098  75.823  71.554  1.00  0.00     0.000 C 
BRANCH   8   9
ATOM      9  C   UNL     1      15.065  76.056  72.734  1.00  0.00    -0.000 C 
BRANCH   9  10
ATOM     10  C   UNL     1      16.559  76.016  72.366  1.00  0.00    -0.000 C 
BRANCH  10  11
ATOM     11  C   UNL     1      17.338  77.225  72.906  1.00  0.00    -0.000 C 
BRANCH  11  12
ATOM     12  C   UNL     1      18.796  76.852  73.197  1.00  0.00    -0.003 C 
ATOM     13  C   UNL     1      18.947  75.350  73.425  1.00  0.00     0.004 C 
ENDBRANCH  11  12
ENDBRANCH  10  11
ENDBRANCH   9  10
ENDBRANCH   8   9
ENDBRANCH   1   8
TORSDOF 9
ENDMDL
MODEL 4
REMARK VINA RESULT:    -4.717      1.077      2.756
REMARK INTER + INTRA:          -8.165
REMARK INTER:                  -7.486
REMARK INTRA:                  -0.680
REMARK UNBOUND:                -0.966
REMARK SMILES CCCCCCCCCCC(=O)[O-]
REMARK SMILES IDX 7 1 8 2 9 3 10 4 11 5 12 6 13 7 6 8 5 9 4 10 3 11 2 12 1 13
REMARK H PARENT
REMARK Flexibility Score: inf
ROOT
ATOM      1  C   UNL     1      15.060  76.940  70.690  1.00  0.00     0.000 C 
ENDROOT
BRANCH   1   2
ATOM      2  C   UNL     1      14.865  75.953  71.854  1.00  0.00     0.000 C 
BRANCH   2   3
ATOM      3  C   UNL     1      16.039  75.960  72.844  1.00  0.00     0.006 C 
BRANCH   3   4
ATOM      4  C   UNL     1      16.916  77.200  72.645  1.00  0.00     0.053 C 
BRANCH   4   5
ATOM      5  C   UNL     1      18.290  76.964  73.189  1.00  0.00     0.041 C 
ATOM      6  O   UNL     1      18.921  75.918  72.885  1.00  0.00    -0.550 OA
ATOM      7  O   UNL     1      18.893  77.924  73.993  1.00  0.00    -0.550 OA
ENDBRANCH   4   5
ENDBRANCH   3   4
ENDBRANCH   2   3
ENDBRANCH   1   2
BRANCH   1   8
ATOM      8  C   UNL     1      13.960  76.898  69.610  1.00  0.00     0.000 C 
BRANCH   8   9
ATOM      9  C   UNL     1      13.130  75.598  69.569  1.00  0.00    -0.000 C 
BRANCH   9  10
ATOM     10  C   UNL     1      13.427  74.676  68.373  1.00  0.00    -0.000 C 
BRANCH  10  11
ATOM     11  C   UNL     1      14.925  74.385  68.202  1.00  0.00    -0.000 C 
BRANCH  11  12
ATOM     12  C   UNL     1      15.363  73.220  69.097  1.00  0.00    -0.003 C 
ATOM     13  C   UNL     1      15.373  71.904  68.324  1.00  0.00     0.004 C 
ENDBRANCH  11  12
ENDBRANCH  10  11
ENDBRANCH   9  10
ENDBRANCH   8   9
ENDBRANCH   1   8
TORSDOF 9
ENDMDL
MODEL 5
REMARK VINA RESULT:    -3.789     17.148     19.219
REMARK INTER + INTRA:          -6.749
REMARK INTER:                  -5.878
REMARK INTRA:                  -0.871
REMARK UNBOUND:                -0.966
REMARK SMILES CCCCCCCCCCC(=O)[O-]
REMARK SMILES IDX 7 1 8 2 9 3 10 4 11 5 12 6 13 7 6 8 5 9 4 10 3 11 2 12 1 13
REMARK H PARENT
REMARK Flexibility Score: inf
ROOT
ATOM      1  C   UNL     1       4.561  85.866  61.836  1.00  0.00     0.000 C 
ENDROOT
BRANCH   1   2
ATOM      2  C   UNL     1       3.805  87.097  62.365  1.00  0.00     0.000 C 
BRANCH   2   3
ATOM      3  C   UNL     1       3.738  88.240  61.341  1.00  0.00     0.006 C 
BRANCH   3   4
ATOM      4  C   UNL     1       3.100  89.490  61.956  1.00  0.00     0.053 C 
BRANCH   4   5
ATOM      5  C   UNL     1       1.627  89.509  61.694  1.00  0.00     0.041 C 
ATOM      6  O   UNL     1       0.824  89.062  62.554  1.00  0.00    -0.550 OA
ATOM      7  O   UNL     1       1.137  90.068  60.520  1.00  0.00    -0.550 OA
ENDBRANCH   4   5
ENDBRANCH   3   4
ENDBRANCH   2   3
ENDBRANCH   1   2
BRANCH   1   8
ATOM      8  C   UNL     1       4.898  84.803  62.902  1.00  0.00     0.000 C 
BRANCH   8   9
ATOM      9  C   UNL     1       4.181  84.981  64.256  1.00  0.00    -0.000 C 
BRANCH   9  10
ATOM     10  C   UNL     1       3.304  83.792  64.688  1.00  0.00    -0.000 C 
BRANCH  10  11
ATOM     11  C   UNL     1       1.806  84.134  64.713  1.00  0.00    -0.000 C 
BRANCH  11  12
ATOM     12  C   UNL     1       1.266  84.332  63.292  1.00  0.00    -0.003 C 
ATOM     13  C   UNL     1       0.449  85.618  63.187  1.00  0.00     0.004 C 
ENDBRANCH  11  12
ENDBRANCH  10  11
ENDBRANCH   9  10
ENDBRANCH   8   9
ENDBRANCH   1   8
TORSDOF 9
ENDMDL
MODEL 6
REMARK VINA RESULT:    -3.787     16.354     18.816
REMARK INTER + INTRA:          -6.746
REMARK INTER:                  -6.176
REMARK INTRA:                  -0.570
REMARK UNBOUND:                -0.966
REMARK SMILES CCCCCCCCCCC(=O)[O-]
REMARK SMILES IDX 7 1 8 2 9 3 10 4 11 5 12 6 13 7 6 8 5 9 4 10 3 11 2 12 1 13
REMARK H PARENT
REMARK Flexibility Score: inf
ROOT
ATOM      1  C   UNL     1       4.461  87.314  61.231  1.00  0.00     0.000 C 
ENDROOT
BRANCH   1   2
ATOM      2  C   UNL     1       4.620  85.955  61.935  1.00  0.00     0.000 C 
BRANCH   2   3
ATOM      3  C   UNL     1       3.773  85.841  63.210  1.00  0.00     0.006 C 
BRANCH   3   4
ATOM      4  C   UNL     1       4.458  84.942  64.244  1.00  0.00     0.053 C 
BRANCH   4   5
ATOM      5  C   UNL     1       3.590  83.769  64.575  1.00  0.00     0.041 C 
ATOM      6  O   UNL     1       2.595  83.910  65.332  1.00  0.00    -0.550 OA
ATOM      7  O   UNL     1       3.852  82.529  64.006  1.00  0.00    -0.550 OA
ENDBRANCH   4   5
ENDBRANCH   3   4
ENDBRANCH   2   3
ENDBRANCH   1   2
BRANCH   1   8
ATOM      8  C   UNL     1       3.230  88.134  61.670  1.00  0.00     0.000 C 
BRANCH   8   9
ATOM      9  C   UNL     1       3.441  89.661  61.714  1.00  0.00    -0.000 C 
BRANCH   9  10
ATOM     10  C   UNL     1       3.468  90.353  60.339  1.00  0.00    -0.000 C 
BRANCH  10  11
ATOM     11  C   UNL     1       4.891  90.679  59.863  1.00  0.00    -0.000 C 
BRANCH  11  12
ATOM     12  C   UNL     1       5.254  89.859  58.620  1.00  0.00    -0.003 C 
ATOM     13  C   UNL     1       6.530  89.052  58.844  1.00  0.00     0.004 C 
ENDBRANCH  11  12
ENDBRANCH  10  11
ENDBRANCH   9  10
ENDBRANCH   8   9
ENDBRANCH   1   8
TORSDOF 9
ENDMDL
MODEL 7
REMARK VINA RESULT:    -3.772     10.350     12.442
REMARK INTER + INTRA:          -6.723
REMARK INTER:                  -5.865
REMARK INTRA:                  -0.858
REMARK UNBOUND:                -0.966
REMARK SMILES CCCCCCCCCCC(=O)[O-]
REMARK SMILES IDX 7 1 8 2 9 3 10 4 11 5 12 6 13 7 6 8 5 9 4 10 3 11 2 12 1 13
REMARK H PARENT
REMARK Flexibility Score: inf
ROOT
ATOM      1  C   UNL     1       5.995  77.106  64.735  1.00  0.00     0.000 C 
ENDROOT
BRANCH   1   2
ATOM      2  C   UNL     1       5.256  77.822  63.590  1.00  0.00     0.000 C 
BRANCH   2   3
ATOM      3  C   UNL     1       5.358  79.351  63.679  1.00  0.00     0.006 C 
BRANCH   3   4
ATOM      4  C   UNL     1       5.656  79.962  62.306  1.00  0.00     0.053 C 
BRANCH   4   5
ATOM      5  C   UNL     1       6.939  79.421  61.759  1.00  0.00     0.041 C 
ATOM      6  O   UNL     1       6.964  78.873  60.627  1.00  0.00    -0.550 OA
ATOM      7  O   UNL     1       8.117  79.567  62.480  1.00  0.00    -0.550 OA
ENDBRANCH   4   5
ENDBRANCH   3   4
ENDBRANCH   2   3
ENDBRANCH   1   2
BRANCH   1   8
ATOM      8  C   UNL     1       7.098  77.939  65.418  1.00  0.00     0.000 C 
BRANCH   8   9
ATOM      9  C   UNL     1       7.213  77.749  66.945  1.00  0.00    -0.000 C 
BRANCH   9  10
ATOM     10  C   UNL     1       6.244  78.605  67.781  1.00  0.00    -0.000 C 
BRANCH  10  11
ATOM     11  C   UNL     1       5.164  77.769  68.484  1.00  0.00    -0.000 C 
BRANCH  11  12
ATOM     12  C   UNL     1       5.473  76.271  68.374  1.00  0.00    -0.003 C 
ATOM     13  C   UNL     1       4.195  75.439  68.425  1.00  0.00     0.004 C 
ENDBRANCH  11  12
ENDBRANCH  10  11
ENDBRANCH   9  10
ENDBRANCH   8   9
ENDBRANCH   1   8
TORSDOF 9
ENDMDL
MODEL 8
REMARK VINA RESULT:    -3.758     10.484     12.132
REMARK INTER + INTRA:          -6.701
REMARK INTER:                  -5.892
REMARK INTRA:                  -0.810
REMARK UNBOUND:                -0.966
REMARK SMILES CCCCCCCCCCC(=O)[O-]
REMARK SMILES IDX 7 1 8 2 9 3 10 4 11 5 12 6 13 7 6 8 5 9 4 10 3 11 2 12 1 13
REMARK H PARENT
REMARK Flexibility Score: inf
ROOT
ATOM      1  C   UNL     1       6.722  78.282  67.690  1.00  0.00     0.000 C 
ENDROOT
BRANCH   1   2
ATOM      2  C   UNL     1       5.299  78.721  67.301  1.00  0.00     0.000 C 
BRANCH   2   3
ATOM      3  C   UNL     1       4.212  78.006  68.116  1.00  0.00     0.006 C 
BRANCH   3   4
ATOM      4  C   UNL     1       4.553  76.524  68.304  1.00  0.00     0.053 C 
BRANCH   4   5
ATOM      5  C   UNL     1       3.305  75.715  68.463  1.00  0.00     0.041 C 
ATOM      6  O   UNL     1       2.253  76.251  68.899  1.00  0.00    -0.550 OA
ATOM      7  O   UNL     1       3.290  74.379  68.080  1.00  0.00    -0.550 OA
ENDBRANCH   4   5
ENDBRANCH   3   4
ENDBRANCH   2   3
ENDBRANCH   1   2
BRANCH   1   8
ATOM      8  C   UNL     1       7.548  77.664  66.544  1.00  0.00     0.000 C 
BRANCH   8   9
ATOM      9  C   UNL     1       6.829  77.592  65.181  1.00  0.00    -0.000 C 
BRANCH   9  10
ATOM     10  C   UNL     1       7.493  78.401  64.052  1.00  0.00    -0.000 C 
BRANCH  10  11
ATOM     11  C   UNL     1       6.474  79.080  63.125  1.00  0.00    -0.000 C 
BRANCH  11  12
ATOM     12  C   UNL     1       5.075  78.483  63.318  1.00  0.00    -0.003 C 
ATOM     13  C   UNL     1       4.069  79.555  63.727  1.00  0.00     0.004 C 
ENDBRANCH  11  12
ENDBRANCH  10  11
ENDBRANCH   9  10
ENDBRANCH   8   9
ENDBRANCH   1   8
TORSDOF 9
ENDMDL
MODEL 9
REMARK VINA RESULT:    -3.740     10.208     12.188
REMARK INTER + INTRA:          -6.674
REMARK INTER:                  -5.788
REMARK INTRA:                  -0.886
REMARK UNBOUND:                -0.966
REMARK SMILES CCCCCCCCCCC(=O)[O-]
REMARK SMILES IDX 7 1 8 2 9 3 10 4 11 5 12 6 13 7 6 8 5 9 4 10 3 11 2 12 1 13
REMARK H PARENT
REMARK Flexibility Score: inf
ROOT
ATOM      1  C   UNL     1       5.646  78.686  68.385  1.00  0.00     0.000 C 
ENDROOT
BRANCH   1   2
ATOM      2  C   UNL     1       5.782  77.155  68.306  1.00  0.00     0.000 C 
BRANCH   2   3
ATOM      3  C   UNL     1       6.485  76.685  67.024  1.00  0.00     0.006 C 
BRANCH   3   4
ATOM      4  C   UNL     1       7.335  77.808  66.422  1.00  0.00     0.053 C 
BRANCH   4   5
ATOM      5  C   UNL     1       7.134  77.881  64.941  1.00  0.00     0.041 C 
ATOM      6  O   UNL     1       6.190  77.251  64.398  1.00  0.00    -0.550 OA
ATOM      7  O   UNL     1       7.960  78.687  64.167  1.00  0.00    -0.550 OA
ENDBRANCH   4   5
ENDBRANCH   3   4
ENDBRANCH   2   3
ENDBRANCH   1   2
BRANCH   1   8
ATOM      8  C   UNL     1       4.204  79.203  68.560  1.00  0.00     0.000 C 
BRANCH   8   9
ATOM      9  C   UNL     1       3.137  78.468  67.721  1.00  0.00    -0.000 C 
BRANCH   9  10
ATOM     10  C   UNL     1       1.869  78.062  68.493  1.00  0.00    -0.000 C 
BRANCH  10  11
ATOM     11  C   UNL     1       1.492  76.588  68.287  1.00  0.00    -0.000 C 
BRANCH  11  12
ATOM     12  C   UNL     1       2.622  75.663  68.754  1.00  0.00    -0.003 C 
ATOM     13  C   UNL     1       2.948  74.613  67.695  1.00  0.00     0.004 C 
ENDBRANCH  11  12
ENDBRANCH  10  11
ENDBRANCH   9  10
ENDBRANCH   8   9
ENDBRANCH   1   8
TORSDOF 9
ENDMDL
