MODEL 1
REMARK VINA RESULT:    -5.887      0.000      0.000
REMARK INTER + INTRA:          -7.271
REMARK INTER:                  -7.263
REMARK INTRA:                  -0.008
REMARK UNBOUND:                -0.008
REMARK SMILES COc1cc(-c2oc3cc(O)cc(O)c3c(=O)c2O)ccc1O
REMARK SMILES IDX 6 1 18 2 16 3 17 4 15 5 13 6 12 7 10 8 9 9 8 10 7 11 5 12
REMARK SMILES IDX 3 13 22 14 4 15 21 16 20 17 2 18 1 19 23 20 19 22 14 24
REMARK SMILES IDX 11 26
REMARK H PARENT 23 21 19 23 14 25 11 27
REMARK Flexibility Score: inf
ROOT
ATOM      1  C   UNL     1     -33.564   9.880 -39.069  1.00  0.00     0.180 A 
ATOM      2  C   UNL     1     -32.635   9.383 -39.999  1.00  0.00     0.208 A 
ATOM      3  C   UNL     1     -33.013   9.271 -41.346  1.00  0.00     0.238 A 
ATOM      4  O   UNL     1     -32.161   8.876 -42.184  1.00  0.00    -0.285 OA
ATOM      5  C   UNL     1     -34.321   9.642 -41.744  1.00  0.00     0.111 A 
ATOM      6  C   UNL     1     -34.825   9.533 -43.075  1.00  0.00     0.134 A 
ATOM      7  C   UNL     1     -36.090  10.052 -43.378  1.00  0.00     0.093 A 
ATOM      8  C   UNL     1     -36.894  10.616 -42.389  1.00  0.00     0.123 A 
ATOM      9  C   UNL     1     -36.435  10.673 -41.073  1.00  0.00     0.094 A 
ATOM     10  C   UNL     1     -35.163  10.197 -40.746  1.00  0.00     0.146 A 
ATOM     11  O   UNL     1     -34.760  10.281 -39.483  1.00  0.00    -0.452 OA
ENDROOT
BRANCH   1  12
ATOM     12  C   UNL     1     -33.247  10.003 -37.628  1.00  0.00     0.025 A 
ATOM     13  C   UNL     1     -33.029  11.410 -35.638  1.00  0.00     0.161 A 
ATOM     14  C   UNL     1     -32.709  10.270 -34.878  1.00  0.00     0.157 A 
ATOM     15  C   UNL     1     -33.302  11.265 -37.013  1.00  0.00     0.062 A 
ATOM     16  C   UNL     1     -32.673   9.011 -35.485  1.00  0.00     0.051 A 
ATOM     17  C   UNL     1     -32.946   8.875 -36.847  1.00  0.00     0.016 A 
BRANCH  13  18
ATOM     18  O   UNL     1     -33.064  12.660 -35.001  1.00  0.00    -0.493 OA
ATOM     19  C   UNL     1     -33.970  13.012 -33.960  1.00  0.00     0.278 C 
ENDBRANCH  13  18
BRANCH  14  20
ATOM     20  O   UNL     1     -32.429  10.367 -33.515  1.00  0.00    -0.504 OA
ATOM     21  H   UNL     1     -32.454   9.563 -32.900  1.00  0.00     0.293 HD
ENDBRANCH  14  20
ENDBRANCH   1  12
BRANCH   2  22
ATOM     22  O   UNL     1     -31.343   9.042 -39.589  1.00  0.00    -0.502 OA
ATOM     23  H   UNL     1     -30.516   9.359 -40.080  1.00  0.00     0.293 HD
ENDBRANCH   2  22
BRANCH   6  24
ATOM     24  O   UNL     1     -34.141   8.904 -44.119  1.00  0.00    -0.507 OA
ATOM     25  H   UNL     1     -34.560   8.269 -44.780  1.00  0.00     0.293 HD
ENDBRANCH   6  24
BRANCH   8  26
ATOM     26  O   UNL     1     -38.153  11.108 -42.724  1.00  0.00    -0.508 OA
ATOM     27  H   UNL     1     -38.348  12.103 -42.738  1.00  0.00     0.293 HD
ENDBRANCH   8  26
TORSDOF 6
ENDMDL
MODEL 2
REMARK VINA RESULT:    -4.239      1.416      6.797
REMARK INTER + INTRA:          -5.238
REMARK INTER:                  -5.626
REMARK INTRA:                   0.389
REMARK UNBOUND:                -0.008
REMARK SMILES COc1cc(-c2oc3cc(O)cc(O)c3c(=O)c2O)ccc1O
REMARK SMILES IDX 6 1 18 2 16 3 17 4 15 5 13 6 12 7 10 8 9 9 8 10 7 11 5 12
REMARK SMILES IDX 3 13 22 14 4 15 21 16 20 17 2 18 1 19 23 20 19 22 14 24
REMARK SMILES IDX 11 26
REMARK H PARENT 23 21 19 23 14 25 11 27
REMARK Flexibility Score: inf
ROOT
ATOM      1  C   UNL     1     -33.509  10.111 -39.041  1.00  0.00     0.180 A 
ATOM      2  C   UNL     1     -32.208   9.627 -38.825  1.00  0.00     0.208 A 
ATOM      3  C   UNL     1     -31.583   9.876 -37.593  1.00  0.00     0.238 A 
ATOM      4  O   UNL     1     -30.439   9.394 -37.385  1.00  0.00    -0.285 OA
ATOM      5  C   UNL     1     -32.261  10.621 -36.597  1.00  0.00     0.111 A 
ATOM      6  C   UNL     1     -31.709  10.968 -35.328  1.00  0.00     0.134 A 
ATOM      7  C   UNL     1     -32.518  11.595 -34.372  1.00  0.00     0.093 A 
ATOM      8  C   UNL     1     -33.836  11.945 -34.661  1.00  0.00     0.123 A 
ATOM      9  C   UNL     1     -34.367  11.665 -35.920  1.00  0.00     0.094 A 
ATOM     10  C   UNL     1     -33.596  11.008 -36.883  1.00  0.00     0.146 A 
ATOM     11  O   UNL     1     -34.144  10.749 -38.064  1.00  0.00    -0.452 OA
ENDROOT
BRANCH   1  12
ATOM     12  C   UNL     1     -34.223   9.908 -40.322  1.00  0.00     0.025 A 
ATOM     13  C   UNL     1     -36.103  10.455 -41.788  1.00  0.00     0.161 A 
ATOM     14  C   UNL     1     -35.576   9.597 -42.770  1.00  0.00     0.157 A 
ATOM     15  C   UNL     1     -35.415  10.609 -40.568  1.00  0.00     0.062 A 
ATOM     16  C   UNL     1     -34.379   8.914 -42.534  1.00  0.00     0.051 A 
ATOM     17  C   UNL     1     -33.702   9.073 -41.323  1.00  0.00     0.016 A 
BRANCH  13  18
ATOM     18  O   UNL     1     -37.303  11.132 -42.056  1.00  0.00    -0.493 OA
ATOM     19  C   UNL     1     -38.579  10.745 -41.554  1.00  0.00     0.278 C 
ENDBRANCH  13  18
BRANCH  14  20
ATOM     20  O   UNL     1     -36.225   9.413 -43.991  1.00  0.00    -0.504 OA
ATOM     21  H   UNL     1     -36.960   8.727 -44.113  1.00  0.00     0.293 HD
ENDBRANCH  14  20
ENDBRANCH   1  12
BRANCH   2  22
ATOM     22  O   UNL     1     -31.565   8.875 -39.813  1.00  0.00    -0.502 OA
ATOM     23  H   UNL     1     -31.518   7.864 -39.782  1.00  0.00     0.293 HD
ENDBRANCH   2  22
BRANCH   6  24
ATOM     24  O   UNL     1     -30.376  10.746 -34.969  1.00  0.00    -0.507 OA
ATOM     25  H   UNL     1     -30.078  10.228 -34.157  1.00  0.00     0.293 HD
ENDBRANCH   6  24
BRANCH   8  26
ATOM     26  O   UNL     1     -34.607  12.583 -33.691  1.00  0.00    -0.508 OA
ATOM     27  H   UNL     1     -35.545  12.269 -33.468  1.00  0.00     0.293 HD
ENDBRANCH   8  26
TORSDOF 6
ENDMDL
MODEL 3
REMARK VINA RESULT:    -4.077      1.432      6.819
REMARK INTER + INTRA:          -5.038
REMARK INTER:                  -5.420
REMARK INTRA:                   0.382
REMARK UNBOUND:                -0.008
REMARK SMILES COc1cc(-c2oc3cc(O)cc(O)c3c(=O)c2O)ccc1O
REMARK SMILES IDX 6 1 18 2 16 3 17 4 15 5 13 6 12 7 10 8 9 9 8 10 7 11 5 12
REMARK SMILES IDX 3 13 22 14 4 15 21 16 20 17 2 18 1 19 23 20 19 22 14 24
REMARK SMILES IDX 11 26
REMARK H PARENT 23 21 19 23 14 25 11 27
REMARK Flexibility Score: inf
ROOT
ATOM      1  C   UNL     1     -33.358  10.103 -38.965  1.00  0.00     0.180 A 
ATOM      2  C   UNL     1     -32.061   9.629 -38.705  1.00  0.00     0.208 A 
ATOM      3  C   UNL     1     -31.481   9.882 -37.451  1.00  0.00     0.238 A 
ATOM      4  O   UNL     1     -30.341   9.409 -37.204  1.00  0.00    -0.285 OA
ATOM      5  C   UNL     1     -32.200  10.620 -36.479  1.00  0.00     0.111 A 
ATOM      6  C   UNL     1     -31.695  10.970 -35.191  1.00  0.00     0.134 A 
ATOM      7  C   UNL     1     -32.542  11.589 -34.263  1.00  0.00     0.093 A 
ATOM      8  C   UNL     1     -33.851  11.929 -34.597  1.00  0.00     0.123 A 
ATOM      9  C   UNL     1     -34.336  11.646 -35.874  1.00  0.00     0.094 A 
ATOM     10  C   UNL     1     -33.527  10.997 -36.810  1.00  0.00     0.146 A 
ATOM     11  O   UNL     1     -34.031  10.735 -38.010  1.00  0.00    -0.452 OA
ENDROOT
BRANCH   1  12
ATOM     12  C   UNL     1     -34.025   9.897 -40.270  1.00  0.00     0.025 A 
ATOM     13  C   UNL     1     -35.841  10.451 -41.812  1.00  0.00     0.161 A 
ATOM     14  C   UNL     1     -35.288   9.578 -42.765  1.00  0.00     0.157 A 
ATOM     15  C   UNL     1     -35.198  10.609 -40.568  1.00  0.00     0.062 A 
ATOM     16  C   UNL     1     -34.109   8.883 -42.477  1.00  0.00     0.051 A 
ATOM     17  C   UNL     1     -33.477   9.045 -41.243  1.00  0.00     0.016 A 
BRANCH  13  18
ATOM     18  O   UNL     1     -37.022  11.140 -42.131  1.00  0.00    -0.493 OA
ATOM     19  C   UNL     1     -38.333  10.698 -41.791  1.00  0.00     0.278 C 
ENDBRANCH  13  18
BRANCH  14  20
ATOM     20  O   UNL     1     -35.892   9.389 -44.008  1.00  0.00    -0.504 OA
ATOM     21  H   UNL     1     -35.671   9.968 -44.809  1.00  0.00     0.293 HD
ENDBRANCH  14  20
ENDBRANCH   1  12
BRANCH   2  22
ATOM     22  O   UNL     1     -31.377   8.884 -39.670  1.00  0.00    -0.502 OA
ATOM     23  H   UNL     1     -31.061   9.286 -40.544  1.00  0.00     0.293 HD
ENDBRANCH   2  22
BRANCH   6  24
ATOM     24  O   UNL     1     -30.373  10.758 -34.786  1.00  0.00    -0.507 OA
ATOM     25  H   UNL     1     -29.568  10.848 -35.386  1.00  0.00     0.293 HD
ENDBRANCH   6  24
BRANCH   8  26
ATOM     26  O   UNL     1     -34.661  12.559 -33.654  1.00  0.00    -0.508 OA
ATOM     27  H   UNL     1     -35.637  12.756 -33.840  1.00  0.00     0.293 HD
ENDBRANCH   8  26
TORSDOF 6
ENDMDL
MODEL 4
REMARK VINA RESULT:    -4.032      2.062      3.750
REMARK INTER + INTRA:          -4.983
REMARK INTER:                  -5.266
REMARK INTRA:                   0.283
REMARK UNBOUND:                -0.008
REMARK SMILES COc1cc(-c2oc3cc(O)cc(O)c3c(=O)c2O)ccc1O
REMARK SMILES IDX 6 1 18 2 16 3 17 4 15 5 13 6 12 7 10 8 9 9 8 10 7 11 5 12
REMARK SMILES IDX 3 13 22 14 4 15 21 16 20 17 2 18 1 19 23 20 19 22 14 24
REMARK SMILES IDX 11 26
REMARK H PARENT 23 21 19 23 14 25 11 27
REMARK Flexibility Score: inf
ROOT
ATOM      1  C   UNL     1     -35.597  10.067 -40.999  1.00  0.00     0.180 A 
ATOM      2  C   UNL     1     -35.695   9.481 -42.272  1.00  0.00     0.208 A 
ATOM      3  C   UNL     1     -36.917   9.548 -42.961  1.00  0.00     0.238 A 
ATOM      4  O   UNL     1     -36.983   9.069 -44.123  1.00  0.00    -0.285 OA
ATOM      5  C   UNL     1     -38.030  10.186 -42.361  1.00  0.00     0.111 A 
ATOM      6  C   UNL     1     -39.326  10.277 -42.950  1.00  0.00     0.134 A 
ATOM      7  C   UNL     1     -40.316  11.045 -42.324  1.00  0.00     0.093 A 
ATOM      8  C   UNL     1     -40.078  11.669 -41.100  1.00  0.00     0.123 A 
ATOM      9  C   UNL     1     -38.832  11.535 -40.486  1.00  0.00     0.094 A 
ATOM     10  C   UNL     1     -37.813  10.807 -41.104  1.00  0.00     0.146 A 
ATOM     11  O   UNL     1     -36.639  10.715 -40.491  1.00  0.00    -0.452 OA
ENDROOT
BRANCH   1  12
ATOM     12  C   UNL     1     -34.350  10.015 -40.202  1.00  0.00     0.025 A 
ATOM     13  C   UNL     1     -32.999  10.885 -38.357  1.00  0.00     0.161 A 
ATOM     14  C   UNL     1     -32.021   9.910 -38.626  1.00  0.00     0.157 A 
ATOM     15  C   UNL     1     -34.164  10.926 -39.148  1.00  0.00     0.062 A 
ATOM     16  C   UNL     1     -32.214   8.991 -39.662  1.00  0.00     0.051 A 
ATOM     17  C   UNL     1     -33.372   9.036 -40.440  1.00  0.00     0.016 A 
BRANCH  13  18
ATOM     18  O   UNL     1     -32.781  11.790 -37.307  1.00  0.00    -0.493 OA
ATOM     19  C   UNL     1     -33.160  11.564 -35.953  1.00  0.00     0.278 C 
ENDBRANCH  13  18
BRANCH  14  20
ATOM     20  O   UNL     1     -30.851   9.835 -37.870  1.00  0.00    -0.504 OA
ATOM     21  H   UNL     1     -30.178  10.590 -37.841  1.00  0.00     0.293 HD
ENDBRANCH  14  20
ENDBRANCH   1  12
BRANCH   2  22
ATOM     22  O   UNL     1     -34.578   8.875 -42.855  1.00  0.00    -0.502 OA
ATOM     23  H   UNL     1     -34.434   7.873 -42.841  1.00  0.00     0.293 HD
ENDBRANCH   2  22
BRANCH   6  24
ATOM     24  O   UNL     1     -39.698   9.617 -44.125  1.00  0.00    -0.507 OA
ATOM     25  H   UNL     1     -40.428   8.924 -44.188  1.00  0.00     0.293 HD
ENDBRANCH   6  24
BRANCH   8  26
ATOM     26  O   UNL     1     -41.091  12.411 -40.498  1.00  0.00    -0.508 OA
ATOM     27  H   UNL     1     -41.955  12.623 -40.985  1.00  0.00     0.293 HD
ENDBRANCH   8  26
TORSDOF 6
ENDMDL
MODEL 5
REMARK VINA RESULT:    -3.032      1.381      6.752
REMARK INTER + INTRA:          -3.748
REMARK INTER:                  -4.031
REMARK INTRA:                   0.283
REMARK UNBOUND:                -0.008
REMARK SMILES COc1cc(-c2oc3cc(O)cc(O)c3c(=O)c2O)ccc1O
REMARK SMILES IDX 6 1 18 2 16 3 17 4 15 5 13 6 12 7 10 8 9 9 8 10 7 11 5 12
REMARK SMILES IDX 3 13 22 14 4 15 21 16 20 17 2 18 1 19 23 20 19 22 14 24
REMARK SMILES IDX 11 26
REMARK H PARENT 23 21 19 23 14 25 11 27
REMARK Flexibility Score: inf
ROOT
ATOM      1  C   UNL     1     -34.404  10.007 -40.006  1.00  0.00     0.180 A 
ATOM      2  C   UNL     1     -33.115   9.481 -40.200  1.00  0.00     0.208 A 
ATOM      3  C   UNL     1     -32.190   9.537 -39.145  1.00  0.00     0.238 A 
ATOM      4  O   UNL     1     -31.056   9.016 -39.306  1.00  0.00    -0.285 OA
ATOM      5  C   UNL     1     -32.561  10.132 -37.915  1.00  0.00     0.111 A 
ATOM      6  C   UNL     1     -31.692  10.279 -36.792  1.00  0.00     0.134 A 
ATOM      7  C   UNL     1     -32.204  10.765 -35.582  1.00  0.00     0.093 A 
ATOM      8  C   UNL     1     -33.534  11.170 -35.473  1.00  0.00     0.123 A 
ATOM      9  C   UNL     1     -34.376  11.087 -36.583  1.00  0.00     0.094 A 
ATOM     10  C   UNL     1     -33.904  10.573 -37.793  1.00  0.00     0.146 A 
ATOM     11  O   UNL     1     -34.741  10.500 -38.820  1.00  0.00    -0.452 OA
ENDROOT
BRANCH   1  12
ATOM     12  C   UNL     1     -35.424  10.007 -41.079  1.00  0.00     0.025 A 
ATOM     13  C   UNL     1     -37.771  10.185 -41.746  1.00  0.00     0.161 A 
ATOM     14  C   UNL     1     -37.388  10.072 -43.095  1.00  0.00     0.157 A 
ATOM     15  C   UNL     1     -36.780  10.157 -40.744  1.00  0.00     0.062 A 
ATOM     16  C   UNL     1     -36.036   9.942 -43.430  1.00  0.00     0.051 A 
ATOM     17  C   UNL     1     -35.060   9.917 -42.433  1.00  0.00     0.016 A 
BRANCH  13  18
ATOM     18  O   UNL     1     -39.134  10.320 -41.439  1.00  0.00    -0.493 OA
ATOM     19  C   UNL     1     -39.825  11.563 -41.356  1.00  0.00     0.278 C 
ENDBRANCH  13  18
BRANCH  14  20
ATOM     20  O   UNL     1     -38.335  10.092 -44.118  1.00  0.00    -0.504 OA
ATOM     21  H   UNL     1     -39.326  10.193 -43.934  1.00  0.00     0.293 HD
ENDBRANCH  14  20
ENDBRANCH   1  12
BRANCH   2  22
ATOM     22  O   UNL     1     -32.777   8.878 -41.415  1.00  0.00    -0.502 OA
ATOM     23  H   UNL     1     -33.444   8.762 -42.169  1.00  0.00     0.293 HD
ENDBRANCH   2  22
BRANCH   6  24
ATOM     24  O   UNL     1     -30.325   9.991 -36.819  1.00  0.00    -0.507 OA
ATOM     25  H   UNL     1     -29.868   9.314 -36.228  1.00  0.00     0.293 HD
ENDBRANCH   6  24
BRANCH   8  26
ATOM     26  O   UNL     1     -34.005  11.664 -34.259  1.00  0.00    -0.508 OA
ATOM     27  H   UNL     1     -34.742  12.359 -34.219  1.00  0.00     0.293 HD
ENDBRANCH   8  26
TORSDOF 6
ENDMDL
