MODEL 1
REMARK VINA RESULT:    -3.564      0.000      0.000
REMARK INTER + INTRA:          -5.400
REMARK INTER:                  -5.022
REMARK INTRA:                  -0.378
REMARK UNBOUND:                -0.378
REMARK SMILES C=CCCCCCCC(=O)[O-]
REMARK SMILES IDX 6 1 7 2 8 3 9 4 10 5 11 6 5 7 4 8 3 9 2 10 1 11
REMARK H PARENT
REMARK Flexibility Score: inf
ROOT
ATOM      1  C   UNL     1      61.036  32.743  59.835  1.00  0.00     0.000 C 
ENDROOT
BRANCH   1   2
ATOM      2  C   UNL     1      60.994  31.260  60.236  1.00  0.00     0.006 C 
BRANCH   2   3
ATOM      3  C   UNL     1      61.319  31.049  61.720  1.00  0.00     0.053 C 
BRANCH   3   4
ATOM      4  C   UNL     1      62.378  30.009  61.916  1.00  0.00     0.041 C 
ATOM      5  O   UNL     1      62.059  28.798  62.051  1.00  0.00    -0.550 OA
ATOM      6  O   UNL     1      63.720  30.372  61.916  1.00  0.00    -0.550 OA
ENDBRANCH   3   4
ENDBRANCH   2   3
ENDBRANCH   1   2
BRANCH   1   7
ATOM      7  C   UNL     1      61.868  33.559  60.836  1.00  0.00     0.000 C 
BRANCH   7   8
ATOM      8  C   UNL     1      61.517  35.055  60.813  1.00  0.00     0.004 C 
BRANCH   8   9
ATOM      9  C   UNL     1      62.698  35.945  61.230  1.00  0.00     0.027 C 
BRANCH   9  10
ATOM     10  C   UNL     1      63.961  35.140  61.369  1.00  0.00    -0.035 C 
ATOM     11  C   UNL     1      64.995  35.575  62.095  1.00  0.00     0.004 C 
ENDBRANCH   9  10
ENDBRANCH   8   9
ENDBRANCH   7   8
ENDBRANCH   1   7
TORSDOF 7
ENDMDL
MODEL 2
REMARK VINA RESULT:    -3.560     12.936     14.154
REMARK INTER + INTRA:          -5.395
REMARK INTER:                  -4.977
REMARK INTRA:                  -0.418
REMARK UNBOUND:                -0.378
REMARK SMILES C=CCCCCCCC(=O)[O-]
REMARK SMILES IDX 6 1 7 2 8 3 9 4 10 5 11 6 5 7 4 8 3 9 2 10 1 11
REMARK H PARENT
REMARK Flexibility Score: inf
ROOT
ATOM      1  C   UNL     1      58.114  29.116  49.917  1.00  0.00     0.000 C 
ENDROOT
BRANCH   1   2
ATOM      2  C   UNL     1      59.279  28.386  49.230  1.00  0.00     0.006 C 
BRANCH   2   3
ATOM      3  C   UNL     1      59.219  26.868  49.442  1.00  0.00     0.053 C 
BRANCH   3   4
ATOM      4  C   UNL     1      60.585  26.277  49.611  1.00  0.00     0.041 C 
ATOM      5  O   UNL     1      61.608  26.999  49.483  1.00  0.00    -0.550 OA
ATOM      6  O   UNL     1      60.727  24.934  49.943  1.00  0.00    -0.550 OA
ENDBRANCH   3   4
ENDBRANCH   2   3
ENDBRANCH   1   2
BRANCH   1   7
ATOM      7  C   UNL     1      57.041  28.120  50.384  1.00  0.00     0.000 C 
BRANCH   7   8
ATOM      8  C   UNL     1      55.650  28.763  50.502  1.00  0.00     0.004 C 
BRANCH   8   9
ATOM      9  C   UNL     1      54.520  27.805  50.095  1.00  0.00     0.027 C 
BRANCH   9  10
ATOM     10  C   UNL     1      55.035  26.402  49.920  1.00  0.00    -0.035 C 
ATOM     11  C   UNL     1      54.332  25.472  49.267  1.00  0.00     0.004 C 
ENDBRANCH   9  10
ENDBRANCH   8   9
ENDBRANCH   7   8
ENDBRANCH   1   7
TORSDOF 7
ENDMDL
MODEL 3
REMARK VINA RESULT:    -3.559     12.626     14.314
REMARK INTER + INTRA:          -5.394
REMARK INTER:                  -5.083
REMARK INTRA:                  -0.311
REMARK UNBOUND:                -0.378
REMARK SMILES C=CCCCCCCC(=O)[O-]
REMARK SMILES IDX 6 1 7 2 8 3 9 4 10 5 11 6 5 7 4 8 3 9 2 10 1 11
REMARK H PARENT
REMARK Flexibility Score: inf
ROOT
ATOM      1  C   UNL     1      57.575  28.926  50.644  1.00  0.00     0.000 C 
ENDROOT
BRANCH   1   2
ATOM      2  C   UNL     1      58.440  29.175  49.399  1.00  0.00     0.006 C 
BRANCH   2   3
ATOM      3  C   UNL     1      59.940  29.052  49.700  1.00  0.00     0.053 C 
BRANCH   3   4
ATOM      4  C   UNL     1      60.480  27.715  49.298  1.00  0.00     0.041 C 
ATOM      5  O   UNL     1      59.694  26.762  49.052  1.00  0.00    -0.550 OA
ATOM      6  O   UNL     1      61.851  27.528  49.163  1.00  0.00    -0.550 OA
ENDBRANCH   3   4
ENDBRANCH   2   3
ENDBRANCH   1   2
BRANCH   1   7
ATOM      7  C   UNL     1      56.470  27.900  50.348  1.00  0.00     0.000 C 
BRANCH   7   8
ATOM      8  C   UNL     1      55.065  28.521  50.373  1.00  0.00     0.004 C 
BRANCH   8   9
ATOM      9  C   UNL     1      53.972  27.529  49.949  1.00  0.00     0.027 C 
BRANCH   9  10
ATOM     10  C   UNL     1      54.560  26.185  49.613  1.00  0.00    -0.035 C 
ATOM     11  C   UNL     1      53.790  25.131  49.331  1.00  0.00     0.004 C 
ENDBRANCH   9  10
ENDBRANCH   8   9
ENDBRANCH   7   8
ENDBRANCH   1   7
TORSDOF 7
ENDMDL
MODEL 4
REMARK VINA RESULT:    -3.551      0.888      1.299
REMARK INTER + INTRA:          -5.382
REMARK INTER:                  -5.056
REMARK INTRA:                  -0.326
REMARK UNBOUND:                -0.378
REMARK SMILES C=CCCCCCCC(=O)[O-]
REMARK SMILES IDX 6 1 7 2 8 3 9 4 10 5 11 6 5 7 4 8 3 9 2 10 1 11
REMARK H PARENT
REMARK Flexibility Score: inf
ROOT
ATOM      1  C   UNL     1      61.111  32.293  60.462  1.00  0.00     0.000 C 
ENDROOT
BRANCH   1   2
ATOM      2  C   UNL     1      60.863  31.302  61.610  1.00  0.00     0.006 C 
BRANCH   2   3
ATOM      3  C   UNL     1      62.137  30.546  62.011  1.00  0.00     0.053 C 
BRANCH   3   4
ATOM      4  C   UNL     1      62.071  29.102  61.622  1.00  0.00     0.041 C 
ATOM      5  O   UNL     1      63.124  28.412  61.570  1.00  0.00    -0.550 OA
ATOM      6  O   UNL     1      60.845  28.508  61.349  1.00  0.00    -0.550 OA
ENDBRANCH   3   4
ENDBRANCH   2   3
ENDBRANCH   1   2
BRANCH   1   7
ATOM      7  C   UNL     1      62.212  33.299  60.834  1.00  0.00     0.000 C 
BRANCH   7   8
ATOM      8  C   UNL     1      61.714  34.754  60.811  1.00  0.00     0.004 C 
BRANCH   8   9
ATOM      9  C   UNL     1      62.808  35.759  61.202  1.00  0.00     0.027 C 
BRANCH   9  10
ATOM     10  C   UNL     1      64.094  35.056  61.542  1.00  0.00    -0.035 C 
ATOM     11  C   UNL     1      65.156  35.719  62.008  1.00  0.00     0.004 C 
ENDBRANCH   9  10
ENDBRANCH   8   9
ENDBRANCH   7   8
ENDBRANCH   1   7
TORSDOF 7
ENDMDL
MODEL 5
REMARK VINA RESULT:    -3.376      1.707      2.216
REMARK INTER + INTRA:          -5.136
REMARK INTER:                  -4.506
REMARK INTRA:                  -0.630
REMARK UNBOUND:                -0.378
REMARK SMILES C=CCCCCCCC(=O)[O-]
REMARK SMILES IDX 6 1 7 2 8 3 9 4 10 5 11 6 5 7 4 8 3 9 2 10 1 11
REMARK H PARENT
REMARK Flexibility Score: inf
ROOT
ATOM      1  C   UNL     1      62.211  34.228  60.002  1.00  0.00     0.000 C 
ENDROOT
BRANCH   1   2
ATOM      2  C   UNL     1      62.461  33.007  60.901  1.00  0.00     0.006 C 
BRANCH   2   3
ATOM      3  C   UNL     1      63.952  32.793  61.191  1.00  0.00     0.053 C 
BRANCH   3   4
ATOM      4  C   UNL     1      64.344  31.354  61.056  1.00  0.00     0.041 C 
ATOM      5  O   UNL     1      65.189  31.006  60.190  1.00  0.00    -0.550 OA
ATOM      6  O   UNL     1      63.799  30.400  61.909  1.00  0.00    -0.550 OA
ENDBRANCH   3   4
ENDBRANCH   2   3
ENDBRANCH   1   2
BRANCH   1   7
ATOM      7  C   UNL     1      61.168  35.166  60.628  1.00  0.00     0.000 C 
BRANCH   7   8
ATOM      8  C   UNL     1      61.769  36.514  61.058  1.00  0.00     0.004 C 
BRANCH   8   9
ATOM      9  C   UNL     1      63.250  36.649  60.676  1.00  0.00     0.027 C 
BRANCH   9  10
ATOM     10  C   UNL     1      64.112  36.822  61.898  1.00  0.00    -0.035 C 
ATOM     11  C   UNL     1      65.226  36.107  62.078  1.00  0.00     0.004 C 
ENDBRANCH   9  10
ENDBRANCH   8   9
ENDBRANCH   7   8
ENDBRANCH   1   7
TORSDOF 7
ENDMDL
MODEL 6
REMARK VINA RESULT:    -3.371      1.519      2.942
REMARK INTER + INTRA:          -5.128
REMARK INTER:                  -4.788
REMARK INTRA:                  -0.340
REMARK UNBOUND:                -0.378
REMARK SMILES C=CCCCCCCC(=O)[O-]
REMARK SMILES IDX 6 1 7 2 8 3 9 4 10 5 11 6 5 7 4 8 3 9 2 10 1 11
REMARK H PARENT
REMARK Flexibility Score: inf
ROOT
ATOM      1  C   UNL     1      64.284  33.866  60.492  1.00  0.00     0.000 C 
ENDROOT
BRANCH   1   2
ATOM      2  C   UNL     1      64.323  32.461  61.112  1.00  0.00     0.006 C 
BRANCH   2   3
ATOM      3  C   UNL     1      63.011  31.694  60.900  1.00  0.00     0.053 C 
BRANCH   3   4
ATOM      4  C   UNL     1      62.979  30.419  61.685  1.00  0.00     0.041 C 
ATOM      5  O   UNL     1      64.011  29.702  61.769  1.00  0.00    -0.550 OA
ATOM      6  O   UNL     1      61.820  30.039  62.350  1.00  0.00    -0.550 OA
ENDBRANCH   3   4
ENDBRANCH   2   3
ENDBRANCH   1   2
BRANCH   1   7
ATOM      7  C   UNL     1      64.421  34.948  61.574  1.00  0.00     0.000 C 
BRANCH   7   8
ATOM      8  C   UNL     1      63.325  36.021  61.478  1.00  0.00     0.004 C 
BRANCH   8   9
ATOM      9  C   UNL     1      61.987  35.457  60.977  1.00  0.00     0.027 C 
BRANCH   9  10
ATOM     10  C   UNL     1      60.956  36.545  60.845  1.00  0.00    -0.035 C 
ATOM     11  C   UNL     1      59.938  36.447  59.986  1.00  0.00     0.004 C 
ENDBRANCH   9  10
ENDBRANCH   8   9
ENDBRANCH   7   8
ENDBRANCH   1   7
TORSDOF 7
ENDMDL
MODEL 7
REMARK VINA RESULT:    -3.304      3.053      5.351
REMARK INTER + INTRA:          -5.034
REMARK INTER:                  -4.619
REMARK INTRA:                  -0.415
REMARK UNBOUND:                -0.378
REMARK SMILES C=CCCCCCCC(=O)[O-]
REMARK SMILES IDX 6 1 7 2 8 3 9 4 10 5 11 6 5 7 4 8 3 9 2 10 1 11
REMARK H PARENT
REMARK Flexibility Score: inf
ROOT
ATOM      1  C   UNL     1      62.306  32.363  60.470  1.00  0.00     0.000 C 
ENDROOT
BRANCH   1   2
ATOM      2  C   UNL     1      62.646  33.833  60.762  1.00  0.00     0.006 C 
BRANCH   2   3
ATOM      3  C   UNL     1      64.072  34.005  61.300  1.00  0.00     0.053 C 
BRANCH   3   4
ATOM      4  C   UNL     1      64.375  35.435  61.625  1.00  0.00     0.041 C 
ATOM      5  O   UNL     1      63.441  36.274  61.723  1.00  0.00    -0.550 OA
ATOM      6  O   UNL     1      65.687  35.836  61.851  1.00  0.00    -0.550 OA
ENDBRANCH   3   4
ENDBRANCH   2   3
ENDBRANCH   1   2
BRANCH   1   7
ATOM      7  C   UNL     1      60.895  32.016  60.968  1.00  0.00     0.000 C 
BRANCH   7   8
ATOM      8  C   UNL     1      60.892  30.850  61.969  1.00  0.00     0.004 C 
BRANCH   8   9
ATOM      9  C   UNL     1      62.265  30.173  62.092  1.00  0.00     0.027 C 
BRANCH   9  10
ATOM     10  C   UNL     1      62.195  28.727  61.683  1.00  0.00    -0.035 C 
ATOM     11  C   UNL     1      62.854  28.265  60.616  1.00  0.00     0.004 C 
ENDBRANCH   9  10
ENDBRANCH   8   9
ENDBRANCH   7   8
ENDBRANCH   1   7
TORSDOF 7
ENDMDL
MODEL 8
REMARK VINA RESULT:    -3.279      3.047      5.334
REMARK INTER + INTRA:          -4.999
REMARK INTER:                  -4.303
REMARK INTRA:                  -0.696
REMARK UNBOUND:                -0.378
REMARK SMILES C=CCCCCCCC(=O)[O-]
REMARK SMILES IDX 6 1 7 2 8 3 9 4 10 5 11 6 5 7 4 8 3 9 2 10 1 11
REMARK H PARENT
REMARK Flexibility Score: inf
ROOT
ATOM      1  C   UNL     1      64.518  32.304  60.041  1.00  0.00     0.000 C 
ENDROOT
BRANCH   1   2
ATOM      2  C   UNL     1      64.135  33.062  61.321  1.00  0.00     0.006 C 
BRANCH   2   3
ATOM      3  C   UNL     1      63.240  34.274  61.034  1.00  0.00     0.053 C 
BRANCH   3   4
ATOM      4  C   UNL     1      63.830  35.541  61.572  1.00  0.00     0.041 C 
ATOM      5  O   UNL     1      63.150  36.600  61.587  1.00  0.00    -0.550 OA
ATOM      6  O   UNL     1      65.121  35.545  62.089  1.00  0.00    -0.550 OA
ENDBRANCH   3   4
ENDBRANCH   2   3
ENDBRANCH   1   2
BRANCH   1   7
ATOM      7  C   UNL     1      64.298  30.793  60.210  1.00  0.00     0.000 C 
BRANCH   7   8
ATOM      8  C   UNL     1      63.960  30.405  61.658  1.00  0.00     0.004 C 
BRANCH   8   9
ATOM      9  C   UNL     1      62.647  29.615  61.767  1.00  0.00     0.027 C 
BRANCH   9  10
ATOM     10  C   UNL     1      61.500  30.385  61.170  1.00  0.00    -0.035 C 
ATOM     11  C   UNL     1      60.780  31.247  61.893  1.00  0.00     0.004 C 
ENDBRANCH   9  10
ENDBRANCH   8   9
ENDBRANCH   7   8
ENDBRANCH   1   7
TORSDOF 7
ENDMDL
MODEL 9
REMARK VINA RESULT:    -3.277     13.023     14.238
REMARK INTER + INTRA:          -4.996
REMARK INTER:                  -4.472
REMARK INTRA:                  -0.524
REMARK UNBOUND:                -0.378
REMARK SMILES C=CCCCCCCC(=O)[O-]
REMARK SMILES IDX 6 1 7 2 8 3 9 4 10 5 11 6 5 7 4 8 3 9 2 10 1 11
REMARK H PARENT
REMARK Flexibility Score: inf
ROOT
ATOM      1  C   UNL     1      56.273  28.430  50.351  1.00  0.00     0.000 C 
ENDROOT
BRANCH   1   2
ATOM      2  C   UNL     1      55.969  27.032  50.913  1.00  0.00     0.006 C 
BRANCH   2   3
ATOM      3  C   UNL     1      55.662  26.014  49.806  1.00  0.00     0.053 C 
BRANCH   3   4
ATOM      4  C   UNL     1      54.248  25.528  49.876  1.00  0.00     0.041 C 
ATOM      5  O   UNL     1      53.630  25.223  48.821  1.00  0.00    -0.550 OA
ATOM      6  O   UNL     1      53.621  25.379  51.108  1.00  0.00    -0.550 OA
ENDBRANCH   3   4
ENDBRANCH   2   3
ENDBRANCH   1   2
BRANCH   1   7
ATOM      7  C   UNL     1      57.724  28.837  50.647  1.00  0.00     0.000 C 
BRANCH   7   8
ATOM      8  C   UNL     1      58.523  29.149  49.371  1.00  0.00     0.004 C 
BRANCH   8   9
ATOM      9  C   UNL     1      59.741  28.230  49.198  1.00  0.00     0.027 C 
BRANCH   9  10
ATOM     10  C   UNL     1      59.369  26.788  49.412  1.00  0.00    -0.035 C 
ATOM     11  C   UNL     1      60.288  25.857  49.682  1.00  0.00     0.004 C 
ENDBRANCH   9  10
ENDBRANCH   8   9
ENDBRANCH   7   8
ENDBRANCH   1   7
TORSDOF 7
ENDMDL
