MODEL 1
REMARK VINA RESULT:    69.308      0.000      0.000
REMARK INTER + INTRA:         102.505
REMARK INTER:                 101.722
REMARK INTRA:                   0.783
REMARK UNBOUND:                 0.783
REMARK SMILES Cc1cc2c(C(C)C)c(O)c(O)c(C=O)c2c(O)c1-c1c(C)cc2c(C(C)C)c(O)c(O)c(C=O)c2c1O
REMARK SMILES IDX 1 1 2 2 3 3 4 4 16 5 13 6 11 7 9 8 5 9 17 10 19 11 20 12
REMARK SMILES IDX 37 13 21 14 36 15 23 16 22 17 24 18 33 19 25 20 31 21 29 22
REMARK SMILES IDX 38 23 34 25 35 26 26 27 27 28 28 29 32 30 30 32 18 34 6 36
REMARK SMILES IDX 7 37 8 38 14 39 15 40 10 41 12 43
REMARK H PARENT 38 24 32 31 30 33 18 35 10 42 12 44
REMARK Flexibility Score: inf
ROOT
ATOM      1  C   UNL     1      62.696 -16.981  38.901  1.00  0.00     0.045 C 
ATOM      2  C   UNL     1      63.815 -16.158  38.309  1.00  0.00    -0.039 A 
ATOM      3  C   UNL     1      64.897 -16.806  37.714  1.00  0.00     0.013 A 
ATOM      4  C   UNL     1      65.987 -16.096  37.174  1.00  0.00    -0.006 A 
ATOM      5  C   UNL     1      65.907 -14.672  37.115  1.00  0.00     0.039 A 
ATOM      6  C   UNL     1      66.881 -13.957  36.359  1.00  0.00     0.072 A 
ATOM      7  C   UNL     1      67.928 -14.653  35.732  1.00  0.00     0.169 A 
ATOM      8  C   UNL     1      68.052 -16.039  35.869  1.00  0.00     0.162 A 
ATOM      9  C   UNL     1      67.143 -16.772  36.673  1.00  0.00     0.008 A 
ATOM     10  C   UNL     1      64.873 -14.013  37.840  1.00  0.00     0.132 A 
ATOM     11  C   UNL     1      63.822 -14.758  38.417  1.00  0.00     0.031 A 
ENDROOT
BRANCH  11  12
ATOM     12  C   UNL     1      62.721 -14.063  39.135  1.00  0.00     0.031 A 
ATOM     13  C   UNL     1      62.980 -13.391  40.349  1.00  0.00     0.132 A 
ATOM     14  C   UNL     1      61.414 -14.110  38.623  1.00  0.00    -0.039 A 
ATOM     15  C   UNL     1      61.936 -12.695  41.025  1.00  0.00     0.039 A 
ATOM     16  C   UNL     1      60.371 -13.526  39.344  1.00  0.00     0.013 A 
ATOM     17  C   UNL     1      61.106 -14.852  37.344  1.00  0.00     0.045 C 
ATOM     18  C   UNL     1      60.601 -12.793  40.530  1.00  0.00    -0.006 A 
ATOM     19  C   UNL     1      62.174 -11.949  42.214  1.00  0.00     0.072 A 
ATOM     20  C   UNL     1      59.524 -12.197  41.257  1.00  0.00     0.008 A 
ATOM     21  C   UNL     1      61.096 -11.531  43.007  1.00  0.00     0.169 A 
ATOM     22  C   UNL     1      59.775 -11.726  42.567  1.00  0.00     0.162 A 
BRANCH  13  23
ATOM     23  O   UNL     1      64.259 -13.459  40.914  1.00  0.00    -0.507 OA
ATOM     24  H   UNL     1      64.474 -13.177  41.862  1.00  0.00     0.293 HD
ENDBRANCH  13  23
BRANCH  19  25
ATOM     25  C   UNL     1      63.523 -11.508  42.634  1.00  0.00     0.264 C 
ATOM     26  O   UNL     1      64.270 -10.875  41.842  1.00  0.00    -0.298 OA
ENDBRANCH  19  25
BRANCH  20  27
ATOM     27  C   UNL     1      58.101 -12.115  40.677  1.00  0.00     0.017 C 
ATOM     28  C   UNL     1      57.358 -13.443  40.857  1.00  0.00     0.012 C 
ATOM     29  C   UNL     1      57.273 -10.934  41.220  1.00  0.00     0.012 C 
ENDBRANCH  20  27
BRANCH  21  30
ATOM     30  O   UNL     1      61.368 -10.875  44.214  1.00  0.00    -0.504 OA
ATOM     31  H   UNL     1      60.935 -10.008  44.497  1.00  0.00     0.293 HD
ENDBRANCH  21  30
BRANCH  22  32
ATOM     32  O   UNL     1      58.696 -11.468  43.417  1.00  0.00    -0.504 OA
ATOM     33  H   UNL     1      58.480 -10.559  43.799  1.00  0.00     0.293 HD
ENDBRANCH  22  32
ENDBRANCH  11  12
BRANCH  10  34
ATOM     34  O   UNL     1      64.913 -12.626  38.025  1.00  0.00    -0.507 OA
ATOM     35  H   UNL     1      65.659 -12.142  38.510  1.00  0.00     0.293 HD
ENDBRANCH  10  34
BRANCH   9  36
ATOM     36  C   UNL     1      67.500 -18.225  37.041  1.00  0.00     0.017 C 
ATOM     37  C   UNL     1      68.221 -18.326  38.392  1.00  0.00     0.012 C 
ATOM     38  C   UNL     1      68.216 -19.014  35.925  1.00  0.00     0.012 C 
ENDBRANCH   9  36
BRANCH   6  39
ATOM     39  C   UNL     1      66.752 -12.508  36.073  1.00  0.00     0.264 C 
ATOM     40  O   UNL     1      66.531 -12.095  34.904  1.00  0.00    -0.298 OA
ENDBRANCH   6  39
BRANCH   8  41
ATOM     41  O   UNL     1      69.087 -16.664  35.160  1.00  0.00    -0.504 OA
ATOM     42  H   UNL     1      69.588 -17.479  35.485  1.00  0.00     0.293 HD
ENDBRANCH   8  41
BRANCH   7  43
ATOM     43  O   UNL     1      68.840 -13.950  34.937  1.00  0.00    -0.504 OA
ATOM     44  H   UNL     1      69.837 -14.122  34.957  1.00  0.00     0.293 HD
ENDBRANCH   7  43
TORSDOF 11
ENDMDL
MODEL 2
REMARK VINA RESULT:    69.537      2.181      9.385
REMARK INTER + INTRA:         102.841
REMARK INTER:                  95.987
REMARK INTRA:                   6.854
REMARK UNBOUND:                 0.783
REMARK SMILES Cc1cc2c(C(C)C)c(O)c(O)c(C=O)c2c(O)c1-c1c(C)cc2c(C(C)C)c(O)c(O)c(C=O)c2c1O
REMARK SMILES IDX 1 1 2 2 3 3 4 4 16 5 13 6 11 7 9 8 5 9 17 10 19 11 20 12
REMARK SMILES IDX 37 13 21 14 36 15 23 16 22 17 24 18 33 19 25 20 31 21 29 22
REMARK SMILES IDX 38 23 34 25 35 26 26 27 27 28 28 29 32 30 30 32 18 34 6 36
REMARK SMILES IDX 7 37 8 38 14 39 15 40 10 41 12 43
REMARK H PARENT 38 24 32 31 30 33 18 35 10 42 12 44
REMARK Flexibility Score: inf
ROOT
ATOM      1  C   UNL     1      64.100 -11.385  41.853  1.00  0.00     0.045 C 
ATOM      2  C   UNL     1      62.643 -11.754  41.705  1.00  0.00    -0.039 A 
ATOM      3  C   UNL     1      61.730 -11.323  42.668  1.00  0.00     0.013 A 
ATOM      4  C   UNL     1      60.364 -11.661  42.605  1.00  0.00    -0.006 A 
ATOM      5  C   UNL     1      59.887 -12.346  41.448  1.00  0.00     0.039 A 
ATOM      6  C   UNL     1      58.481 -12.480  41.255  1.00  0.00     0.072 A 
ATOM      7  C   UNL     1      57.593 -11.988  42.225  1.00  0.00     0.169 A 
ATOM      8  C   UNL     1      58.068 -11.398  43.401  1.00  0.00     0.162 A 
ATOM      9  C   UNL     1      59.460 -11.314  43.658  1.00  0.00     0.008 A 
ATOM     10  C   UNL     1      60.836 -12.900  40.539  1.00  0.00     0.132 A 
ATOM     11  C   UNL     1      62.206 -12.586  40.662  1.00  0.00     0.031 A 
ENDROOT
BRANCH  11  12
ATOM     12  C   UNL     1      63.187 -13.129  39.686  1.00  0.00     0.031 A 
ATOM     13  C   UNL     1      63.102 -14.476  39.273  1.00  0.00     0.132 A 
ATOM     14  C   UNL     1      64.221 -12.310  39.206  1.00  0.00    -0.039 A 
ATOM     15  C   UNL     1      64.019 -14.995  38.312  1.00  0.00     0.039 A 
ATOM     16  C   UNL     1      65.187 -12.849  38.353  1.00  0.00     0.013 A 
ATOM     17  C   UNL     1      64.352 -10.876  39.659  1.00  0.00     0.045 C 
ATOM     18  C   UNL     1      65.101 -14.175  37.870  1.00  0.00    -0.006 A 
ATOM     19  C   UNL     1      63.923 -16.327  37.820  1.00  0.00     0.072 A 
ATOM     20  C   UNL     1      66.095 -14.714  36.996  1.00  0.00     0.008 A 
ATOM     21  C   UNL     1      64.995 -16.894  37.116  1.00  0.00     0.169 A 
ATOM     22  C   UNL     1      66.112 -16.110  36.775  1.00  0.00     0.162 A 
BRANCH  13  23
ATOM     23  O   UNL     1      62.145 -15.316  39.854  1.00  0.00    -0.507 OA
ATOM     24  H   UNL     1      61.563 -15.957  39.330  1.00  0.00     0.293 HD
ENDBRANCH  13  23
BRANCH  19  25
ATOM     25  C   UNL     1      62.696 -17.146  37.942  1.00  0.00     0.264 C 
ATOM     26  O   UNL     1      61.696 -16.718  38.578  1.00  0.00    -0.298 OA
ENDBRANCH  19  25
BRANCH  20  27
ATOM     27  C   UNL     1      67.172 -13.826  36.346  1.00  0.00     0.017 C 
ATOM     28  C   UNL     1      68.577 -14.343  36.672  1.00  0.00     0.012 C 
ATOM     29  C   UNL     1      66.987 -13.630  34.829  1.00  0.00     0.012 C 
ENDBRANCH  20  27
BRANCH  21  30
ATOM     30  O   UNL     1      64.902 -18.234  36.722  1.00  0.00    -0.504 OA
ATOM     31  H   UNL     1      65.329 -19.002  37.221  1.00  0.00     0.293 HD
ENDBRANCH  21  30
BRANCH  22  32
ATOM     32  O   UNL     1      67.253 -16.700  36.224  1.00  0.00    -0.504 OA
ATOM     33  H   UNL     1      67.236 -17.492  35.598  1.00  0.00     0.293 HD
ENDBRANCH  22  32
ENDBRANCH  11  12
BRANCH  10  34
ATOM     34  O   UNL     1      60.423 -13.795  39.546  1.00  0.00    -0.507 OA
ATOM     35  H   UNL     1      59.454 -13.961  39.302  1.00  0.00     0.293 HD
ENDBRANCH  10  34
BRANCH   9  36
ATOM     36  C   UNL     1      59.920 -10.948  45.082  1.00  0.00     0.017 C 
ATOM     37  C   UNL     1      61.185 -11.709  45.501  1.00  0.00     0.012 C 
ATOM     38  C   UNL     1      58.810 -11.006  46.152  1.00  0.00     0.012 C 
ENDBRANCH   9  36
BRANCH   6  39
ATOM     39  C   UNL     1      57.902 -12.987  39.988  1.00  0.00     0.264 C 
ATOM     40  O   UNL     1      57.253 -14.066  39.959  1.00  0.00    -0.298 OA
ENDBRANCH   6  39
BRANCH   8  41
ATOM     41  O   UNL     1      57.117 -10.875  44.288  1.00  0.00    -0.504 OA
ATOM     42  H   UNL     1      56.160 -10.670  44.039  1.00  0.00     0.293 HD
ENDBRANCH   8  41
BRANCH   7  43
ATOM     43  O   UNL     1      56.215 -12.063  41.996  1.00  0.00    -0.504 OA
ATOM     44  H   UNL     1      55.753 -12.908  41.683  1.00  0.00     0.293 HD
ENDBRANCH   7  43
TORSDOF 11
ENDMDL
MODEL 3
REMARK VINA RESULT:    71.674      2.016      3.161
REMARK INTER + INTRA:         105.977
REMARK INTER:                  93.748
REMARK INTRA:                  12.229
REMARK UNBOUND:                 0.783
REMARK SMILES Cc1cc2c(C(C)C)c(O)c(O)c(C=O)c2c(O)c1-c1c(C)cc2c(C(C)C)c(O)c(O)c(C=O)c2c1O
REMARK SMILES IDX 1 1 2 2 3 3 4 4 16 5 13 6 11 7 9 8 5 9 17 10 19 11 20 12
REMARK SMILES IDX 37 13 21 14 36 15 23 16 22 17 24 18 33 19 25 20 31 21 29 22
REMARK SMILES IDX 38 23 34 25 35 26 26 27 27 28 28 29 32 30 30 32 18 34 6 36
REMARK SMILES IDX 7 37 8 38 14 39 15 40 10 41 12 43
REMARK H PARENT 38 24 32 31 30 33 18 35 10 42 12 44
REMARK Flexibility Score: inf
ROOT
ATOM      1  C   UNL     1      62.261 -16.053  37.670  1.00  0.00     0.045 C 
ATOM      2  C   UNL     1      63.653 -15.479  37.783  1.00  0.00    -0.039 A 
ATOM      3  C   UNL     1      64.690 -16.056  37.050  1.00  0.00     0.013 A 
ATOM      4  C   UNL     1      66.016 -15.588  37.136  1.00  0.00    -0.006 A 
ATOM      5  C   UNL     1      66.270 -14.404  37.892  1.00  0.00     0.039 A 
ATOM      6  C   UNL     1      67.549 -13.783  37.793  1.00  0.00     0.072 A 
ATOM      7  C   UNL     1      68.551 -14.369  37.003  1.00  0.00     0.169 A 
ATOM      8  C   UNL     1      68.326 -15.579  36.337  1.00  0.00     0.162 A 
ATOM      9  C   UNL     1      67.090 -16.260  36.472  1.00  0.00     0.008 A 
ATOM     10  C   UNL     1      65.243 -13.901  38.743  1.00  0.00     0.132 A 
ATOM     11  C   UNL     1      63.936 -14.428  38.670  1.00  0.00     0.031 A 
ENDROOT
BRANCH  11  12
ATOM     12  C   UNL     1      62.858 -13.870  39.528  1.00  0.00     0.031 A 
ATOM     13  C   UNL     1      61.598 -14.505  39.585  1.00  0.00     0.132 A 
ATOM     14  C   UNL     1      63.082 -12.688  40.251  1.00  0.00    -0.039 A 
ATOM     15  C   UNL     1      60.571 -13.995  40.431  1.00  0.00     0.039 A 
ATOM     16  C   UNL     1      62.040 -12.125  40.990  1.00  0.00     0.013 A 
ATOM     17  C   UNL     1      64.410 -11.971  40.180  1.00  0.00     0.045 C 
ATOM     18  C   UNL     1      60.786 -12.763  41.120  1.00  0.00    -0.006 A 
ATOM     19  C   UNL     1      59.314 -14.647  40.568  1.00  0.00     0.072 A 
ATOM     20  C   UNL     1      59.728 -12.177  41.882  1.00  0.00     0.008 A 
ATOM     21  C   UNL     1      58.236 -13.975  41.162  1.00  0.00     0.169 A 
ATOM     22  C   UNL     1      58.425 -12.710  41.746  1.00  0.00     0.162 A 
BRANCH  13  23
ATOM     23  O   UNL     1      61.347 -15.610  38.763  1.00  0.00    -0.507 OA
ATOM     24  H   UNL     1      60.706 -16.357  39.001  1.00  0.00     0.293 HD
ENDBRANCH  13  23
BRANCH  19  25
ATOM     25  C   UNL     1      59.089 -16.058  40.181  1.00  0.00     0.264 C 
ATOM     26  O   UNL     1      58.198 -16.746  40.744  1.00  0.00    -0.298 OA
ENDBRANCH  19  25
BRANCH  20  27
ATOM     27  C   UNL     1      59.961 -10.954  42.788  1.00  0.00     0.017 C 
ATOM     28  C   UNL     1      58.895 -10.875  43.886  1.00  0.00     0.012 C 
ATOM     29  C   UNL     1      61.381 -10.881  43.382  1.00  0.00     0.012 C 
ENDBRANCH  20  27
BRANCH  21  30
ATOM     30  O   UNL     1      56.990 -14.612  41.202  1.00  0.00    -0.504 OA
ATOM     31  H   UNL     1      56.212 -14.373  40.604  1.00  0.00     0.293 HD
ENDBRANCH  21  30
BRANCH  22  32
ATOM     32  O   UNL     1      57.332 -11.960  42.190  1.00  0.00    -0.504 OA
ATOM     33  H   UNL     1      57.368 -11.307  42.959  1.00  0.00     0.293 HD
ENDBRANCH  22  32
ENDBRANCH  11  12
BRANCH  10  34
ATOM     34  O   UNL     1      65.533 -12.910  39.688  1.00  0.00    -0.507 OA
ATOM     35  H   UNL     1      64.992 -12.758  40.531  1.00  0.00     0.293 HD
ENDBRANCH  10  34
BRANCH   9  36
ATOM     36  C   UNL     1      67.001 -17.718  35.983  1.00  0.00     0.017 C 
ATOM     37  C   UNL     1      68.172 -18.575  36.483  1.00  0.00     0.012 C 
ATOM     38  C   UNL     1      66.755 -17.875  34.467  1.00  0.00     0.012 C 
ENDBRANCH   9  36
BRANCH   6  39
ATOM     39  C   UNL     1      67.826 -12.447  38.373  1.00  0.00     0.264 C 
ATOM     40  O   UNL     1      68.993 -12.118  38.713  1.00  0.00    -0.298 OA
ENDBRANCH   6  39
BRANCH   8  41
ATOM     41  O   UNL     1      69.354 -16.064  35.519  1.00  0.00    -0.504 OA
ATOM     42  H   UNL     1      69.208 -16.505  34.622  1.00  0.00     0.293 HD
ENDBRANCH   8  41
BRANCH   7  43
ATOM     43  O   UNL     1      69.780 -13.717  36.858  1.00  0.00    -0.504 OA
ATOM     44  H   UNL     1      70.664 -14.143  37.109  1.00  0.00     0.293 HD
ENDBRANCH   7  43
TORSDOF 11
ENDMDL
