MODEL 1
REMARK VINA RESULT:    -3.349      0.000      0.000
REMARK INTER + INTRA:          -6.525
REMARK INTER:                  -5.111
REMARK INTRA:                  -1.414
REMARK UNBOUND:                -1.414
REMARK SMILES CCCCCCCCCC=CC(=O)[O-]
REMARK SMILES IDX 7 1 8 2 9 3 10 4 11 5 12 6 13 7 14 8 6 9 5 10 4 11 3 12 2 13
REMARK SMILES IDX 1 14
REMARK H PARENT
REMARK Flexibility Score: inf
ROOT
ATOM      1  C   UNL     1      13.368  42.260  64.894  1.00  0.00     0.000 C 
ENDROOT
BRANCH   1   2
ATOM      2  C   UNL     1      13.386  41.407  66.170  1.00  0.00     0.004 C 
BRANCH   2   3
ATOM      3  C   UNL     1      14.537  41.826  67.094  1.00  0.00     0.027 C 
BRANCH   3   4
ATOM      4  C   UNL     1      14.031  42.597  68.279  1.00  0.00    -0.025 C 
ATOM      5  C   UNL     1      12.939  42.213  68.948  1.00  0.00     0.020 C 
BRANCH   5   6
ATOM      6  C   UNL     1      12.425  42.966  70.101  1.00  0.00     0.064 C 
ATOM      7  O   UNL     1      11.906  42.346  71.066  1.00  0.00    -0.545 OA
ATOM      8  O   UNL     1      12.505  44.353  70.145  1.00  0.00    -0.545 OA
ENDBRANCH   5   6
ENDBRANCH   3   4
ENDBRANCH   2   3
ENDBRANCH   1   2
BRANCH   1   9
ATOM      9  C   UNL     1      14.760  42.409  64.253  1.00  0.00     0.000 C 
BRANCH   9  10
ATOM     10  C   UNL     1      15.112  43.834  63.778  1.00  0.00     0.000 C 
BRANCH  10  11
ATOM     11  C   UNL     1      16.085  44.607  64.688  1.00  0.00    -0.000 C 
BRANCH  11  12
ATOM     12  C   UNL     1      15.397  45.198  65.930  1.00  0.00    -0.000 C 
BRANCH  12  13
ATOM     13  C   UNL     1      14.090  45.930  65.585  1.00  0.00    -0.003 C 
ATOM     14  C   UNL     1      12.997  45.718  66.633  1.00  0.00     0.004 C 
ENDBRANCH  12  13
ENDBRANCH  11  12
ENDBRANCH  10  11
ENDBRANCH   9  10
ENDBRANCH   1   9
TORSDOF 9
ENDMDL
MODEL 2
REMARK VINA RESULT:    -3.179      3.142      4.769
REMARK INTER + INTRA:          -6.266
REMARK INTER:                  -4.791
REMARK INTRA:                  -1.475
REMARK UNBOUND:                -1.414
REMARK SMILES CCCCCCCCCC=CC(=O)[O-]
REMARK SMILES IDX 7 1 8 2 9 3 10 4 11 5 12 6 13 7 14 8 6 9 5 10 4 11 3 12 2 13
REMARK SMILES IDX 1 14
REMARK H PARENT
REMARK Flexibility Score: inf
ROOT
ATOM      1  C   UNL     1      13.211  42.574  68.963  1.00  0.00     0.000 C 
ENDROOT
BRANCH   1   2
ATOM      2  C   UNL     1      14.399  42.386  68.010  1.00  0.00     0.004 C 
BRANCH   2   3
ATOM      3  C   UNL     1      14.119  41.268  66.997  1.00  0.00     0.027 C 
BRANCH   3   4
ATOM      4  C   UNL     1      14.460  41.702  65.600  1.00  0.00    -0.025 C 
ATOM      5  C   UNL     1      13.512  41.898  64.678  1.00  0.00     0.020 C 
BRANCH   5   6
ATOM      6  C   UNL     1      13.833  42.309  63.304  1.00  0.00     0.064 C 
ATOM      7  O   UNL     1      14.534  41.556  62.578  1.00  0.00    -0.545 OA
ATOM      8  O   UNL     1      13.374  43.517  62.790  1.00  0.00    -0.545 OA
ENDBRANCH   5   6
ENDBRANCH   3   4
ENDBRANCH   2   3
ENDBRANCH   1   2
BRANCH   1   9
ATOM      9  C   UNL     1      12.583  43.976  68.870  1.00  0.00     0.000 C 
BRANCH   9  10
ATOM     10  C   UNL     1      12.256  44.452  67.439  1.00  0.00     0.000 C 
BRANCH  10  11
ATOM     11  C   UNL     1      13.049  45.681  66.958  1.00  0.00    -0.000 C 
BRANCH  11  12
ATOM     12  C   UNL     1      13.918  45.385  65.725  1.00  0.00    -0.000 C 
BRANCH  12  13
ATOM     13  C   UNL     1      15.401  45.201  66.082  1.00  0.00    -0.003 C 
ATOM     14  C   UNL     1      16.278  44.938  64.858  1.00  0.00     0.004 C 
ENDBRANCH  12  13
ENDBRANCH  11  12
ENDBRANCH  10  11
ENDBRANCH   9  10
ENDBRANCH   1   9
TORSDOF 9
ENDMDL
MODEL 3
REMARK VINA RESULT:    -3.139      2.770      4.856
REMARK INTER + INTRA:          -6.205
REMARK INTER:                  -4.748
REMARK INTRA:                  -1.457
REMARK UNBOUND:                -1.414
REMARK SMILES CCCCCCCCCC=CC(=O)[O-]
REMARK SMILES IDX 7 1 8 2 9 3 10 4 11 5 12 6 13 7 14 8 6 9 5 10 4 11 3 12 2 13
REMARK SMILES IDX 1 14
REMARK H PARENT
REMARK Flexibility Score: inf
ROOT
ATOM      1  C   UNL     1      12.644  41.458  68.491  1.00  0.00     0.000 C 
ENDROOT
BRANCH   1   2
ATOM      2  C   UNL     1      13.963  42.081  68.014  1.00  0.00     0.004 C 
BRANCH   2   3
ATOM      3  C   UNL     1      14.270  41.676  66.567  1.00  0.00     0.027 C 
BRANCH   3   4
ATOM      4  C   UNL     1      14.821  42.833  65.783  1.00  0.00    -0.025 C 
ATOM      5  C   UNL     1      14.967  44.043  66.333  1.00  0.00     0.020 C 
BRANCH   5   6
ATOM      6  C   UNL     1      15.493  45.186  65.573  1.00  0.00     0.064 C 
ATOM      7  O   UNL     1      14.763  46.195  65.384  1.00  0.00    -0.545 OA
ATOM      8  O   UNL     1      16.785  45.174  65.060  1.00  0.00    -0.545 OA
ENDBRANCH   5   6
ENDBRANCH   3   4
ENDBRANCH   2   3
ENDBRANCH   1   2
BRANCH   1   9
ATOM      9  C   UNL     1      12.070  42.151  69.740  1.00  0.00     0.000 C 
BRANCH   9  10
ATOM     10  C   UNL     1      12.650  43.551  70.034  1.00  0.00     0.000 C 
BRANCH  10  11
ATOM     11  C   UNL     1      11.786  44.733  69.557  1.00  0.00    -0.000 C 
BRANCH  11  12
ATOM     12  C   UNL     1      12.360  45.425  68.309  1.00  0.00    -0.000 C 
BRANCH  12  13
ATOM     13  C   UNL     1      11.348  45.486  67.154  1.00  0.00    -0.003 C 
ATOM     14  C   UNL     1      11.296  44.192  66.341  1.00  0.00     0.004 C 
ENDBRANCH  12  13
ENDBRANCH  11  12
ENDBRANCH  10  11
ENDBRANCH   9  10
ENDBRANCH   1   9
TORSDOF 9
ENDMDL
MODEL 4
REMARK VINA RESULT:    -3.130      2.747      3.872
REMARK INTER + INTRA:          -6.191
REMARK INTER:                  -4.669
REMARK INTRA:                  -1.522
REMARK UNBOUND:                -1.414
REMARK SMILES CCCCCCCCCC=CC(=O)[O-]
REMARK SMILES IDX 7 1 8 2 9 3 10 4 11 5 12 6 13 7 14 8 6 9 5 10 4 11 3 12 2 13
REMARK SMILES IDX 1 14
REMARK H PARENT
REMARK Flexibility Score: inf
ROOT
ATOM      1  C   UNL     1      14.001  45.038  66.625  1.00  0.00     0.000 C 
ENDROOT
BRANCH   1   2
ATOM      2  C   UNL     1      13.345  44.059  67.609  1.00  0.00     0.004 C 
BRANCH   2   3
ATOM      3  C   UNL     1      14.273  42.875  67.907  1.00  0.00     0.027 C 
BRANCH   3   4
ATOM      4  C   UNL     1      13.675  41.582  67.430  1.00  0.00    -0.025 C 
ATOM      5  C   UNL     1      14.328  40.781  66.582  1.00  0.00     0.020 C 
BRANCH   5   6
ATOM      6  C   UNL     1      13.749  39.520  66.097  1.00  0.00     0.064 C 
ATOM      7  O   UNL     1      14.399  38.449  66.223  1.00  0.00    -0.545 OA
ATOM      8  O   UNL     1      12.492  39.489  65.503  1.00  0.00    -0.545 OA
ENDBRANCH   5   6
ENDBRANCH   3   4
ENDBRANCH   2   3
ENDBRANCH   1   2
BRANCH   1   9
ATOM      9  C   UNL     1      15.373  44.552  66.123  1.00  0.00     0.000 C 
BRANCH   9  10
ATOM     10  C   UNL     1      15.809  45.123  64.758  1.00  0.00     0.000 C 
BRANCH  10  11
ATOM     11  C   UNL     1      15.240  44.391  63.528  1.00  0.00    -0.000 C 
BRANCH  11  12
ATOM     12  C   UNL     1      14.952  42.905  63.800  1.00  0.00    -0.000 C 
BRANCH  12  13
ATOM     13  C   UNL     1      13.602  42.454  63.221  1.00  0.00    -0.003 C 
ATOM     14  C   UNL     1      12.420  42.812  64.123  1.00  0.00     0.004 C 
ENDBRANCH  12  13
ENDBRANCH  11  12
ENDBRANCH  10  11
ENDBRANCH   9  10
ENDBRANCH   1   9
TORSDOF 9
ENDMDL
MODEL 5
REMARK VINA RESULT:    -3.091      2.966      5.230
REMARK INTER + INTRA:          -6.131
REMARK INTER:                  -4.657
REMARK INTRA:                  -1.474
REMARK UNBOUND:                -1.414
REMARK SMILES CCCCCCCCCC=CC(=O)[O-]
REMARK SMILES IDX 7 1 8 2 9 3 10 4 11 5 12 6 13 7 14 8 6 9 5 10 4 11 3 12 2 13
REMARK SMILES IDX 1 14
REMARK H PARENT
REMARK Flexibility Score: inf
ROOT
ATOM      1  C   UNL     1      12.028  43.706  68.302  1.00  0.00     0.000 C 
ENDROOT
BRANCH   1   2
ATOM      2  C   UNL     1      12.578  45.035  67.765  1.00  0.00     0.004 C 
BRANCH   2   3
ATOM      3  C   UNL     1      12.083  45.296  66.336  1.00  0.00     0.027 C 
BRANCH   3   4
ATOM      4  C   UNL     1      13.231  45.394  65.373  1.00  0.00    -0.025 C 
ATOM      5  C   UNL     1      14.473  45.663  65.790  1.00  0.00     0.020 C 
BRANCH   5   6
ATOM      6  C   UNL     1      15.602  45.775  64.856  1.00  0.00     0.064 C 
ATOM      7  O   UNL     1      15.511  46.540  63.860  1.00  0.00    -0.545 OA
ATOM      8  O   UNL     1      16.773  45.052  65.056  1.00  0.00    -0.545 OA
ENDBRANCH   5   6
ENDBRANCH   3   4
ENDBRANCH   2   3
ENDBRANCH   1   2
BRANCH   1   9
ATOM      9  C   UNL     1      13.087  42.880  69.054  1.00  0.00     0.000 C 
BRANCH   9  10
ATOM     10  C   UNL     1      14.326  42.491  68.220  1.00  0.00     0.000 C 
BRANCH  10  11
ATOM     11  C   UNL     1      14.038  41.616  66.986  1.00  0.00    -0.000 C 
BRANCH  11  12
ATOM     12  C   UNL     1      14.800  42.082  65.734  1.00  0.00    -0.000 C 
BRANCH  12  13
ATOM     13  C   UNL     1      13.984  41.893  64.446  1.00  0.00    -0.003 C 
ATOM     14  C   UNL     1      14.636  42.549  63.229  1.00  0.00     0.004 C 
ENDBRANCH  12  13
ENDBRANCH  11  12
ENDBRANCH  10  11
ENDBRANCH   9  10
ENDBRANCH   1   9
TORSDOF 9
ENDMDL
MODEL 6
REMARK VINA RESULT:    -3.058      1.243      3.514
REMARK INTER + INTRA:          -6.082
REMARK INTER:                  -4.725
REMARK INTRA:                  -1.356
REMARK UNBOUND:                -1.414
REMARK SMILES CCCCCCCCCC=CC(=O)[O-]
REMARK SMILES IDX 7 1 8 2 9 3 10 4 11 5 12 6 13 7 14 8 6 9 5 10 4 11 3 12 2 13
REMARK SMILES IDX 1 14
REMARK H PARENT
REMARK Flexibility Score: inf
ROOT
ATOM      1  C   UNL     1      15.269  45.641  65.693  1.00  0.00     0.000 C 
ENDROOT
BRANCH   1   2
ATOM      2  C   UNL     1      14.099  46.250  64.907  1.00  0.00     0.004 C 
BRANCH   2   3
ATOM      3  C   UNL     1      12.764  45.978  65.613  1.00  0.00     0.027 C 
BRANCH   3   4
ATOM      4  C   UNL     1      12.965  45.727  67.080  1.00  0.00    -0.025 C 
ATOM      5  C   UNL     1      11.993  45.959  67.968  1.00  0.00     0.020 C 
BRANCH   5   6
ATOM      6  C   UNL     1      12.181  45.731  69.408  1.00  0.00     0.064 C 
ATOM      7  O   UNL     1      12.187  44.554  69.855  1.00  0.00    -0.545 OA
ATOM      8  O   UNL     1      12.355  46.795  70.286  1.00  0.00    -0.545 OA
ENDBRANCH   5   6
ENDBRANCH   3   4
ENDBRANCH   2   3
ENDBRANCH   1   2
BRANCH   1   9
ATOM      9  C   UNL     1      15.997  44.529  64.917  1.00  0.00     0.000 C 
BRANCH   9  10
ATOM     10  C   UNL     1      15.097  43.675  63.999  1.00  0.00     0.000 C 
BRANCH  10  11
ATOM     11  C   UNL     1      14.760  42.270  64.532  1.00  0.00    -0.000 C 
BRANCH  11  12
ATOM     12  C   UNL     1      13.714  42.295  65.659  1.00  0.00    -0.000 C 
BRANCH  12  13
ATOM     13  C   UNL     1      14.202  41.580  66.929  1.00  0.00    -0.003 C 
ATOM     14  C   UNL     1      14.483  42.544  68.082  1.00  0.00     0.004 C 
ENDBRANCH  12  13
ENDBRANCH  11  12
ENDBRANCH  10  11
ENDBRANCH   9  10
ENDBRANCH   1   9
TORSDOF 9
ENDMDL
MODEL 7
REMARK VINA RESULT:    -3.028      2.844      4.185
REMARK INTER + INTRA:          -6.035
REMARK INTER:                  -4.692
REMARK INTRA:                  -1.343
REMARK UNBOUND:                -1.414
REMARK SMILES CCCCCCCCCC=CC(=O)[O-]
REMARK SMILES IDX 7 1 8 2 9 3 10 4 11 5 12 6 13 7 14 8 6 9 5 10 4 11 3 12 2 13
REMARK SMILES IDX 1 14
REMARK H PARENT
REMARK Flexibility Score: inf
ROOT
ATOM      1  C   UNL     1      12.371  43.799  68.410  1.00  0.00     0.000 C 
ENDROOT
BRANCH   1   2
ATOM      2  C   UNL     1      13.355  42.822  69.069  1.00  0.00     0.004 C 
BRANCH   2   3
ATOM      3  C   UNL     1      14.457  42.406  68.085  1.00  0.00     0.027 C 
BRANCH   3   4
ATOM      4  C   UNL     1      13.922  41.484  67.028  1.00  0.00    -0.025 C 
ATOM      5  C   UNL     1      14.162  41.695  65.730  1.00  0.00     0.020 C 
BRANCH   5   6
ATOM      6  C   UNL     1      13.633  40.807  64.684  1.00  0.00     0.064 C 
ATOM      7  O   UNL     1      13.243  39.650  64.991  1.00  0.00    -0.545 OA
ATOM      8  O   UNL     1      13.555  41.225  63.361  1.00  0.00    -0.545 OA
ENDBRANCH   5   6
ENDBRANCH   3   4
ENDBRANCH   2   3
ENDBRANCH   1   2
BRANCH   1   9
ATOM      9  C   UNL     1      13.069  45.011  67.768  1.00  0.00     0.000 C 
BRANCH   9  10
ATOM     10  C   UNL     1      12.843  45.168  66.250  1.00  0.00     0.000 C 
BRANCH  10  11
ATOM     11  C   UNL     1      13.988  45.853  65.482  1.00  0.00    -0.000 C 
BRANCH  11  12
ATOM     12  C   UNL     1      15.378  45.381  65.940  1.00  0.00    -0.000 C 
BRANCH  12  13
ATOM     13  C   UNL     1      16.119  44.591  64.850  1.00  0.00    -0.003 C 
ATOM     14  C   UNL     1      15.306  44.452  63.562  1.00  0.00     0.004 C 
ENDBRANCH  12  13
ENDBRANCH  11  12
ENDBRANCH  10  11
ENDBRANCH   9  10
ENDBRANCH   1   9
TORSDOF 9
ENDMDL
MODEL 8
REMARK VINA RESULT:    -2.982      3.530      5.684
REMARK INTER + INTRA:          -5.966
REMARK INTER:                  -4.995
REMARK INTRA:                  -0.971
REMARK UNBOUND:                -1.414
REMARK SMILES CCCCCCCCCC=CC(=O)[O-]
REMARK SMILES IDX 7 1 8 2 9 3 10 4 11 5 12 6 13 7 14 8 6 9 5 10 4 11 3 12 2 13
REMARK SMILES IDX 1 14
REMARK H PARENT
REMARK Flexibility Score: inf
ROOT
ATOM      1  C   UNL     1      14.809  43.189  65.655  1.00  0.00     0.000 C 
ENDROOT
BRANCH   1   2
ATOM      2  C   UNL     1      15.331  44.467  66.326  1.00  0.00     0.004 C 
BRANCH   2   3
ATOM      3  C   UNL     1      16.359  45.174  65.433  1.00  0.00     0.027 C 
BRANCH   3   4
ATOM      4  C   UNL     1      15.698  45.824  64.251  1.00  0.00    -0.025 C 
ATOM      5  C   UNL     1      15.070  46.999  64.360  1.00  0.00     0.020 C 
BRANCH   5   6
ATOM      6  C   UNL     1      14.408  47.639  63.214  1.00  0.00     0.064 C 
ATOM      7  O   UNL     1      13.154  47.753  63.206  1.00  0.00    -0.545 OA
ATOM      8  O   UNL     1      15.144  48.122  62.138  1.00  0.00    -0.545 OA
ENDBRANCH   5   6
ENDBRANCH   3   4
ENDBRANCH   2   3
ENDBRANCH   1   2
BRANCH   1   9
ATOM      9  C   UNL     1      14.136  42.224  66.648  1.00  0.00     0.000 C 
BRANCH   9  10
ATOM     10  C   UNL     1      14.373  42.549  68.138  1.00  0.00     0.000 C 
BRANCH  10  11
ATOM     11  C   UNL     1      13.100  42.822  68.960  1.00  0.00    -0.000 C 
BRANCH  11  12
ATOM     12  C   UNL     1      12.172  43.854  68.297  1.00  0.00    -0.000 C 
BRANCH  12  13
ATOM     13  C   UNL     1      12.518  45.297  68.698  1.00  0.00    -0.003 C 
ATOM     14  C   UNL     1      12.464  46.269  67.519  1.00  0.00     0.004 C 
ENDBRANCH  12  13
ENDBRANCH  11  12
ENDBRANCH  10  11
ENDBRANCH   9  10
ENDBRANCH   1   9
TORSDOF 9
ENDMDL
MODEL 9
REMARK VINA RESULT:    -2.968      1.807      3.907
REMARK INTER + INTRA:          -5.943
REMARK INTER:                  -4.274
REMARK INTRA:                  -1.670
REMARK UNBOUND:                -1.414
REMARK SMILES CCCCCCCCCC=CC(=O)[O-]
REMARK SMILES IDX 7 1 8 2 9 3 10 4 11 5 12 6 13 7 14 8 6 9 5 10 4 11 3 12 2 13
REMARK SMILES IDX 1 14
REMARK H PARENT
REMARK Flexibility Score: inf
ROOT
ATOM      1  C   UNL     1      15.256  43.574  64.839  1.00  0.00     0.000 C 
ENDROOT
BRANCH   1   2
ATOM      2  C   UNL     1      15.130  44.460  66.086  1.00  0.00     0.004 C 
BRANCH   2   3
ATOM      3  C   UNL     1      14.084  45.561  65.873  1.00  0.00     0.027 C 
BRANCH   3   4
ATOM      4  C   UNL     1      12.852  45.308  66.694  1.00  0.00    -0.025 C 
ATOM      5  C   UNL     1      11.838  44.573  66.226  1.00  0.00     0.020 C 
BRANCH   5   6
ATOM      6  C   UNL     1      10.622  44.330  67.014  1.00  0.00     0.064 C 
ATOM      7  O   UNL     1       9.981  43.258  66.851  1.00  0.00    -0.545 OA
ATOM      8  O   UNL     1      10.167  45.262  67.939  1.00  0.00    -0.545 OA
ENDBRANCH   5   6
ENDBRANCH   3   4
ENDBRANCH   2   3
ENDBRANCH   1   2
BRANCH   1   9
ATOM      9  C   UNL     1      14.628  42.181  65.027  1.00  0.00     0.000 C 
BRANCH   9  10
ATOM     10  C   UNL     1      14.462  41.731  66.494  1.00  0.00     0.000 C 
BRANCH  10  11
ATOM     11  C   UNL     1      13.089  41.128  66.844  1.00  0.00    -0.000 C 
BRANCH  11  12
ATOM     12  C   UNL     1      12.697  41.353  68.314  1.00  0.00    -0.000 C 
BRANCH  12  13
ATOM     13  C   UNL     1      13.431  42.549  68.940  1.00  0.00    -0.003 C 
ATOM     14  C   UNL     1      12.588  43.282  69.984  1.00  0.00     0.004 C 
ENDBRANCH  12  13
ENDBRANCH  11  12
ENDBRANCH  10  11
ENDBRANCH   9  10
ENDBRANCH   1   9
TORSDOF 9
ENDMDL
