MODEL 1
REMARK VINA RESULT:    -2.747      0.000      0.000
REMARK INTER + INTRA:          -2.747
REMARK INTER:                  -2.747
REMARK INTRA:                   0.000
REMARK UNBOUND:                 0.000
REMARK SMILES c1cc[nH]c1
REMARK SMILES IDX 1 1 5 2 4 3 3 4 2 5
REMARK H PARENT 4 6
REMARK Flexibility Score: inf
ROOT
ATOM      1  C   UNL     1       5.070  25.630  15.452  1.00  0.00     0.019 A 
ATOM      2  C   UNL     1       5.746  26.378  14.510  1.00  0.00     0.082 A 
ATOM      3  N   UNL     1       5.014  27.453  14.165  1.00  0.00    -0.368 N 
ATOM      4  C   UNL     1       3.875  27.402  14.878  1.00  0.00     0.082 A 
ATOM      5  C   UNL     1       3.876  26.284  15.687  1.00  0.00     0.019 A 
ATOM      6  H   UNL     1       5.280  28.189  13.474  1.00  0.00     0.165 HD
ENDROOT
TORSDOF 0
ENDMDL
MODEL 2
REMARK VINA RESULT:    -2.743      0.032      1.624
REMARK INTER + INTRA:          -2.743
REMARK INTER:                  -2.743
REMARK INTRA:                   0.000
REMARK UNBOUND:                 0.000
REMARK SMILES c1cc[nH]c1
REMARK SMILES IDX 1 1 5 2 4 3 3 4 2 5
REMARK H PARENT 4 6
REMARK Flexibility Score: inf
ROOT
ATOM      1  C   UNL     1       3.875  26.319  15.704  1.00  0.00     0.019 A 
ATOM      2  C   UNL     1       3.875  27.409  14.858  1.00  0.00     0.082 A 
ATOM      3  N   UNL     1       5.015  27.436  14.143  1.00  0.00    -0.368 N 
ATOM      4  C   UNL     1       5.746  26.374  14.524  1.00  0.00     0.082 A 
ATOM      5  C   UNL     1       5.069  25.658  15.491  1.00  0.00     0.019 A 
ATOM      6  H   UNL     1       5.283  28.148  13.429  1.00  0.00     0.165 HD
ENDROOT
TORSDOF 0
ENDMDL
MODEL 3
REMARK VINA RESULT:    -1.906     18.564     19.001
REMARK INTER + INTRA:          -1.906
REMARK INTER:                  -1.906
REMARK INTRA:                   0.000
REMARK UNBOUND:                 0.000
REMARK SMILES c1cc[nH]c1
REMARK SMILES IDX 1 1 5 2 4 3 3 4 2 5
REMARK H PARENT 4 6
REMARK Flexibility Score: inf
ROOT
ATOM      1  C   UNL     1      22.593  23.322  16.889  1.00  0.00     0.019 A 
ATOM      2  C   UNL     1      23.396  22.222  17.107  1.00  0.00     0.082 A 
ATOM      3  N   UNL     1      23.699  22.126  18.414  1.00  0.00    -0.368 N 
ATOM      4  C   UNL     1      23.098  23.156  19.036  1.00  0.00     0.082 A 
ATOM      5  C   UNL     1      22.403  23.918  18.120  1.00  0.00     0.019 A 
ATOM      6  H   UNL     1      24.291  21.392  18.861  1.00  0.00     0.165 HD
ENDROOT
TORSDOF 0
ENDMDL
MODEL 4
REMARK VINA RESULT:    -1.897     18.597     19.055
REMARK INTER + INTRA:          -1.897
REMARK INTER:                  -1.897
REMARK INTRA:                   0.000
REMARK UNBOUND:                 0.000
REMARK SMILES c1cc[nH]c1
REMARK SMILES IDX 1 1 5 2 4 3 3 4 2 5
REMARK H PARENT 4 6
REMARK Flexibility Score: inf
ROOT
ATOM      1  C   UNL     1      22.427  23.894  18.143  1.00  0.00     0.019 A 
ATOM      2  C   UNL     1      23.162  23.127  19.024  1.00  0.00     0.082 A 
ATOM      3  N   UNL     1      23.745  22.107  18.369  1.00  0.00    -0.368 N 
ATOM      4  C   UNL     1      23.391  22.212  17.076  1.00  0.00     0.082 A 
ATOM      5  C   UNL     1      22.574  23.310  16.900  1.00  0.00     0.019 A 
ATOM      6  H   UNL     1      24.357  21.371  18.786  1.00  0.00     0.165 HD
ENDROOT
TORSDOF 0
ENDMDL
MODEL 5
REMARK VINA RESULT:    -1.712      2.108      2.878
REMARK INTER + INTRA:          -1.712
REMARK INTER:                  -1.712
REMARK INTRA:                   0.000
REMARK UNBOUND:                 0.000
REMARK SMILES c1cc[nH]c1
REMARK SMILES IDX 1 1 5 2 4 3 3 4 2 5
REMARK H PARENT 4 6
REMARK Flexibility Score: inf
ROOT
ATOM      1  C   UNL     1       3.875  27.698  13.365  1.00  0.00     0.019 A 
ATOM      2  C   UNL     1       4.625  27.936  14.499  1.00  0.00     0.082 A 
ATOM      3  N   UNL     1       5.077  29.203  14.494  1.00  0.00    -0.368 N 
ATOM      4  C   UNL     1       4.626  29.780  13.366  1.00  0.00     0.082 A 
ATOM      5  C   UNL     1       3.876  28.875  12.642  1.00  0.00     0.019 A 
ATOM      6  H   UNL     1       5.669  29.653  15.226  1.00  0.00     0.165 HD
ENDROOT
TORSDOF 0
ENDMDL
MODEL 6
REMARK VINA RESULT:    -1.571     18.340     18.922
REMARK INTER + INTRA:          -1.571
REMARK INTER:                  -1.571
REMARK INTRA:                   0.000
REMARK UNBOUND:                 0.000
REMARK SMILES c1cc[nH]c1
REMARK SMILES IDX 1 1 5 2 4 3 3 4 2 5
REMARK H PARENT 4 6
REMARK Flexibility Score: inf
ROOT
ATOM      1  C   UNL     1      23.376  22.243  17.145  1.00  0.00     0.019 A 
ATOM      2  C   UNL     1      23.684  22.283  18.490  1.00  0.00     0.082 A 
ATOM      3  N   UNL     1      23.036  23.305  19.078  1.00  0.00    -0.368 N 
ATOM      4  C   UNL     1      22.317  23.921  18.124  1.00  0.00     0.082 A 
ATOM      5  C   UNL     1      22.504  23.288  16.912  1.00  0.00     0.019 A 
ATOM      6  H   UNL     1      23.084  23.571  20.087  1.00  0.00     0.165 HD
ENDROOT
TORSDOF 0
ENDMDL
MODEL 7
REMARK VINA RESULT:    -1.496     18.052     18.873
REMARK INTER + INTRA:          -1.496
REMARK INTER:                  -1.496
REMARK INTRA:                   0.000
REMARK UNBOUND:                 0.000
REMARK SMILES c1cc[nH]c1
REMARK SMILES IDX 1 1 5 2 4 3 3 4 2 5
REMARK H PARENT 4 6
REMARK Flexibility Score: inf
ROOT
ATOM      1  C   UNL     1      23.045  23.394  18.984  1.00  0.00     0.019 A 
ATOM      2  C   UNL     1      22.174  23.871  18.026  1.00  0.00     0.082 A 
ATOM      3  N   UNL     1      22.332  23.186  16.879  1.00  0.00    -0.368 N 
ATOM      4  C   UNL     1      23.297  22.275  17.092  1.00  0.00     0.082 A 
ATOM      5  C   UNL     1      23.762  22.375  18.388  1.00  0.00     0.019 A 
ATOM      6  H   UNL     1      21.806  23.335  15.989  1.00  0.00     0.165 HD
ENDROOT
TORSDOF 0
ENDMDL
MODEL 8
REMARK VINA RESULT:    -1.115      1.927      2.946
REMARK INTER + INTRA:          -1.115
REMARK INTER:                  -1.115
REMARK INTRA:                   0.000
REMARK UNBOUND:                 0.000
REMARK SMILES c1cc[nH]c1
REMARK SMILES IDX 1 1 5 2 4 3 3 4 2 5
REMARK H PARENT 4 6
REMARK Flexibility Score: inf
ROOT
ATOM      1  C   UNL     1       4.258  29.664  13.609  1.00  0.00     0.019 A 
ATOM      2  C   UNL     1       3.876  28.683  12.717  1.00  0.00     0.082 A 
ATOM      3  N   UNL     1       3.924  27.477  13.311  1.00  0.00    -0.368 N 
ATOM      4  C   UNL     1       4.335  27.675  14.576  1.00  0.00     0.082 A 
ATOM      5  C   UNL     1       4.551  29.021  14.796  1.00  0.00     0.019 A 
ATOM      6  H   UNL     1       3.689  26.559  12.873  1.00  0.00     0.165 HD
ENDROOT
TORSDOF 0
ENDMDL
