MODEL 1
REMARK VINA RESULT:    -3.505      0.000      0.000
REMARK INTER + INTRA:          -4.226
REMARK INTER:                  -4.120
REMARK INTRA:                  -0.106
REMARK UNBOUND:                -0.106
REMARK SMILES O=C([O-])CCC(=O)[O-]
REMARK SMILES IDX 4 1 2 2 1 3 3 4 5 5 6 6 7 7 8 8
REMARK H PARENT
REMARK Flexibility Score: inf
ROOT
ATOM      1  C   UNL     1      33.644   7.418  10.656  1.00  0.00     0.059 C 
ENDROOT
BRANCH   1   2
ATOM      2  C   UNL     1      34.073   7.361   9.222  1.00  0.00     0.042 C 
ATOM      3  O   UNL     1      33.739   8.275   8.424  1.00  0.00    -0.550 OA
ATOM      4  O   UNL     1      34.875   6.317   8.777  1.00  0.00    -0.550 OA
ENDBRANCH   1   2
BRANCH   1   5
ATOM      5  C   UNL     1      34.799   7.829  11.576  1.00  0.00     0.059 C 
BRANCH   5   6
ATOM      6  C   UNL     1      35.484   6.636  12.168  1.00  0.00     0.042 C 
ATOM      7  O   UNL     1      36.604   6.266  11.729  1.00  0.00    -0.550 OA
ATOM      8  O   UNL     1      34.903   5.956  13.232  1.00  0.00    -0.550 OA
ENDBRANCH   5   6
ENDBRANCH   1   5
TORSDOF 3
ENDMDL
MODEL 2
REMARK VINA RESULT:    -3.497      0.054      3.775
REMARK INTER + INTRA:          -4.216
REMARK INTER:                  -4.111
REMARK INTRA:                  -0.106
REMARK UNBOUND:                -0.106
REMARK SMILES O=C([O-])CCC(=O)[O-]
REMARK SMILES IDX 4 1 2 2 1 3 3 4 5 5 6 6 7 7 8 8
REMARK H PARENT
REMARK Flexibility Score: inf
ROOT
ATOM      1  C   UNL     1      34.791   7.842  11.564  1.00  0.00     0.059 C 
ENDROOT
BRANCH   1   2
ATOM      2  C   UNL     1      35.443   6.644  12.185  1.00  0.00     0.042 C 
ATOM      3  O   UNL     1      36.586   6.278  11.807  1.00  0.00    -0.550 OA
ATOM      4  O   UNL     1      34.803   5.957  13.209  1.00  0.00    -0.550 OA
ENDBRANCH   1   2
BRANCH   1   5
ATOM      5  C   UNL     1      33.636   7.442  10.639  1.00  0.00     0.059 C 
BRANCH   5   6
ATOM      6  C   UNL     1      34.071   7.383   9.207  1.00  0.00     0.042 C 
ATOM      7  O   UNL     1      33.723   8.285   8.402  1.00  0.00    -0.550 OA
ATOM      8  O   UNL     1      34.896   6.352   8.771  1.00  0.00    -0.550 OA
ENDBRANCH   5   6
ENDBRANCH   1   5
TORSDOF 3
ENDMDL
MODEL 3
REMARK VINA RESULT:    -3.451      1.699      3.400
REMARK INTER + INTRA:          -4.162
REMARK INTER:                  -3.970
REMARK INTRA:                  -0.192
REMARK UNBOUND:                -0.106
REMARK SMILES O=C([O-])CCC(=O)[O-]
REMARK SMILES IDX 4 1 2 2 1 3 3 4 5 5 6 6 7 7 8 8
REMARK H PARENT
REMARK Flexibility Score: inf
ROOT
ATOM      1  C   UNL     1      34.809   7.458  11.871  1.00  0.00     0.059 C 
ENDROOT
BRANCH   1   2
ATOM      2  C   UNL     1      34.712   6.162  12.616  1.00  0.00     0.042 C 
ATOM      3  O   UNL     1      35.445   5.950  13.617  1.00  0.00    -0.550 OA
ATOM      4  O   UNL     1      33.782   5.205  12.228  1.00  0.00    -0.550 OA
ENDBRANCH   1   2
BRANCH   1   5
ATOM      5  C   UNL     1      36.171   7.616  11.186  1.00  0.00     0.059 C 
BRANCH   5   6
ATOM      6  C   UNL     1      36.436   6.501  10.220  1.00  0.00     0.042 C 
ATOM      7  O   UNL     1      37.427   5.744  10.383  1.00  0.00    -0.550 OA
ATOM      8  O   UNL     1      35.563   6.275   9.162  1.00  0.00    -0.550 OA
ENDBRANCH   5   6
ENDBRANCH   1   5
TORSDOF 3
ENDMDL
MODEL 4
REMARK VINA RESULT:    -3.441      1.580      4.158
REMARK INTER + INTRA:          -4.150
REMARK INTER:                  -4.046
REMARK INTRA:                  -0.104
REMARK UNBOUND:                -0.106
REMARK SMILES O=C([O-])CCC(=O)[O-]
REMARK SMILES IDX 4 1 2 2 1 3 3 4 5 5 6 6 7 7 8 8
REMARK H PARENT
REMARK Flexibility Score: inf
ROOT
ATOM      1  C   UNL     1      35.327   6.397  12.032  1.00  0.00     0.059 C 
ENDROOT
BRANCH   1   2
ATOM      2  C   UNL     1      34.813   5.760  13.286  1.00  0.00     0.042 C 
ATOM      3  O   UNL     1      35.550   5.681  14.304  1.00  0.00    -0.550 OA
ATOM      4  O   UNL     1      33.506   5.292  13.344  1.00  0.00    -0.550 OA
ENDBRANCH   1   2
BRANCH   1   5
ATOM      5  C   UNL     1      34.787   7.821  11.858  1.00  0.00     0.059 C 
BRANCH   5   6
ATOM      6  C   UNL     1      33.566   7.847  10.990  1.00  0.00     0.042 C 
ATOM      7  O   UNL     1      32.451   8.172  11.475  1.00  0.00    -0.550 OA
ATOM      8  O   UNL     1      33.668   7.550   9.636  1.00  0.00    -0.550 OA
ENDBRANCH   5   6
ENDBRANCH   1   5
TORSDOF 3
ENDMDL
MODEL 5
REMARK VINA RESULT:    -3.439      1.606      2.195
REMARK INTER + INTRA:          -4.149
REMARK INTER:                  -4.034
REMARK INTRA:                  -0.114
REMARK UNBOUND:                -0.106
REMARK SMILES O=C([O-])CCC(=O)[O-]
REMARK SMILES IDX 4 1 2 2 1 3 3 4 5 5 6 6 7 7 8 8
REMARK H PARENT
REMARK Flexibility Score: inf
ROOT
ATOM      1  C   UNL     1      34.789   7.780  11.874  1.00  0.00     0.059 C 
ENDROOT
BRANCH   1   2
ATOM      2  C   UNL     1      33.562   7.841  11.017  1.00  0.00     0.042 C 
ATOM      3  O   UNL     1      32.430   7.999  11.542  1.00  0.00    -0.550 OA
ATOM      4  O   UNL     1      33.675   7.764   9.634  1.00  0.00    -0.550 OA
ENDBRANCH   1   2
BRANCH   1   5
ATOM      5  C   UNL     1      35.289   6.341  12.044  1.00  0.00     0.059 C 
BRANCH   5   6
ATOM      6  C   UNL     1      34.782   5.727  13.312  1.00  0.00     0.042 C 
ATOM      7  O   UNL     1      35.527   5.656  14.324  1.00  0.00    -0.550 OA
ATOM      8  O   UNL     1      33.471   5.269  13.388  1.00  0.00    -0.550 OA
ENDBRANCH   5   6
ENDBRANCH   1   5
TORSDOF 3
ENDMDL
MODEL 6
REMARK VINA RESULT:    -3.437      1.666      2.470
REMARK INTER + INTRA:          -4.146
REMARK INTER:                  -3.957
REMARK INTRA:                  -0.189
REMARK UNBOUND:                -0.106
REMARK SMILES O=C([O-])CCC(=O)[O-]
REMARK SMILES IDX 4 1 2 2 1 3 3 4 5 5 6 6 7 7 8 8
REMARK H PARENT
REMARK Flexibility Score: inf
ROOT
ATOM      1  C   UNL     1      36.132   7.595  11.176  1.00  0.00     0.059 C 
ENDROOT
BRANCH   1   2
ATOM      2  C   UNL     1      36.359   6.465  10.220  1.00  0.00     0.042 C 
ATOM      3  O   UNL     1      37.317   5.668  10.398  1.00  0.00    -0.550 OA
ATOM      4  O   UNL     1      35.489   6.269   9.155  1.00  0.00    -0.550 OA
ENDBRANCH   1   2
BRANCH   1   5
ATOM      5  C   UNL     1      34.752   7.507  11.838  1.00  0.00     0.059 C 
BRANCH   5   6
ATOM      6  C   UNL     1      34.577   6.218  12.581  1.00  0.00     0.042 C 
ATOM      7  O   UNL     1      33.688   5.400  12.229  1.00  0.00    -0.550 OA
ATOM      8  O   UNL     1      35.424   5.903  13.638  1.00  0.00    -0.550 OA
ENDBRANCH   5   6
ENDBRANCH   1   5
TORSDOF 3
ENDMDL
MODEL 7
REMARK VINA RESULT:    -3.422     15.641     16.282
REMARK INTER + INTRA:          -4.129
REMARK INTER:                  -4.007
REMARK INTRA:                  -0.122
REMARK UNBOUND:                -0.106
REMARK SMILES O=C([O-])CCC(=O)[O-]
REMARK SMILES IDX 4 1 2 2 1 3 3 4 5 5 6 6 7 7 8 8
REMARK H PARENT
REMARK Flexibility Score: inf
ROOT
ATOM      1  C   UNL     1      40.835  19.978  16.488  1.00  0.00     0.059 C 
ENDROOT
BRANCH   1   2
ATOM      2  C   UNL     1      41.257  20.753  15.277  1.00  0.00     0.042 C 
ATOM      3  O   UNL     1      42.358  21.362  15.267  1.00  0.00    -0.550 OA
ATOM      4  O   UNL     1      40.452  20.767  14.145  1.00  0.00    -0.550 OA
ENDBRANCH   1   2
BRANCH   1   5
ATOM      5  C   UNL     1      42.022  19.266  17.146  1.00  0.00     0.059 C 
BRANCH   5   6
ATOM      6  C   UNL     1      42.287  19.791  18.523  1.00  0.00     0.042 C 
ATOM      7  O   UNL     1      42.183  19.031  19.521  1.00  0.00    -0.550 OA
ATOM      8  O   UNL     1      42.688  21.110  18.701  1.00  0.00    -0.550 OA
ENDBRANCH   5   6
ENDBRANCH   1   5
TORSDOF 3
ENDMDL
MODEL 8
REMARK VINA RESULT:    -3.408     15.531     15.711
REMARK INTER + INTRA:          -4.111
REMARK INTER:                  -4.078
REMARK INTRA:                  -0.033
REMARK UNBOUND:                -0.106
REMARK SMILES O=C([O-])CCC(=O)[O-]
REMARK SMILES IDX 4 1 2 2 1 3 3 4 5 5 6 6 7 7 8 8
REMARK H PARENT
REMARK Flexibility Score: inf
ROOT
ATOM      1  C   UNL     1      41.136  20.609  15.241  1.00  0.00     0.059 C 
ENDROOT
BRANCH   1   2
ATOM      2  C   UNL     1      39.994  21.341  14.606  1.00  0.00     0.042 C 
ATOM      3  O   UNL     1      39.992  21.558  13.366  1.00  0.00    -0.550 OA
ATOM      4  O   UNL     1      38.913  21.748  15.378  1.00  0.00    -0.550 OA
ENDBRANCH   1   2
BRANCH   1   5
ATOM      5  C   UNL     1      40.725  19.963  16.568  1.00  0.00     0.059 C 
BRANCH   5   6
ATOM      6  C   UNL     1      41.903  19.380  17.287  1.00  0.00     0.042 C 
ATOM      7  O   UNL     1      41.836  19.137  18.520  1.00  0.00    -0.550 OA
ATOM      8  O   UNL     1      43.062  19.068  16.585  1.00  0.00    -0.550 OA
ENDBRANCH   5   6
ENDBRANCH   1   5
TORSDOF 3
ENDMDL
MODEL 9
REMARK VINA RESULT:    -3.351      2.206      3.801
REMARK INTER + INTRA:          -4.045
REMARK INTER:                  -3.922
REMARK INTRA:                  -0.123
REMARK UNBOUND:                -0.106
REMARK SMILES O=C([O-])CCC(=O)[O-]
REMARK SMILES IDX 4 1 2 2 1 3 3 4 5 5 6 6 7 7 8 8
REMARK H PARENT
REMARK Flexibility Score: inf
ROOT
ATOM      1  C   UNL     1      34.503   7.309  11.342  1.00  0.00     0.059 C 
ENDROOT
BRANCH   1   2
ATOM      2  C   UNL     1      35.476   6.511  12.154  1.00  0.00     0.042 C 
ATOM      3  O   UNL     1      36.659   6.356  11.752  1.00  0.00    -0.550 OA
ATOM      4  O   UNL     1      35.088   5.973  13.374  1.00  0.00    -0.550 OA
ENDBRANCH   1   2
BRANCH   1   5
ATOM      5  C   UNL     1      33.690   8.269  12.218  1.00  0.00     0.059 C 
BRANCH   5   6
ATOM      6  C   UNL     1      32.241   7.888  12.258  1.00  0.00     0.042 C 
ATOM      7  O   UNL     1      31.352   8.778  12.240  1.00  0.00    -0.550 OA
ATOM      8  O   UNL     1      31.875   6.547  12.274  1.00  0.00    -0.550 OA
ENDBRANCH   5   6
ENDBRANCH   1   5
TORSDOF 3
ENDMDL
