MODEL 1
REMARK VINA RESULT:    -7.557      0.000      0.000
REMARK INTER + INTRA:          -9.677
REMARK INTER:                  -9.325
REMARK INTRA:                  -0.352
REMARK UNBOUND:                -0.352
REMARK SMILES Oc1cc(O)c2cc(O)c(-c3cc(O)c(O)c(O)c3)[o+]c2c1
REMARK SMILES IDX 10 1 20 2 21 3 22 4 2 5 3 6 4 7 6 8 7 9 8 10 11 11 12 12
REMARK SMILES IDX 13 13 19 14 15 15 17 16 14 17 16 19 18 21 9 23 1 25 5 27
REMARK H PARENT 14 18 16 20 18 22 9 24 1 26 5 28
REMARK Flexibility Score: inf
ROOT
ATOM      1  C   UNL     1      37.710 -11.968   8.595  1.00  0.00     0.402 A 
ATOM      2  O   UNL     1      37.832 -11.598   7.322  1.00  0.00    -0.202 OA
ATOM      3  C   UNL     1      36.889 -11.803   6.409  1.00  0.00     0.368 A 
ATOM      4  C   UNL     1      37.108 -11.374   5.097  1.00  0.00     0.162 A 
ATOM      5  C   UNL     1      36.134 -11.573   4.118  1.00  0.00     0.128 A 
ATOM      6  C   UNL     1      34.930 -12.204   4.451  1.00  0.00     0.093 A 
ATOM      7  C   UNL     1      34.686 -12.643   5.758  1.00  0.00     0.136 A 
ATOM      8  C   UNL     1      35.675 -12.445   6.756  1.00  0.00     0.125 A 
ATOM      9  C   UNL     1      35.523 -12.862   8.088  1.00  0.00     0.078 A 
ATOM     10  C   UNL     1      36.545 -12.635   9.015  1.00  0.00     0.223 A 
ENDROOT
BRANCH   1  11
ATOM     11  C   UNL     1      38.828 -11.676   9.520  1.00  0.00     0.091 A 
ATOM     12  C   UNL     1      40.002 -12.437   9.446  1.00  0.00     0.068 A 
ATOM     13  C   UNL     1      41.081 -12.169  10.297  1.00  0.00     0.162 A 
ATOM     14  C   UNL     1      38.762 -10.613  10.435  1.00  0.00     0.068 A 
ATOM     15  C   UNL     1      41.006 -11.121  11.226  1.00  0.00     0.200 A 
ATOM     16  C   UNL     1      39.834 -10.329  11.289  1.00  0.00     0.162 A 
BRANCH  13  17
ATOM     17  O   UNL     1      42.239 -12.943  10.226  1.00  0.00    -0.504 OA
ATOM     18  H   UNL     1      42.562 -13.489  11.016  1.00  0.00     0.293 HD
ENDBRANCH  13  17
BRANCH  15  19
ATOM     19  O   UNL     1      42.107 -10.900  12.056  1.00  0.00    -0.502 OA
ATOM     20  H   UNL     1      42.319 -11.454  12.873  1.00  0.00     0.293 HD
ENDBRANCH  15  19
BRANCH  16  21
ATOM     21  O   UNL     1      39.695  -9.257  12.173  1.00  0.00    -0.504 OA
ATOM     22  H   UNL     1      40.439  -8.907  12.759  1.00  0.00     0.293 HD
ENDBRANCH  16  21
ENDBRANCH   1  11
BRANCH  10  23
ATOM     23  O   UNL     1      36.415 -13.094  10.326  1.00  0.00    -0.500 OA
ATOM     24  H   UNL     1      37.104 -13.708  10.747  1.00  0.00     0.294 HD
ENDBRANCH  10  23
BRANCH   5  25
ATOM     25  O   UNL     1      36.372 -11.139   2.816  1.00  0.00    -0.507 OA
ATOM     26  H   UNL     1      36.150 -11.719   2.015  1.00  0.00     0.293 HD
ENDBRANCH   5  25
BRANCH   7  27
ATOM     27  O   UNL     1      33.457 -13.261   6.011  1.00  0.00    -0.507 OA
ATOM     28  H   UNL     1      32.592 -12.766   6.168  1.00  0.00     0.293 HD
ENDBRANCH   7  27
TORSDOF 7
ENDMDL
MODEL 2
REMARK VINA RESULT:    -7.524      0.137      1.802
REMARK INTER + INTRA:          -9.635
REMARK INTER:                  -9.302
REMARK INTRA:                  -0.333
REMARK UNBOUND:                -0.352
REMARK SMILES Oc1cc(O)c2cc(O)c(-c3cc(O)c(O)c(O)c3)[o+]c2c1
REMARK SMILES IDX 10 1 20 2 21 3 22 4 2 5 3 6 4 7 6 8 7 9 8 10 11 11 12 12
REMARK SMILES IDX 13 13 19 14 15 15 17 16 14 17 16 19 18 21 9 23 1 25 5 27
REMARK H PARENT 14 18 16 20 18 22 9 24 1 26 5 28
REMARK Flexibility Score: inf
ROOT
ATOM      1  C   UNL     1      37.692 -12.028   8.550  1.00  0.00     0.402 A 
ATOM      2  O   UNL     1      37.825 -11.709   7.265  1.00  0.00    -0.202 OA
ATOM      3  C   UNL     1      36.871 -11.909   6.361  1.00  0.00     0.368 A 
ATOM      4  C   UNL     1      37.103 -11.536   5.035  1.00  0.00     0.162 A 
ATOM      5  C   UNL     1      36.119 -11.731   4.065  1.00  0.00     0.128 A 
ATOM      6  C   UNL     1      34.892 -12.303   4.422  1.00  0.00     0.093 A 
ATOM      7  C   UNL     1      34.635 -12.685   5.745  1.00  0.00     0.136 A 
ATOM      8  C   UNL     1      35.634 -12.490   6.733  1.00  0.00     0.125 A 
ATOM      9  C   UNL     1      35.470 -12.854   8.080  1.00  0.00     0.078 A 
ATOM     10  C   UNL     1      36.503 -12.634   8.996  1.00  0.00     0.223 A 
ENDROOT
BRANCH   1  11
ATOM     11  C   UNL     1      38.823 -11.747   9.462  1.00  0.00     0.091 A 
ATOM     12  C   UNL     1      38.741 -10.665  10.350  1.00  0.00     0.068 A 
ATOM     13  C   UNL     1      39.790 -10.388  11.236  1.00  0.00     0.162 A 
ATOM     14  C   UNL     1      39.957 -12.574   9.500  1.00  0.00     0.068 A 
ATOM     15  C   UNL     1      40.931 -11.202  11.257  1.00  0.00     0.200 A 
ATOM     16  C   UNL     1      41.011 -12.313  10.384  1.00  0.00     0.162 A 
BRANCH  13  17
ATOM     17  O   UNL     1      39.705  -9.300  12.104  1.00  0.00    -0.504 OA
ATOM     18  H   UNL     1      38.833  -8.808  12.256  1.00  0.00     0.293 HD
ENDBRANCH  13  17
BRANCH  15  19
ATOM     19  O   UNL     1      41.952 -10.878  12.155  1.00  0.00    -0.502 OA
ATOM     20  H   UNL     1      42.930 -11.064  11.989  1.00  0.00     0.293 HD
ENDBRANCH  15  19
BRANCH  16  21
ATOM     21  O   UNL     1      42.106 -13.180  10.363  1.00  0.00    -0.504 OA
ATOM     22  H   UNL     1      42.445 -13.643   9.533  1.00  0.00     0.293 HD
ENDBRANCH  16  21
ENDBRANCH   1  11
BRANCH  10  23
ATOM     23  O   UNL     1      36.359 -13.040  10.323  1.00  0.00    -0.500 OA
ATOM     24  H   UNL     1      37.098 -13.533  10.813  1.00  0.00     0.294 HD
ENDBRANCH  10  23
BRANCH   5  25
ATOM     25  O   UNL     1      36.369 -11.354   2.748  1.00  0.00    -0.507 OA
ATOM     26  H   UNL     1      35.727 -11.586   1.999  1.00  0.00     0.293 HD
ENDBRANCH   5  25
BRANCH   7  27
ATOM     27  O   UNL     1      33.384 -13.245   6.022  1.00  0.00    -0.507 OA
ATOM     28  H   UNL     1      32.531 -12.715   6.118  1.00  0.00     0.293 HD
ENDBRANCH   7  27
TORSDOF 7
ENDMDL
MODEL 3
REMARK VINA RESULT:    -7.116      0.990      2.536
REMARK INTER + INTRA:          -9.133
REMARK INTER:                  -8.753
REMARK INTRA:                  -0.380
REMARK UNBOUND:                -0.352
REMARK SMILES Oc1cc(O)c2cc(O)c(-c3cc(O)c(O)c(O)c3)[o+]c2c1
REMARK SMILES IDX 10 1 20 2 21 3 22 4 2 5 3 6 4 7 6 8 7 9 8 10 11 11 12 12
REMARK SMILES IDX 13 13 19 14 15 15 17 16 14 17 16 19 18 21 9 23 1 25 5 27
REMARK H PARENT 14 18 16 20 18 22 9 24 1 26 5 28
REMARK Flexibility Score: inf
ROOT
ATOM      1  C   UNL     1      38.366 -11.464   8.011  1.00  0.00     0.402 A 
ATOM      2  O   UNL     1      37.256 -12.192   8.117  1.00  0.00    -0.202 OA
ATOM      3  C   UNL     1      36.379 -12.333   7.129  1.00  0.00     0.368 A 
ATOM      4  C   UNL     1      35.245 -13.122   7.335  1.00  0.00     0.162 A 
ATOM      5  C   UNL     1      34.309 -13.292   6.314  1.00  0.00     0.128 A 
ATOM      6  C   UNL     1      34.506 -12.668   5.077  1.00  0.00     0.093 A 
ATOM      7  C   UNL     1      35.635 -11.872   4.845  1.00  0.00     0.136 A 
ATOM      8  C   UNL     1      36.588 -11.696   5.882  1.00  0.00     0.125 A 
ATOM      9  C   UNL     1      37.742 -10.907   5.744  1.00  0.00     0.078 A 
ATOM     10  C   UNL     1      38.634 -10.777   6.813  1.00  0.00     0.223 A 
ENDROOT
BRANCH   1  11
ATOM     11  C   UNL     1      39.270 -11.391   9.180  1.00  0.00     0.091 A 
ATOM     12  C   UNL     1      40.348 -12.282   9.275  1.00  0.00     0.068 A 
ATOM     13  C   UNL     1      41.229 -12.223  10.362  1.00  0.00     0.162 A 
ATOM     14  C   UNL     1      39.109 -10.410  10.171  1.00  0.00     0.068 A 
ATOM     15  C   UNL     1      41.054 -11.256  11.363  1.00  0.00     0.200 A 
ATOM     16  C   UNL     1      39.984 -10.335  11.261  1.00  0.00     0.162 A 
BRANCH  13  17
ATOM     17  O   UNL     1      42.289 -13.124  10.456  1.00  0.00    -0.504 OA
ATOM     18  H   UNL     1      42.788 -13.269  11.326  1.00  0.00     0.293 HD
ENDBRANCH  13  17
BRANCH  15  19
ATOM     19  O   UNL     1      41.956 -11.244  12.429  1.00  0.00    -0.502 OA
ATOM     20  H   UNL     1      42.426 -10.415  12.762  1.00  0.00     0.293 HD
ENDBRANCH  15  19
BRANCH  16  21
ATOM     21  O   UNL     1      39.759  -9.332  12.208  1.00  0.00    -0.504 OA
ATOM     22  H   UNL     1      38.860  -8.906  12.377  1.00  0.00     0.293 HD
ENDBRANCH  16  21
ENDBRANCH   1  11
BRANCH  10  23
ATOM     23  O   UNL     1      39.753  -9.954   6.693  1.00  0.00    -0.500 OA
ATOM     24  H   UNL     1      39.749  -9.131   6.100  1.00  0.00     0.294 HD
ENDBRANCH  10  23
BRANCH   5  25
ATOM     25  O   UNL     1      33.183 -14.082   6.540  1.00  0.00    -0.507 OA
ATOM     26  H   UNL     1      33.196 -15.081   6.373  1.00  0.00     0.293 HD
ENDBRANCH   5  25
BRANCH   7  27
ATOM     27  O   UNL     1      35.762 -11.288   3.582  1.00  0.00    -0.507 OA
ATOM     28  H   UNL     1      35.120 -11.438   2.818  1.00  0.00     0.293 HD
ENDBRANCH   7  27
TORSDOF 7
ENDMDL
MODEL 4
REMARK VINA RESULT:    -7.048      1.493      7.200
REMARK INTER + INTRA:          -9.048
REMARK INTER:                  -8.763
REMARK INTRA:                  -0.284
REMARK UNBOUND:                -0.352
REMARK SMILES Oc1cc(O)c2cc(O)c(-c3cc(O)c(O)c(O)c3)[o+]c2c1
REMARK SMILES IDX 10 1 20 2 21 3 22 4 2 5 3 6 4 7 6 8 7 9 8 10 11 11 12 12
REMARK SMILES IDX 13 13 19 14 15 15 17 16 14 17 16 19 18 21 9 23 1 25 5 27
REMARK H PARENT 14 18 16 20 18 22 9 24 1 26 5 28
REMARK Flexibility Score: inf
ROOT
ATOM      1  C   UNL     1      38.324 -11.813   8.684  1.00  0.00     0.402 A 
ATOM      2  O   UNL     1      39.023 -12.904   8.987  1.00  0.00    -0.202 OA
ATOM      3  C   UNL     1      39.987 -12.922   9.903  1.00  0.00     0.368 A 
ATOM      4  C   UNL     1      40.663 -14.118  10.154  1.00  0.00     0.162 A 
ATOM      5  C   UNL     1      41.677 -14.167  11.111  1.00  0.00     0.128 A 
ATOM      6  C   UNL     1      42.018 -13.013  11.824  1.00  0.00     0.093 A 
ATOM      7  C   UNL     1      41.355 -11.801  11.591  1.00  0.00     0.136 A 
ATOM      8  C   UNL     1      40.326 -11.747  10.616  1.00  0.00     0.125 A 
ATOM      9  C   UNL     1      39.617 -10.575  10.307  1.00  0.00     0.078 A 
ATOM     10  C   UNL     1      38.617 -10.598   9.330  1.00  0.00     0.223 A 
ENDROOT
BRANCH   1  11
ATOM     11  C   UNL     1      37.268 -11.922   7.652  1.00  0.00     0.091 A 
ATOM     12  C   UNL     1      37.483 -11.367   6.383  1.00  0.00     0.068 A 
ATOM     13  C   UNL     1      36.508 -11.473   5.383  1.00  0.00     0.162 A 
ATOM     14  C   UNL     1      36.075 -12.621   7.897  1.00  0.00     0.068 A 
ATOM     15  C   UNL     1      35.308 -12.152   5.636  1.00  0.00     0.200 A 
ATOM     16  C   UNL     1      35.093 -12.739   6.906  1.00  0.00     0.162 A 
BRANCH  13  17
ATOM     17  O   UNL     1      36.725 -10.904   4.130  1.00  0.00    -0.504 OA
ATOM     18  H   UNL     1      36.404  -9.969   3.907  1.00  0.00     0.293 HD
ENDBRANCH  13  17
BRANCH  15  19
ATOM     19  O   UNL     1      34.365 -12.222   4.607  1.00  0.00    -0.502 OA
ATOM     20  H   UNL     1      33.457 -12.653   4.701  1.00  0.00     0.293 HD
ENDBRANCH  15  19
BRANCH  16  21
ATOM     21  O   UNL     1      33.931 -13.447   7.223  1.00  0.00    -0.504 OA
ATOM     22  H   UNL     1      33.250 -13.750   6.543  1.00  0.00     0.293 HD
ENDBRANCH  16  21
ENDBRANCH   1  11
BRANCH  10  23
ATOM     23  O   UNL     1      37.947  -9.424   8.987  1.00  0.00    -0.500 OA
ATOM     24  H   UNL     1      37.176  -9.423   8.328  1.00  0.00     0.294 HD
ENDBRANCH  10  23
BRANCH   5  25
ATOM     25  O   UNL     1      42.340 -15.370  11.347  1.00  0.00    -0.507 OA
ATOM     26  H   UNL     1      43.351 -15.430  11.325  1.00  0.00     0.293 HD
ENDBRANCH   5  25
BRANCH   7  27
ATOM     27  O   UNL     1      41.752 -10.694  12.348  1.00  0.00    -0.507 OA
ATOM     28  H   UNL     1      41.658  -9.736  12.047  1.00  0.00     0.293 HD
ENDBRANCH   7  27
TORSDOF 7
ENDMDL
MODEL 5
REMARK VINA RESULT:    -7.024      5.943     11.172
REMARK INTER + INTRA:          -9.019
REMARK INTER:                  -8.686
REMARK INTRA:                  -0.333
REMARK UNBOUND:                -0.352
REMARK SMILES Oc1cc(O)c2cc(O)c(-c3cc(O)c(O)c(O)c3)[o+]c2c1
REMARK SMILES IDX 10 1 20 2 21 3 22 4 2 5 3 6 4 7 6 8 7 9 8 10 11 11 12 12
REMARK SMILES IDX 13 13 19 14 15 15 17 16 14 17 16 19 18 21 9 23 1 25 5 27
REMARK H PARENT 14 18 16 20 18 22 9 24 1 26 5 28
REMARK Flexibility Score: inf
ROOT
ATOM      1  C   UNL     1      31.529 -14.222   2.297  1.00  0.00     0.402 A 
ATOM      2  O   UNL     1      32.611 -13.520   1.969  1.00  0.00    -0.202 OA
ATOM      3  C   UNL     1      33.728 -13.521   2.689  1.00  0.00     0.368 A 
ATOM      4  C   UNL     1      34.814 -12.754   2.260  1.00  0.00     0.162 A 
ATOM      5  C   UNL     1      36.000 -12.739   2.994  1.00  0.00     0.128 A 
ATOM      6  C   UNL     1      36.104 -13.497   4.166  1.00  0.00     0.093 A 
ATOM      7  C   UNL     1      35.030 -14.275   4.617  1.00  0.00     0.136 A 
ATOM      8  C   UNL     1      33.821 -14.290   3.874  1.00  0.00     0.125 A 
ATOM      9  C   UNL     1      32.690 -15.029   4.257  1.00  0.00     0.078 A 
ATOM     10  C   UNL     1      31.531 -14.991   3.475  1.00  0.00     0.223 A 
ENDROOT
BRANCH   1  11
ATOM     11  C   UNL     1      30.348 -14.145   1.409  1.00  0.00     0.091 A 
ATOM     12  C   UNL     1      30.050 -15.222   0.562  1.00  0.00     0.068 A 
ATOM     13  C   UNL     1      28.928 -15.182  -0.275  1.00  0.00     0.162 A 
ATOM     14  C   UNL     1      29.483 -13.039   1.434  1.00  0.00     0.068 A 
ATOM     15  C   UNL     1      28.077 -14.068  -0.265  1.00  0.00     0.200 A 
ATOM     16  C   UNL     1      28.355 -12.988   0.606  1.00  0.00     0.162 A 
BRANCH  13  17
ATOM     17  O   UNL     1      28.650 -16.252  -1.125  1.00  0.00    -0.504 OA
ATOM     18  H   UNL     1      28.678 -16.151  -2.133  1.00  0.00     0.293 HD
ENDBRANCH  13  17
BRANCH  15  19
ATOM     19  O   UNL     1      26.976 -14.075  -1.125  1.00  0.00    -0.502 OA
ATOM     20  H   UNL     1      26.985 -14.478  -2.050  1.00  0.00     0.293 HD
ENDBRANCH  15  19
BRANCH  16  21
ATOM     21  O   UNL     1      27.542 -11.855   0.686  1.00  0.00    -0.504 OA
ATOM     22  H   UNL     1      26.755 -11.766   1.312  1.00  0.00     0.293 HD
ENDBRANCH  16  21
ENDBRANCH   1  11
BRANCH  10  23
ATOM     23  O   UNL     1      30.391 -15.685   3.880  1.00  0.00    -0.500 OA
ATOM     24  H   UNL     1      29.486 -15.232   3.945  1.00  0.00     0.294 HD
ENDBRANCH  10  23
BRANCH   5  25
ATOM     25  O   UNL     1      37.072 -11.967   2.551  1.00  0.00    -0.507 OA
ATOM     26  H   UNL     1      37.370 -11.138   3.051  1.00  0.00     0.293 HD
ENDBRANCH   5  25
BRANCH   7  27
ATOM     27  O   UNL     1      35.215 -15.006   5.794  1.00  0.00    -0.507 OA
ATOM     28  H   UNL     1      35.664 -14.648   6.623  1.00  0.00     0.293 HD
ENDBRANCH   7  27
TORSDOF 7
ENDMDL
MODEL 6
REMARK VINA RESULT:    -7.001      5.910      9.451
REMARK INTER + INTRA:          -8.991
REMARK INTER:                  -8.672
REMARK INTRA:                  -0.319
REMARK UNBOUND:                -0.352
REMARK SMILES Oc1cc(O)c2cc(O)c(-c3cc(O)c(O)c(O)c3)[o+]c2c1
REMARK SMILES IDX 10 1 20 2 21 3 22 4 2 5 3 6 4 7 6 8 7 9 8 10 11 11 12 12
REMARK SMILES IDX 13 13 19 14 15 15 17 16 14 17 16 19 18 21 9 23 1 25 5 27
REMARK H PARENT 14 18 16 20 18 22 9 24 1 26 5 28
REMARK Flexibility Score: inf
ROOT
ATOM      1  C   UNL     1      31.827 -14.274   1.745  1.00  0.00     0.402 A 
ATOM      2  O   UNL     1      31.114 -13.226   1.337  1.00  0.00    -0.202 OA
ATOM      3  C   UNL     1      30.029 -13.333   0.577  1.00  0.00     0.368 A 
ATOM      4  C   UNL     1      29.344 -12.174   0.203  1.00  0.00     0.162 A 
ATOM      5  C   UNL     1      28.200 -12.256  -0.592  1.00  0.00     0.128 A 
ATOM      6  C   UNL     1      27.735 -13.506  -1.017  1.00  0.00     0.093 A 
ATOM      7  C   UNL     1      28.403 -14.683  -0.655  1.00  0.00     0.136 A 
ATOM      8  C   UNL     1      29.569 -14.603   0.151  1.00  0.00     0.125 A 
ATOM      9  C   UNL     1      30.310 -15.727   0.551  1.00  0.00     0.078 A 
ATOM     10  C   UNL     1      31.450 -15.568   1.343  1.00  0.00     0.223 A 
ENDROOT
BRANCH   1  11
ATOM     11  C   UNL     1      33.011 -14.026   2.598  1.00  0.00     0.091 A 
ATOM     12  C   UNL     1      34.134 -13.390   2.051  1.00  0.00     0.068 A 
ATOM     13  C   UNL     1      35.260 -13.127   2.841  1.00  0.00     0.162 A 
ATOM     14  C   UNL     1      33.015 -14.362   3.961  1.00  0.00     0.068 A 
ATOM     15  C   UNL     1      35.272 -13.484   4.197  1.00  0.00     0.200 A 
ATOM     16  C   UNL     1      34.132 -14.102   4.764  1.00  0.00     0.162 A 
BRANCH  13  17
ATOM     17  O   UNL     1      36.378 -12.509   2.283  1.00  0.00    -0.504 OA
ATOM     18  H   UNL     1      37.320 -12.809   2.509  1.00  0.00     0.293 HD
ENDBRANCH  13  17
BRANCH  15  19
ATOM     19  O   UNL     1      36.423 -13.206   4.939  1.00  0.00    -0.502 OA
ATOM     20  H   UNL     1      36.933 -13.897   5.469  1.00  0.00     0.293 HD
ENDBRANCH  15  19
BRANCH  16  21
ATOM     21  O   UNL     1      34.062 -14.466   6.111  1.00  0.00    -0.504 OA
ATOM     22  H   UNL     1      33.482 -15.211   6.466  1.00  0.00     0.293 HD
ENDBRANCH  16  21
ENDBRANCH   1  11
BRANCH  10  23
ATOM     23  O   UNL     1      32.215 -16.680   1.699  1.00  0.00    -0.500 OA
ATOM     24  H   UNL     1      32.826 -16.670   2.508  1.00  0.00     0.294 HD
ENDBRANCH  10  23
BRANCH   5  25
ATOM     25  O   UNL     1      27.532 -11.089  -0.955  1.00  0.00    -0.507 OA
ATOM     26  H   UNL     1      26.662 -10.817  -0.512  1.00  0.00     0.293 HD
ENDBRANCH   5  25
BRANCH   7  27
ATOM     27  O   UNL     1      27.874 -15.891  -1.116  1.00  0.00    -0.507 OA
ATOM     28  H   UNL     1      27.137 -15.966  -1.802  1.00  0.00     0.293 HD
ENDBRANCH   7  27
TORSDOF 7
ENDMDL
MODEL 7
REMARK VINA RESULT:    -6.962      1.498      7.241
REMARK INTER + INTRA:          -8.942
REMARK INTER:                  -8.654
REMARK INTRA:                  -0.288
REMARK UNBOUND:                -0.352
REMARK SMILES Oc1cc(O)c2cc(O)c(-c3cc(O)c(O)c(O)c3)[o+]c2c1
REMARK SMILES IDX 10 1 20 2 21 3 22 4 2 5 3 6 4 7 6 8 7 9 8 10 11 11 12 12
REMARK SMILES IDX 13 13 19 14 15 15 17 16 14 17 16 19 18 21 9 23 1 25 5 27
REMARK H PARENT 14 18 16 20 18 22 9 24 1 26 5 28
REMARK Flexibility Score: inf
ROOT
ATOM      1  C   UNL     1      38.312 -11.861   8.695  1.00  0.00     0.402 A 
ATOM      2  O   UNL     1      39.009 -12.951   9.009  1.00  0.00    -0.202 OA
ATOM      3  C   UNL     1      39.956 -12.968   9.941  1.00  0.00     0.368 A 
ATOM      4  C   UNL     1      40.630 -14.164  10.203  1.00  0.00     0.162 A 
ATOM      5  C   UNL     1      41.627 -14.212  11.178  1.00  0.00     0.128 A 
ATOM      6  C   UNL     1      41.954 -13.057  11.898  1.00  0.00     0.093 A 
ATOM      7  C   UNL     1      41.293 -11.847  11.655  1.00  0.00     0.136 A 
ATOM      8  C   UNL     1      40.280 -11.793  10.662  1.00  0.00     0.125 A 
ATOM      9  C   UNL     1      39.575 -10.622  10.341  1.00  0.00     0.078 A 
ATOM     10  C   UNL     1      38.592 -10.646   9.347  1.00  0.00     0.223 A 
ENDROOT
BRANCH   1  11
ATOM     11  C   UNL     1      37.275 -11.971   7.645  1.00  0.00     0.091 A 
ATOM     12  C   UNL     1      36.064 -12.614   7.936  1.00  0.00     0.068 A 
ATOM     13  C   UNL     1      35.059 -12.716   6.966  1.00  0.00     0.162 A 
ATOM     14  C   UNL     1      37.453 -11.395   6.377  1.00  0.00     0.068 A 
ATOM     15  C   UNL     1      35.246 -12.159   5.693  1.00  0.00     0.200 A 
ATOM     16  C   UNL     1      36.455 -11.484   5.399  1.00  0.00     0.162 A 
BRANCH  13  17
ATOM     17  O   UNL     1      33.864 -13.371   7.260  1.00  0.00    -0.504 OA
ATOM     18  H   UNL     1      33.193 -13.603   6.537  1.00  0.00     0.293 HD
ENDBRANCH  13  17
BRANCH  15  19
ATOM     19  O   UNL     1      34.215 -12.294   4.759  1.00  0.00    -0.502 OA
ATOM     20  H   UNL     1      33.326 -11.821   4.827  1.00  0.00     0.293 HD
ENDBRANCH  15  19
BRANCH  16  21
ATOM     21  O   UNL     1      36.704 -10.887   4.160  1.00  0.00    -0.504 OA
ATOM     22  H   UNL     1      36.477 -11.310   3.273  1.00  0.00     0.293 HD
ENDBRANCH  16  21
ENDBRANCH   1  11
BRANCH  10  23
ATOM     23  O   UNL     1      37.926  -9.473   8.994  1.00  0.00    -0.500 OA
ATOM     24  H   UNL     1      38.416  -8.590   8.896  1.00  0.00     0.294 HD
ENDBRANCH  10  23
BRANCH   5  25
ATOM     25  O   UNL     1      42.288 -15.413  11.425  1.00  0.00    -0.507 OA
ATOM     26  H   UNL     1      43.293 -15.449  11.549  1.00  0.00     0.293 HD
ENDBRANCH   5  25
BRANCH   7  27
ATOM     27  O   UNL     1      41.675 -10.740  12.419  1.00  0.00    -0.507 OA
ATOM     28  H   UNL     1      41.083 -10.285  13.098  1.00  0.00     0.293 HD
ENDBRANCH   7  27
TORSDOF 7
ENDMDL
MODEL 8
REMARK VINA RESULT:    -6.899      5.772      9.500
REMARK INTER + INTRA:          -8.865
REMARK INTER:                  -9.015
REMARK INTRA:                   0.151
REMARK UNBOUND:                -0.352
REMARK SMILES Oc1cc(O)c2cc(O)c(-c3cc(O)c(O)c(O)c3)[o+]c2c1
REMARK SMILES IDX 10 1 20 2 21 3 22 4 2 5 3 6 4 7 6 8 7 9 8 10 11 11 12 12
REMARK SMILES IDX 13 13 19 14 15 15 17 16 14 17 16 19 18 21 9 23 1 25 5 27
REMARK H PARENT 14 18 16 20 18 22 9 24 1 26 5 28
REMARK Flexibility Score: inf
ROOT
ATOM      1  C   UNL     1      31.859 -14.665   2.182  1.00  0.00     0.402 A 
ATOM      2  O   UNL     1      30.675 -14.661   2.790  1.00  0.00    -0.202 OA
ATOM      3  C   UNL     1      29.542 -15.003   2.185  1.00  0.00     0.368 A 
ATOM      4  C   UNL     1      28.349 -14.972   2.910  1.00  0.00     0.162 A 
ATOM      5  C   UNL     1      27.145 -15.328   2.301  1.00  0.00     0.128 A 
ATOM      6  C   UNL     1      27.132 -15.719   0.958  1.00  0.00     0.093 A 
ATOM      7  C   UNL     1      28.315 -15.760   0.210  1.00  0.00     0.136 A 
ATOM      8  C   UNL     1      29.541 -15.395   0.825  1.00  0.00     0.125 A 
ATOM      9  C   UNL     1      30.773 -15.393   0.150  1.00  0.00     0.078 A 
ATOM     10  C   UNL     1      31.940 -15.018   0.822  1.00  0.00     0.223 A 
ENDROOT
BRANCH   1  11
ATOM     11  C   UNL     1      33.051 -14.273   2.966  1.00  0.00     0.091 A 
ATOM     12  C   UNL     1      34.046 -13.490   2.365  1.00  0.00     0.068 A 
ATOM     13  C   UNL     1      35.176 -13.091   3.091  1.00  0.00     0.162 A 
ATOM     14  C   UNL     1      33.183 -14.620   4.320  1.00  0.00     0.068 A 
ATOM     15  C   UNL     1      35.317 -13.456   4.437  1.00  0.00     0.200 A 
ATOM     16  C   UNL     1      34.304 -14.224   5.060  1.00  0.00     0.162 A 
BRANCH  13  17
ATOM     17  O   UNL     1      36.167 -12.325   2.479  1.00  0.00    -0.504 OA
ATOM     18  H   UNL     1      36.115 -12.073   1.499  1.00  0.00     0.293 HD
ENDBRANCH  13  17
BRANCH  15  19
ATOM     19  O   UNL     1      36.465 -13.038   5.114  1.00  0.00    -0.502 OA
ATOM     20  H   UNL     1      37.157 -12.417   4.722  1.00  0.00     0.293 HD
ENDBRANCH  15  19
BRANCH  16  21
ATOM     21  O   UNL     1      34.366 -14.608   6.402  1.00  0.00    -0.504 OA
ATOM     22  H   UNL     1      35.203 -14.567   6.964  1.00  0.00     0.293 HD
ENDBRANCH  16  21
ENDBRANCH   1  11
BRANCH  10  23
ATOM     23  O   UNL     1      33.155 -14.967   0.139  1.00  0.00    -0.500 OA
ATOM     24  H   UNL     1      34.022 -14.732   0.610  1.00  0.00     0.294 HD
ENDBRANCH  10  23
BRANCH   5  25
ATOM     25  O   UNL     1      25.964 -15.290   3.041  1.00  0.00    -0.507 OA
ATOM     26  H   UNL     1      25.154 -15.837   2.774  1.00  0.00     0.293 HD
ENDBRANCH   5  25
BRANCH   7  27
ATOM     27  O   UNL     1      28.219 -16.165  -1.125  1.00  0.00    -0.507 OA
ATOM     28  H   UNL     1      27.797 -15.616  -1.858  1.00  0.00     0.293 HD
ENDBRANCH   7  27
TORSDOF 7
ENDMDL
MODEL 9
REMARK VINA RESULT:    -6.872      2.567      8.127
REMARK INTER + INTRA:          -8.831
REMARK INTER:                  -8.469
REMARK INTRA:                  -0.362
REMARK UNBOUND:                -0.352
REMARK SMILES Oc1cc(O)c2cc(O)c(-c3cc(O)c(O)c(O)c3)[o+]c2c1
REMARK SMILES IDX 10 1 20 2 21 3 22 4 2 5 3 6 4 7 6 8 7 9 8 10 11 11 12 12
REMARK SMILES IDX 13 13 19 14 15 15 17 16 14 17 16 19 18 21 9 23 1 25 5 27
REMARK H PARENT 14 18 16 20 18 22 9 24 1 26 5 28
REMARK Flexibility Score: inf
ROOT
ATOM      1  C   UNL     1      35.394 -12.983   5.710  1.00  0.00     0.402 A 
ATOM      2  O   UNL     1      36.060 -13.714   6.601  1.00  0.00    -0.202 OA
ATOM      3  C   UNL     1      36.737 -13.189   7.617  1.00  0.00     0.368 A 
ATOM      4  C   UNL     1      37.402 -14.040   8.503  1.00  0.00     0.162 A 
ATOM      5  C   UNL     1      38.117 -13.517   9.580  1.00  0.00     0.128 A 
ATOM      6  C   UNL     1      38.170 -12.132   9.775  1.00  0.00     0.093 A 
ATOM      7  C   UNL     1      37.512 -11.258   8.902  1.00  0.00     0.136 A 
ATOM      8  C   UNL     1      36.785 -11.786   7.803  1.00  0.00     0.125 A 
ATOM      9  C   UNL     1      36.106 -10.986   6.870  1.00  0.00     0.078 A 
ATOM     10  C   UNL     1      35.414 -11.580   5.810  1.00  0.00     0.223 A 
ENDROOT
BRANCH   1  11
ATOM     11  C   UNL     1      34.670 -13.686   4.628  1.00  0.00     0.091 A 
ATOM     12  C   UNL     1      33.367 -14.150   4.857  1.00  0.00     0.068 A 
ATOM     13  C   UNL     1      32.653 -14.802   3.844  1.00  0.00     0.162 A 
ATOM     14  C   UNL     1      35.236 -13.849   3.353  1.00  0.00     0.068 A 
ATOM     15  C   UNL     1      33.228 -14.984   2.579  1.00  0.00     0.200 A 
ATOM     16  C   UNL     1      34.532 -14.494   2.329  1.00  0.00     0.162 A 
BRANCH  13  17
ATOM     17  O   UNL     1      31.364 -15.274   4.088  1.00  0.00    -0.504 OA
ATOM     18  H   UNL     1      30.557 -14.882   3.617  1.00  0.00     0.293 HD
ENDBRANCH  13  17
BRANCH  15  19
ATOM     19  O   UNL     1      32.476 -15.647   1.605  1.00  0.00    -0.502 OA
ATOM     20  H   UNL     1      32.764 -16.503   1.156  1.00  0.00     0.293 HD
ENDBRANCH  15  19
BRANCH  16  21
ATOM     21  O   UNL     1      35.161 -14.620   1.088  1.00  0.00    -0.504 OA
ATOM     22  H   UNL     1      35.203 -15.479   0.560  1.00  0.00     0.293 HD
ENDBRANCH  16  21
ENDBRANCH   1  11
BRANCH  10  23
ATOM     23  O   UNL     1      34.782 -10.784   4.855  1.00  0.00    -0.500 OA
ATOM     24  H   UNL     1      34.698  -9.779   4.968  1.00  0.00     0.294 HD
ENDBRANCH  10  23
BRANCH   5  25
ATOM     25  O   UNL     1      38.774 -14.382  10.453  1.00  0.00    -0.507 OA
ATOM     26  H   UNL     1      39.697 -14.171  10.813  1.00  0.00     0.293 HD
ENDBRANCH   5  25
BRANCH   7  27
ATOM     27  O   UNL     1      37.609  -9.888   9.167  1.00  0.00    -0.507 OA
ATOM     28  H   UNL     1      38.067  -9.496   9.976  1.00  0.00     0.293 HD
ENDBRANCH   7  27
TORSDOF 7
ENDMDL
