MODEL 1
REMARK VINA RESULT:    -4.314      0.000      0.000
REMARK INTER + INTRA:          -4.869
REMARK INTER:                  -4.944
REMARK INTRA:                   0.075
REMARK UNBOUND:                 0.075
REMARK SMILES CC(C)[C@@H]([NH3+])C(=O)[O-]
REMARK SMILES IDX 4 1 5 2 6 6 7 7 8 8 2 9 1 10 3 11
REMARK H PARENT 5 3 5 4 5 5
REMARK Flexibility Score: inf
ROOT
ATOM      1  C   UNL     1     156.178 166.360 230.449  1.00  0.00     0.230 C 
ENDROOT
BRANCH   1   2
ATOM      2  N   UNL     1     156.004 167.142 229.216  1.00  0.00    -0.350 N 
ATOM      3  H   UNL     1     155.162 166.830 228.682  1.00  0.00     0.345 HD
ATOM      4  H   UNL     1     155.890 168.153 229.456  1.00  0.00     0.345 HD
ATOM      5  H   UNL     1     156.851 167.046 228.609  1.00  0.00     0.345 HD
ENDBRANCH   1   2
BRANCH   1   6
ATOM      6  C   UNL     1     156.853 165.042 230.151  1.00  0.00     0.099 C 
ATOM      7  O   UNL     1     156.246 163.960 230.367  1.00  0.00    -0.544 OA
ATOM      8  O   UNL     1     158.156 165.007 229.665  1.00  0.00    -0.544 OA
ENDBRANCH   1   6
BRANCH   1   9
ATOM      9  C   UNL     1     156.916 167.178 231.551  1.00  0.00     0.047 C 
ATOM     10  C   UNL     1     158.197 167.870 231.054  1.00  0.00     0.014 C 
ATOM     11  C   UNL     1     157.233 166.306 232.776  1.00  0.00     0.014 C 
ENDBRANCH   1   9
TORSDOF 3
ENDMDL
MODEL 2
REMARK VINA RESULT:    -4.260     13.874     14.858
REMARK INTER + INTRA:          -4.807
REMARK INTER:                  -4.861
REMARK INTRA:                   0.054
REMARK UNBOUND:                 0.075
REMARK SMILES CC(C)[C@@H]([NH3+])C(=O)[O-]
REMARK SMILES IDX 4 1 5 2 6 6 7 7 8 8 2 9 1 10 3 11
REMARK H PARENT 5 3 5 4 5 5
REMARK Flexibility Score: inf
ROOT
ATOM      1  C   UNL     1     161.988 151.933 230.450  1.00  0.00     0.230 C 
ENDROOT
BRANCH   1   2
ATOM      2  N   UNL     1     162.211 151.170 229.213  1.00  0.00    -0.350 N 
ATOM      3  H   UNL     1     161.945 150.167 229.330  1.00  0.00     0.345 HD
ATOM      4  H   UNL     1     161.636 151.579 228.442  1.00  0.00     0.345 HD
ATOM      5  H   UNL     1     163.217 151.229 228.934  1.00  0.00     0.345 HD
ENDBRANCH   1   2
BRANCH   1   6
ATOM      6  C   UNL     1     161.304 153.246 230.148  1.00  0.00     0.099 C 
ATOM      7  O   UNL     1     161.875 154.333 230.428  1.00  0.00    -0.544 OA
ATOM      8  O   UNL     1     160.031 153.269 229.589  1.00  0.00    -0.544 OA
ENDBRANCH   1   6
BRANCH   1   9
ATOM      9  C   UNL     1     161.230 151.092 231.519  1.00  0.00     0.047 C 
ATOM     10  C   UNL     1     159.989 150.368 230.969  1.00  0.00     0.014 C 
ATOM     11  C   UNL     1     160.841 151.950 232.733  1.00  0.00     0.014 C 
ENDBRANCH   1   9
TORSDOF 3
ENDMDL
MODEL 3
REMARK VINA RESULT:    -4.251      2.082      2.329
REMARK INTER + INTRA:          -4.797
REMARK INTER:                  -4.763
REMARK INTRA:                  -0.034
REMARK UNBOUND:                 0.075
REMARK SMILES CC(C)[C@@H]([NH3+])C(=O)[O-]
REMARK SMILES IDX 4 1 5 2 6 6 7 7 8 8 2 9 1 10 3 11
REMARK H PARENT 5 3 5 4 5 5
REMARK Flexibility Score: inf
ROOT
ATOM      1  C   UNL     1     157.870 167.698 230.970  1.00  0.00     0.230 C 
ENDROOT
BRANCH   1   2
ATOM      2  N   UNL     1     159.312 167.975 231.045  1.00  0.00    -0.350 N 
ATOM      3  H   UNL     1     159.872 167.094 231.030  1.00  0.00     0.345 HD
ATOM      4  H   UNL     1     159.597 168.564 230.230  1.00  0.00     0.345 HD
ATOM      5  H   UNL     1     159.529 168.506 231.920  1.00  0.00     0.345 HD
ENDBRANCH   1   2
BRANCH   1   6
ATOM      6  C   UNL     1     157.548 166.887 229.737  1.00  0.00     0.099 C 
ATOM      7  O   UNL     1     156.368 166.849 229.299  1.00  0.00    -0.544 OA
ATOM      8  O   UNL     1     158.538 166.154 229.093  1.00  0.00    -0.544 OA
ENDBRANCH   1   6
BRANCH   1   9
ATOM      9  C   UNL     1     157.340 167.039 232.279  1.00  0.00     0.047 C 
ATOM     10  C   UNL     1     157.844 167.722 233.562  1.00  0.00     0.014 C 
ATOM     11  C   UNL     1     157.667 165.538 232.320  1.00  0.00     0.014 C 
ENDBRANCH   1   9
TORSDOF 3
ENDMDL
MODEL 4
REMARK VINA RESULT:    -4.196     14.564     15.448
REMARK INTER + INTRA:          -4.734
REMARK INTER:                  -4.709
REMARK INTRA:                  -0.025
REMARK UNBOUND:                 0.075
REMARK SMILES CC(C)[C@@H]([NH3+])C(=O)[O-]
REMARK SMILES IDX 4 1 5 2 6 6 7 7 8 8 2 9 1 10 3 11
REMARK H PARENT 5 3 5 4 5 5
REMARK Flexibility Score: inf
ROOT
ATOM      1  C   UNL     1     160.449 150.496 231.191  1.00  0.00     0.230 C 
ENDROOT
BRANCH   1   2
ATOM      2  N   UNL     1     159.086 149.971 231.356  1.00  0.00    -0.350 N 
ATOM      3  H   UNL     1     158.381 150.741 231.394  1.00  0.00     0.345 HD
ATOM      4  H   UNL     1     158.852 149.346 230.551  1.00  0.00     0.345 HD
ATOM      5  H   UNL     1     159.024 149.405 232.234  1.00  0.00     0.345 HD
ENDBRANCH   1   2
BRANCH   1   6
ATOM      6  C   UNL     1     160.574 151.248 229.887  1.00  0.00     0.099 C 
ATOM      7  O   UNL     1     159.540 151.595 229.257  1.00  0.00    -0.544 OA
ATOM      8  O   UNL     1     161.825 151.536 229.353  1.00  0.00    -0.544 OA
ENDBRANCH   1   6
BRANCH   1   9
ATOM      9  C   UNL     1     160.892 151.346 232.420  1.00  0.00     0.047 C 
ATOM     10  C   UNL     1     160.463 150.749 233.771  1.00  0.00     0.014 C 
ATOM     11  C   UNL     1     160.394 152.795 232.305  1.00  0.00     0.014 C 
ENDBRANCH   1   9
TORSDOF 3
ENDMDL
MODEL 5
REMARK VINA RESULT:    -4.055      1.998      3.119
REMARK INTER + INTRA:          -4.573
REMARK INTER:                  -4.592
REMARK INTRA:                   0.019
REMARK UNBOUND:                 0.075
REMARK SMILES CC(C)[C@@H]([NH3+])C(=O)[O-]
REMARK SMILES IDX 4 1 5 2 6 6 7 7 8 8 2 9 1 10 3 11
REMARK H PARENT 5 3 5 4 5 5
REMARK Flexibility Score: inf
ROOT
ATOM      1  C   UNL     1     157.025 166.657 230.024  1.00  0.00     0.230 C 
ENDROOT
BRANCH   1   2
ATOM      2  N   UNL     1     155.603 166.912 229.748  1.00  0.00    -0.350 N 
ATOM      3  H   UNL     1     155.029 166.049 229.875  1.00  0.00     0.345 HD
ATOM      4  H   UNL     1     155.247 167.648 230.400  1.00  0.00     0.345 HD
ATOM      5  H   UNL     1     155.486 167.262 228.769  1.00  0.00     0.345 HD
ENDBRANCH   1   2
BRANCH   1   6
ATOM      6  C   UNL     1     157.400 167.171 231.394  1.00  0.00     0.099 C 
ATOM      7  O   UNL     1     158.312 168.031 231.517  1.00  0.00    -0.544 OA
ATOM      8  O   UNL     1     156.768 166.681 232.531  1.00  0.00    -0.544 OA
ENDBRANCH   1   6
BRANCH   1   9
ATOM      9  C   UNL     1     157.392 165.157 229.822  1.00  0.00     0.047 C 
ATOM     10  C   UNL     1     156.333 164.183 230.366  1.00  0.00     0.014 C 
ATOM     11  C   UNL     1     158.765 164.831 230.431  1.00  0.00     0.014 C 
ENDBRANCH   1   9
TORSDOF 3
ENDMDL
MODEL 6
REMARK VINA RESULT:    -3.997      1.301      2.210
REMARK INTER + INTRA:          -4.506
REMARK INTER:                  -4.464
REMARK INTRA:                  -0.042
REMARK UNBOUND:                 0.075
REMARK SMILES CC(C)[C@@H]([NH3+])C(=O)[O-]
REMARK SMILES IDX 4 1 5 2 6 6 7 7 8 8 2 9 1 10 3 11
REMARK H PARENT 5 3 5 4 5 5
REMARK Flexibility Score: inf
ROOT
ATOM      1  C   UNL     1     157.122 166.914 231.354  1.00  0.00     0.230 C 
ENDROOT
BRANCH   1   2
ATOM      2  N   UNL     1     157.732 168.129 230.794  1.00  0.00    -0.350 N 
ATOM      3  H   UNL     1     157.236 168.990 231.116  1.00  0.00     0.345 HD
ATOM      4  H   UNL     1     158.732 168.189 231.096  1.00  0.00     0.345 HD
ATOM      5  H   UNL     1     157.711 168.091 229.749  1.00  0.00     0.345 HD
ENDBRANCH   1   2
BRANCH   1   6
ATOM      6  C   UNL     1     157.165 165.788 230.348  1.00  0.00     0.099 C 
ATOM      7  O   UNL     1     158.227 165.548 229.716  1.00  0.00    -0.544 OA
ATOM      8  O   UNL     1     156.031 165.026 230.089  1.00  0.00    -0.544 OA
ENDBRANCH   1   6
BRANCH   1   9
ATOM      9  C   UNL     1     157.759 166.526 232.721  1.00  0.00     0.047 C 
ATOM     10  C   UNL     1     157.285 165.165 233.259  1.00  0.00     0.014 C 
ATOM     11  C   UNL     1     157.525 167.617 233.777  1.00  0.00     0.014 C 
ENDBRANCH   1   9
TORSDOF 3
ENDMDL
MODEL 7
REMARK VINA RESULT:    -3.997     14.083     14.825
REMARK INTER + INTRA:          -4.506
REMARK INTER:                  -4.516
REMARK INTRA:                   0.010
REMARK UNBOUND:                 0.075
REMARK SMILES CC(C)[C@@H]([NH3+])C(=O)[O-]
REMARK SMILES IDX 4 1 5 2 6 6 7 7 8 8 2 9 1 10 3 11
REMARK H PARENT 5 3 5 4 5 5
REMARK Flexibility Score: inf
ROOT
ATOM      1  C   UNL     1     161.068 151.540 229.865  1.00  0.00     0.230 C 
ENDROOT
BRANCH   1   2
ATOM      2  N   UNL     1     162.491 151.257 229.622  1.00  0.00    -0.350 N 
ATOM      3  H   UNL     1     163.074 152.117 229.721  1.00  0.00     0.345 HD
ATOM      4  H   UNL     1     162.828 150.545 230.310  1.00  0.00     0.345 HD
ATOM      5  H   UNL     1     162.618 150.864 228.661  1.00  0.00     0.345 HD
ENDBRANCH   1   2
BRANCH   1   6
ATOM      6  C   UNL     1     160.637 150.984 231.202  1.00  0.00     0.099 C 
ATOM      7  O   UNL     1     159.669 150.181 231.267  1.00  0.00    -0.544 OA
ATOM      8  O   UNL     1     161.281 151.372 232.371  1.00  0.00    -0.544 OA
ENDBRANCH   1   6
BRANCH   1   9
ATOM      9  C   UNL     1     160.748 153.057 229.712  1.00  0.00     0.047 C 
ATOM     10  C   UNL     1     161.831 153.979 230.297  1.00  0.00     0.014 C 
ATOM     11  C   UNL     1     159.380 153.403 230.322  1.00  0.00     0.014 C 
ENDBRANCH   1   9
TORSDOF 3
ENDMDL
MODEL 8
REMARK VINA RESULT:    -3.952     14.248     15.240
REMARK INTER + INTRA:          -4.455
REMARK INTER:                  -4.378
REMARK INTRA:                  -0.076
REMARK UNBOUND:                 0.075
REMARK SMILES CC(C)[C@@H]([NH3+])C(=O)[O-]
REMARK SMILES IDX 4 1 5 2 6 6 7 7 8 8 2 9 1 10 3 11
REMARK H PARENT 5 3 5 4 5 5
REMARK Flexibility Score: inf
ROOT
ATOM      1  C   UNL     1     159.352 156.772 218.465  1.00  0.00     0.230 C 
ENDROOT
BRANCH   1   2
ATOM      2  N   UNL     1     160.043 155.924 217.482  1.00  0.00    -0.350 N 
ATOM      3  H   UNL     1     159.365 155.421 216.868  1.00  0.00     0.345 HD
ATOM      4  H   UNL     1     160.660 156.517 216.881  1.00  0.00     0.345 HD
ATOM      5  H   UNL     1     160.645 155.225 217.975  1.00  0.00     0.345 HD
ENDBRANCH   1   2
BRANCH   1   6
ATOM      6  C   UNL     1     159.624 156.285 219.870  1.00  0.00     0.099 C 
ATOM      7  O   UNL     1     160.805 156.246 220.305  1.00  0.00    -0.544 OA
ATOM      8  O   UNL     1     158.583 155.849 220.682  1.00  0.00    -0.544 OA
ENDBRANCH   1   6
BRANCH   1   9
ATOM      9  C   UNL     1     159.699 158.278 218.273  1.00  0.00     0.047 C 
ATOM     10  C   UNL     1     158.930 159.215 219.220  1.00  0.00     0.014 C 
ATOM     11  C   UNL     1     159.489 158.718 216.815  1.00  0.00     0.014 C 
ENDBRANCH   1   9
TORSDOF 3
ENDMDL
MODEL 9
REMARK VINA RESULT:    -3.876      1.890      2.013
REMARK INTER + INTRA:          -4.367
REMARK INTER:                  -4.315
REMARK INTRA:                  -0.052
REMARK UNBOUND:                 0.075
REMARK SMILES CC(C)[C@@H]([NH3+])C(=O)[O-]
REMARK SMILES IDX 4 1 5 2 6 6 7 7 8 8 2 9 1 10 3 11
REMARK H PARENT 5 3 5 4 5 5
REMARK Flexibility Score: inf
ROOT
ATOM      1  C   UNL     1     157.737 165.459 232.026  1.00  0.00     0.230 C 
ENDROOT
BRANCH   1   2
ATOM      2  N   UNL     1     157.147 164.517 232.988  1.00  0.00    -0.350 N 
ATOM      3  H   UNL     1     157.792 163.721 233.190  1.00  0.00     0.345 HD
ATOM      4  H   UNL     1     156.943 165.015 233.884  1.00  0.00     0.345 HD
ATOM      5  H   UNL     1     156.245 164.141 232.613  1.00  0.00     0.345 HD
ENDBRANCH   1   2
BRANCH   1   6
ATOM      6  C   UNL     1     157.450 165.019 230.609  1.00  0.00     0.099 C 
ATOM      7  O   UNL     1     156.287 164.661 230.283  1.00  0.00    -0.544 OA
ATOM      8  O   UNL     1     158.467 164.975 229.662  1.00  0.00    -0.544 OA
ENDBRANCH   1   6
BRANCH   1   9
ATOM      9  C   UNL     1     157.287 166.925 232.303  1.00  0.00     0.047 C 
ATOM     10  C   UNL     1     157.887 167.950 231.326  1.00  0.00     0.014 C 
ATOM     11  C   UNL     1     157.594 167.338 233.751  1.00  0.00     0.014 C 
ENDBRANCH   1   9
TORSDOF 3
ENDMDL
