MODEL 1
REMARK VINA RESULT:    -3.991      0.000      0.000
REMARK INTER + INTRA:          -5.329
REMARK INTER:                  -5.157
REMARK INTRA:                  -0.171
REMARK UNBOUND:                -0.171
REMARK SMILES CCCCCCC(=O)[O-]
REMARK SMILES IDX 5 1 6 2 7 3 8 4 9 5 4 6 3 7 2 8 1 9
REMARK H PARENT
REMARK Flexibility Score: inf
ROOT
ATOM      1  C   UNL     1      13.732 -31.776  23.823  1.00  0.00     0.006 C 
ENDROOT
BRANCH   1   2
ATOM      2  C   UNL     1      15.044 -32.395  23.322  1.00  0.00     0.053 C 
BRANCH   2   3
ATOM      3  C   UNL     1      14.826 -33.261  22.120  1.00  0.00     0.041 C 
ATOM      4  O   UNL     1      15.300 -34.426  22.085  1.00  0.00    -0.550 OA
ATOM      5  O   UNL     1      14.070 -32.794  21.051  1.00  0.00    -0.550 OA
ENDBRANCH   2   3
ENDBRANCH   1   2
BRANCH   1   6
ATOM      6  C   UNL     1      13.703 -30.251  23.648  1.00  0.00     0.000 C 
BRANCH   6   7
ATOM      7  C   UNL     1      12.393 -29.797  22.992  1.00  0.00    -0.000 C 
BRANCH   7   8
ATOM      8  C   UNL     1      11.783 -28.609  23.745  1.00  0.00    -0.003 C 
ATOM      9  C   UNL     1      12.859 -27.614  24.170  1.00  0.00     0.004 C 
ENDBRANCH   7   8
ENDBRANCH   6   7
ENDBRANCH   1   6
TORSDOF 5
ENDMDL
MODEL 2
REMARK VINA RESULT:    -3.942      1.368      1.527
REMARK INTER + INTRA:          -5.266
REMARK INTER:                  -4.990
REMARK INTRA:                  -0.276
REMARK UNBOUND:                -0.171
REMARK SMILES CCCCCCC(=O)[O-]
REMARK SMILES IDX 5 1 6 2 7 3 8 4 9 5 4 6 3 7 2 8 1 9
REMARK H PARENT
REMARK Flexibility Score: inf
ROOT
ATOM      1  C   UNL     1      14.742 -30.329  21.688  1.00  0.00     0.006 C 
ENDROOT
BRANCH   1   2
ATOM      2  C   UNL     1      13.713 -31.410  21.337  1.00  0.00     0.053 C 
BRANCH   2   3
ATOM      3  C   UNL     1      14.317 -32.781  21.355  1.00  0.00     0.041 C 
ATOM      4  O   UNL     1      14.724 -33.279  22.437  1.00  0.00    -0.550 OA
ATOM      5  O   UNL     1      14.401 -33.522  20.182  1.00  0.00    -0.550 OA
ENDBRANCH   2   3
ENDBRANCH   1   2
BRANCH   1   6
ATOM      6  C   UNL     1      14.379 -29.576  22.976  1.00  0.00     0.000 C 
BRANCH   6   7
ATOM      7  C   UNL     1      12.984 -29.975  23.472  1.00  0.00    -0.000 C 
BRANCH   7   8
ATOM      8  C   UNL     1      12.235 -28.765  24.042  1.00  0.00    -0.003 C 
ATOM      9  C   UNL     1      13.106 -27.512  24.010  1.00  0.00     0.004 C 
ENDBRANCH   7   8
ENDBRANCH   6   7
ENDBRANCH   1   6
TORSDOF 5
ENDMDL
MODEL 3
REMARK VINA RESULT:    -3.936      3.365      4.945
REMARK INTER + INTRA:          -5.258
REMARK INTER:                  -4.959
REMARK INTRA:                  -0.299
REMARK UNBOUND:                -0.171
REMARK SMILES CCCCCCC(=O)[O-]
REMARK SMILES IDX 5 1 6 2 7 3 8 4 9 5 4 6 3 7 2 8 1 9
REMARK H PARENT
REMARK Flexibility Score: inf
ROOT
ATOM      1  C   UNL     1      13.693 -30.340  23.951  1.00  0.00     0.006 C 
ENDROOT
BRANCH   1   2
ATOM      2  C   UNL     1      13.597 -28.995  23.220  1.00  0.00     0.053 C 
BRANCH   2   3
ATOM      3  C   UNL     1      12.680 -28.043  23.926  1.00  0.00     0.041 C 
ATOM      4  O   UNL     1      11.492 -28.374  24.174  1.00  0.00    -0.550 OA
ATOM      5  O   UNL     1      13.149 -26.801  24.338  1.00  0.00    -0.550 OA
ENDBRANCH   2   3
ENDBRANCH   1   2
BRANCH   1   6
ATOM      6  C   UNL     1      13.148 -31.502  23.108  1.00  0.00     0.000 C 
BRANCH   6   7
ATOM      7  C   UNL     1      12.669 -31.009  21.737  1.00  0.00    -0.000 C 
BRANCH   7   8
ATOM      8  C   UNL     1      13.434 -31.704  20.604  1.00  0.00    -0.003 C 
ATOM      9  C   UNL     1      14.280 -32.856  21.136  1.00  0.00     0.004 C 
ENDBRANCH   7   8
ENDBRANCH   6   7
ENDBRANCH   1   6
TORSDOF 5
ENDMDL
MODEL 4
REMARK VINA RESULT:    -3.764      9.662     10.444
REMARK INTER + INTRA:          -5.036
REMARK INTER:                  -4.835
REMARK INTRA:                  -0.200
REMARK UNBOUND:                -0.171
REMARK SMILES CCCCCCC(=O)[O-]
REMARK SMILES IDX 5 1 6 2 7 3 8 4 9 5 4 6 3 7 2 8 1 9
REMARK H PARENT
REMARK Flexibility Score: inf
ROOT
ATOM      1  C   UNL     1      20.821 -25.743  20.124  1.00  0.00     0.006 C 
ENDROOT
BRANCH   1   2
ATOM      2  C   UNL     1      22.100 -25.032  20.585  1.00  0.00     0.053 C 
BRANCH   2   3
ATOM      3  C   UNL     1      23.211 -25.185  19.593  1.00  0.00     0.041 C 
ATOM      4  O   UNL     1      23.875 -24.182  19.225  1.00  0.00    -0.550 OA
ATOM      5  O   UNL     1      23.534 -26.443  19.098  1.00  0.00    -0.550 OA
ENDBRANCH   2   3
ENDBRANCH   1   2
BRANCH   1   6
ATOM      6  C   UNL     1      20.229 -26.644  21.217  1.00  0.00     0.000 C 
BRANCH   6   7
ATOM      7  C   UNL     1      19.964 -28.056  20.681  1.00  0.00    -0.000 C 
BRANCH   7   8
ATOM      8  C   UNL     1      21.235 -28.912  20.733  1.00  0.00    -0.003 C 
ATOM      9  C   UNL     1      20.912 -30.357  21.100  1.00  0.00     0.004 C 
ENDBRANCH   7   8
ENDBRANCH   6   7
ENDBRANCH   1   6
TORSDOF 5
ENDMDL
MODEL 5
REMARK VINA RESULT:    -3.750      1.347      1.849
REMARK INTER + INTRA:          -5.017
REMARK INTER:                  -4.858
REMARK INTRA:                  -0.158
REMARK UNBOUND:                -0.171
REMARK SMILES CCCCCCC(=O)[O-]
REMARK SMILES IDX 5 1 6 2 7 3 8 4 9 5 4 6 3 7 2 8 1 9
REMARK H PARENT
REMARK Flexibility Score: inf
ROOT
ATOM      1  C   UNL     1      13.963 -32.156  21.017  1.00  0.00     0.006 C 
ENDROOT
BRANCH   1   2
ATOM      2  C   UNL     1      14.608 -32.997  22.126  1.00  0.00     0.053 C 
BRANCH   2   3
ATOM      3  C   UNL     1      15.353 -34.172  21.571  1.00  0.00     0.041 C 
ATOM      4  O   UNL     1      16.207 -34.771  22.275  1.00  0.00    -0.550 OA
ATOM      5  O   UNL     1      15.081 -34.626  20.286  1.00  0.00    -0.550 OA
ENDBRANCH   2   3
ENDBRANCH   1   2
BRANCH   1   6
ATOM      6  C   UNL     1      12.836 -31.258  21.548  1.00  0.00     0.000 C 
BRANCH   6   7
ATOM      7  C   UNL     1      13.030 -30.954  23.038  1.00  0.00    -0.000 C 
BRANCH   7   8
ATOM      8  C   UNL     1      13.516 -29.515  23.248  1.00  0.00    -0.003 C 
ATOM      9  C   UNL     1      12.579 -28.747  24.175  1.00  0.00     0.004 C 
ENDBRANCH   7   8
ENDBRANCH   6   7
ENDBRANCH   1   6
TORSDOF 5
ENDMDL
MODEL 6
REMARK VINA RESULT:    -3.671      1.508      2.183
REMARK INTER + INTRA:          -4.915
REMARK INTER:                  -4.656
REMARK INTRA:                  -0.259
REMARK UNBOUND:                -0.171
REMARK SMILES CCCCCCC(=O)[O-]
REMARK SMILES IDX 5 1 6 2 7 3 8 4 9 5 4 6 3 7 2 8 1 9
REMARK H PARENT
REMARK Flexibility Score: inf
ROOT
ATOM      1  C   UNL     1      14.850 -33.303  23.596  1.00  0.00     0.006 C 
ENDROOT
BRANCH   1   2
ATOM      2  C   UNL     1      14.995 -33.125  22.080  1.00  0.00     0.053 C 
BRANCH   2   3
ATOM      3  C   UNL     1      15.542 -34.356  21.425  1.00  0.00     0.041 C 
ATOM      4  O   UNL     1      15.108 -34.723  20.303  1.00  0.00    -0.550 OA
ATOM      5  O   UNL     1      16.556 -35.081  22.041  1.00  0.00    -0.550 OA
ENDBRANCH   2   3
ENDBRANCH   1   2
BRANCH   1   6
ATOM      6  C   UNL     1      13.856 -32.304  24.208  1.00  0.00     0.000 C 
BRANCH   6   7
ATOM      7  C   UNL     1      13.259 -31.393  23.129  1.00  0.00    -0.000 C 
BRANCH   7   8
ATOM      8  C   UNL     1      13.355 -29.918  23.538  1.00  0.00    -0.003 C 
ATOM      9  C   UNL     1      14.576 -29.251  22.913  1.00  0.00     0.004 C 
ENDBRANCH   7   8
ENDBRANCH   6   7
ENDBRANCH   1   6
TORSDOF 5
ENDMDL
MODEL 7
REMARK VINA RESULT:    -3.649      3.361      5.042
REMARK INTER + INTRA:          -4.886
REMARK INTER:                  -4.627
REMARK INTRA:                  -0.259
REMARK UNBOUND:                -0.171
REMARK SMILES CCCCCCC(=O)[O-]
REMARK SMILES IDX 5 1 6 2 7 3 8 4 9 5 4 6 3 7 2 8 1 9
REMARK H PARENT
REMARK Flexibility Score: inf
ROOT
ATOM      1  C   UNL     1      14.576 -29.528  22.837  1.00  0.00     0.006 C 
ENDROOT
BRANCH   1   2
ATOM      2  C   UNL     1      13.145 -29.770  23.334  1.00  0.00     0.053 C 
BRANCH   2   3
ATOM      3  C   UNL     1      12.528 -28.521  23.883  1.00  0.00     0.041 C 
ATOM      4  O   UNL     1      11.289 -28.468  24.100  1.00  0.00    -0.550 OA
ATOM      5  O   UNL     1      13.326 -27.425  24.189  1.00  0.00    -0.550 OA
ENDBRANCH   2   3
ENDBRANCH   1   2
BRANCH   1   6
ATOM      6  C   UNL     1      14.962 -30.471  21.688  1.00  0.00     0.000 C 
BRANCH   6   7
ATOM      7  C   UNL     1      13.754 -31.292  21.222  1.00  0.00    -0.000 C 
BRANCH   7   8
ATOM      8  C   UNL     1      14.166 -32.725  20.866  1.00  0.00    -0.003 C 
ATOM      9  C   UNL     1      14.932 -33.379  22.012  1.00  0.00     0.004 C 
ENDBRANCH   7   8
ENDBRANCH   6   7
ENDBRANCH   1   6
TORSDOF 5
ENDMDL
MODEL 8
REMARK VINA RESULT:    -3.605      2.656      3.731
REMARK INTER + INTRA:          -4.831
REMARK INTER:                  -4.639
REMARK INTRA:                  -0.191
REMARK UNBOUND:                -0.171
REMARK SMILES CCCCCCC(=O)[O-]
REMARK SMILES IDX 5 1 6 2 7 3 8 4 9 5 4 6 3 7 2 8 1 9
REMARK H PARENT
REMARK Flexibility Score: inf
ROOT
ATOM      1  C   UNL     1      15.342 -34.354  21.517  1.00  0.00     0.006 C 
ENDROOT
BRANCH   1   2
ATOM      2  C   UNL     1      15.324 -34.476  19.987  1.00  0.00     0.053 C 
BRANCH   2   3
ATOM      3  C   UNL     1      16.618 -35.014  19.458  1.00  0.00     0.041 C 
ATOM      4  O   UNL     1      16.832 -36.254  19.447  1.00  0.00    -0.550 OA
ATOM      5  O   UNL     1      17.576 -34.146  18.946  1.00  0.00    -0.550 OA
ENDBRANCH   2   3
ENDBRANCH   1   2
BRANCH   1   6
ATOM      6  C   UNL     1      15.015 -32.930  21.990  1.00  0.00     0.000 C 
BRANCH   6   7
ATOM      7  C   UNL     1      13.940 -32.288  21.105  1.00  0.00    -0.000 C 
BRANCH   7   8
ATOM      8  C   UNL     1      13.180 -31.196  21.865  1.00  0.00    -0.003 C 
ATOM      9  C   UNL     1      13.393 -31.321  23.370  1.00  0.00     0.004 C 
ENDBRANCH   7   8
ENDBRANCH   6   7
ENDBRANCH   1   6
TORSDOF 5
ENDMDL
MODEL 9
REMARK VINA RESULT:    -3.568      3.074      4.995
REMARK INTER + INTRA:          -4.782
REMARK INTER:                  -4.546
REMARK INTRA:                  -0.235
REMARK UNBOUND:                -0.171
REMARK SMILES CCCCCCC(=O)[O-]
REMARK SMILES IDX 5 1 6 2 7 3 8 4 9 5 4 6 3 7 2 8 1 9
REMARK H PARENT
REMARK Flexibility Score: inf
ROOT
ATOM      1  C   UNL     1      14.113 -30.401  22.455  1.00  0.00     0.006 C 
ENDROOT
BRANCH   1   2
ATOM      2  C   UNL     1      12.650 -30.150  22.841  1.00  0.00     0.053 C 
BRANCH   2   3
ATOM      3  C   UNL     1      12.478 -28.842  23.550  1.00  0.00     0.041 C 
ATOM      4  O   UNL     1      11.374 -28.546  24.075  1.00  0.00    -0.550 OA
ATOM      5  O   UNL     1      13.549 -27.963  23.661  1.00  0.00    -0.550 OA
ENDBRANCH   2   3
ENDBRANCH   1   2
BRANCH   1   6
ATOM      6  C   UNL     1      14.876 -31.179  23.537  1.00  0.00     0.000 C 
BRANCH   6   7
ATOM      7  C   UNL     1      14.075 -32.400  24.004  1.00  0.00    -0.000 C 
BRANCH   7   8
ATOM      8  C   UNL     1      14.923 -33.676  23.928  1.00  0.00    -0.003 C 
ATOM      9  C   UNL     1      15.273 -34.020  22.484  1.00  0.00     0.004 C 
ENDBRANCH   7   8
ENDBRANCH   6   7
ENDBRANCH   1   6
TORSDOF 5
ENDMDL
