MODEL 1
REMARK VINA RESULT:    -3.840      0.000      0.000
REMARK INTER + INTRA:          -7.708
REMARK INTER:                  -6.534
REMARK INTRA:                  -1.174
REMARK UNBOUND:                -1.174
REMARK SMILES CCCCCCCCCCCCCC(=O)[O-]
REMARK SMILES IDX 8 1 9 2 10 3 11 4 12 5 13 6 14 7 15 8 16 9 7 10 6 11 5 12
REMARK SMILES IDX 4 13 3 14 2 15 1 16
REMARK H PARENT
REMARK Flexibility Score: inf
ROOT
ATOM      1  C   UNL     1     -23.275   3.155 -25.206  1.00  0.00     0.000 C 
ENDROOT
BRANCH   1   2
ATOM      2  C   UNL     1     -23.189   3.659 -26.661  1.00  0.00     0.000 C 
BRANCH   2   3
ATOM      3  C   UNL     1     -22.664   2.630 -27.679  1.00  0.00     0.000 C 
BRANCH   3   4
ATOM      4  C   UNL     1     -21.129   2.537 -27.696  1.00  0.00     0.000 C 
BRANCH   4   5
ATOM      5  C   UNL     1     -20.625   1.088 -27.589  1.00  0.00     0.006 C 
BRANCH   5   6
ATOM      6  C   UNL     1     -20.994   0.430 -26.253  1.00  0.00     0.053 C 
BRANCH   6   7
ATOM      7  C   UNL     1     -19.761  -0.023 -25.537  1.00  0.00     0.041 C 
ATOM      8  O   UNL     1     -19.704   0.023 -24.281  1.00  0.00    -0.550 OA
ATOM      9  O   UNL     1     -18.655  -0.450 -26.261  1.00  0.00    -0.550 OA
ENDBRANCH   6   7
ENDBRANCH   5   6
ENDBRANCH   4   5
ENDBRANCH   3   4
ENDBRANCH   2   3
ENDBRANCH   1   2
BRANCH   1  10
ATOM     10  C   UNL     1     -22.468   3.977 -24.181  1.00  0.00     0.000 C 
BRANCH  10  11
ATOM     11  C   UNL     1     -20.938   3.940 -24.375  1.00  0.00    -0.000 C 
BRANCH  11  12
ATOM     12  C   UNL     1     -20.144   3.349 -23.196  1.00  0.00    -0.000 C 
BRANCH  12  13
ATOM     13  C   UNL     1     -20.995   3.188 -21.924  1.00  0.00    -0.000 C 
BRANCH  13  14
ATOM     14  C   UNL     1     -20.142   3.162 -20.645  1.00  0.00    -0.000 C 
BRANCH  14  15
ATOM     15  C   UNL     1     -20.222   4.474 -19.852  1.00  0.00    -0.003 C 
ATOM     16  C   UNL     1     -21.661   4.787 -19.450  1.00  0.00     0.004 C 
ENDBRANCH  14  15
ENDBRANCH  13  14
ENDBRANCH  12  13
ENDBRANCH  11  12
ENDBRANCH  10  11
ENDBRANCH   1  10
TORSDOF 12
ENDMDL
MODEL 2
REMARK VINA RESULT:    -3.677     14.622     16.585
REMARK INTER + INTRA:          -7.430
REMARK INTER:                  -6.608
REMARK INTRA:                  -0.822
REMARK UNBOUND:                -1.174
REMARK SMILES CCCCCCCCCCCCCC(=O)[O-]
REMARK SMILES IDX 8 1 9 2 10 3 11 4 12 5 13 6 14 7 15 8 16 9 7 10 6 11 5 12
REMARK SMILES IDX 4 13 3 14 2 15 1 16
REMARK H PARENT
REMARK Flexibility Score: inf
ROOT
ATOM      1  C   UNL     1      -7.069  -7.083 -26.761  1.00  0.00     0.000 C 
ENDROOT
BRANCH   1   2
ATOM      2  C   UNL     1      -6.916  -5.837 -25.864  1.00  0.00     0.000 C 
BRANCH   2   3
ATOM      3  C   UNL     1      -8.182  -4.971 -25.726  1.00  0.00     0.000 C 
BRANCH   3   4
ATOM      4  C   UNL     1      -7.868  -3.470 -25.616  1.00  0.00     0.000 C 
BRANCH   4   5
ATOM      5  C   UNL     1      -7.998  -2.945 -24.176  1.00  0.00     0.006 C 
BRANCH   5   6
ATOM      6  C   UNL     1      -7.494  -1.503 -24.025  1.00  0.00     0.053 C 
BRANCH   6   7
ATOM      7  C   UNL     1      -6.485  -1.416 -22.924  1.00  0.00     0.041 C 
ATOM      8  O   UNL     1      -6.396  -0.373 -22.226  1.00  0.00    -0.550 OA
ATOM      9  O   UNL     1      -5.608  -2.470 -22.700  1.00  0.00    -0.550 OA
ENDBRANCH   6   7
ENDBRANCH   5   6
ENDBRANCH   4   5
ENDBRANCH   3   4
ENDBRANCH   2   3
ENDBRANCH   1   2
BRANCH   1  10
ATOM     10  C   UNL     1      -8.271  -7.050 -27.725  1.00  0.00     0.000 C 
BRANCH  10  11
ATOM     11  C   UNL     1      -9.373  -8.090 -27.431  1.00  0.00    -0.000 C 
BRANCH  11  12
ATOM     12  C   UNL     1      -9.835  -8.156 -25.965  1.00  0.00    -0.000 C 
BRANCH  12  13
ATOM     13  C   UNL     1      -9.937  -9.597 -25.435  1.00  0.00    -0.000 C 
BRANCH  13  14
ATOM     14  C   UNL     1     -10.128 -10.626 -26.562  1.00  0.00    -0.000 C 
BRANCH  14  15
ATOM     15  C   UNL     1     -11.558 -11.184 -26.620  1.00  0.00    -0.003 C 
ATOM     16  C   UNL     1     -12.300 -10.667 -27.850  1.00  0.00     0.004 C 
ENDBRANCH  14  15
ENDBRANCH  13  14
ENDBRANCH  12  13
ENDBRANCH  11  12
ENDBRANCH  10  11
ENDBRANCH   1  10
TORSDOF 12
ENDMDL
MODEL 3
REMARK VINA RESULT:    -3.653     12.475     14.702
REMARK INTER + INTRA:          -7.390
REMARK INTER:                  -5.399
REMARK INTRA:                  -1.992
REMARK UNBOUND:                -1.174
REMARK SMILES CCCCCCCCCCCCCC(=O)[O-]
REMARK SMILES IDX 8 1 9 2 10 3 11 4 12 5 13 6 14 7 15 8 16 9 7 10 6 11 5 12
REMARK SMILES IDX 4 13 3 14 2 15 1 16
REMARK H PARENT
REMARK Flexibility Score: inf
ROOT
ATOM      1  C   UNL     1      -6.368   0.271 -22.763  1.00  0.00     0.000 C 
ENDROOT
BRANCH   1   2
ATOM      2  C   UNL     1      -7.111  -1.080 -22.822  1.00  0.00     0.000 C 
BRANCH   2   3
ATOM      3  C   UNL     1      -6.209  -2.314 -23.011  1.00  0.00     0.000 C 
BRANCH   3   4
ATOM      4  C   UNL     1      -6.418  -3.004 -24.369  1.00  0.00     0.000 C 
BRANCH   4   5
ATOM      5  C   UNL     1      -7.901  -3.088 -24.766  1.00  0.00     0.006 C 
BRANCH   5   6
ATOM      6  C   UNL     1      -8.116  -3.814 -26.101  1.00  0.00     0.053 C 
BRANCH   6   7
ATOM      7  C   UNL     1      -8.070  -5.295 -25.902  1.00  0.00     0.041 C 
ATOM      8  O   UNL     1      -9.092  -5.915 -25.507  1.00  0.00    -0.550 OA
ATOM      9  O   UNL     1      -6.883  -5.987 -26.105  1.00  0.00    -0.550 OA
ENDBRANCH   6   7
ENDBRANCH   5   6
ENDBRANCH   4   5
ENDBRANCH   3   4
ENDBRANCH   2   3
ENDBRANCH   1   2
BRANCH   1  10
ATOM     10  C   UNL     1      -6.448   1.116 -24.049  1.00  0.00     0.000 C 
BRANCH  10  11
ATOM     11  C   UNL     1      -5.712   0.520 -25.268  1.00  0.00    -0.000 C 
BRANCH  11  12
ATOM     12  C   UNL     1      -6.620   0.086 -26.432  1.00  0.00    -0.000 C 
BRANCH  12  13
ATOM     13  C   UNL     1      -7.991   0.785 -26.413  1.00  0.00    -0.000 C 
BRANCH  13  14
ATOM     14  C   UNL     1      -9.072  -0.017 -27.157  1.00  0.00    -0.000 C 
BRANCH  14  15
ATOM     15  C   UNL     1     -10.311  -0.287 -26.291  1.00  0.00    -0.003 C 
ATOM     16  C   UNL     1     -10.024  -0.007 -24.818  1.00  0.00     0.004 C 
ENDBRANCH  14  15
ENDBRANCH  13  14
ENDBRANCH  12  13
ENDBRANCH  11  12
ENDBRANCH  10  11
ENDBRANCH   1  10
TORSDOF 12
ENDMDL
MODEL 4
REMARK VINA RESULT:    -3.610     12.296     14.423
REMARK INTER + INTRA:          -7.317
REMARK INTER:                  -5.454
REMARK INTRA:                  -1.863
REMARK UNBOUND:                -1.174
REMARK SMILES CCCCCCCCCCCCCC(=O)[O-]
REMARK SMILES IDX 8 1 9 2 10 3 11 4 12 5 13 6 14 7 15 8 16 9 7 10 6 11 5 12
REMARK SMILES IDX 4 13 3 14 2 15 1 16
REMARK H PARENT
REMARK Flexibility Score: inf
ROOT
ATOM      1  C   UNL     1     -10.072  -0.076 -25.104  1.00  0.00     0.000 C 
ENDROOT
BRANCH   1   2
ATOM      2  C   UNL     1      -8.729   0.609 -24.777  1.00  0.00     0.000 C 
BRANCH   2   3
ATOM      3  C   UNL     1      -8.071   1.353 -25.954  1.00  0.00     0.000 C 
BRANCH   3   4
ATOM      4  C   UNL     1      -6.591   0.983 -26.142  1.00  0.00     0.000 C 
BRANCH   4   5
ATOM      5  C   UNL     1      -5.905   0.604 -24.819  1.00  0.00     0.006 C 
BRANCH   5   6
ATOM      6  C   UNL     1      -5.443   1.829 -24.019  1.00  0.00     0.053 C 
BRANCH   6   7
ATOM      7  C   UNL     1      -5.987   1.779 -22.627  1.00  0.00     0.041 C 
ATOM      8  O   UNL     1      -6.495   2.807 -22.107  1.00  0.00    -0.550 OA
ATOM      9  O   UNL     1      -5.888   0.610 -21.884  1.00  0.00    -0.550 OA
ENDBRANCH   6   7
ENDBRANCH   5   6
ENDBRANCH   4   5
ENDBRANCH   3   4
ENDBRANCH   2   3
ENDBRANCH   1   2
BRANCH   1  10
ATOM     10  C   UNL     1     -10.490  -0.019 -26.586  1.00  0.00     0.000 C 
BRANCH  10  11
ATOM     11  C   UNL     1     -10.518  -1.382 -27.309  1.00  0.00    -0.000 C 
BRANCH  11  12
ATOM     12  C   UNL     1      -9.140  -1.937 -27.712  1.00  0.00    -0.000 C 
BRANCH  12  13
ATOM     13  C   UNL     1      -8.679  -3.099 -26.814  1.00  0.00    -0.000 C 
BRANCH  13  14
ATOM     14  C   UNL     1      -7.529  -2.697 -25.876  1.00  0.00    -0.000 C 
BRANCH  14  15
ATOM     15  C   UNL     1      -7.827  -3.015 -24.403  1.00  0.00    -0.003 C 
ATOM     16  C   UNL     1      -6.655  -2.619 -23.508  1.00  0.00     0.004 C 
ENDBRANCH  14  15
ENDBRANCH  13  14
ENDBRANCH  12  13
ENDBRANCH  11  12
ENDBRANCH  10  11
ENDBRANCH   1  10
TORSDOF 12
ENDMDL
MODEL 5
REMARK VINA RESULT:    -3.568      1.777      2.961
REMARK INTER + INTRA:          -7.246
REMARK INTER:                  -5.383
REMARK INTRA:                  -1.863
REMARK UNBOUND:                -1.174
REMARK SMILES CCCCCCCCCCCCCC(=O)[O-]
REMARK SMILES IDX 8 1 9 2 10 3 11 4 12 5 13 6 14 7 15 8 16 9 7 10 6 11 5 12
REMARK SMILES IDX 4 13 3 14 2 15 1 16
REMARK H PARENT
REMARK Flexibility Score: inf
ROOT
ATOM      1  C   UNL     1     -23.242   2.736 -25.663  1.00  0.00     0.000 C 
ENDROOT
BRANCH   1   2
ATOM      2  C   UNL     1     -23.016   3.401 -27.036  1.00  0.00     0.000 C 
BRANCH   2   3
ATOM      3  C   UNL     1     -22.399   2.487 -28.111  1.00  0.00     0.000 C 
BRANCH   3   4
ATOM      4  C   UNL     1     -20.889   2.272 -27.916  1.00  0.00     0.000 C 
BRANCH   4   5
ATOM      5  C   UNL     1     -20.510   0.783 -27.846  1.00  0.00     0.006 C 
BRANCH   5   6
ATOM      6  C   UNL     1     -20.882   0.140 -26.504  1.00  0.00     0.053 C 
BRANCH   6   7
ATOM      7  C   UNL     1     -19.649  -0.193 -25.725  1.00  0.00     0.041 C 
ATOM      8  O   UNL     1     -19.613  -0.001 -24.482  1.00  0.00    -0.550 OA
ATOM      9  O   UNL     1     -18.521  -0.668 -26.381  1.00  0.00    -0.550 OA
ENDBRANCH   6   7
ENDBRANCH   5   6
ENDBRANCH   4   5
ENDBRANCH   3   4
ENDBRANCH   2   3
ENDBRANCH   1   2
BRANCH   1  10
ATOM     10  C   UNL     1     -23.414   3.714 -24.484  1.00  0.00     0.000 C 
BRANCH  10  11
ATOM     11  C   UNL     1     -22.098   4.272 -23.902  1.00  0.00    -0.000 C 
BRANCH  11  12
ATOM     12  C   UNL     1     -21.059   3.211 -23.500  1.00  0.00    -0.000 C 
BRANCH  12  13
ATOM     13  C   UNL     1     -19.684   3.444 -24.151  1.00  0.00    -0.000 C 
BRANCH  13  14
ATOM     14  C   UNL     1     -19.729   4.516 -25.252  1.00  0.00    -0.000 C 
BRANCH  14  15
ATOM     15  C   UNL     1     -18.487   4.492 -26.155  1.00  0.00    -0.003 C 
ATOM     16  C   UNL     1     -17.821   3.118 -26.136  1.00  0.00     0.004 C 
ENDBRANCH  14  15
ENDBRANCH  13  14
ENDBRANCH  12  13
ENDBRANCH  11  12
ENDBRANCH  10  11
ENDBRANCH   1  10
TORSDOF 12
ENDMDL
MODEL 6
REMARK VINA RESULT:    -3.527     12.400     14.668
REMARK INTER + INTRA:          -7.175
REMARK INTER:                  -5.295
REMARK INTRA:                  -1.880
REMARK UNBOUND:                -1.174
REMARK SMILES CCCCCCCCCCCCCC(=O)[O-]
REMARK SMILES IDX 8 1 9 2 10 3 11 4 12 5 13 6 14 7 15 8 16 9 7 10 6 11 5 12
REMARK SMILES IDX 4 13 3 14 2 15 1 16
REMARK H PARENT
REMARK Flexibility Score: inf
ROOT
ATOM      1  C   UNL     1      -8.661   0.134 -24.741  1.00  0.00     0.000 C 
ENDROOT
BRANCH   1   2
ATOM      2  C   UNL     1      -8.111   1.525 -25.116  1.00  0.00     0.000 C 
BRANCH   2   3
ATOM      3  C   UNL     1      -6.691   1.528 -25.710  1.00  0.00     0.000 C 
BRANCH   3   4
ATOM      4  C   UNL     1      -6.220   0.129 -26.138  1.00  0.00     0.000 C 
BRANCH   4   5
ATOM      5  C   UNL     1      -5.055  -0.390 -25.279  1.00  0.00     0.006 C 
BRANCH   5   6
ATOM      6  C   UNL     1      -5.313  -1.795 -24.718  1.00  0.00     0.053 C 
BRANCH   6   7
ATOM      7  C   UNL     1      -5.588  -1.727 -23.250  1.00  0.00     0.041 C 
ATOM      8  O   UNL     1      -5.635  -2.781 -22.563  1.00  0.00    -0.550 OA
ATOM      9  O   UNL     1      -5.844  -0.502 -22.646  1.00  0.00    -0.550 OA
ENDBRANCH   6   7
ENDBRANCH   5   6
ENDBRANCH   4   5
ENDBRANCH   3   4
ENDBRANCH   2   3
ENDBRANCH   1   2
BRANCH   1  10
ATOM     10  C   UNL     1     -10.102  -0.147 -25.209  1.00  0.00     0.000 C 
BRANCH  10  11
ATOM     11  C   UNL     1     -10.401   0.244 -26.671  1.00  0.00    -0.000 C 
BRANCH  11  12
ATOM     12  C   UNL     1      -9.690  -0.612 -27.735  1.00  0.00    -0.000 C 
BRANCH  12  13
ATOM     13  C   UNL     1      -9.694  -2.112 -27.394  1.00  0.00    -0.000 C 
BRANCH  13  14
ATOM     14  C   UNL     1      -8.276  -2.700 -27.310  1.00  0.00    -0.000 C 
BRANCH  14  15
ATOM     15  C   UNL     1      -8.226  -4.018 -26.523  1.00  0.00    -0.003 C 
ATOM     16  C   UNL     1      -8.247  -3.761 -25.018  1.00  0.00     0.004 C 
ENDBRANCH  14  15
ENDBRANCH  13  14
ENDBRANCH  12  13
ENDBRANCH  11  12
ENDBRANCH  10  11
ENDBRANCH   1  10
TORSDOF 12
ENDMDL
MODEL 7
REMARK VINA RESULT:    -3.510     12.645     15.031
REMARK INTER + INTRA:          -7.146
REMARK INTER:                  -5.408
REMARK INTRA:                  -1.738
REMARK UNBOUND:                -1.174
REMARK SMILES CCCCCCCCCCCCCC(=O)[O-]
REMARK SMILES IDX 8 1 9 2 10 3 11 4 12 5 13 6 14 7 15 8 16 9 7 10 6 11 5 12
REMARK SMILES IDX 4 13 3 14 2 15 1 16
REMARK H PARENT
REMARK Flexibility Score: inf
ROOT
ATOM      1  C   UNL     1      -9.970  -0.139 -25.715  1.00  0.00     0.000 C 
ENDROOT
BRANCH   1   2
ATOM      2  C   UNL     1      -8.806   0.105 -24.732  1.00  0.00     0.000 C 
BRANCH   2   3
ATOM      3  C   UNL     1      -8.589  -1.005 -23.688  1.00  0.00     0.000 C 
BRANCH   3   4
ATOM      4  C   UNL     1      -7.210  -0.927 -23.012  1.00  0.00     0.000 C 
BRANCH   4   5
ATOM      5  C   UNL     1      -6.362   0.244 -23.535  1.00  0.00     0.006 C 
BRANCH   5   6
ATOM      6  C   UNL     1      -5.648   1.007 -22.411  1.00  0.00     0.053 C 
BRANCH   6   7
ATOM      7  C   UNL     1      -6.099   2.433 -22.381  1.00  0.00     0.041 C 
ATOM      8  O   UNL     1      -5.653   3.221 -21.507  1.00  0.00    -0.550 OA
ATOM      9  O   UNL     1      -7.052   2.880 -23.288  1.00  0.00    -0.550 OA
ENDBRANCH   6   7
ENDBRANCH   5   6
ENDBRANCH   4   5
ENDBRANCH   3   4
ENDBRANCH   2   3
ENDBRANCH   1   2
BRANCH   1  10
ATOM     10  C   UNL     1      -9.597  -0.933 -26.982  1.00  0.00     0.000 C 
BRANCH  10  11
ATOM     11  C   UNL     1      -8.161  -0.704 -27.497  1.00  0.00    -0.000 C 
BRANCH  11  12
ATOM     12  C   UNL     1      -7.310  -1.977 -27.649  1.00  0.00    -0.000 C 
BRANCH  12  13
ATOM     13  C   UNL     1      -6.406  -2.240 -26.432  1.00  0.00    -0.000 C 
BRANCH  13  14
ATOM     14  C   UNL     1      -6.571  -3.663 -25.873  1.00  0.00    -0.000 C 
BRANCH  14  15
ATOM     15  C   UNL     1      -8.038  -4.026 -25.599  1.00  0.00    -0.003 C 
ATOM     16  C   UNL     1      -8.262  -5.532 -25.720  1.00  0.00     0.004 C 
ENDBRANCH  14  15
ENDBRANCH  13  14
ENDBRANCH  12  13
ENDBRANCH  11  12
ENDBRANCH  10  11
ENDBRANCH   1  10
TORSDOF 12
ENDMDL
MODEL 8
REMARK VINA RESULT:    -3.458     13.007     14.881
REMARK INTER + INTRA:          -7.058
REMARK INTER:                  -4.969
REMARK INTRA:                  -2.090
REMARK UNBOUND:                -1.174
REMARK SMILES CCCCCCCCCCCCCC(=O)[O-]
REMARK SMILES IDX 8 1 9 2 10 3 11 4 12 5 13 6 14 7 15 8 16 9 7 10 6 11 5 12
REMARK SMILES IDX 4 13 3 14 2 15 1 16
REMARK H PARENT
REMARK Flexibility Score: inf
ROOT
ATOM      1  C   UNL     1      -8.507  -1.197 -23.884  1.00  0.00     0.000 C 
ENDROOT
BRANCH   1   2
ATOM      2  C   UNL     1      -7.162  -1.222 -23.129  1.00  0.00     0.000 C 
BRANCH   2   3
ATOM      3  C   UNL     1      -6.291  -2.465 -23.385  1.00  0.00     0.000 C 
BRANCH   3   4
ATOM      4  C   UNL     1      -5.507  -2.382 -24.706  1.00  0.00     0.000 C 
BRANCH   4   5
ATOM      5  C   UNL     1      -6.216  -3.110 -25.860  1.00  0.00     0.006 C 
BRANCH   5   6
ATOM      6  C   UNL     1      -6.770  -4.480 -25.444  1.00  0.00     0.053 C 
BRANCH   6   7
ATOM      7  C   UNL     1      -8.224  -4.578 -25.780  1.00  0.00     0.041 C 
ATOM      8  O   UNL     1      -8.882  -5.602 -25.458  1.00  0.00    -0.550 OA
ATOM      9  O   UNL     1      -8.842  -3.560 -26.495  1.00  0.00    -0.550 OA
ENDBRANCH   6   7
ENDBRANCH   5   6
ENDBRANCH   4   5
ENDBRANCH   3   4
ENDBRANCH   2   3
ENDBRANCH   1   2
BRANCH   1  10
ATOM     10  C   UNL     1      -8.769   0.077 -24.709  1.00  0.00     0.000 C 
BRANCH  10  11
ATOM     11  C   UNL     1      -8.379  -0.018 -26.199  1.00  0.00    -0.000 C 
BRANCH  11  12
ATOM     12  C   UNL     1      -6.959   0.469 -26.536  1.00  0.00    -0.000 C 
BRANCH  12  13
ATOM     13  C   UNL     1      -6.487   1.613 -25.621  1.00  0.00    -0.000 C 
BRANCH  13  14
ATOM     14  C   UNL     1      -5.140   1.309 -24.946  1.00  0.00    -0.000 C 
BRANCH  14  15
ATOM     15  C   UNL     1      -4.927   2.117 -23.657  1.00  0.00    -0.003 C 
ATOM     16  C   UNL     1      -6.261   2.472 -23.005  1.00  0.00     0.004 C 
ENDBRANCH  14  15
ENDBRANCH  13  14
ENDBRANCH  12  13
ENDBRANCH  11  12
ENDBRANCH  10  11
ENDBRANCH   1  10
TORSDOF 12
ENDMDL
MODEL 9
REMARK VINA RESULT:    -3.428     13.143     15.248
REMARK INTER + INTRA:          -7.008
REMARK INTER:                  -5.304
REMARK INTRA:                  -1.704
REMARK UNBOUND:                -1.174
REMARK SMILES CCCCCCCCCCCCCC(=O)[O-]
REMARK SMILES IDX 8 1 9 2 10 3 11 4 12 5 13 6 14 7 15 8 16 9 7 10 6 11 5 12
REMARK SMILES IDX 4 13 3 14 2 15 1 16
REMARK H PARENT
REMARK Flexibility Score: inf
ROOT
ATOM      1  C   UNL     1      -9.433  -0.107 -24.738  1.00  0.00     0.000 C 
ENDROOT
BRANCH   1   2
ATOM      2  C   UNL     1      -9.015   0.663 -26.007  1.00  0.00     0.000 C 
BRANCH   2   3
ATOM      3  C   UNL     1      -7.510   0.631 -26.326  1.00  0.00     0.000 C 
BRANCH   3   4
ATOM      4  C   UNL     1      -6.785   1.923 -25.915  1.00  0.00     0.000 C 
BRANCH   4   5
ATOM      5  C   UNL     1      -6.003   1.767 -24.600  1.00  0.00     0.006 C 
BRANCH   5   6
ATOM      6  C   UNL     1      -6.713   2.423 -23.408  1.00  0.00     0.053 C 
BRANCH   6   7
ATOM      7  C   UNL     1      -5.871   2.317 -22.176  1.00  0.00     0.041 C 
ATOM      8  O   UNL     1      -5.412   3.354 -21.630  1.00  0.00    -0.550 OA
ATOM      9  O   UNL     1      -5.550   1.068 -21.660  1.00  0.00    -0.550 OA
ENDBRANCH   6   7
ENDBRANCH   5   6
ENDBRANCH   4   5
ENDBRANCH   3   4
ENDBRANCH   2   3
ENDBRANCH   1   2
BRANCH   1  10
ATOM     10  C   UNL     1      -8.574  -1.345 -24.413  1.00  0.00     0.000 C 
BRANCH  10  11
ATOM     11  C   UNL     1      -7.691  -1.215 -23.155  1.00  0.00    -0.000 C 
BRANCH  11  12
ATOM     12  C   UNL     1      -6.472  -2.153 -23.111  1.00  0.00    -0.000 C 
BRANCH  12  13
ATOM     13  C   UNL     1      -5.779  -2.295 -24.478  1.00  0.00    -0.000 C 
BRANCH  13  14
ATOM     14  C   UNL     1      -5.712  -3.756 -24.955  1.00  0.00    -0.000 C 
BRANCH  14  15
ATOM     15  C   UNL     1      -6.691  -4.051 -26.100  1.00  0.00    -0.003 C 
ATOM     16  C   UNL     1      -7.954  -4.735 -25.581  1.00  0.00     0.004 C 
ENDBRANCH  14  15
ENDBRANCH  13  14
ENDBRANCH  12  13
ENDBRANCH  11  12
ENDBRANCH  10  11
ENDBRANCH   1  10
TORSDOF 12
ENDMDL
