MODEL 1
REMARK VINA RESULT:    -4.380      0.000      0.000
REMARK INTER + INTRA:          -6.631
REMARK INTER:                  -6.173
REMARK INTRA:                  -0.458
REMARK UNBOUND:                -0.458
REMARK SMILES C=CCCCCCCC(=O)[O-]
REMARK SMILES IDX 6 1 7 2 8 3 9 4 10 5 11 6 5 7 4 8 3 9 2 10 1 11
REMARK H PARENT
REMARK Flexibility Score: inf
ROOT
ATOM      1  C   UNL     1      40.987  51.228  33.012  1.00  0.00     0.000 C 
ENDROOT
BRANCH   1   2
ATOM      2  C   UNL     1      40.193  50.414  31.978  1.00  0.00     0.006 C 
BRANCH   2   3
ATOM      3  C   UNL     1      40.149  48.918  32.314  1.00  0.00     0.053 C 
BRANCH   3   4
ATOM      4  C   UNL     1      38.739  48.419  32.288  1.00  0.00     0.041 C 
ATOM      5  O   UNL     1      38.493  47.239  31.923  1.00  0.00    -0.550 OA
ATOM      6  O   UNL     1      37.702  49.239  32.712  1.00  0.00    -0.550 OA
ENDBRANCH   3   4
ENDBRANCH   2   3
ENDBRANCH   1   2
BRANCH   1   7
ATOM      7  C   UNL     1      40.104  51.738  34.165  1.00  0.00     0.000 C 
BRANCH   7   8
ATOM      8  C   UNL     1      40.893  51.941  35.472  1.00  0.00     0.004 C 
BRANCH   8   9
ATOM      9  C   UNL     1      42.353  51.469  35.404  1.00  0.00     0.027 C 
BRANCH   9  10
ATOM     10  C   UNL     1      43.315  52.626  35.428  1.00  0.00    -0.035 C 
ATOM     11  C   UNL     1      43.960  53.032  34.329  1.00  0.00     0.004 C 
ENDBRANCH   9  10
ENDBRANCH   8   9
ENDBRANCH   7   8
ENDBRANCH   1   7
TORSDOF 7
ENDMDL
MODEL 2
REMARK VINA RESULT:    -4.343      6.685      7.389
REMARK INTER + INTRA:          -6.578
REMARK INTER:                  -6.311
REMARK INTRA:                  -0.267
REMARK UNBOUND:                -0.458
REMARK SMILES C=CCCCCCCC(=O)[O-]
REMARK SMILES IDX 6 1 7 2 8 3 9 4 10 5 11 6 5 7 4 8 3 9 2 10 1 11
REMARK H PARENT
REMARK Flexibility Score: inf
ROOT
ATOM      1  C   UNL     1      44.704  46.525  35.044  1.00  0.00     0.000 C 
ENDROOT
BRANCH   1   2
ATOM      2  C   UNL     1      45.713  45.580  34.374  1.00  0.00     0.006 C 
BRANCH   2   3
ATOM      3  C   UNL     1      45.045  44.598  33.403  1.00  0.00     0.053 C 
BRANCH   3   4
ATOM      4  C   UNL     1      45.680  43.248  33.507  1.00  0.00     0.041 C 
ATOM      5  O   UNL     1      45.040  42.283  34.004  1.00  0.00    -0.550 OA
ATOM      6  O   UNL     1      46.961  43.041  33.011  1.00  0.00    -0.550 OA
ENDBRANCH   3   4
ENDBRANCH   2   3
ENDBRANCH   1   2
BRANCH   1   7
ATOM      7  C   UNL     1      45.382  47.727  35.725  1.00  0.00     0.000 C 
BRANCH   7   8
ATOM      8  C   UNL     1      46.700  48.132  35.039  1.00  0.00     0.004 C 
BRANCH   8   9
ATOM      9  C   UNL     1      47.725  48.782  35.981  1.00  0.00     0.027 C 
BRANCH   9  10
ATOM     10  C   UNL     1      48.458  49.913  35.312  1.00  0.00    -0.035 C 
ATOM     11  C   UNL     1      47.818  50.856  34.614  1.00  0.00     0.004 C 
ENDBRANCH   9  10
ENDBRANCH   8   9
ENDBRANCH   7   8
ENDBRANCH   1   7
TORSDOF 7
ENDMDL
MODEL 3
REMARK VINA RESULT:    -4.332      6.732      7.957
REMARK INTER + INTRA:          -6.562
REMARK INTER:                  -6.315
REMARK INTRA:                  -0.247
REMARK UNBOUND:                -0.458
REMARK SMILES C=CCCCCCCC(=O)[O-]
REMARK SMILES IDX 6 1 7 2 8 3 9 4 10 5 11 6 5 7 4 8 3 9 2 10 1 11
REMARK H PARENT
REMARK Flexibility Score: inf
ROOT
ATOM      1  C   UNL     1      47.627  48.959  35.773  1.00  0.00     0.000 C 
ENDROOT
BRANCH   1   2
ATOM      2  C   UNL     1      46.319  48.294  35.317  1.00  0.00     0.006 C 
BRANCH   2   3
ATOM      3  C   UNL     1      46.560  47.076  34.416  1.00  0.00     0.053 C 
BRANCH   3   4
ATOM      4  C   UNL     1      45.521  46.030  34.664  1.00  0.00     0.041 C 
ATOM      5  O   UNL     1      44.369  46.360  35.051  1.00  0.00    -0.550 OA
ATOM      6  O   UNL     1      45.808  44.692  34.421  1.00  0.00    -0.550 OA
ENDBRANCH   3   4
ENDBRANCH   2   3
ENDBRANCH   1   2
BRANCH   1   7
ATOM      7  C   UNL     1      47.970  50.214  34.951  1.00  0.00     0.000 C 
BRANCH   7   8
ATOM      8  C   UNL     1      49.303  50.856  35.375  1.00  0.00     0.004 C 
BRANCH   8   9
ATOM      9  C   UNL     1      50.215  49.929  36.194  1.00  0.00     0.027 C 
BRANCH   9  10
ATOM     10  C   UNL     1      51.428  50.655  36.711  1.00  0.00    -0.035 C 
ATOM     11  C   UNL     1      51.472  51.170  37.943  1.00  0.00     0.004 C 
ENDBRANCH   9  10
ENDBRANCH   8   9
ENDBRANCH   7   8
ENDBRANCH   1   7
TORSDOF 7
ENDMDL
MODEL 4
REMARK VINA RESULT:    -4.300      7.336      8.927
REMARK INTER + INTRA:          -6.517
REMARK INTER:                  -6.177
REMARK INTRA:                  -0.341
REMARK UNBOUND:                -0.458
REMARK SMILES C=CCCCCCCC(=O)[O-]
REMARK SMILES IDX 6 1 7 2 8 3 9 4 10 5 11 6 5 7 4 8 3 9 2 10 1 11
REMARK H PARENT
REMARK Flexibility Score: inf
ROOT
ATOM      1  C   UNL     1      46.880  47.078  36.164  1.00  0.00     0.000 C 
ENDROOT
BRANCH   1   2
ATOM      2  C   UNL     1      47.792  48.315  36.150  1.00  0.00     0.006 C 
BRANCH   2   3
ATOM      3  C   UNL     1      47.266  49.424  35.230  1.00  0.00     0.053 C 
BRANCH   3   4
ATOM      4  C   UNL     1      48.404  50.167  34.605  1.00  0.00     0.041 C 
ATOM      5  O   UNL     1      48.660  51.348  34.961  1.00  0.00    -0.550 OA
ATOM      6  O   UNL     1      49.212  49.541  33.665  1.00  0.00    -0.550 OA
ENDBRANCH   3   4
ENDBRANCH   2   3
ENDBRANCH   1   2
BRANCH   1   7
ATOM      7  C   UNL     1      45.434  47.407  35.751  1.00  0.00     0.000 C 
BRANCH   7   8
ATOM      8  C   UNL     1      44.796  46.301  34.890  1.00  0.00     0.004 C 
BRANCH   8   9
ATOM      9  C   UNL     1      45.806  45.479  34.074  1.00  0.00     0.027 C 
BRANCH   9  10
ATOM     10  C   UNL     1      45.161  44.280  33.433  1.00  0.00    -0.035 C 
ATOM     11  C   UNL     1      45.256  44.042  32.122  1.00  0.00     0.004 C 
ENDBRANCH   9  10
ENDBRANCH   8   9
ENDBRANCH   7   8
ENDBRANCH   1   7
TORSDOF 7
ENDMDL
MODEL 5
REMARK VINA RESULT:    -4.292      8.712     10.586
REMARK INTER + INTRA:          -6.506
REMARK INTER:                  -6.181
REMARK INTRA:                  -0.325
REMARK UNBOUND:                -0.458
REMARK SMILES C=CCCCCCCC(=O)[O-]
REMARK SMILES IDX 6 1 7 2 8 3 9 4 10 5 11 6 5 7 4 8 3 9 2 10 1 11
REMARK H PARENT
REMARK Flexibility Score: inf
ROOT
ATOM      1  C   UNL     1      49.042  50.998  35.088  1.00  0.00     0.000 C 
ENDROOT
BRANCH   1   2
ATOM      2  C   UNL     1      49.866  50.148  36.068  1.00  0.00     0.006 C 
BRANCH   2   3
ATOM      3  C   UNL     1      50.855  50.988  36.888  1.00  0.00     0.053 C 
BRANCH   3   4
ATOM      4  C   UNL     1      52.246  50.464  36.724  1.00  0.00     0.041 C 
ATOM      5  O   UNL     1      53.139  50.767  37.558  1.00  0.00    -0.550 OA
ATOM      6  O   UNL     1      52.546  49.601  35.678  1.00  0.00    -0.550 OA
ENDBRANCH   3   4
ENDBRANCH   2   3
ENDBRANCH   1   2
BRANCH   1   7
ATOM      7  C   UNL     1      47.692  50.349  34.736  1.00  0.00     0.000 C 
BRANCH   7   8
ATOM      8  C   UNL     1      47.440  49.043  35.511  1.00  0.00     0.004 C 
BRANCH   8   9
ATOM      9  C   UNL     1      47.258  47.806  34.618  1.00  0.00     0.027 C 
BRANCH   9  10
ATOM     10  C   UNL     1      45.929  47.140  34.852  1.00  0.00    -0.035 C 
ATOM     11  C   UNL     1      45.050  47.610  35.742  1.00  0.00     0.004 C 
ENDBRANCH   9  10
ENDBRANCH   8   9
ENDBRANCH   7   8
ENDBRANCH   1   7
TORSDOF 7
ENDMDL
MODEL 6
REMARK VINA RESULT:    -4.289      6.797      7.680
REMARK INTER + INTRA:          -6.502
REMARK INTER:                  -6.070
REMARK INTRA:                  -0.432
REMARK UNBOUND:                -0.458
REMARK SMILES C=CCCCCCCC(=O)[O-]
REMARK SMILES IDX 6 1 7 2 8 3 9 4 10 5 11 6 5 7 4 8 3 9 2 10 1 11
REMARK H PARENT
REMARK Flexibility Score: inf
ROOT
ATOM      1  C   UNL     1      46.537  47.255  36.487  1.00  0.00     0.000 C 
ENDROOT
BRANCH   1   2
ATOM      2  C   UNL     1      45.364  47.447  35.512  1.00  0.00     0.006 C 
BRANCH   2   3
ATOM      3  C   UNL     1      44.954  46.141  34.820  1.00  0.00     0.053 C 
BRANCH   3   4
ATOM      4  C   UNL     1      46.154  45.453  34.250  1.00  0.00     0.041 C 
ATOM      5  O   UNL     1      46.865  46.032  33.387  1.00  0.00    -0.550 OA
ATOM      6  O   UNL     1      46.516  44.192  34.707  1.00  0.00    -0.550 OA
ENDBRANCH   3   4
ENDBRANCH   2   3
ENDBRANCH   1   2
BRANCH   1   7
ATOM      7  C   UNL     1      47.647  48.302  36.286  1.00  0.00     0.000 C 
BRANCH   7   8
ATOM      8  C   UNL     1      47.270  49.379  35.254  1.00  0.00     0.004 C 
BRANCH   8   9
ATOM      9  C   UNL     1      48.391  50.387  34.958  1.00  0.00     0.027 C 
BRANCH   9  10
ATOM     10  C   UNL     1      49.694  49.973  35.589  1.00  0.00    -0.035 C 
ATOM     11  C   UNL     1      50.379  50.789  36.395  1.00  0.00     0.004 C 
ENDBRANCH   9  10
ENDBRANCH   8   9
ENDBRANCH   7   8
ENDBRANCH   1   7
TORSDOF 7
ENDMDL
MODEL 7
REMARK VINA RESULT:    -4.254      7.247      8.044
REMARK INTER + INTRA:          -6.454
REMARK INTER:                  -5.722
REMARK INTRA:                  -0.731
REMARK UNBOUND:                -0.458
REMARK SMILES C=CCCCCCCC(=O)[O-]
REMARK SMILES IDX 6 1 7 2 8 3 9 4 10 5 11 6 5 7 4 8 3 9 2 10 1 11
REMARK H PARENT
REMARK Flexibility Score: inf
ROOT
ATOM      1  C   UNL     1      45.278  46.428  35.175  1.00  0.00     0.000 C 
ENDROOT
BRANCH   1   2
ATOM      2  C   UNL     1      46.463  45.571  34.703  1.00  0.00     0.006 C 
BRANCH   2   3
ATOM      3  C   UNL     1      46.915  45.923  33.280  1.00  0.00     0.053 C 
BRANCH   3   4
ATOM      4  C   UNL     1      48.311  46.460  33.294  1.00  0.00     0.041 C 
ATOM      5  O   UNL     1      48.657  47.345  32.467  1.00  0.00    -0.550 OA
ATOM      6  O   UNL     1      49.216  46.022  34.252  1.00  0.00    -0.550 OA
ENDBRANCH   3   4
ENDBRANCH   2   3
ENDBRANCH   1   2
BRANCH   1   7
ATOM      7  C   UNL     1      45.719  47.802  35.709  1.00  0.00     0.000 C 
BRANCH   7   8
ATOM      8  C   UNL     1      47.046  47.738  36.488  1.00  0.00     0.004 C 
BRANCH   8   9
ATOM      9  C   UNL     1      48.058  48.825  36.094  1.00  0.00     0.027 C 
BRANCH   9  10
ATOM     10  C   UNL     1      47.561  49.660  34.945  1.00  0.00    -0.035 C 
ATOM     11  C   UNL     1      48.035  50.887  34.706  1.00  0.00     0.004 C 
ENDBRANCH   9  10
ENDBRANCH   8   9
ENDBRANCH   7   8
ENDBRANCH   1   7
TORSDOF 7
ENDMDL
MODEL 8
REMARK VINA RESULT:    -4.236      3.354      5.807
REMARK INTER + INTRA:          -6.427
REMARK INTER:                  -6.017
REMARK INTRA:                  -0.410
REMARK UNBOUND:                -0.458
REMARK SMILES C=CCCCCCCC(=O)[O-]
REMARK SMILES IDX 6 1 7 2 8 3 9 4 10 5 11 6 5 7 4 8 3 9 2 10 1 11
REMARK H PARENT
REMARK Flexibility Score: inf
ROOT
ATOM      1  C   UNL     1      39.995  51.553  33.822  1.00  0.00     0.000 C 
ENDROOT
BRANCH   1   2
ATOM      2  C   UNL     1      40.760  51.989  35.081  1.00  0.00     0.006 C 
BRANCH   2   3
ATOM      3  C   UNL     1      42.227  51.539  35.064  1.00  0.00     0.053 C 
BRANCH   3   4
ATOM      4  C   UNL     1      43.137  52.725  35.071  1.00  0.00     0.041 C 
ATOM      5  O   UNL     1      43.932  52.920  34.113  1.00  0.00    -0.550 OA
ATOM      6  O   UNL     1      43.075  53.644  36.110  1.00  0.00    -0.550 OA
ENDBRANCH   3   4
ENDBRANCH   2   3
ENDBRANCH   1   2
BRANCH   1   7
ATOM      7  C   UNL     1      40.910  50.899  32.772  1.00  0.00     0.000 C 
BRANCH   7   8
ATOM      8  C   UNL     1      40.145  49.967  31.815  1.00  0.00     0.004 C 
BRANCH   8   9
ATOM      9  C   UNL     1      39.924  48.548  32.362  1.00  0.00     0.027 C 
BRANCH   9  10
ATOM     10  C   UNL     1      38.522  48.064  32.107  1.00  0.00    -0.035 C 
ATOM     11  C   UNL     1      37.625  48.809  31.454  1.00  0.00     0.004 C 
ENDBRANCH   9  10
ENDBRANCH   8   9
ENDBRANCH   7   8
ENDBRANCH   1   7
TORSDOF 7
ENDMDL
MODEL 9
REMARK VINA RESULT:    -4.153      3.130      5.796
REMARK INTER + INTRA:          -6.311
REMARK INTER:                  -5.871
REMARK INTRA:                  -0.440
REMARK UNBOUND:                -0.458
REMARK SMILES C=CCCCCCCC(=O)[O-]
REMARK SMILES IDX 6 1 7 2 8 3 9 4 10 5 11 6 5 7 4 8 3 9 2 10 1 11
REMARK H PARENT
REMARK Flexibility Score: inf
ROOT
ATOM      1  C   UNL     1      39.508  51.025  33.491  1.00  0.00     0.000 C 
ENDROOT
BRANCH   1   2
ATOM      2  C   UNL     1      40.308  51.918  34.452  1.00  0.00     0.006 C 
BRANCH   2   3
ATOM      3  C   UNL     1      41.720  52.223  33.934  1.00  0.00     0.053 C 
BRANCH   3   4
ATOM      4  C   UNL     1      42.708  52.177  35.055  1.00  0.00     0.041 C 
ATOM      5  O   UNL     1      43.578  53.081  35.171  1.00  0.00    -0.550 OA
ATOM      6  O   UNL     1      42.641  51.163  36.002  1.00  0.00    -0.550 OA
ENDBRANCH   3   4
ENDBRANCH   2   3
ENDBRANCH   1   2
BRANCH   1   7
ATOM      7  C   UNL     1      40.396  50.365  32.421  1.00  0.00     0.000 C 
BRANCH   7   8
ATOM      8  C   UNL     1      39.934  48.941  32.061  1.00  0.00     0.004 C 
BRANCH   8   9
ATOM      9  C   UNL     1      38.507  48.608  32.523  1.00  0.00     0.027 C 
BRANCH   9  10
ATOM     10  C   UNL     1      37.563  48.469  31.360  1.00  0.00    -0.035 C 
ATOM     11  C   UNL     1      37.383  49.453  30.473  1.00  0.00     0.004 C 
ENDBRANCH   9  10
ENDBRANCH   8   9
ENDBRANCH   7   8
ENDBRANCH   1   7
TORSDOF 7
ENDMDL
