MODEL 1
REMARK VINA RESULT:    -7.052      0.000      0.000
REMARK INTER + INTRA:          -7.052
REMARK INTER:                  -7.052
REMARK INTRA:                   0.000
REMARK UNBOUND:                 0.000
REMARK SMILES O=c1ccc2ccccc2o1
REMARK SMILES IDX 7 1 8 2 9 3 10 4 5 5 6 6 4 7 3 8 2 9 1 10 11 11
REMARK H PARENT
REMARK Flexibility Score: inf
ROOT
ATOM      1  C   UNL     1      13.864 -13.949  27.128  1.00  0.00     0.001 A 
ATOM      2  C   UNL     1      14.992 -13.371  27.723  1.00  0.00     0.004 A 
ATOM      3  C   UNL     1      14.856 -12.243  28.540  1.00  0.00     0.048 A 
ATOM      4  C   UNL     1      13.591 -11.689  28.765  1.00  0.00     0.138 A 
ATOM      5  C   UNL     1      12.452 -12.273  28.164  1.00  0.00     0.018 A 
ATOM      6  C   UNL     1      12.595 -13.403  27.346  1.00  0.00     0.012 A 
ATOM      7  C   UNL     1      11.202 -11.697  28.406  1.00  0.00     0.019 A 
ATOM      8  C   UNL     1      11.113 -10.573  29.227  1.00  0.00     0.094 A 
ATOM      9  C   UNL     1      12.283 -10.050  29.788  1.00  0.00     0.336 A 
ATOM     10  O   UNL     1      12.223  -9.036  30.532  1.00  0.00    -0.246 OA
ATOM     11  O   UNL     1      13.462 -10.616  29.542  1.00  0.00    -0.423 OA
ENDROOT
TORSDOF 0
ENDMDL
MODEL 2
REMARK VINA RESULT:    -6.951      1.386      2.210
REMARK INTER + INTRA:          -6.951
REMARK INTER:                  -6.951
REMARK INTRA:                   0.000
REMARK UNBOUND:                 0.000
REMARK SMILES O=c1ccc2ccccc2o1
REMARK SMILES IDX 7 1 8 2 9 3 10 4 5 5 6 6 4 7 3 8 2 9 1 10 11 11
REMARK H PARENT
REMARK Flexibility Score: inf
ROOT
ATOM      1  C   UNL     1      14.951 -13.129  27.826  1.00  0.00     0.001 A 
ATOM      2  C   UNL     1      13.883 -13.805  27.225  1.00  0.00     0.004 A 
ATOM      3  C   UNL     1      12.569 -13.373  27.435  1.00  0.00     0.048 A 
ATOM      4  C   UNL     1      12.318 -12.262  28.249  1.00  0.00     0.138 A 
ATOM      5  C   UNL     1      13.397 -11.579  28.856  1.00  0.00     0.018 A 
ATOM      6  C   UNL     1      14.712 -12.018  28.642  1.00  0.00     0.012 A 
ATOM      7  C   UNL     1      13.116 -10.474  29.664  1.00  0.00     0.019 A 
ATOM      8  C   UNL     1      11.791 -10.078  29.845  1.00  0.00     0.094 A 
ATOM      9  C   UNL     1      10.775 -10.802  29.212  1.00  0.00     0.336 A 
ATOM     10  O   UNL     1       9.573 -10.460  29.364  1.00  0.00    -0.246 OA
ATOM     11  O   UNL     1      11.069 -11.851  28.449  1.00  0.00    -0.423 OA
ENDROOT
TORSDOF 0
ENDMDL
MODEL 3
REMARK VINA RESULT:    -6.492     10.429     11.626
REMARK INTER + INTRA:          -6.492
REMARK INTER:                  -6.492
REMARK INTRA:                   0.000
REMARK UNBOUND:                 0.000
REMARK SMILES O=c1ccc2ccccc2o1
REMARK SMILES IDX 7 1 8 2 9 3 10 4 5 5 6 6 4 7 3 8 2 9 1 10 11 11
REMARK H PARENT
REMARK Flexibility Score: inf
ROOT
ATOM      1  C   UNL     1      15.324  -0.742  25.763  1.00  0.00     0.001 A 
ATOM      2  C   UNL     1      16.385  -0.238  25.001  1.00  0.00     0.004 A 
ATOM      3  C   UNL     1      17.701  -0.610  25.295  1.00  0.00     0.048 A 
ATOM      4  C   UNL     1      17.962  -1.489  26.353  1.00  0.00     0.138 A 
ATOM      5  C   UNL     1      16.891  -1.998  27.122  1.00  0.00     0.018 A 
ATOM      6  C   UNL     1      15.574  -1.621  26.823  1.00  0.00     0.012 A 
ATOM      7  C   UNL     1      17.182  -2.873  28.172  1.00  0.00     0.019 A 
ATOM      8  C   UNL     1      18.509  -3.217  28.429  1.00  0.00     0.094 A 
ATOM      9  C   UNL     1      19.517  -2.674  27.626  1.00  0.00     0.336 A 
ATOM     10  O   UNL     1      20.721  -2.972  27.842  1.00  0.00    -0.246 OA
ATOM     11  O   UNL     1      19.214  -1.842  26.632  1.00  0.00    -0.423 OA
ENDROOT
TORSDOF 0
ENDMDL
MODEL 4
REMARK VINA RESULT:    -6.492     10.082     11.148
REMARK INTER + INTRA:          -6.492
REMARK INTER:                  -6.492
REMARK INTRA:                   0.000
REMARK UNBOUND:                 0.000
REMARK SMILES O=c1ccc2ccccc2o1
REMARK SMILES IDX 7 1 8 2 9 3 10 4 5 5 6 6 4 7 3 8 2 9 1 10 11 11
REMARK H PARENT
REMARK Flexibility Score: inf
ROOT
ATOM      1  C   UNL     1      18.001  -0.610  24.908  1.00  0.00     0.001 A 
ATOM      2  C   UNL     1      19.120  -1.369  25.269  1.00  0.00     0.004 A 
ATOM      3  C   UNL     1      19.117  -2.106  26.458  1.00  0.00     0.048 A 
ATOM      4  C   UNL     1      17.993  -2.086  27.292  1.00  0.00     0.138 A 
ATOM      5  C   UNL     1      16.863  -1.319  26.928  1.00  0.00     0.018 A 
ATOM      6  C   UNL     1      16.872  -0.583  25.734  1.00  0.00     0.012 A 
ATOM      7  C   UNL     1      15.756  -1.318  27.781  1.00  0.00     0.019 A 
ATOM      8  C   UNL     1      15.797  -2.068  28.956  1.00  0.00     0.094 A 
ATOM      9  C   UNL     1      16.949  -2.803  29.252  1.00  0.00     0.336 A 
ATOM     10  O   UNL     1      17.005  -3.485  30.308  1.00  0.00    -0.246 OA
ATOM     11  O   UNL     1      17.991  -2.787  28.423  1.00  0.00    -0.423 OA
ENDROOT
TORSDOF 0
ENDMDL
MODEL 5
REMARK VINA RESULT:    -6.390      2.230      4.303
REMARK INTER + INTRA:          -6.390
REMARK INTER:                  -6.390
REMARK INTRA:                   0.000
REMARK UNBOUND:                 0.000
REMARK SMILES O=c1ccc2ccccc2o1
REMARK SMILES IDX 7 1 8 2 9 3 10 4 5 5 6 6 4 7 3 8 2 9 1 10 11 11
REMARK H PARENT
REMARK Flexibility Score: inf
ROOT
ATOM      1  C   UNL     1      11.222 -10.759  29.536  1.00  0.00     0.001 A 
ATOM      2  C   UNL     1      10.850 -11.260  28.282  1.00  0.00     0.004 A 
ATOM      3  C   UNL     1      11.626 -12.243  27.660  1.00  0.00     0.048 A 
ATOM      4  C   UNL     1      12.778 -12.730  28.288  1.00  0.00     0.138 A 
ATOM      5  C   UNL     1      13.153 -12.224  29.553  1.00  0.00     0.018 A 
ATOM      6  C   UNL     1      12.372 -11.238  30.173  1.00  0.00     0.012 A 
ATOM      7  C   UNL     1      14.309 -12.729  30.156  1.00  0.00     0.019 A 
ATOM      8  C   UNL     1      15.052 -13.709  29.498  1.00  0.00     0.094 A 
ATOM      9  C   UNL     1      14.619 -14.162  28.248  1.00  0.00     0.336 A 
ATOM     10  O   UNL     1      15.277 -15.046  27.639  1.00  0.00    -0.246 OA
ATOM     11  O   UNL     1      13.516 -13.665  27.695  1.00  0.00    -0.423 OA
ENDROOT
TORSDOF 0
ENDMDL
MODEL 6
REMARK VINA RESULT:    -6.380      1.656      3.829
REMARK INTER + INTRA:          -6.380
REMARK INTER:                  -6.380
REMARK INTRA:                   0.000
REMARK UNBOUND:                 0.000
REMARK SMILES O=c1ccc2ccccc2o1
REMARK SMILES IDX 7 1 8 2 9 3 10 4 5 5 6 6 4 7 3 8 2 9 1 10 11 11
REMARK H PARENT
REMARK Flexibility Score: inf
ROOT
ATOM      1  C   UNL     1      11.124 -10.166  29.668  1.00  0.00     0.001 A 
ATOM      2  C   UNL     1      12.372  -9.901  30.243  1.00  0.00     0.004 A 
ATOM      3  C   UNL     1      13.487 -10.668  29.890  1.00  0.00     0.048 A 
ATOM      4  C   UNL     1      13.358 -11.706  28.960  1.00  0.00     0.138 A 
ATOM      5  C   UNL     1      12.098 -11.975  28.379  1.00  0.00     0.018 A 
ATOM      6  C   UNL     1      10.983 -11.202  28.737  1.00  0.00     0.012 A 
ATOM      7  C   UNL     1      11.999 -13.017  27.454  1.00  0.00     0.019 A 
ATOM      8  C   UNL     1      13.137 -13.756  27.132  1.00  0.00     0.094 A 
ATOM      9  C   UNL     1      14.351 -13.433  27.746  1.00  0.00     0.336 A 
ATOM     10  O   UNL     1      15.390 -14.089  27.469  1.00  0.00    -0.246 OA
ATOM     11  O   UNL     1      14.419 -12.436  28.625  1.00  0.00    -0.423 OA
ENDROOT
TORSDOF 0
ENDMDL
MODEL 7
REMARK VINA RESULT:    -6.371     10.997     11.982
REMARK INTER + INTRA:          -6.371
REMARK INTER:                  -6.371
REMARK INTRA:                   0.000
REMARK UNBOUND:                 0.000
REMARK SMILES O=c1ccc2ccccc2o1
REMARK SMILES IDX 7 1 8 2 9 3 10 4 5 5 6 6 4 7 3 8 2 9 1 10 11 11
REMARK H PARENT
REMARK Flexibility Score: inf
ROOT
ATOM      1  C   UNL     1      18.675  -2.924  27.068  1.00  0.00     0.001 A 
ATOM      2  C   UNL     1      19.306  -2.107  26.123  1.00  0.00     0.004 A 
ATOM      3  C   UNL     1      18.678  -0.940  25.672  1.00  0.00     0.048 A 
ATOM      4  C   UNL     1      17.416  -0.588  26.163  1.00  0.00     0.138 A 
ATOM      5  C   UNL     1      16.779  -1.414  27.117  1.00  0.00     0.018 A 
ATOM      6  C   UNL     1      17.413  -2.582  27.566  1.00  0.00     0.012 A 
ATOM      7  C   UNL     1      15.519  -1.037  27.589  1.00  0.00     0.019 A 
ATOM      8  C   UNL     1      14.931   0.134  27.111  1.00  0.00     0.094 A 
ATOM      9  C   UNL     1      15.621   0.903  26.167  1.00  0.00     0.336 A 
ATOM     10  O   UNL     1      15.107   1.963  25.724  1.00  0.00    -0.246 OA
ATOM     11  O   UNL     1      16.820   0.521  25.733  1.00  0.00    -0.423 OA
ENDROOT
TORSDOF 0
ENDMDL
MODEL 8
REMARK VINA RESULT:    -6.249     10.667     11.957
REMARK INTER + INTRA:          -6.249
REMARK INTER:                  -6.249
REMARK INTRA:                   0.000
REMARK UNBOUND:                 0.000
REMARK SMILES O=c1ccc2ccccc2o1
REMARK SMILES IDX 7 1 8 2 9 3 10 4 5 5 6 6 4 7 3 8 2 9 1 10 11 11
REMARK H PARENT
REMARK Flexibility Score: inf
ROOT
ATOM      1  C   UNL     1      15.036  -0.177  25.631  1.00  0.00     0.001 A 
ATOM      2  C   UNL     1      14.696  -0.986  26.721  1.00  0.00     0.004 A 
ATOM      3  C   UNL     1      15.673  -1.770  27.346  1.00  0.00     0.048 A 
ATOM      4  C   UNL     1      16.992  -1.747  26.882  1.00  0.00     0.138 A 
ATOM      5  C   UNL     1      17.335  -0.930  25.781  1.00  0.00     0.018 A 
ATOM      6  C   UNL     1      16.352  -0.147  25.158  1.00  0.00     0.012 A 
ATOM      7  C   UNL     1      18.661  -0.929  25.339  1.00  0.00     0.019 A 
ATOM      8  C   UNL     1      19.601  -1.726  25.992  1.00  0.00     0.094 A 
ATOM      9  C   UNL     1      19.189  -2.509  27.076  1.00  0.00     0.336 A 
ATOM     10  O   UNL     1      20.023  -3.235  27.678  1.00  0.00    -0.246 OA
ATOM     11  O   UNL     1      17.920  -2.493  27.477  1.00  0.00    -0.423 OA
ENDROOT
TORSDOF 0
ENDMDL
MODEL 9
REMARK VINA RESULT:    -6.136     10.500     11.550
REMARK INTER + INTRA:          -6.136
REMARK INTER:                  -6.136
REMARK INTRA:                   0.000
REMARK UNBOUND:                 0.000
REMARK SMILES O=c1ccc2ccccc2o1
REMARK SMILES IDX 7 1 8 2 9 3 10 4 5 5 6 6 4 7 3 8 2 9 1 10 11 11
REMARK H PARENT
REMARK Flexibility Score: inf
ROOT
ATOM      1  C   UNL     1      19.529  -2.992  27.783  1.00  0.00     0.001 A 
ATOM      2  C   UNL     1      18.370  -3.331  28.490  1.00  0.00     0.004 A 
ATOM      3  C   UNL     1      17.134  -2.790  28.117  1.00  0.00     0.048 A 
ATOM      4  C   UNL     1      17.055  -1.906  27.035  1.00  0.00     0.138 A 
ATOM      5  C   UNL     1      18.226  -1.564  26.321  1.00  0.00     0.018 A 
ATOM      6  C   UNL     1      19.461  -2.109  26.700  1.00  0.00     0.012 A 
ATOM      7  C   UNL     1      18.115  -0.679  25.245  1.00  0.00     0.019 A 
ATOM      8  C   UNL     1      16.863  -0.163  24.908  1.00  0.00     0.094 A 
ATOM      9  C   UNL     1      15.748  -0.548  25.660  1.00  0.00     0.336 A 
ATOM     10  O   UNL     1      14.610  -0.093  25.371  1.00  0.00    -0.246 OA
ATOM     11  O   UNL     1      15.880  -1.392  26.680  1.00  0.00    -0.423 OA
ENDROOT
TORSDOF 0
ENDMDL
