MODEL 1
REMARK VINA RESULT:    -2.578      0.000      0.000
REMARK INTER + INTRA:          -4.188
REMARK INTER:                  -3.934
REMARK INTRA:                  -0.255
REMARK UNBOUND:                -0.255
REMARK SMILES CC1=CCC[C@@H](C)C(=O)C[C@H](C(C)C)C(=O)C1
REMARK SMILES IDX 8 1 9 2 6 3 7 4 5 5 4 6 3 7 2 8 1 9 10 11 11 12 15 13 16 14
REMARK SMILES IDX 17 15 12 17 13 18 14 19
REMARK H PARENT
REMARK Flexibility Score: 70.00
ROOT
ATOM      1  C   UNL     1      62.614  13.713  -1.783  1.00  0.00     0.136 C 
ATOM      2  O   UNL     1      63.500  12.873  -1.868  1.00  0.00    -0.299 OA
ENDROOT
BRANCH   1   3
ATOM      3  C   UNL     1      62.944  15.179  -1.970  1.00  0.00     0.053 C 
ATOM      4  C   UNL     1      63.399  15.418  -3.413  1.00  0.00     0.016 C 
BRANCH   3   5
ATOM      5  C   UNL     1      64.032  15.657  -0.979  1.00  0.00     0.015 C 
BRANCH   5   6
ATOM      6  C   UNL     1      63.561  15.667   0.482  1.00  0.00     0.028 C 
BRANCH   6   7
ATOM      7  C   UNL     1      62.427  16.643   0.687  1.00  0.00    -0.028 C 
ATOM      8  C   UNL     1      61.221  16.353   1.225  1.00  0.00    -0.070 CG0
ATOM      9  C   UNL     1      60.212  17.469   1.339  1.00  0.00     0.039 C 
ATOM     10  G   UNL     1      60.821  14.962   1.677  1.00  0.00     0.000 G0
ENDBRANCH   6   7
ENDBRANCH   5   6
ENDBRANCH   3   5
ENDBRANCH   1   3
BRANCH   1  11
ATOM     11  C   UNL     1      61.200  13.259  -1.534  1.00  0.00     0.087 C 
BRANCH  11  12
ATOM     12  C   UNL     1      60.944  12.963  -0.033  1.00  0.00     0.066 C 
BRANCH  12  13
ATOM     13  C   UNL     1      60.206  14.139   0.589  1.00  0.00     0.140 C 
ATOM     14  O   UNL     1      59.061  14.384   0.234  1.00  0.00    -0.299 OA
BRANCH  13  15
ATOM     15  C   UNL     1      60.817  14.954   1.700  1.00  0.00     0.106 CG0
ATOM     16  G   UNL     1      61.198  16.339   1.214  1.00  0.00     0.000 G0
ENDBRANCH  13  15
ENDBRANCH  12  13
BRANCH  12  17
ATOM     17  C   UNL     1      60.139  11.639   0.184  1.00  0.00    -0.006 C 
ATOM     18  C   UNL     1      60.705  10.821   1.361  1.00  0.00     0.008 C 
ATOM     19  C   UNL     1      60.136  10.748  -1.074  1.00  0.00     0.008 C 
ENDBRANCH  12  17
ENDBRANCH  11  12
ENDBRANCH   1  11
TORSDOF 1
ENDMDL
MODEL 2
REMARK VINA RESULT:    -2.285     10.290     11.744
REMARK INTER + INTRA:          -3.742
REMARK INTER:                  -3.517
REMARK INTRA:                  -0.226
REMARK UNBOUND:                -0.255
REMARK SMILES CC1=CCC[C@@H](C)C(=O)C[C@H](C(C)C)C(=O)C1
REMARK SMILES IDX 8 1 9 2 6 3 7 4 5 5 4 6 3 7 2 8 1 9 10 11 11 12 15 13 16 14
REMARK SMILES IDX 17 15 12 17 13 18 14 19
REMARK H PARENT
REMARK Flexibility Score: 70.00
ROOT
ATOM      1  C   UNL     1      56.441   5.935   6.042  1.00  0.00     0.136 C 
ATOM      2  O   UNL     1      56.953   5.450   5.042  1.00  0.00    -0.299 OA
ENDROOT
BRANCH   1   3
ATOM      3  C   UNL     1      55.236   6.844   5.907  1.00  0.00     0.053 C 
ATOM      4  C   UNL     1      54.139   6.121   5.120  1.00  0.00     0.016 C 
BRANCH   3   5
ATOM      5  C   UNL     1      55.598   8.181   5.217  1.00  0.00     0.015 C 
BRANCH   5   6
ATOM      6  C   UNL     1      56.416   9.124   6.111  1.00  0.00     0.028 C 
BRANCH   6   7
ATOM      7  C   UNL     1      55.685   9.433   7.397  1.00  0.00    -0.028 C 
ATOM      8  C   UNL     1      56.203   9.338   8.643  1.00  0.00    -0.070 CG0
ATOM      9  C   UNL     1      55.308   9.685   9.806  1.00  0.00     0.039 C 
ATOM     10  G   UNL     1      57.615   8.865   8.927  1.00  0.00     0.000 G0
ENDBRANCH   6   7
ENDBRANCH   5   6
ENDBRANCH   3   5
ENDBRANCH   1   3
BRANCH   1  11
ATOM     11  C   UNL     1      56.999   5.579   7.394  1.00  0.00     0.087 C 
BRANCH  11  12
ATOM     12  C   UNL     1      58.147   6.534   7.814  1.00  0.00     0.066 C 
BRANCH  12  13
ATOM     13  C   UNL     1      57.694   7.365   9.006  1.00  0.00     0.140 C 
ATOM     14  O   UNL     1      57.456   6.808  10.069  1.00  0.00    -0.299 OA
BRANCH  13  15
ATOM     15  C   UNL     1      57.621   8.868   8.937  1.00  0.00     0.106 CG0
ATOM     16  G   UNL     1      56.208   9.333   8.639  1.00  0.00     0.000 G0
ENDBRANCH  13  15
ENDBRANCH  12  13
BRANCH  12  17
ATOM     17  C   UNL     1      59.466   5.766   8.157  1.00  0.00    -0.006 C 
ATOM     18  C   UNL     1      60.567   6.041   7.114  1.00  0.00     0.008 C 
ATOM     19  C   UNL     1      59.245   4.242   8.243  1.00  0.00     0.008 C 
ENDBRANCH  12  17
ENDBRANCH  11  12
ENDBRANCH   1  11
TORSDOF 1
ENDMDL
MODEL 3
REMARK VINA RESULT:    -2.252      2.489      4.975
REMARK INTER + INTRA:          -3.691
REMARK INTER:                  -3.582
REMARK INTRA:                  -0.109
REMARK UNBOUND:                -0.255
REMARK SMILES CC1=CCC[C@@H](C)C(=O)C[C@H](C(C)C)C(=O)C1
REMARK SMILES IDX 8 1 9 2 6 3 7 4 5 5 4 6 3 7 2 8 1 9 10 11 11 12 15 13 16 14
REMARK SMILES IDX 17 15 12 17 13 18 14 19
REMARK H PARENT
REMARK Flexibility Score: 70.00
ROOT
ATOM      1  C   UNL     1      63.721  16.491   2.741  1.00  0.00     0.136 C 
ATOM      2  O   UNL     1      64.273  17.226   3.548  1.00  0.00    -0.299 OA
ENDROOT
BRANCH   1   3
ATOM      3  C   UNL     1      64.552  15.598   1.842  1.00  0.00     0.053 C 
ATOM      4  C   UNL     1      65.483  14.738   2.701  1.00  0.00     0.016 C 
BRANCH   3   5
ATOM      5  C   UNL     1      65.372  16.416   0.817  1.00  0.00     0.015 C 
BRANCH   5   6
ATOM      6  C   UNL     1      64.619  16.675  -0.496  1.00  0.00     0.028 C 
BRANCH   6   7
ATOM      7  C   UNL     1      64.130  15.386  -1.111  1.00  0.00    -0.028 C 
ATOM      8  C   UNL     1      62.839  15.069  -1.362  1.00  0.00    -0.070 CG0
ATOM      9  C   UNL     1      62.549  13.723  -1.977  1.00  0.00     0.039 C 
ATOM     10  G   UNL     1      61.674  15.977  -1.018  1.00  0.00     0.000 G0
ENDBRANCH   6   7
ENDBRANCH   5   6
ENDBRANCH   3   5
ENDBRANCH   1   3
BRANCH   1  11
ATOM     11  C   UNL     1      62.216  16.461   2.691  1.00  0.00     0.087 C 
BRANCH  11  12
ATOM     12  C   UNL     1      61.670  17.061   1.370  1.00  0.00     0.066 C 
BRANCH  12  13
ATOM     13  C   UNL     1      61.300  15.929   0.423  1.00  0.00     0.140 C 
ATOM     14  O   UNL     1      60.626  14.996   0.838  1.00  0.00    -0.299 OA
BRANCH  13  15
ATOM     15  C   UNL     1      61.664  15.974  -1.039  1.00  0.00     0.106 CG0
ATOM     16  G   UNL     1      62.843  15.067  -1.336  1.00  0.00     0.000 G0
ENDBRANCH  13  15
ENDBRANCH  12  13
BRANCH  12  17
ATOM     17  C   UNL     1      60.440  17.998   1.605  1.00  0.00    -0.006 C 
ATOM     18  C   UNL     1      60.625  19.360   0.906  1.00  0.00     0.008 C 
ATOM     19  C   UNL     1      60.179  18.250   3.103  1.00  0.00     0.008 C 
ENDBRANCH  12  17
ENDBRANCH  11  12
ENDBRANCH   1  11
TORSDOF 1
ENDMDL
MODEL 4
REMARK VINA RESULT:    -2.214     10.146     12.333
REMARK INTER + INTRA:          -3.634
REMARK INTER:                  -3.386
REMARK INTRA:                  -0.248
REMARK UNBOUND:                -0.255
REMARK SMILES CC1=CCC[C@@H](C)C(=O)C[C@H](C(C)C)C(=O)C1
REMARK SMILES IDX 8 1 9 2 6 3 7 4 5 5 4 6 3 7 2 8 1 9 10 11 11 12 15 13 16 14
REMARK SMILES IDX 17 15 12 17 13 18 14 19
REMARK H PARENT
REMARK Flexibility Score: 70.00
ROOT
ATOM      1  C   UNL     1      59.457   3.932   7.156  1.00  0.00     0.136 C 
ATOM      2  O   UNL     1      59.760   2.752   7.269  1.00  0.00    -0.299 OA
ENDROOT
BRANCH   1   3
ATOM      3  C   UNL     1      59.670   4.880   8.318  1.00  0.00     0.053 C 
ATOM      4  C   UNL     1      61.052   4.633   8.930  1.00  0.00     0.016 C 
BRANCH   3   5
ATOM      5  C   UNL     1      58.571   4.726   9.396  1.00  0.00     0.015 C 
BRANCH   5   6
ATOM      6  C   UNL     1      57.542   5.866   9.382  1.00  0.00     0.028 C 
BRANCH   6   7
ATOM      7  C   UNL     1      58.013   7.020   8.529  1.00  0.00    -0.028 C 
ATOM      8  C   UNL     1      57.486   7.392   7.340  1.00  0.00    -0.070 CG0
ATOM      9  C   UNL     1      58.102   8.573   6.634  1.00  0.00     0.039 C 
ATOM     10  G   UNL     1      56.340   6.660   6.669  1.00  0.00     0.000 G0
ENDBRANCH   6   7
ENDBRANCH   5   6
ENDBRANCH   3   5
ENDBRANCH   1   3
BRANCH   1  11
ATOM     11  C   UNL     1      58.917   4.424   5.839  1.00  0.00     0.087 C 
BRANCH  11  12
ATOM     12  C   UNL     1      57.368   4.378   5.797  1.00  0.00     0.066 C 
BRANCH  12  13
ATOM     13  C   UNL     1      56.833   5.779   5.538  1.00  0.00     0.140 C 
ATOM     14  O   UNL     1      56.726   6.176   4.386  1.00  0.00    -0.299 OA
BRANCH  13  15
ATOM     15  C   UNL     1      56.344   6.656   6.662  1.00  0.00     0.106 CG0
ATOM     16  G   UNL     1      57.499   7.371   7.337  1.00  0.00     0.000 G0
ENDBRANCH  13  15
ENDBRANCH  12  13
BRANCH  12  17
ATOM     17  C   UNL     1      56.830   3.382   4.716  1.00  0.00    -0.006 C 
ATOM     18  C   UNL     1      55.752   2.447   5.297  1.00  0.00     0.008 C 
ATOM     19  C   UNL     1      57.955   2.516   4.114  1.00  0.00     0.008 C 
ENDBRANCH  12  17
ENDBRANCH  11  12
ENDBRANCH   1  11
TORSDOF 1
ENDMDL
MODEL 5
REMARK VINA RESULT:    -2.202     11.826     13.115
REMARK INTER + INTRA:          -3.615
REMARK INTER:                  -3.788
REMARK INTRA:                   0.173
REMARK UNBOUND:                -0.255
REMARK SMILES CC1=CCC[C@@H](C)C(=O)C[C@H](C(C)C)C(=O)C1
REMARK SMILES IDX 8 1 9 2 6 3 7 4 5 5 4 6 3 7 2 8 1 9 10 11 11 12 15 13 16 14
REMARK SMILES IDX 17 15 12 17 13 18 14 19
REMARK H PARENT
REMARK Flexibility Score: 70.00
ROOT
ATOM      1  C   UNL     1      55.207   5.761   5.388  1.00  0.00     0.136 C 
ATOM      2  O   UNL     1      54.125   6.042   5.887  1.00  0.00    -0.299 OA
ENDROOT
BRANCH   1   3
ATOM      3  C   UNL     1      55.262   4.929   4.124  1.00  0.00     0.053 C 
ATOM      4  C   UNL     1      54.346   5.550   3.066  1.00  0.00     0.016 C 
BRANCH   3   5
ATOM      5  C   UNL     1      54.859   3.458   4.384  1.00  0.00     0.015 C 
BRANCH   5   6
ATOM      6  C   UNL     1      55.976   2.628   5.032  1.00  0.00     0.028 C 
BRANCH   6   7
ATOM      7  C   UNL     1      57.238   2.664   4.204  1.00  0.00    -0.028 C 
ATOM      8  C   UNL     1      58.474   2.976   4.658  1.00  0.00    -0.070 CG0
ATOM      9  C   UNL     1      59.613   2.965   3.670  1.00  0.00     0.039 C 
ATOM     10  G   UNL     1      58.760   3.374   6.093  1.00  0.00     0.000 G0
ENDBRANCH   6   7
ENDBRANCH   5   6
ENDBRANCH   3   5
ENDBRANCH   1   3
BRANCH   1  11
ATOM     11  C   UNL     1      56.464   6.291   6.026  1.00  0.00     0.087 C 
BRANCH  11  12
ATOM     12  C   UNL     1      57.126   5.242   6.956  1.00  0.00     0.066 C 
BRANCH  12  13
ATOM     13  C   UNL     1      58.462   4.820   6.361  1.00  0.00     0.140 C 
ATOM     14  O   UNL     1      59.324   5.666   6.164  1.00  0.00    -0.299 OA
BRANCH  13  15
ATOM     15  C   UNL     1      58.784   3.372   6.095  1.00  0.00     0.106 CG0
ATOM     16  G   UNL     1      58.462   2.996   4.662  1.00  0.00     0.000 G0
ENDBRANCH  13  15
ENDBRANCH  12  13
BRANCH  12  17
ATOM     17  C   UNL     1      57.324   5.777   8.413  1.00  0.00    -0.006 C 
ATOM     18  C   UNL     1      57.768   7.253   8.416  1.00  0.00     0.008 C 
ATOM     19  C   UNL     1      58.363   4.953   9.199  1.00  0.00     0.008 C 
ENDBRANCH  12  17
ENDBRANCH  11  12
ENDBRANCH   1  11
TORSDOF 1
ENDMDL
MODEL 6
REMARK VINA RESULT:    -2.081      9.919     12.500
REMARK INTER + INTRA:          -3.430
REMARK INTER:                  -3.201
REMARK INTRA:                  -0.229
REMARK UNBOUND:                -0.255
REMARK SMILES CC1=CCC[C@@H](C)C(=O)C[C@H](C(C)C)C(=O)C1
REMARK SMILES IDX 8 1 9 2 6 3 7 4 5 5 4 6 3 7 2 8 1 9 10 11 11 12 15 13 16 14
REMARK SMILES IDX 17 15 12 17 13 18 14 19
REMARK H PARENT
REMARK Flexibility Score: 70.00
ROOT
ATOM      1  C   UNL     1      55.899   6.871   6.420  1.00  0.00     0.136 C 
ATOM      2  O   UNL     1      56.079   7.999   6.857  1.00  0.00    -0.299 OA
ENDROOT
BRANCH   1   3
ATOM      3  C   UNL     1      56.812   5.741   6.851  1.00  0.00     0.053 C 
ATOM      4  C   UNL     1      57.004   5.793   8.369  1.00  0.00     0.016 C 
BRANCH   3   5
ATOM      5  C   UNL     1      58.183   5.802   6.135  1.00  0.00     0.015 C 
BRANCH   5   6
ATOM      6  C   UNL     1      58.254   4.918   4.882  1.00  0.00     0.028 C 
BRANCH   6   7
ATOM      7  C   UNL     1      57.484   3.633   5.073  1.00  0.00    -0.028 C 
ATOM      8  C   UNL     1      56.448   3.211   4.312  1.00  0.00    -0.070 CG0
ATOM      9  C   UNL     1      55.801   1.896   4.667  1.00  0.00     0.039 C 
ATOM     10  G   UNL     1      55.884   4.009   3.152  1.00  0.00     0.000 G0
ENDBRANCH   6   7
ENDBRANCH   5   6
ENDBRANCH   3   5
ENDBRANCH   1   3
BRANCH   1  11
ATOM     11  C   UNL     1      54.741   6.623   5.491  1.00  0.00     0.087 C 
BRANCH  11  12
ATOM     12  C   UNL     1      55.210   6.393   4.031  1.00  0.00     0.066 C 
BRANCH  12  13
ATOM     13  C   UNL     1      54.833   4.983   3.601  1.00  0.00     0.140 C 
ATOM     14  O   UNL     1      53.653   4.663   3.563  1.00  0.00    -0.299 OA
BRANCH  13  15
ATOM     15  C   UNL     1      55.872   3.998   3.132  1.00  0.00     0.106 CG0
ATOM     16  G   UNL     1      56.439   3.207   4.295  1.00  0.00     0.000 G0
ENDBRANCH  13  15
ENDBRANCH  12  13
BRANCH  12  17
ATOM     17  C   UNL     1      54.608   7.443   3.040  1.00  0.00    -0.006 C 
ATOM     18  C   UNL     1      55.712   8.283   2.367  1.00  0.00     0.008 C 
ATOM     19  C   UNL     1      53.622   8.402   3.737  1.00  0.00     0.008 C 
ENDBRANCH  12  17
ENDBRANCH  11  12
ENDBRANCH   1  11
TORSDOF 1
ENDMDL
MODEL 7
REMARK VINA RESULT:    -2.073     11.481     12.955
REMARK INTER + INTRA:          -3.418
REMARK INTER:                  -3.187
REMARK INTRA:                  -0.232
REMARK UNBOUND:                -0.255
REMARK SMILES CC1=CCC[C@@H](C)C(=O)C[C@H](C(C)C)C(=O)C1
REMARK SMILES IDX 8 1 9 2 6 3 7 4 5 5 4 6 3 7 2 8 1 9 10 11 11 12 15 13 16 14
REMARK SMILES IDX 17 15 12 17 13 18 14 19
REMARK H PARENT
REMARK Flexibility Score: 70.00
ROOT
ATOM      1  C   UNL     1      53.241   4.608   1.361  1.00  0.00     0.136 C 
ATOM      2  O   UNL     1      52.306   4.427   0.594  1.00  0.00    -0.299 OA
ENDROOT
BRANCH   1   3
ATOM      3  C   UNL     1      54.077   3.432   1.823  1.00  0.00     0.053 C 
ATOM      4  C   UNL     1      54.373   2.519   0.629  1.00  0.00     0.016 C 
BRANCH   3   5
ATOM      5  C   UNL     1      53.378   2.634   2.948  1.00  0.00     0.015 C 
BRANCH   5   6
ATOM      6  C   UNL     1      53.733   3.131   4.357  1.00  0.00     0.028 C 
BRANCH   6   7
ATOM      7  C   UNL     1      55.078   3.818   4.373  1.00  0.00    -0.028 C 
ATOM      8  C   UNL     1      55.312   5.088   4.774  1.00  0.00    -0.070 CG0
ATOM      9  C   UNL     1      56.729   5.599   4.710  1.00  0.00     0.039 C 
ATOM     10  G   UNL     1      54.220   6.031   5.244  1.00  0.00     0.000 G0
ENDBRANCH   6   7
ENDBRANCH   5   6
ENDBRANCH   3   5
ENDBRANCH   1   3
BRANCH   1  11
ATOM     11  C   UNL     1      53.566   6.012   1.797  1.00  0.00     0.087 C 
BRANCH  11  12
ATOM     12  C   UNL     1      52.778   6.419   3.069  1.00  0.00     0.066 C 
BRANCH  12  13
ATOM     13  C   UNL     1      53.754   6.931   4.119  1.00  0.00     0.140 C 
ATOM     14  O   UNL     1      54.101   8.103   4.093  1.00  0.00    -0.299 OA
BRANCH  13  15
ATOM     15  C   UNL     1      54.231   6.052   5.246  1.00  0.00     0.106 CG0
ATOM     16  G   UNL     1      55.324   5.110   4.779  1.00  0.00     0.000 G0
ENDBRANCH  13  15
ENDBRANCH  12  13
BRANCH  12  17
ATOM     17  C   UNL     1      51.683   7.497   2.773  1.00  0.00    -0.006 C 
ATOM     18  C   UNL     1      50.273   6.875   2.740  1.00  0.00     0.008 C 
ATOM     19  C   UNL     1      51.929   8.221   1.434  1.00  0.00     0.008 C 
ENDBRANCH  12  17
ENDBRANCH  11  12
ENDBRANCH   1  11
TORSDOF 1
ENDMDL
MODEL 8
REMARK VINA RESULT:    -1.946     11.179     13.118
REMARK INTER + INTRA:          -3.224
REMARK INTER:                  -3.100
REMARK INTRA:                  -0.124
REMARK UNBOUND:                -0.255
REMARK SMILES CC1=CCC[C@@H](C)C(=O)C[C@H](C(C)C)C(=O)C1
REMARK SMILES IDX 8 1 9 2 6 3 7 4 5 5 4 6 3 7 2 8 1 9 10 11 11 12 15 13 16 14
REMARK SMILES IDX 17 15 12 17 13 18 14 19
REMARK H PARENT
REMARK Flexibility Score: 70.00
ROOT
ATOM      1  C   UNL     1      54.556   2.627   4.170  1.00  0.00     0.136 C 
ATOM      2  O   UNL     1      54.983   1.597   4.673  1.00  0.00    -0.299 OA
ENDROOT
BRANCH   1   3
ATOM      3  C   UNL     1      53.642   2.555   2.963  1.00  0.00     0.053 C 
ATOM      4  C   UNL     1      52.798   1.280   3.040  1.00  0.00     0.016 C 
BRANCH   3   5
ATOM      5  C   UNL     1      54.436   2.593   1.636  1.00  0.00     0.015 C 
BRANCH   5   6
ATOM      6  C   UNL     1      54.078   3.794   0.749  1.00  0.00     0.028 C 
BRANCH   6   7
ATOM      7  C   UNL     1      52.998   4.640   1.379  1.00  0.00    -0.028 C 
ATOM      8  C   UNL     1      53.186   5.823   2.008  1.00  0.00    -0.070 CG0
ATOM      9  C   UNL     1      51.976   6.517   2.581  1.00  0.00     0.039 C 
ATOM     10  G   UNL     1      54.548   6.461   2.198  1.00  0.00     0.000 G0
ENDBRANCH   6   7
ENDBRANCH   5   6
ENDBRANCH   3   5
ENDBRANCH   1   3
BRANCH   1  11
ATOM     11  C   UNL     1      54.917   3.949   4.794  1.00  0.00     0.087 C 
BRANCH  11  12
ATOM     12  C   UNL     1      55.807   4.806   3.857  1.00  0.00     0.066 C 
BRANCH  12  13
ATOM     13  C   UNL     1      55.106   6.125   3.572  1.00  0.00     0.140 C 
ATOM     14  O   UNL     1      55.058   6.980   4.445  1.00  0.00    -0.299 OA
BRANCH  13  15
ATOM     15  C   UNL     1      54.549   6.442   2.208  1.00  0.00     0.106 CG0
ATOM     16  G   UNL     1      53.179   5.818   2.019  1.00  0.00     0.000 G0
ENDBRANCH  13  15
ENDBRANCH  12  13
BRANCH  12  17
ATOM     17  C   UNL     1      57.229   5.064   4.459  1.00  0.00    -0.006 C 
ATOM     18  C   UNL     1      58.296   4.178   3.786  1.00  0.00     0.008 C 
ATOM     19  C   UNL     1      57.271   4.811   5.979  1.00  0.00     0.008 C 
ENDBRANCH  12  17
ENDBRANCH  11  12
ENDBRANCH   1  11
TORSDOF 1
ENDMDL
MODEL 9
REMARK VINA RESULT:    -1.878      2.193      4.807
REMARK INTER + INTRA:          -3.121
REMARK INTER:                  -2.800
REMARK INTRA:                  -0.321
REMARK UNBOUND:                -0.255
REMARK SMILES CC1=CCC[C@@H](C)C(=O)C[C@H](C(C)C)C(=O)C1
REMARK SMILES IDX 8 1 9 2 6 3 7 4 5 5 4 6 3 7 2 8 1 9 10 11 11 12 15 13 16 14
REMARK SMILES IDX 17 15 12 17 13 18 14 19
REMARK H PARENT
REMARK Flexibility Score: 70.00
ROOT
ATOM      1  C   UNL     1      62.961  12.601   2.231  1.00  0.00     0.136 C 
ATOM      2  O   UNL     1      64.074  12.134   2.431  1.00  0.00    -0.299 OA
ENDROOT
BRANCH   1   3
ATOM      3  C   UNL     1      61.796  11.677   1.942  1.00  0.00     0.053 C 
ATOM      4  C   UNL     1      61.664  10.655   3.074  1.00  0.00     0.016 C 
BRANCH   3   5
ATOM      5  C   UNL     1      61.957  10.955   0.583  1.00  0.00     0.015 C 
BRANCH   5   6
ATOM      6  C   UNL     1      61.634  11.849  -0.623  1.00  0.00     0.028 C 
BRANCH   6   7
ATOM      7  C   UNL     1      60.335  12.592  -0.423  1.00  0.00    -0.028 C 
ATOM      8  C   UNL     1      60.162  13.928  -0.537  1.00  0.00    -0.070 CG0
ATOM      9  C   UNL     1      58.782  14.485  -0.291  1.00  0.00     0.039 C 
ATOM     10  G   UNL     1      61.288  14.892  -0.858  1.00  0.00     0.000 G0
ENDBRANCH   6   7
ENDBRANCH   5   6
ENDBRANCH   3   5
ENDBRANCH   1   3
BRANCH   1  11
ATOM     11  C   UNL     1      62.768  14.092   2.322  1.00  0.00     0.087 C 
BRANCH  11  12
ATOM     12  C   UNL     1      63.157  14.806   1.002  1.00  0.00     0.066 C 
BRANCH  12  13
ATOM     13  C   UNL     1      61.916  15.443   0.394  1.00  0.00     0.140 C 
ATOM     14  O   UNL     1      61.460  16.464   0.893  1.00  0.00    -0.299 OA
BRANCH  13  15
ATOM     15  C   UNL     1      61.287  14.902  -0.864  1.00  0.00     0.106 CG0
ATOM     16  G   UNL     1      60.160  13.940  -0.540  1.00  0.00     0.000 G0
ENDBRANCH  13  15
ENDBRANCH  12  13
BRANCH  12  17
ATOM     17  C   UNL     1      64.273  15.882   1.213  1.00  0.00    -0.006 C 
ATOM     18  C   UNL     1      64.904  16.312  -0.127  1.00  0.00     0.008 C 
ATOM     19  C   UNL     1      65.396  15.380   2.142  1.00  0.00     0.008 C 
ENDBRANCH  12  17
ENDBRANCH  11  12
ENDBRANCH   1  11
TORSDOF 1
ENDMDL
