MODEL 1
REMARK VINA RESULT:    -6.214      0.000      0.000
REMARK INTER + INTRA:          -8.036
REMARK INTER:                  -7.667
REMARK INTRA:                  -0.369
REMARK UNBOUND:                -0.369
REMARK SMILES CCCCC(=O)c1ccccc1
REMARK SMILES IDX 4 1 3 2 2 3 1 4 5 5 6 6 7 7 8 8 12 9 9 10 11 11 10 12
REMARK H PARENT
REMARK Flexibility Score: inf
ROOT
ATOM      1  C   UNL     1     130.893 125.767 125.402  1.00  0.00     0.081 C 
ENDROOT
BRANCH   1   2
ATOM      2  C   UNL     1     130.957 125.217 126.834  1.00  0.00     0.008 C 
BRANCH   2   3
ATOM      3  C   UNL     1     130.222 123.876 126.984  1.00  0.00    -0.003 C 
ATOM      4  C   UNL     1     128.777 124.044 127.452  1.00  0.00     0.004 C 
ENDBRANCH   2   3
ENDBRANCH   1   2
BRANCH   1   5
ATOM      5  C   UNL     1     130.033 127.001 125.345  1.00  0.00     0.162 C 
ATOM      6  O   UNL     1     130.029 127.764 126.350  1.00  0.00    -0.294 OA
BRANCH   5   7
ATOM      7  C   UNL     1     129.176 127.333 124.172  1.00  0.00     0.017 A 
ATOM      8  C   UNL     1     129.223 128.600 123.551  1.00  0.00     0.012 A 
ATOM      9  C   UNL     1     128.294 126.363 123.653  1.00  0.00     0.012 A 
ATOM     10  C   UNL     1     128.408 128.882 122.451  1.00  0.00     0.001 A 
ATOM     11  C   UNL     1     127.483 126.653 122.552  1.00  0.00     0.001 A 
ATOM     12  C   UNL     1     127.539 127.911 121.952  1.00  0.00     0.000 A 
ENDBRANCH   5   7
ENDBRANCH   1   5
TORSDOF 4
ENDMDL
MODEL 2
REMARK VINA RESULT:    -6.210      0.089      1.399
REMARK INTER + INTRA:          -8.031
REMARK INTER:                  -7.679
REMARK INTRA:                  -0.352
REMARK UNBOUND:                -0.369
REMARK SMILES CCCCC(=O)c1ccccc1
REMARK SMILES IDX 4 1 3 2 2 3 1 4 5 5 6 6 7 7 8 8 12 9 9 10 11 11 10 12
REMARK H PARENT
REMARK Flexibility Score: inf
ROOT
ATOM      1  C   UNL     1     130.934 125.722 125.362  1.00  0.00     0.081 C 
ENDROOT
BRANCH   1   2
ATOM      2  C   UNL     1     131.015 125.202 126.805  1.00  0.00     0.008 C 
BRANCH   2   3
ATOM      3  C   UNL     1     130.326 123.840 126.980  1.00  0.00    -0.003 C 
ATOM      4  C   UNL     1     128.863 123.968 127.403  1.00  0.00     0.004 C 
ENDBRANCH   2   3
ENDBRANCH   1   2
BRANCH   1   5
ATOM      5  C   UNL     1     130.108 126.980 125.296  1.00  0.00     0.162 C 
ATOM      6  O   UNL     1     130.176 127.781 126.268  1.00  0.00    -0.294 OA
BRANCH   5   7
ATOM      7  C   UNL     1     129.204 127.291 124.154  1.00  0.00     0.017 A 
ATOM      8  C   UNL     1     128.331 126.324 123.611  1.00  0.00     0.012 A 
ATOM      9  C   UNL     1     129.204 128.585 123.594  1.00  0.00     0.012 A 
ATOM     10  C   UNL     1     127.492 126.646 122.540  1.00  0.00     0.001 A 
ATOM     11  C   UNL     1     128.362 128.900 122.523  1.00  0.00     0.001 A 
ATOM     12  C   UNL     1     127.507 127.930 121.996  1.00  0.00     0.000 A 
ENDBRANCH   5   7
ENDBRANCH   1   5
TORSDOF 4
ENDMDL
MODEL 3
REMARK VINA RESULT:    -6.159      2.015      5.229
REMARK INTER + INTRA:          -7.968
REMARK INTER:                  -7.687
REMARK INTRA:                  -0.281
REMARK UNBOUND:                -0.369
REMARK SMILES CCCCC(=O)c1ccccc1
REMARK SMILES IDX 4 1 3 2 2 3 1 4 5 5 6 6 7 7 8 8 12 9 9 10 11 11 10 12
REMARK H PARENT
REMARK Flexibility Score: inf
ROOT
ATOM      1  C   UNL     1     128.702 128.624 123.037  1.00  0.00     0.081 C 
ENDROOT
BRANCH   1   2
ATOM      2  C   UNL     1     127.882 128.436 121.752  1.00  0.00     0.008 C 
BRANCH   2   3
ATOM      3  C   UNL     1     126.593 129.273 121.749  1.00  0.00    -0.003 C 
ATOM      4  C   UNL     1     125.398 128.519 122.333  1.00  0.00     0.004 C 
ENDBRANCH   2   3
ENDBRANCH   1   2
BRANCH   1   5
ATOM      5  C   UNL     1     128.829 127.321 123.781  1.00  0.00     0.162 C 
ATOM      6  O   UNL     1     128.068 126.373 123.444  1.00  0.00    -0.294 OA
BRANCH   5   7
ATOM      7  C   UNL     1     129.787 127.125 124.905  1.00  0.00     0.017 A 
ATOM      8  C   UNL     1     129.614 127.766 126.150  1.00  0.00     0.012 A 
ATOM      9  C   UNL     1     130.898 126.272 124.737  1.00  0.00     0.012 A 
ATOM     10  C   UNL     1     130.529 127.561 127.188  1.00  0.00     0.001 A 
ATOM     11  C   UNL     1     131.808 126.072 125.779  1.00  0.00     0.001 A 
ATOM     12  C   UNL     1     131.624 126.717 127.003  1.00  0.00     0.000 A 
ENDBRANCH   5   7
ENDBRANCH   1   5
TORSDOF 4
ENDMDL
MODEL 4
REMARK VINA RESULT:    -6.154      1.813      2.585
REMARK INTER + INTRA:          -7.962
REMARK INTER:                  -7.563
REMARK INTRA:                  -0.399
REMARK UNBOUND:                -0.369
REMARK SMILES CCCCC(=O)c1ccccc1
REMARK SMILES IDX 4 1 3 2 2 3 1 4 5 5 6 6 7 7 8 8 12 9 9 10 11 11 10 12
REMARK H PARENT
REMARK Flexibility Score: inf
ROOT
ATOM      1  C   UNL     1     129.239 127.651 126.674  1.00  0.00     0.081 C 
ENDROOT
BRANCH   1   2
ATOM      2  C   UNL     1     130.314 127.071 127.605  1.00  0.00     0.008 C 
BRANCH   2   3
ATOM      3  C   UNL     1     131.733 127.509 127.210  1.00  0.00    -0.003 C 
ATOM      4  C   UNL     1     132.560 126.368 126.618  1.00  0.00     0.004 C 
ENDBRANCH   2   3
ENDBRANCH   1   2
BRANCH   1   5
ATOM      5  C   UNL     1     128.983 126.724 125.516  1.00  0.00     0.162 C 
ATOM      6  O   UNL     1     129.100 125.484 125.716  1.00  0.00    -0.294 OA
BRANCH   5   7
ATOM      7  C   UNL     1     128.632 127.215 124.153  1.00  0.00     0.017 A 
ATOM      8  C   UNL     1     127.850 126.446 123.265  1.00  0.00     0.012 A 
ATOM      9  C   UNL     1     129.081 128.482 123.729  1.00  0.00     0.012 A 
ATOM     10  C   UNL     1     127.534 126.933 121.993  1.00  0.00     0.001 A 
ATOM     11  C   UNL     1     128.761 128.963 122.456  1.00  0.00     0.001 A 
ATOM     12  C   UNL     1     127.989 128.188 121.588  1.00  0.00     0.000 A 
ENDBRANCH   5   7
ENDBRANCH   1   5
TORSDOF 4
ENDMDL
MODEL 5
REMARK VINA RESULT:    -6.061      1.623      4.517
REMARK INTER + INTRA:          -7.848
REMARK INTER:                  -7.360
REMARK INTRA:                  -0.488
REMARK UNBOUND:                -0.369
REMARK SMILES CCCCC(=O)c1ccccc1
REMARK SMILES IDX 4 1 3 2 2 3 1 4 5 5 6 6 7 7 8 8 12 9 9 10 11 11 10 12
REMARK H PARENT
REMARK Flexibility Score: inf
ROOT
ATOM      1  C   UNL     1     132.059 126.367 125.063  1.00  0.00     0.081 C 
ENDROOT
BRANCH   1   2
ATOM      2  C   UNL     1     130.864 126.012 124.166  1.00  0.00     0.008 C 
BRANCH   2   3
ATOM      3  C   UNL     1     129.888 127.186 123.994  1.00  0.00    -0.003 C 
ATOM      4  C   UNL     1     128.424 126.747 124.034  1.00  0.00     0.004 C 
ENDBRANCH   2   3
ENDBRANCH   1   2
BRANCH   1   5
ATOM      5  C   UNL     1     131.645 126.398 126.511  1.00  0.00     0.162 C 
ATOM      6  O   UNL     1     132.348 127.074 127.311  1.00  0.00    -0.294 OA
BRANCH   5   7
ATOM      7  C   UNL     1     130.469 125.644 127.029  1.00  0.00     0.017 A 
ATOM      8  C   UNL     1     129.384 126.297 127.652  1.00  0.00     0.012 A 
ATOM      9  C   UNL     1     130.422 124.242 126.894  1.00  0.00     0.012 A 
ATOM     10  C   UNL     1     128.292 125.564 128.127  1.00  0.00     0.001 A 
ATOM     11  C   UNL     1     129.326 123.515 127.371  1.00  0.00     0.001 A 
ATOM     12  C   UNL     1     128.263 124.176 127.988  1.00  0.00     0.000 A 
ENDBRANCH   5   7
ENDBRANCH   1   5
TORSDOF 4
ENDMDL
MODEL 6
REMARK VINA RESULT:    -5.837      1.269      5.194
REMARK INTER + INTRA:          -7.571
REMARK INTER:                  -7.383
REMARK INTRA:                  -0.188
REMARK UNBOUND:                -0.369
REMARK SMILES CCCCC(=O)c1ccccc1
REMARK SMILES IDX 4 1 3 2 2 3 1 4 5 5 6 6 7 7 8 8 12 9 9 10 11 11 10 12
REMARK H PARENT
REMARK Flexibility Score: inf
ROOT
ATOM      1  C   UNL     1     128.376 127.127 123.598  1.00  0.00     0.081 C 
ENDROOT
BRANCH   1   2
ATOM      2  C   UNL     1     127.858 128.392 122.899  1.00  0.00     0.008 C 
BRANCH   2   3
ATOM      3  C   UNL     1     126.487 128.181 122.239  1.00  0.00    -0.003 C 
ATOM      4  C   UNL     1     125.743 129.492 121.989  1.00  0.00     0.004 C 
ENDBRANCH   2   3
ENDBRANCH   1   2
BRANCH   1   5
ATOM      5  C   UNL     1     129.167 127.485 124.828  1.00  0.00     0.162 C 
ATOM      6  O   UNL     1     129.306 128.708 125.104  1.00  0.00    -0.294 OA
BRANCH   5   7
ATOM      7  C   UNL     1     129.807 126.461 125.702  1.00  0.00     0.017 A 
ATOM      8  C   UNL     1     131.115 126.625 126.204  1.00  0.00     0.012 A 
ATOM      9  C   UNL     1     129.094 125.295 126.050  1.00  0.00     0.012 A 
ATOM     10  C   UNL     1     131.689 125.648 127.023  1.00  0.00     0.001 A 
ATOM     11  C   UNL     1     129.674 124.323 126.870  1.00  0.00     0.001 A 
ATOM     12  C   UNL     1     130.971 124.499 127.355  1.00  0.00     0.000 A 
ENDBRANCH   5   7
ENDBRANCH   1   5
TORSDOF 4
ENDMDL
MODEL 7
REMARK VINA RESULT:    -5.801      1.318      2.506
REMARK INTER + INTRA:          -7.526
REMARK INTER:                  -6.908
REMARK INTRA:                  -0.618
REMARK UNBOUND:                -0.369
REMARK SMILES CCCCC(=O)c1ccccc1
REMARK SMILES IDX 4 1 3 2 2 3 1 4 5 5 6 6 7 7 8 8 12 9 9 10 11 11 10 12
REMARK H PARENT
REMARK Flexibility Score: inf
ROOT
ATOM      1  C   UNL     1     130.247 125.575 125.558  1.00  0.00     0.081 C 
ENDROOT
BRANCH   1   2
ATOM      2  C   UNL     1     131.632 126.229 125.449  1.00  0.00     0.008 C 
BRANCH   2   3
ATOM      3  C   UNL     1     132.258 126.053 124.057  1.00  0.00    -0.003 C 
ATOM      4  C   UNL     1     131.746 124.809 123.332  1.00  0.00     0.004 C 
ENDBRANCH   2   3
ENDBRANCH   1   2
BRANCH   1   5
ATOM      5  C   UNL     1     129.160 126.606 125.411  1.00  0.00     0.162 C 
ATOM      6  O   UNL     1     128.582 127.007 126.458  1.00  0.00    -0.294 OA
BRANCH   5   7
ATOM      7  C   UNL     1     128.728 127.139 124.088  1.00  0.00     0.017 A 
ATOM      8  C   UNL     1     127.927 126.381 123.206  1.00  0.00     0.012 A 
ATOM      9  C   UNL     1     129.117 128.436 123.696  1.00  0.00     0.012 A 
ATOM     10  C   UNL     1     127.536 126.908 121.972  1.00  0.00     0.001 A 
ATOM     11  C   UNL     1     128.721 128.956 122.460  1.00  0.00     0.001 A 
ATOM     12  C   UNL     1     127.932 128.193 121.598  1.00  0.00     0.000 A 
ENDBRANCH   5   7
ENDBRANCH   1   5
TORSDOF 4
ENDMDL
MODEL 8
REMARK VINA RESULT:    -5.750      1.105      4.929
REMARK INTER + INTRA:          -7.464
REMARK INTER:                  -7.097
REMARK INTRA:                  -0.367
REMARK UNBOUND:                -0.369
REMARK SMILES CCCCC(=O)c1ccccc1
REMARK SMILES IDX 4 1 3 2 2 3 1 4 5 5 6 6 7 7 8 8 12 9 9 10 11 11 10 12
REMARK H PARENT
REMARK Flexibility Score: inf
ROOT
ATOM      1  C   UNL     1     129.877 127.034 124.100  1.00  0.00     0.081 C 
ENDROOT
BRANCH   1   2
ATOM      2  C   UNL     1     128.410 126.759 123.738  1.00  0.00     0.008 C 
BRANCH   2   3
ATOM      3  C   UNL     1     127.709 127.990 123.143  1.00  0.00    -0.003 C 
ATOM      4  C   UNL     1     128.242 128.361 121.759  1.00  0.00     0.004 C 
ENDBRANCH   2   3
ENDBRANCH   1   2
BRANCH   1   5
ATOM      5  C   UNL     1     130.076 126.977 125.591  1.00  0.00     0.162 C 
ATOM      6  O   UNL     1     130.760 127.889 126.131  1.00  0.00    -0.294 OA
BRANCH   5   7
ATOM      7  C   UNL     1     129.527 125.878 126.436  1.00  0.00     0.017 A 
ATOM      8  C   UNL     1     128.472 126.098 127.347  1.00  0.00     0.012 A 
ATOM      9  C   UNL     1     130.061 124.578 126.327  1.00  0.00     0.012 A 
ATOM     10  C   UNL     1     127.976 125.048 128.125  1.00  0.00     0.001 A 
ATOM     11  C   UNL     1     129.559 123.533 127.108  1.00  0.00     0.001 A 
ATOM     12  C   UNL     1     128.518 123.768 128.007  1.00  0.00     0.000 A 
ENDBRANCH   5   7
ENDBRANCH   1   5
TORSDOF 4
ENDMDL
MODEL 9
REMARK VINA RESULT:    -5.690      1.592      2.516
REMARK INTER + INTRA:          -7.390
REMARK INTER:                  -6.910
REMARK INTRA:                  -0.480
REMARK UNBOUND:                -0.369
REMARK SMILES CCCCC(=O)c1ccccc1
REMARK SMILES IDX 4 1 3 2 2 3 1 4 5 5 6 6 7 7 8 8 12 9 9 10 11 11 10 12
REMARK H PARENT
REMARK Flexibility Score: inf
ROOT
ATOM      1  C   UNL     1     131.200 124.795 127.343  1.00  0.00     0.081 C 
ENDROOT
BRANCH   1   2
ATOM      2  C   UNL     1     130.125 123.975 126.614  1.00  0.00     0.008 C 
BRANCH   2   3
ATOM      3  C   UNL     1     128.841 123.818 127.444  1.00  0.00    -0.003 C 
ATOM      4  C   UNL     1     128.322 125.149 127.988  1.00  0.00     0.004 C 
ENDBRANCH   2   3
ENDBRANCH   1   2
BRANCH   1   5
ATOM      5  C   UNL     1     131.639 125.963 126.501  1.00  0.00     0.162 C 
ATOM      6  O   UNL     1     132.849 126.315 126.565  1.00  0.00    -0.294 OA
BRANCH   5   7
ATOM      7  C   UNL     1     130.701 126.727 125.631  1.00  0.00     0.017 A 
ATOM      8  C   UNL     1     130.429 126.331 124.304  1.00  0.00     0.012 A 
ATOM      9  C   UNL     1     130.055 127.874 126.136  1.00  0.00     0.012 A 
ATOM     10  C   UNL     1     129.542 127.066 123.511  1.00  0.00     0.001 A 
ATOM     11  C   UNL     1     129.170 128.604 125.337  1.00  0.00     0.001 A 
ATOM     12  C   UNL     1     128.914 128.201 124.026  1.00  0.00     0.000 A 
ENDBRANCH   5   7
ENDBRANCH   1   5
TORSDOF 4
ENDMDL
