MODEL 1
REMARK VINA RESULT:    -5.925      0.000      0.000
REMARK INTER + INTRA:          -6.445
REMARK INTER:                  -6.445
REMARK INTRA:                   0.000
REMARK UNBOUND:                 0.000
REMARK SMILES Cc1cc(O)c2c(c1)C(=O)c1cc(O)cc(O)c1C2=O
REMARK SMILES IDX 1 1 2 2 8 3 7 4 6 5 4 6 3 7 19 8 20 9 18 10 11 11 9 12 10 13
REMARK SMILES IDX 12 14 13 15 15 16 16 17 5 18 17 20 14 22
REMARK H PARENT 5 19 17 21 14 23
REMARK Flexibility Score: inf
ROOT
ATOM      1  C   UNL     1       4.465  49.408 277.707  1.00  0.00     0.044 C 
ATOM      2  C   UNL     1       4.303  49.453 279.199  1.00  0.00    -0.047 A 
ATOM      3  C   UNL     1       4.085  48.274 279.919  1.00  0.00     0.016 A 
ATOM      4  C   UNL     1       3.890  48.311 281.310  1.00  0.00     0.038 A 
ATOM      5  C   UNL     1       3.885  49.551 281.987  1.00  0.00     0.076 A 
ATOM      6  C   UNL     1       4.153  50.738 281.258  1.00  0.00     0.127 A 
ATOM      7  C   UNL     1       4.325  50.679 279.872  1.00  0.00     0.050 A 
ATOM      8  C   UNL     1       3.528  49.561 283.430  1.00  0.00     0.201 C 
ATOM      9  O   UNL     1       2.962  50.570 283.929  1.00  0.00    -0.288 OA
ATOM     10  C   UNL     1       3.665  48.319 284.233  1.00  0.00     0.076 A 
ATOM     11  C   UNL     1       3.670  47.080 283.552  1.00  0.00     0.041 A 
ATOM     12  C   UNL     1       3.690  47.054 282.070  1.00  0.00     0.194 C 
ATOM     13  O   UNL     1       3.564  45.959 281.456  1.00  0.00    -0.289 OA
ATOM     14  C   UNL     1       3.658  45.881 284.282  1.00  0.00     0.059 A 
ATOM     15  C   UNL     1       3.659  45.901 285.680  1.00  0.00     0.120 A 
ATOM     16  C   UNL     1       3.696  47.120 286.355  1.00  0.00     0.093 A 
ATOM     17  C   UNL     1       3.728  48.328 285.651  1.00  0.00     0.131 A 
ENDROOT
BRANCH   6  18
ATOM     18  O   UNL     1       4.287  51.987 281.870  1.00  0.00    -0.507 OA
ATOM     19  H   UNL     1       3.781  52.259 282.701  1.00  0.00     0.293 HD
ENDBRANCH   6  18
BRANCH  17  20
ATOM     20  O   UNL     1       3.857  49.504 286.394  1.00  0.00    -0.507 OA
ATOM     21  H   UNL     1       3.845  50.428 285.984  1.00  0.00     0.293 HD
ENDBRANCH  17  20
BRANCH  15  22
ATOM     22  O   UNL     1       3.636  44.713 286.408  1.00  0.00    -0.508 OA
ATOM     23  H   UNL     1       3.439  44.704 287.401  1.00  0.00     0.293 HD
ENDBRANCH  15  22
TORSDOF 3
ENDMDL
MODEL 2
REMARK VINA RESULT:    -5.673      2.894      4.781
REMARK INTER + INTRA:          -6.171
REMARK INTER:                  -6.171
REMARK INTRA:                   0.000
REMARK UNBOUND:                 0.000
REMARK SMILES Cc1cc(O)c2c(c1)C(=O)c1cc(O)cc(O)c1C2=O
REMARK SMILES IDX 1 1 2 2 8 3 7 4 6 5 4 6 3 7 19 8 20 9 18 10 11 11 9 12 10 13
REMARK SMILES IDX 12 14 13 15 15 16 16 17 5 18 17 20 14 22
REMARK H PARENT 5 19 17 21 14 23
REMARK Flexibility Score: inf
ROOT
ATOM      1  C   UNL     1       4.225  55.813 276.752  1.00  0.00     0.044 C 
ATOM      2  C   UNL     1       4.118  54.942 277.970  1.00  0.00    -0.047 A 
ATOM      3  C   UNL     1       4.017  53.553 277.836  1.00  0.00     0.016 A 
ATOM      4  C   UNL     1       3.872  52.734 278.968  1.00  0.00     0.038 A 
ATOM      5  C   UNL     1       3.800  53.316 280.254  1.00  0.00     0.076 A 
ATOM      6  C   UNL     1       3.950  54.720 280.387  1.00  0.00     0.127 A 
ATOM      7  C   UNL     1       4.074  55.518 279.244  1.00  0.00     0.050 A 
ATOM      8  C   UNL     1       3.499  52.430 281.409  1.00  0.00     0.201 C 
ATOM      9  O   UNL     1       2.878  52.888 282.405  1.00  0.00    -0.288 OA
ATOM     10  C   UNL     1       3.760  50.971 281.308  1.00  0.00     0.076 A 
ATOM     11  C   UNL     1       3.831  50.393 280.020  1.00  0.00     0.041 A 
ATOM     12  C   UNL     1       3.796  51.261 278.820  1.00  0.00     0.194 C 
ATOM     13  O   UNL     1       3.730  50.745 277.669  1.00  0.00    -0.289 OA
ATOM     14  C   UNL     1       3.937  48.999 279.885  1.00  0.00     0.059 A 
ATOM     15  C   UNL     1       3.990  48.178 281.015  1.00  0.00     0.120 A 
ATOM     16  C   UNL     1       3.961  48.748 282.287  1.00  0.00     0.093 A 
ATOM     17  C   UNL     1       3.876  50.135 282.449  1.00  0.00     0.131 A 
ENDROOT
BRANCH   6  18
ATOM     18  O   UNL     1       4.013  55.360 281.627  1.00  0.00    -0.507 OA
ATOM     19  H   UNL     1       4.880  55.592 282.092  1.00  0.00     0.293 HD
ENDBRANCH   6  18
BRANCH  17  20
ATOM     20  O   UNL     1       3.943  50.638 283.750  1.00  0.00    -0.507 OA
ATOM     21  H   UNL     1       4.421  51.494 283.994  1.00  0.00     0.293 HD
ENDBRANCH  17  20
BRANCH  15  22
ATOM     22  O   UNL     1       4.084  46.794 280.885  1.00  0.00    -0.508 OA
ATOM     23  H   UNL     1       3.292  46.190 281.068  1.00  0.00     0.293 HD
ENDBRANCH  15  22
TORSDOF 3
ENDMDL
MODEL 3
REMARK VINA RESULT:    -5.615      1.424      6.236
REMARK INTER + INTRA:          -6.108
REMARK INTER:                  -6.108
REMARK INTRA:                   0.000
REMARK UNBOUND:                 0.000
REMARK SMILES Cc1cc(O)c2c(c1)C(=O)c1cc(O)cc(O)c1C2=O
REMARK SMILES IDX 1 1 2 2 8 3 7 4 6 5 4 6 3 7 19 8 20 9 18 10 11 11 9 12 10 13
REMARK SMILES IDX 12 14 13 15 15 16 16 17 5 18 17 20 14 22
REMARK H PARENT 5 19 17 21 14 23
REMARK Flexibility Score: inf
ROOT
ATOM      1  C   UNL     1       3.301  45.834 286.964  1.00  0.00     0.044 C 
ATOM      2  C   UNL     1       3.428  46.249 285.527  1.00  0.00    -0.047 A 
ATOM      3  C   UNL     1       3.547  47.602 285.193  1.00  0.00     0.016 A 
ATOM      4  C   UNL     1       3.623  48.003 283.849  1.00  0.00     0.038 A 
ATOM      5  C   UNL     1       3.552  47.036 282.820  1.00  0.00     0.076 A 
ATOM      6  C   UNL     1       3.479  45.663 283.166  1.00  0.00     0.127 A 
ATOM      7  C   UNL     1       3.385  45.288 284.511  1.00  0.00     0.050 A 
ATOM      8  C   UNL     1       3.487  47.512 281.413  1.00  0.00     0.201 C 
ATOM      9  O   UNL     1       2.875  46.830 280.549  1.00  0.00    -0.288 OA
ATOM     10  C   UNL     1       3.975  48.872 281.071  1.00  0.00     0.076 A 
ATOM     11  C   UNL     1       4.045  49.837 282.102  1.00  0.00     0.041 A 
ATOM     12  C   UNL     1       3.779  49.436 283.504  1.00  0.00     0.194 C 
ATOM     13  O   UNL     1       3.713  50.314 284.410  1.00  0.00    -0.289 OA
ATOM     14  C   UNL     1       4.368  51.168 281.793  1.00  0.00     0.059 A 
ATOM     15  C   UNL     1       4.639  51.545 280.475  1.00  0.00     0.120 A 
ATOM     16  C   UNL     1       4.611  50.589 279.461  1.00  0.00     0.093 A 
ATOM     17  C   UNL     1       4.312  49.253 279.746  1.00  0.00     0.131 A 
ENDROOT
BRANCH   6  18
ATOM     18  O   UNL     1       3.529  44.640 282.216  1.00  0.00    -0.507 OA
ATOM     19  H   UNL     1       2.803  43.946 282.104  1.00  0.00     0.293 HD
ENDBRANCH   6  18
BRANCH  17  20
ATOM     20  O   UNL     1       4.393  48.336 278.694  1.00  0.00    -0.507 OA
ATOM     21  H   UNL     1       4.925  47.478 278.740  1.00  0.00     0.293 HD
ENDBRANCH  17  20
BRANCH  15  22
ATOM     22  O   UNL     1       4.948  52.868 280.164  1.00  0.00    -0.508 OA
ATOM     23  H   UNL     1       4.868  53.607 280.852  1.00  0.00     0.293 HD
ENDBRANCH  15  22
TORSDOF 3
ENDMDL
MODEL 4
REMARK VINA RESULT:    -5.402      1.424      5.551
REMARK INTER + INTRA:          -5.876
REMARK INTER:                  -5.876
REMARK INTRA:                   0.000
REMARK UNBOUND:                 0.000
REMARK SMILES Cc1cc(O)c2c(c1)C(=O)c1cc(O)cc(O)c1C2=O
REMARK SMILES IDX 1 1 2 2 8 3 7 4 6 5 4 6 3 7 19 8 20 9 18 10 11 11 9 12 10 13
REMARK SMILES IDX 12 14 13 15 15 16 16 17 5 18 17 20 14 22
REMARK H PARENT 5 19 17 21 14 23
REMARK Flexibility Score: inf
ROOT
ATOM      1  C   UNL     1       2.879  43.949 286.824  1.00  0.00     0.044 C 
ATOM      2  C   UNL     1       3.060  45.275 286.145  1.00  0.00    -0.047 A 
ATOM      3  C   UNL     1       3.371  45.332 284.782  1.00  0.00     0.016 A 
ATOM      4  C   UNL     1       3.585  46.567 284.148  1.00  0.00     0.038 A 
ATOM      5  C   UNL     1       3.512  47.764 284.895  1.00  0.00     0.076 A 
ATOM      6  C   UNL     1       3.150  47.703 286.265  1.00  0.00     0.127 A 
ATOM      7  C   UNL     1       2.961  46.461 286.880  1.00  0.00     0.050 A 
ATOM      8  C   UNL     1       3.890  49.035 284.222  1.00  0.00     0.201 C 
ATOM      9  O   UNL     1       4.391  49.975 284.895  1.00  0.00    -0.288 OA
ATOM     10  C   UNL     1       3.853  49.124 282.740  1.00  0.00     0.076 A 
ATOM     11  C   UNL     1       3.926  47.924 281.996  1.00  0.00     0.041 A 
ATOM     12  C   UNL     1       3.885  46.619 282.697  1.00  0.00     0.194 C 
ATOM     13  O   UNL     1       4.079  45.551 282.053  1.00  0.00    -0.289 OA
ATOM     14  C   UNL     1       4.034  47.976 280.597  1.00  0.00     0.059 A 
ATOM     15  C   UNL     1       4.052  49.204 279.931  1.00  0.00     0.120 A 
ATOM     16  C   UNL     1       3.939  50.388 280.657  1.00  0.00     0.093 A 
ATOM     17  C   UNL     1       3.811  50.364 282.050  1.00  0.00     0.131 A 
ENDROOT
BRANCH   6  18
ATOM     18  O   UNL     1       2.937  48.844 287.042  1.00  0.00    -0.507 OA
ATOM     19  H   UNL     1       3.247  49.768 286.774  1.00  0.00     0.293 HD
ENDBRANCH   6  18
BRANCH  17  20
ATOM     20  O   UNL     1       3.611  51.584 282.701  1.00  0.00    -0.507 OA
ATOM     21  H   UNL     1       3.955  52.467 282.350  1.00  0.00     0.293 HD
ENDBRANCH  17  20
BRANCH  15  22
ATOM     22  O   UNL     1       4.171  49.258 278.543  1.00  0.00    -0.508 OA
ATOM     23  H   UNL     1       3.369  49.430 277.949  1.00  0.00     0.293 HD
ENDBRANCH  15  22
TORSDOF 3
ENDMDL
MODEL 5
REMARK VINA RESULT:    -5.208      1.691      6.448
REMARK INTER + INTRA:          -5.665
REMARK INTER:                  -5.665
REMARK INTRA:                   0.000
REMARK UNBOUND:                 0.000
REMARK SMILES Cc1cc(O)c2c(c1)C(=O)c1cc(O)cc(O)c1C2=O
REMARK SMILES IDX 1 1 2 2 8 3 7 4 6 5 4 6 3 7 19 8 20 9 18 10 11 11 9 12 10 13
REMARK SMILES IDX 12 14 13 15 15 16 16 17 5 18 17 20 14 22
REMARK H PARENT 5 19 17 21 14 23
REMARK Flexibility Score: inf
ROOT
ATOM      1  C   UNL     1       3.036  48.876 287.180  1.00  0.00     0.044 C 
ATOM      2  C   UNL     1       3.274  48.746 285.704  1.00  0.00    -0.047 A 
ATOM      3  C   UNL     1       3.200  49.873 284.877  1.00  0.00     0.016 A 
ATOM      4  C   UNL     1       3.377  49.754 283.489  1.00  0.00     0.038 A 
ATOM      5  C   UNL     1       3.606  48.483 282.914  1.00  0.00     0.076 A 
ATOM      6  C   UNL     1       3.726  47.353 283.762  1.00  0.00     0.127 A 
ATOM      7  C   UNL     1       3.526  47.492 285.139  1.00  0.00     0.050 A 
ATOM      8  C   UNL     1       3.640  48.379 281.432  1.00  0.00     0.201 C 
ATOM      9  O   UNL     1       3.270  47.314 280.869  1.00  0.00    -0.288 OA
ATOM     10  C   UNL     1       3.927  49.586 280.614  1.00  0.00     0.076 A 
ATOM     11  C   UNL     1       3.697  50.855 281.192  1.00  0.00     0.041 A 
ATOM     12  C   UNL     1       3.327  50.957 282.624  1.00  0.00     0.194 C 
ATOM     13  O   UNL     1       2.996  52.072 283.112  1.00  0.00    -0.289 OA
ATOM     14  C   UNL     1       3.824  52.013 280.408  1.00  0.00     0.059 A 
ATOM     15  C   UNL     1       4.192  51.923 279.063  1.00  0.00     0.120 A 
ATOM     16  C   UNL     1       4.459  50.676 278.500  1.00  0.00     0.093 A 
ATOM     17  C   UNL     1       4.360  49.509 279.265  1.00  0.00     0.131 A 
ENDROOT
BRANCH   6  18
ATOM     18  O   UNL     1       4.072  46.085 283.287  1.00  0.00    -0.507 OA
ATOM     19  H   UNL     1       4.689  45.932 282.502  1.00  0.00     0.293 HD
ENDBRANCH   6  18
BRANCH  17  20
ATOM     20  O   UNL     1       4.731  48.307 278.657  1.00  0.00    -0.507 OA
ATOM     21  H   UNL     1       4.699  47.412 279.125  1.00  0.00     0.293 HD
ENDBRANCH  17  20
BRANCH  15  22
ATOM     22  O   UNL     1       4.307  53.070 278.279  1.00  0.00    -0.508 OA
ATOM     23  H   UNL     1       3.917  53.956 278.576  1.00  0.00     0.293 HD
ENDBRANCH  15  22
TORSDOF 3
ENDMDL
MODEL 6
REMARK VINA RESULT:    -5.078      1.452      3.313
REMARK INTER + INTRA:          -5.524
REMARK INTER:                  -5.524
REMARK INTRA:                   0.000
REMARK UNBOUND:                 0.000
REMARK SMILES Cc1cc(O)c2c(c1)C(=O)c1cc(O)cc(O)c1C2=O
REMARK SMILES IDX 1 1 2 2 8 3 7 4 6 5 4 6 3 7 19 8 20 9 18 10 11 11 9 12 10 13
REMARK SMILES IDX 12 14 13 15 15 16 16 17 5 18 17 20 14 22
REMARK H PARENT 5 19 17 21 14 23
REMARK Flexibility Score: inf
ROOT
ATOM      1  C   UNL     1       4.381  52.487 280.867  1.00  0.00     0.044 C 
ATOM      2  C   UNL     1       4.179  51.050 281.250  1.00  0.00    -0.047 A 
ATOM      3  C   UNL     1       4.164  50.676 282.598  1.00  0.00     0.016 A 
ATOM      4  C   UNL     1       4.019  49.327 282.965  1.00  0.00     0.038 A 
ATOM      5  C   UNL     1       3.914  48.333 281.966  1.00  0.00     0.076 A 
ATOM      6  C   UNL     1       3.883  48.724 280.603  1.00  0.00     0.127 A 
ATOM      7  C   UNL     1       4.048  50.070 280.261  1.00  0.00     0.050 A 
ATOM      8  C   UNL     1       3.912  46.909 282.391  1.00  0.00     0.201 C 
ATOM      9  O   UNL     1       4.385  46.026 281.627  1.00  0.00    -0.288 OA
ATOM     10  C   UNL     1       3.531  46.555 283.783  1.00  0.00     0.076 A 
ATOM     11  C   UNL     1       3.637  47.552 284.779  1.00  0.00     0.041 A 
ATOM     12  C   UNL     1       3.975  48.943 284.396  1.00  0.00     0.194 C 
ATOM     13  O   UNL     1       4.197  49.807 285.289  1.00  0.00    -0.289 OA
ATOM     14  C   UNL     1       3.419  47.219 286.126  1.00  0.00     0.059 A 
ATOM     15  C   UNL     1       3.081  45.913 286.489  1.00  0.00     0.120 A 
ATOM     16  C   UNL     1       2.936  44.936 285.505  1.00  0.00     0.093 A 
ATOM     17  C   UNL     1       3.128  45.246 284.155  1.00  0.00     0.131 A 
ENDROOT
BRANCH   6  18
ATOM     18  O   UNL     1       3.659  47.818 279.563  1.00  0.00    -0.507 OA
ATOM     19  H   UNL     1       4.346  47.602 278.853  1.00  0.00     0.293 HD
ENDBRANCH   6  18
BRANCH  17  20
ATOM     20  O   UNL     1       2.875  44.239 283.220  1.00  0.00    -0.507 OA
ATOM     21  H   UNL     1       2.466  44.409 282.312  1.00  0.00     0.293 HD
ENDBRANCH  17  20
BRANCH  15  22
ATOM     22  O   UNL     1       2.876  45.577 287.826  1.00  0.00    -0.508 OA
ATOM     23  H   UNL     1       3.652  45.405 288.454  1.00  0.00     0.293 HD
ENDBRANCH  15  22
TORSDOF 3
ENDMDL
MODEL 7
REMARK VINA RESULT:    -4.667      1.775      5.425
REMARK INTER + INTRA:          -5.076
REMARK INTER:                  -5.076
REMARK INTRA:                   0.000
REMARK UNBOUND:                 0.000
REMARK SMILES Cc1cc(O)c2c(c1)C(=O)c1cc(O)cc(O)c1C2=O
REMARK SMILES IDX 1 1 2 2 8 3 7 4 6 5 4 6 3 7 19 8 20 9 18 10 11 11 9 12 10 13
REMARK SMILES IDX 12 14 13 15 15 16 16 17 5 18 17 20 14 22
REMARK H PARENT 5 19 17 21 14 23
REMARK Flexibility Score: inf
ROOT
ATOM      1  C   UNL     1       3.515  44.147 282.392  1.00  0.00     0.044 C 
ATOM      2  C   UNL     1       3.459  45.630 282.617  1.00  0.00    -0.047 A 
ATOM      3  C   UNL     1       3.675  46.512 281.553  1.00  0.00     0.016 A 
ATOM      4  C   UNL     1       3.667  47.901 281.763  1.00  0.00     0.038 A 
ATOM      5  C   UNL     1       3.468  48.416 283.064  1.00  0.00     0.076 A 
ATOM      6  C   UNL     1       3.203  47.518 284.129  1.00  0.00     0.127 A 
ATOM      7  C   UNL     1       3.235  46.139 283.901  1.00  0.00     0.050 A 
ATOM      8  C   UNL     1       3.614  49.881 283.269  1.00  0.00     0.201 C 
ATOM      9  O   UNL     1       4.014  50.321 284.379  1.00  0.00    -0.288 OA
ATOM     10  C   UNL     1       3.473  50.805 282.114  1.00  0.00     0.076 A 
ATOM     11  C   UNL     1       3.674  50.287 280.815  1.00  0.00     0.041 A 
ATOM     12  C   UNL     1       3.866  48.830 280.624  1.00  0.00     0.194 C 
ATOM     13  O   UNL     1       4.173  48.377 279.487  1.00  0.00    -0.289 OA
ATOM     14  C   UNL     1       3.687  51.155 279.711  1.00  0.00     0.059 A 
ATOM     15  C   UNL     1       3.485  52.527 279.884  1.00  0.00     0.120 A 
ATOM     16  C   UNL     1       3.247  53.036 281.159  1.00  0.00     0.093 A 
ATOM     17  C   UNL     1       3.210  52.191 282.273  1.00  0.00     0.131 A 
ENDROOT
BRANCH   6  18
ATOM     18  O   UNL     1       2.875  47.949 285.417  1.00  0.00    -0.507 OA
ATOM     19  H   UNL     1       3.331  48.723 285.880  1.00  0.00     0.293 HD
ENDBRANCH   6  18
BRANCH  17  20
ATOM     20  O   UNL     1       2.875  52.760 283.504  1.00  0.00    -0.507 OA
ATOM     21  H   UNL     1       2.313  52.293 284.201  1.00  0.00     0.293 HD
ENDBRANCH  17  20
BRANCH  15  22
ATOM     22  O   UNL     1       3.509  53.392 278.792  1.00  0.00    -0.508 OA
ATOM     23  H   UNL     1       2.655  53.748 278.380  1.00  0.00     0.293 HD
ENDBRANCH  15  22
TORSDOF 3
ENDMDL
MODEL 8
REMARK VINA RESULT:    -4.098      2.235      4.144
REMARK INTER + INTRA:          -4.457
REMARK INTER:                  -4.457
REMARK INTRA:                   0.000
REMARK UNBOUND:                 0.000
REMARK SMILES Cc1cc(O)c2c(c1)C(=O)c1cc(O)cc(O)c1C2=O
REMARK SMILES IDX 1 1 2 2 8 3 7 4 6 5 4 6 3 7 19 8 20 9 18 10 11 11 9 12 10 13
REMARK SMILES IDX 12 14 13 15 15 16 16 17 5 18 17 20 14 22
REMARK H PARENT 5 19 17 21 14 23
REMARK Flexibility Score: inf
ROOT
ATOM      1  C   UNL     1       2.876  54.698 278.362  1.00  0.00     0.044 C 
ATOM      2  C   UNL     1       3.083  53.275 278.793  1.00  0.00    -0.047 A 
ATOM      3  C   UNL     1       3.105  52.946 280.152  1.00  0.00     0.016 A 
ATOM      4  C   UNL     1       3.342  51.625 280.565  1.00  0.00     0.038 A 
ATOM      5  C   UNL     1       3.587  50.620 279.603  1.00  0.00     0.076 A 
ATOM      6  C   UNL     1       3.516  50.949 278.225  1.00  0.00     0.127 A 
ATOM      7  C   UNL     1       3.298  52.276 277.838  1.00  0.00     0.050 A 
ATOM      8  C   UNL     1       3.978  49.268 280.083  1.00  0.00     0.201 C 
ATOM      9  O   UNL     1       4.729  48.545 279.376  1.00  0.00    -0.288 OA
ATOM     10  C   UNL     1       3.642  48.852 281.469  1.00  0.00     0.076 A 
ATOM     11  C   UNL     1       3.398  49.861 282.429  1.00  0.00     0.041 A 
ATOM     12  C   UNL     1       3.334  51.280 282.007  1.00  0.00     0.194 C 
ATOM     13  O   UNL     1       3.245  52.193 282.874  1.00  0.00    -0.289 OA
ATOM     14  C   UNL     1       3.215  49.512 283.778  1.00  0.00     0.059 A 
ATOM     15  C   UNL     1       3.255  48.174 284.177  1.00  0.00     0.120 A 
ATOM     16  C   UNL     1       3.455  47.173 283.226  1.00  0.00     0.093 A 
ATOM     17  C   UNL     1       3.620  47.492 281.875  1.00  0.00     0.131 A 
ENDROOT
BRANCH   6  18
ATOM     18  O   UNL     1       3.624  49.993 277.212  1.00  0.00    -0.507 OA
ATOM     19  H   UNL     1       3.101  49.128 277.203  1.00  0.00     0.293 HD
ENDBRANCH   6  18
BRANCH  17  20
ATOM     20  O   UNL     1       3.724  46.433 280.970  1.00  0.00    -0.507 OA
ATOM     21  H   UNL     1       4.605  46.052 280.654  1.00  0.00     0.293 HD
ENDBRANCH  17  20
BRANCH  15  22
ATOM     22  O   UNL     1       3.085  47.825 285.515  1.00  0.00    -0.508 OA
ATOM     23  H   UNL     1       2.407  47.129 285.799  1.00  0.00     0.293 HD
ENDBRANCH  15  22
TORSDOF 3
ENDMDL
MODEL 9
REMARK VINA RESULT:    -3.302      1.437      3.398
REMARK INTER + INTRA:          -3.592
REMARK INTER:                  -3.592
REMARK INTRA:                   0.000
REMARK UNBOUND:                 0.000
REMARK SMILES Cc1cc(O)c2c(c1)C(=O)c1cc(O)cc(O)c1C2=O
REMARK SMILES IDX 1 1 2 2 8 3 7 4 6 5 4 6 3 7 19 8 20 9 18 10 11 11 9 12 10 13
REMARK SMILES IDX 12 14 13 15 15 16 16 17 5 18 17 20 14 22
REMARK H PARENT 5 19 17 21 14 23
REMARK Flexibility Score: inf
ROOT
ATOM      1  C   UNL     1       3.047  51.377 278.861  1.00  0.00     0.044 C 
ATOM      2  C   UNL     1       3.104  50.392 279.992  1.00  0.00    -0.047 A 
ATOM      3  C   UNL     1       3.176  50.842 281.315  1.00  0.00     0.016 A 
ATOM      4  C   UNL     1       3.274  49.928 282.377  1.00  0.00     0.038 A 
ATOM      5  C   UNL     1       3.328  48.542 282.110  1.00  0.00     0.076 A 
ATOM      6  C   UNL     1       3.208  48.090 280.771  1.00  0.00     0.127 A 
ATOM      7  C   UNL     1       3.131  49.018 279.728  1.00  0.00     0.050 A 
ATOM      8  C   UNL     1       3.580  47.617 283.247  1.00  0.00     0.201 C 
ATOM      9  O   UNL     1       4.187  46.531 283.049  1.00  0.00    -0.288 OA
ATOM     10  C   UNL     1       3.288  48.058 284.635  1.00  0.00     0.076 A 
ATOM     11  C   UNL     1       3.234  49.446 284.898  1.00  0.00     0.041 A 
ATOM     12  C   UNL     1       3.319  50.412 283.777  1.00  0.00     0.194 C 
ATOM     13  O   UNL     1       3.401  51.649 284.015  1.00  0.00    -0.289 OA
ATOM     14  C   UNL     1       3.099  49.902 286.219  1.00  0.00     0.059 A 
ATOM     15  C   UNL     1       2.999  48.994 287.277  1.00  0.00     0.120 A 
ATOM     16  C   UNL     1       3.010  47.624 287.017  1.00  0.00     0.093 A 
ATOM     17  C   UNL     1       3.124  47.145 285.708  1.00  0.00     0.131 A 
ENDROOT
BRANCH   6  18
ATOM     18  O   UNL     1       3.129  46.736 280.433  1.00  0.00    -0.507 OA
ATOM     19  H   UNL     1       2.728  46.032 281.038  1.00  0.00     0.293 HD
ENDBRANCH   6  18
BRANCH  17  20
ATOM     20  O   UNL     1       3.036  45.763 285.518  1.00  0.00    -0.507 OA
ATOM     21  H   UNL     1       2.524  45.146 286.133  1.00  0.00     0.293 HD
ENDBRANCH  17  20
BRANCH  15  22
ATOM     22  O   UNL     1       2.876  49.443 288.590  1.00  0.00    -0.508 OA
ATOM     23  H   UNL     1       3.319  50.299 288.901  1.00  0.00     0.293 HD
ENDBRANCH  15  22
TORSDOF 3
ENDMDL
