MODEL 1
REMARK VINA RESULT:    -5.067      0.000      0.000
REMARK INTER + INTRA:          -5.215
REMARK INTER:                  -5.215
REMARK INTRA:                   0.000
REMARK UNBOUND:                 0.000
REMARK SMILES Nc1ncnc2nc[nH]c12
REMARK SMILES IDX 8 1 7 2 6 3 5 4 4 5 3 6 2 7 10 8 9 9 1 11
REMARK H PARENT 9 10 1 12 1 13
REMARK Flexibility Score: inf
ROOT
ATOM      1  C   UNL     1     -15.654 -37.118 -15.411  1.00  0.00     0.199 A 
ATOM      2  N   UNL     1     -14.946 -37.090 -14.250  1.00  0.00    -0.217 NA
ATOM      3  C   UNL     1     -15.917 -37.065 -13.322  1.00  0.00     0.182 A 
ATOM      4  N   UNL     1     -15.751 -37.031 -11.978  1.00  0.00    -0.215 NA
ATOM      5  C   UNL     1     -16.868 -37.009 -11.191  1.00  0.00     0.226 A 
ATOM      6  N   UNL     1     -18.118 -37.020 -11.755  1.00  0.00    -0.217 NA
ATOM      7  C   UNL     1     -18.288 -37.054 -13.110  1.00  0.00     0.152 A 
ATOM      8  C   UNL     1     -17.141 -37.077 -13.899  1.00  0.00     0.127 A 
ATOM      9  N   UNL     1     -17.000 -37.111 -15.230  1.00  0.00    -0.340 N 
ATOM     10  H   UNL     1     -17.740 -37.129 -15.965  1.00  0.00     0.168 HD
ENDROOT
BRANCH   7  11
ATOM     11  N   UNL     1     -19.600 -37.066 -13.676  1.00  0.00    -0.382 N 
ATOM     12  H   UNL     1     -19.786 -36.562 -14.572  1.00  0.00     0.158 HD
ATOM     13  H   UNL     1     -20.388 -37.570 -13.214  1.00  0.00     0.158 HD
ENDBRANCH   7  11
TORSDOF 1
ENDMDL
MODEL 2
REMARK VINA RESULT:    -4.965      0.978      3.068
REMARK INTER + INTRA:          -5.110
REMARK INTER:                  -5.110
REMARK INTRA:                   0.000
REMARK UNBOUND:                 0.000
REMARK SMILES Nc1ncnc2nc[nH]c12
REMARK SMILES IDX 8 1 7 2 6 3 5 4 4 5 3 6 2 7 10 8 9 9 1 11
REMARK H PARENT 9 10 1 12 1 13
REMARK Flexibility Score: inf
ROOT
ATOM      1  C   UNL     1     -17.248 -36.716  -9.902  1.00  0.00     0.199 A 
ATOM      2  N   UNL     1     -15.986 -36.737 -10.408  1.00  0.00    -0.217 NA
ATOM      3  C   UNL     1     -16.208 -36.855 -11.727  1.00  0.00     0.182 A 
ATOM      4  N   UNL     1     -15.270 -36.922 -12.702  1.00  0.00    -0.215 NA
ATOM      5  C   UNL     1     -15.693 -37.041 -13.997  1.00  0.00     0.226 A 
ATOM      6  N   UNL     1     -17.032 -37.091 -14.290  1.00  0.00    -0.217 NA
ATOM      7  C   UNL     1     -17.979 -37.023 -13.309  1.00  0.00     0.152 A 
ATOM      8  C   UNL     1     -17.533 -36.902 -11.995  1.00  0.00     0.127 A 
ATOM      9  N   UNL     1     -18.218 -36.815 -10.848  1.00  0.00    -0.340 N 
ATOM     10  H   UNL     1     -19.250 -36.821 -10.702  1.00  0.00     0.168 HD
ENDROOT
BRANCH   7  11
ATOM     11  N   UNL     1     -19.368 -37.076 -13.638  1.00  0.00    -0.382 N 
ATOM     12  H   UNL     1     -20.060 -37.409 -12.930  1.00  0.00     0.158 HD
ATOM     13  H   UNL     1     -19.717 -36.788 -14.578  1.00  0.00     0.158 HD
ENDBRANCH   7  11
TORSDOF 1
ENDMDL
MODEL 3
REMARK VINA RESULT:    -4.954      1.601      3.622
REMARK INTER + INTRA:          -5.099
REMARK INTER:                  -5.099
REMARK INTRA:                   0.000
REMARK UNBOUND:                 0.000
REMARK SMILES Nc1ncnc2nc[nH]c12
REMARK SMILES IDX 8 1 7 2 6 3 5 4 4 5 3 6 2 7 10 8 9 9 1 11
REMARK H PARENT 9 10 1 12 1 13
REMARK Flexibility Score: inf
ROOT
ATOM      1  C   UNL     1     -17.752 -36.750 -13.822  1.00  0.00     0.199 A 
ATOM      2  N   UNL     1     -16.675 -37.125 -13.079  1.00  0.00    -0.217 NA
ATOM      3  C   UNL     1     -15.655 -36.910 -13.926  1.00  0.00     0.182 A 
ATOM      4  N   UNL     1     -14.341 -37.125 -13.680  1.00  0.00    -0.215 NA
ATOM      5  C   UNL     1     -13.444 -36.844 -14.673  1.00  0.00     0.226 A 
ATOM      6  N   UNL     1     -13.873 -36.358 -15.881  1.00  0.00    -0.217 NA
ATOM      7  C   UNL     1     -15.198 -36.140 -16.132  1.00  0.00     0.152 A 
ATOM      8  C   UNL     1     -16.099 -36.431 -15.111  1.00  0.00     0.127 A 
ATOM      9  N   UNL     1     -17.433 -36.320 -15.069  1.00  0.00    -0.340 N 
ATOM     10  H   UNL     1     -18.083 -35.985 -15.812  1.00  0.00     0.168 HD
ENDROOT
BRANCH   7  11
ATOM     11  N   UNL     1     -15.622 -35.633 -17.399  1.00  0.00    -0.382 N 
ATOM     12  H   UNL     1     -15.638 -34.603 -17.569  1.00  0.00     0.158 HD
ATOM     13  H   UNL     1     -15.921 -36.271 -18.168  1.00  0.00     0.158 HD
ENDBRANCH   7  11
TORSDOF 1
ENDMDL
MODEL 4
REMARK VINA RESULT:    -4.916      1.256      1.584
REMARK INTER + INTRA:          -5.059
REMARK INTER:                  -5.059
REMARK INTRA:                   0.000
REMARK UNBOUND:                 0.000
REMARK SMILES Nc1ncnc2nc[nH]c12
REMARK SMILES IDX 8 1 7 2 6 3 5 4 4 5 3 6 2 7 10 8 9 9 1 11
REMARK H PARENT 9 10 1 12 1 13
REMARK Flexibility Score: inf
ROOT
ATOM      1  C   UNL     1     -15.261 -36.005 -16.610  1.00  0.00     0.199 A 
ATOM      2  N   UNL     1     -14.289 -36.224 -15.684  1.00  0.00    -0.217 NA
ATOM      3  C   UNL     1     -15.002 -36.530 -14.587  1.00  0.00     0.182 A 
ATOM      4  N   UNL     1     -14.511 -36.840 -13.364  1.00  0.00    -0.215 NA
ATOM      5  C   UNL     1     -15.400 -37.125 -12.365  1.00  0.00     0.226 A 
ATOM      6  N   UNL     1     -16.750 -37.095 -12.605  1.00  0.00    -0.217 NA
ATOM      7  C   UNL     1     -17.248 -36.783 -13.838  1.00  0.00     0.152 A 
ATOM      8  C   UNL     1     -16.330 -36.496 -14.845  1.00  0.00     0.127 A 
ATOM      9  N   UNL     1     -16.521 -36.163 -16.128  1.00  0.00    -0.340 N 
ATOM     10  H   UNL     1     -17.418 -36.049 -16.646  1.00  0.00     0.168 HD
ENDROOT
BRANCH   7  11
ATOM     11  N   UNL     1     -18.658 -36.758 -14.065  1.00  0.00    -0.382 N 
ATOM     12  H   UNL     1     -19.132 -35.859 -14.305  1.00  0.00     0.158 HD
ATOM     13  H   UNL     1     -19.236 -37.624 -13.997  1.00  0.00     0.158 HD
ENDBRANCH   7  11
TORSDOF 1
ENDMDL
MODEL 5
REMARK VINA RESULT:    -4.683      2.370      3.845
REMARK INTER + INTRA:          -4.820
REMARK INTER:                  -4.820
REMARK INTRA:                   0.000
REMARK UNBOUND:                 0.000
REMARK SMILES Nc1ncnc2nc[nH]c12
REMARK SMILES IDX 8 1 7 2 6 3 5 4 4 5 3 6 2 7 10 8 9 9 1 11
REMARK H PARENT 9 10 1 12 1 13
REMARK Flexibility Score: inf
ROOT
ATOM      1  C   UNL     1     -18.123 -37.125 -12.164  1.00  0.00     0.199 A 
ATOM      2  N   UNL     1     -16.765 -37.113 -12.070  1.00  0.00    -0.217 NA
ATOM      3  C   UNL     1     -16.571 -36.805 -10.777  1.00  0.00     0.182 A 
ATOM      4  N   UNL     1     -15.379 -36.664 -10.149  1.00  0.00    -0.215 NA
ATOM      5  C   UNL     1     -15.384 -36.346  -8.820  1.00  0.00     0.226 A 
ATOM      6  N   UNL     1     -16.568 -36.176  -8.148  1.00  0.00    -0.217 NA
ATOM      7  C   UNL     1     -17.771 -36.318  -8.779  1.00  0.00     0.152 A 
ATOM      8  C   UNL     1     -17.751 -36.642 -10.133  1.00  0.00     0.127 A 
ATOM      9  N   UNL     1     -18.754 -36.841 -10.996  1.00  0.00    -0.340 N 
ATOM     10  H   UNL     1     -19.782 -36.792 -10.825  1.00  0.00     0.168 HD
ENDROOT
BRANCH   7  11
ATOM     11  N   UNL     1     -18.992 -36.137  -8.060  1.00  0.00    -0.382 N 
ATOM     12  H   UNL     1     -19.245 -35.193  -7.689  1.00  0.00     0.158 HD
ATOM     13  H   UNL     1     -19.647 -36.931  -7.891  1.00  0.00     0.158 HD
ENDBRANCH   7  11
TORSDOF 1
ENDMDL
MODEL 6
REMARK VINA RESULT:    -4.596      1.259      3.854
REMARK INTER + INTRA:          -4.730
REMARK INTER:                  -4.730
REMARK INTRA:                   0.000
REMARK UNBOUND:                 0.000
REMARK SMILES Nc1ncnc2nc[nH]c12
REMARK SMILES IDX 8 1 7 2 6 3 5 4 4 5 3 6 2 7 10 8 9 9 1 11
REMARK H PARENT 9 10 1 12 1 13
REMARK Flexibility Score: inf
ROOT
ATOM      1  C   UNL     1     -16.747 -36.530  -9.686  1.00  0.00     0.199 A 
ATOM      2  N   UNL     1     -18.008 -36.763 -10.140  1.00  0.00    -0.217 NA
ATOM      3  C   UNL     1     -17.824 -36.846 -11.468  1.00  0.00     0.182 A 
ATOM      4  N   UNL     1     -18.776 -37.072 -12.404  1.00  0.00    -0.215 NA
ATOM      5  C   UNL     1     -18.393 -37.124 -13.715  1.00  0.00     0.226 A 
ATOM      6  N   UNL     1     -17.078 -36.949 -14.063  1.00  0.00    -0.217 NA
ATOM      7  C   UNL     1     -16.115 -36.722 -13.121  1.00  0.00     0.152 A 
ATOM      8  C   UNL     1     -16.521 -36.673 -11.790  1.00  0.00     0.127 A 
ATOM      9  N   UNL     1     -15.815 -36.469 -10.671  1.00  0.00    -0.340 N 
ATOM     10  H   UNL     1     -14.791 -36.302 -10.567  1.00  0.00     0.168 HD
ENDROOT
BRANCH   7  11
ATOM     11  N   UNL     1     -14.751 -36.544 -13.506  1.00  0.00    -0.382 N 
ATOM     12  H   UNL     1     -14.086 -37.348 -13.458  1.00  0.00     0.158 HD
ATOM     13  H   UNL     1     -14.395 -35.621 -13.838  1.00  0.00     0.158 HD
ENDBRANCH   7  11
TORSDOF 1
ENDMDL
MODEL 7
REMARK VINA RESULT:    -4.471      1.100      2.496
REMARK INTER + INTRA:          -4.602
REMARK INTER:                  -4.602
REMARK INTRA:                   0.000
REMARK UNBOUND:                 0.000
REMARK SMILES Nc1ncnc2nc[nH]c12
REMARK SMILES IDX 8 1 7 2 6 3 5 4 4 5 3 6 2 7 10 8 9 9 1 11
REMARK H PARENT 9 10 1 12 1 13
REMARK Flexibility Score: inf
ROOT
ATOM      1  C   UNL     1     -14.826 -36.461 -14.342  1.00  0.00     0.199 A 
ATOM      2  N   UNL     1     -16.034 -36.641 -14.943  1.00  0.00    -0.217 NA
ATOM      3  C   UNL     1     -16.857 -36.789 -13.892  1.00  0.00     0.182 A 
ATOM      4  N   UNL     1     -18.195 -36.999 -13.935  1.00  0.00    -0.215 NA
ATOM      5  C   UNL     1     -18.867 -37.125 -12.752  1.00  0.00     0.226 A 
ATOM      6  N   UNL     1     -18.197 -37.041 -11.558  1.00  0.00    -0.217 NA
ATOM      7  C   UNL     1     -16.848 -36.828 -11.511  1.00  0.00     0.152 A 
ATOM      8  C   UNL     1     -16.177 -36.702 -12.725  1.00  0.00     0.127 A 
ATOM      9  N   UNL     1     -14.881 -36.493 -12.986  1.00  0.00    -0.340 N 
ATOM     10  H   UNL     1     -14.090 -36.380 -12.315  1.00  0.00     0.168 HD
ENDROOT
BRANCH   7  11
ATOM     11  N   UNL     1     -16.171 -36.743 -10.256  1.00  0.00    -0.382 N 
ATOM     12  H   UNL     1     -16.659 -37.031  -9.379  1.00  0.00     0.158 HD
ATOM     13  H   UNL     1     -15.189 -36.396 -10.190  1.00  0.00     0.158 HD
ENDBRANCH   7  11
TORSDOF 1
ENDMDL
MODEL 8
REMARK VINA RESULT:    -4.459      1.117      2.925
REMARK INTER + INTRA:          -4.589
REMARK INTER:                  -4.589
REMARK INTRA:                   0.000
REMARK UNBOUND:                 0.000
REMARK SMILES Nc1ncnc2nc[nH]c12
REMARK SMILES IDX 8 1 7 2 6 3 5 4 4 5 3 6 2 7 10 8 9 9 1 11
REMARK H PARENT 9 10 1 12 1 13
REMARK Flexibility Score: inf
ROOT
ATOM      1  C   UNL     1     -19.351 -37.063 -13.472  1.00  0.00     0.199 A 
ATOM      2  N   UNL     1     -18.850 -37.125 -12.209  1.00  0.00    -0.217 NA
ATOM      3  C   UNL     1     -17.525 -37.083 -12.424  1.00  0.00     0.182 A 
ATOM      4  N   UNL     1     -16.551 -37.115 -11.483  1.00  0.00    -0.215 NA
ATOM      5  C   UNL     1     -15.250 -37.061 -11.898  1.00  0.00     0.226 A 
ATOM      6  N   UNL     1     -14.949 -36.978 -13.233  1.00  0.00    -0.217 NA
ATOM      7  C   UNL     1     -15.929 -36.944 -14.184  1.00  0.00     0.152 A 
ATOM      8  C   UNL     1     -17.249 -36.999 -13.746  1.00  0.00     0.127 A 
ATOM      9  N   UNL     1     -18.397 -36.985 -14.435  1.00  0.00    -0.340 N 
ATOM     10  H   UNL     1     -18.538 -36.929 -15.466  1.00  0.00     0.168 HD
ENDROOT
BRANCH   7  11
ATOM     11  N   UNL     1     -15.591 -36.856 -15.570  1.00  0.00    -0.382 N 
ATOM     12  H   UNL     1     -16.331 -36.637 -16.274  1.00  0.00     0.158 HD
ATOM     13  H   UNL     1     -14.614 -37.007 -15.903  1.00  0.00     0.158 HD
ENDBRANCH   7  11
TORSDOF 1
ENDMDL
MODEL 9
REMARK VINA RESULT:    -4.177      2.836      4.015
REMARK INTER + INTRA:          -4.299
REMARK INTER:                  -4.299
REMARK INTRA:                   0.000
REMARK UNBOUND:                 0.000
REMARK SMILES Nc1ncnc2nc[nH]c12
REMARK SMILES IDX 8 1 7 2 6 3 5 4 4 5 3 6 2 7 10 8 9 9 1 11
REMARK H PARENT 9 10 1 12 1 13
REMARK Flexibility Score: inf
ROOT
ATOM      1  C   UNL     1     -14.076 -33.664 -13.777  1.00  0.00     0.199 A 
ATOM      2  N   UNL     1     -13.123 -34.364 -14.450  1.00  0.00    -0.217 NA
ATOM      3  C   UNL     1     -13.850 -35.296 -15.089  1.00  0.00     0.182 A 
ATOM      4  N   UNL     1     -13.380 -36.264 -15.912  1.00  0.00    -0.215 NA
ATOM      5  C   UNL     1     -14.280 -37.125 -16.474  1.00  0.00     0.226 A 
ATOM      6  N   UNL     1     -15.620 -37.005 -16.207  1.00  0.00    -0.217 NA
ATOM      7  C   UNL     1     -16.096 -36.029 -15.378  1.00  0.00     0.152 A 
ATOM      8  C   UNL     1     -15.168 -35.159 -14.813  1.00  0.00     0.127 A 
ATOM      9  N   UNL     1     -15.337 -34.126 -13.978  1.00  0.00    -0.340 N 
ATOM     10  H   UNL     1     -16.223 -33.754 -13.572  1.00  0.00     0.168 HD
ENDROOT
BRANCH   7  11
ATOM     11  N   UNL     1     -17.496 -35.922 -15.115  1.00  0.00    -0.382 N 
ATOM     12  H   UNL     1     -18.144 -35.590 -15.863  1.00  0.00     0.158 HD
ATOM     13  H   UNL     1     -17.895 -36.169 -14.183  1.00  0.00     0.158 HD
ENDBRANCH   7  11
TORSDOF 1
ENDMDL
