MODEL 1
REMARK VINA RESULT:    -4.465      0.000      0.000
REMARK INTER + INTRA:          -6.749
REMARK INTER:                  -6.032
REMARK INTRA:                  -0.718
REMARK UNBOUND:                -0.718
REMARK SMILES CC(=O)CCC=C(C)CCC=C(C)C
REMARK SMILES IDX 7 1 6 2 8 3 9 4 10 5 11 6 13 7 12 8 14 9 5 10 4 11 2 12 3 13
REMARK SMILES IDX 1 14
REMARK H PARENT
REMARK Flexibility Score: inf
ROOT
ATOM      1  C   UNL     1      16.694 -44.482  -7.309  1.00  0.00    -0.077 C 
ATOM      2  C   UNL     1      15.600 -45.057  -6.758  1.00  0.00    -0.028 C 
ATOM      3  C   UNL     1      16.713 -43.025  -7.710  1.00  0.00     0.039 C 
ENDROOT
BRANCH   1   4
ATOM      4  C   UNL     1      17.928 -45.326  -7.539  1.00  0.00     0.034 C 
BRANCH   4   5
ATOM      5  C   UNL     1      17.808 -46.125  -8.842  1.00  0.00     0.032 C 
BRANCH   5   6
ATOM      6  C   UNL     1      19.085 -46.041  -9.641  1.00  0.00    -0.028 C 
ATOM      7  C   UNL     1      20.563 -45.345 -11.476  1.00  0.00     0.039 C 
ATOM      8  C   UNL     1      19.238 -45.300 -10.760  1.00  0.00    -0.080 C 
ATOM      9  C   UNL     1      18.131 -44.423 -11.297  1.00  0.00     0.039 C 
ENDBRANCH   5   6
ENDBRANCH   4   5
ENDBRANCH   1   4
BRANCH   2  10
ATOM     10  C   UNL     1      14.320 -44.327  -6.438  1.00  0.00     0.035 C 
BRANCH  10  11
ATOM     11  C   UNL     1      13.310 -44.475  -7.580  1.00  0.00     0.079 C 
BRANCH  11  12
ATOM     12  C   UNL     1      12.576 -43.182  -7.814  1.00  0.00     0.130 C 
ATOM     13  O   UNL     1      13.212 -42.151  -7.976  1.00  0.00    -0.300 OA
ATOM     14  C   UNL     1      11.077 -43.125  -7.839  1.00  0.00     0.087 C 
ENDBRANCH  11  12
ENDBRANCH  10  11
ENDBRANCH   2  10
TORSDOF 6
ENDMDL
MODEL 2
REMARK VINA RESULT:    -4.431      1.247      1.601
REMARK INTER + INTRA:          -6.704
REMARK INTER:                  -6.183
REMARK INTRA:                  -0.520
REMARK UNBOUND:                -0.718
REMARK SMILES CC(=O)CCC=C(C)CCC=C(C)C
REMARK SMILES IDX 7 1 6 2 8 3 9 4 10 5 11 6 13 7 12 8 14 9 5 10 4 11 2 12 3 13
REMARK SMILES IDX 1 14
REMARK H PARENT
REMARK Flexibility Score: inf
ROOT
ATOM      1  C   UNL     1      15.767 -44.413  -6.935  1.00  0.00    -0.077 C 
ATOM      2  C   UNL     1      14.817 -44.287  -7.891  1.00  0.00    -0.028 C 
ATOM      3  C   UNL     1      15.438 -44.312  -5.464  1.00  0.00     0.039 C 
ENDROOT
BRANCH   1   4
ATOM      4  C   UNL     1      17.201 -44.650  -7.355  1.00  0.00     0.034 C 
BRANCH   4   5
ATOM      5  C   UNL     1      17.297 -45.827  -8.332  1.00  0.00     0.032 C 
BRANCH   5   6
ATOM      6  C   UNL     1      18.689 -45.940  -8.900  1.00  0.00    -0.028 C 
ATOM      7  C   UNL     1      20.468 -45.740 -10.584  1.00  0.00     0.039 C 
ATOM      8  C   UNL     1      19.045 -45.528 -10.137  1.00  0.00    -0.080 C 
ATOM      9  C   UNL     1      18.066 -44.850 -11.067  1.00  0.00     0.039 C 
ENDBRANCH   5   6
ENDBRANCH   4   5
ENDBRANCH   1   4
BRANCH   2  10
ATOM     10  C   UNL     1      13.349 -44.087  -7.614  1.00  0.00     0.035 C 
BRANCH  10  11
ATOM     11  C   UNL     1      12.925 -42.651  -7.940  1.00  0.00     0.079 C 
BRANCH  11  12
ATOM     12  C   UNL     1      11.455 -42.589  -8.260  1.00  0.00     0.130 C 
ATOM     13  O   UNL     1      10.690 -43.378  -7.725  1.00  0.00    -0.300 OA
ATOM     14  C   UNL     1      10.907 -41.586  -9.232  1.00  0.00     0.087 C 
ENDBRANCH  11  12
ENDBRANCH  10  11
ENDBRANCH   2  10
TORSDOF 6
ENDMDL
MODEL 3
REMARK VINA RESULT:    -4.414      2.073      3.816
REMARK INTER + INTRA:          -6.679
REMARK INTER:                  -5.891
REMARK INTRA:                  -0.788
REMARK UNBOUND:                -0.718
REMARK SMILES CC(=O)CCC=C(C)CCC=C(C)C
REMARK SMILES IDX 7 1 6 2 8 3 9 4 10 5 11 6 13 7 12 8 14 9 5 10 4 11 2 12 3 13
REMARK SMILES IDX 1 14
REMARK H PARENT
REMARK Flexibility Score: inf
ROOT
ATOM      1  C   UNL     1      13.227 -42.777  -6.592  1.00  0.00    -0.077 C 
ATOM      2  C   UNL     1      12.424 -43.353  -7.517  1.00  0.00    -0.028 C 
ATOM      3  C   UNL     1      12.791 -41.568  -5.799  1.00  0.00     0.039 C 
ENDROOT
BRANCH   1   4
ATOM      4  C   UNL     1      14.605 -43.356  -6.356  1.00  0.00     0.034 C 
BRANCH   4   5
ATOM      5  C   UNL     1      14.678 -44.808  -6.841  1.00  0.00     0.032 C 
BRANCH   5   6
ATOM      6  C   UNL     1      16.112 -45.260  -6.965  1.00  0.00    -0.028 C 
ATOM      7  C   UNL     1      18.237 -45.755  -8.093  1.00  0.00     0.039 C 
ATOM      8  C   UNL     1      16.823 -45.235  -8.112  1.00  0.00    -0.080 C 
ATOM      9  C   UNL     1      16.249 -44.688  -9.399  1.00  0.00     0.039 C 
ENDBRANCH   5   6
ENDBRANCH   4   5
ENDBRANCH   1   4
BRANCH   2  10
ATOM     10  C   UNL     1      11.018 -42.905  -7.825  1.00  0.00     0.035 C 
BRANCH  10  11
ATOM     11  C   UNL     1      10.984 -42.064  -9.106  1.00  0.00     0.079 C 
BRANCH  11  12
ATOM     12  C   UNL     1      10.876 -40.599  -8.778  1.00  0.00     0.130 C 
ATOM     13  O   UNL     1      10.048 -40.226  -7.960  1.00  0.00    -0.300 OA
ATOM     14  C   UNL     1      11.756 -39.581  -9.442  1.00  0.00     0.087 C 
ENDBRANCH  11  12
ENDBRANCH  10  11
ENDBRANCH   2  10
TORSDOF 6
ENDMDL
MODEL 4
REMARK VINA RESULT:    -4.328      2.716      6.550
REMARK INTER + INTRA:          -6.563
REMARK INTER:                  -5.784
REMARK INTRA:                  -0.780
REMARK UNBOUND:                -0.718
REMARK SMILES CC(=O)CCC=C(C)CCC=C(C)C
REMARK SMILES IDX 7 1 6 2 8 3 9 4 10 5 11 6 13 7 12 8 14 9 5 10 4 11 2 12 3 13
REMARK SMILES IDX 1 14
REMARK H PARENT
REMARK Flexibility Score: inf
ROOT
ATOM      1  C   UNL     1      12.258 -42.885  -7.250  1.00  0.00    -0.077 C 
ATOM      2  C   UNL     1      13.256 -43.764  -7.496  1.00  0.00    -0.028 C 
ATOM      3  C   UNL     1      12.459 -41.678  -6.363  1.00  0.00     0.039 C 
ENDROOT
BRANCH   1   4
ATOM      4  C   UNL     1      10.900 -43.124  -7.873  1.00  0.00     0.034 C 
BRANCH   4   5
ATOM      5  C   UNL     1      10.377 -41.852  -8.548  1.00  0.00     0.032 C 
BRANCH   5   6
ATOM      6  C   UNL     1      11.226 -41.490  -9.740  1.00  0.00    -0.028 C 
ATOM      7  C   UNL     1      12.548 -40.041 -11.220  1.00  0.00     0.039 C 
ATOM      8  C   UNL     1      11.749 -40.265  -9.962  1.00  0.00    -0.080 C 
ATOM      9  C   UNL     1      11.569 -39.128  -8.982  1.00  0.00     0.039 C 
ENDBRANCH   5   6
ENDBRANCH   4   5
ENDBRANCH   1   4
BRANCH   2  10
ATOM     10  C   UNL     1      14.664 -43.628  -6.974  1.00  0.00     0.035 C 
BRANCH  10  11
ATOM     11  C   UNL     1      15.326 -45.002  -6.829  1.00  0.00     0.079 C 
BRANCH  11  12
ATOM     12  C   UNL     1      16.440 -45.164  -7.828  1.00  0.00     0.130 C 
ATOM     13  O   UNL     1      17.460 -45.753  -7.501  1.00  0.00    -0.300 OA
ATOM     14  C   UNL     1      16.334 -44.606  -9.217  1.00  0.00     0.087 C 
ENDBRANCH  11  12
ENDBRANCH  10  11
ENDBRANCH   2  10
TORSDOF 6
ENDMDL
MODEL 5
REMARK VINA RESULT:    -4.250     14.989     17.034
REMARK INTER + INTRA:          -6.459
REMARK INTER:                  -5.392
REMARK INTRA:                  -1.067
REMARK UNBOUND:                -0.718
REMARK SMILES CC(=O)CCC=C(C)CCC=C(C)C
REMARK SMILES IDX 7 1 6 2 8 3 9 4 10 5 11 6 13 7 12 8 14 9 5 10 4 11 2 12 3 13
REMARK SMILES IDX 1 14
REMARK H PARENT
REMARK Flexibility Score: inf
ROOT
ATOM      1  C   UNL     1      27.534 -44.425 -19.829  1.00  0.00    -0.077 C 
ATOM      2  C   UNL     1      28.672 -44.540 -19.105  1.00  0.00    -0.028 C 
ATOM      3  C   UNL     1      26.192 -44.196 -19.175  1.00  0.00     0.039 C 
ENDROOT
BRANCH   1   4
ATOM      4  C   UNL     1      27.610 -44.540 -21.336  1.00  0.00     0.034 C 
BRANCH   4   5
ATOM      5  C   UNL     1      28.655 -43.574 -21.906  1.00  0.00     0.032 C 
BRANCH   5   6
ATOM      6  C   UNL     1      28.127 -42.161 -21.916  1.00  0.00    -0.028 C 
ATOM      7  C   UNL     1      27.138 -40.123 -22.867  1.00  0.00     0.039 C 
ATOM      8  C   UNL     1      27.589 -41.555 -22.996  1.00  0.00    -0.080 C 
ATOM      9  C   UNL     1      27.413 -42.275 -24.314  1.00  0.00     0.039 C 
ENDBRANCH   5   6
ENDBRANCH   4   5
ENDBRANCH   1   4
BRANCH   2  10
ATOM     10  C   UNL     1      28.747 -44.408 -17.605  1.00  0.00     0.035 C 
BRANCH  10  11
ATOM     11  C   UNL     1      29.400 -43.080 -17.208  1.00  0.00     0.079 C 
BRANCH  11  12
ATOM     12  C   UNL     1      28.400 -41.956 -17.271  1.00  0.00     0.130 C 
ATOM     13  O   UNL     1      27.559 -41.850 -16.391  1.00  0.00    -0.300 OA
ATOM     14  C   UNL     1      28.405 -40.966 -18.399  1.00  0.00     0.087 C 
ENDBRANCH  11  12
ENDBRANCH  10  11
ENDBRANCH   2  10
TORSDOF 6
ENDMDL
MODEL 6
REMARK VINA RESULT:    -4.226      2.497      6.719
REMARK INTER + INTRA:          -6.426
REMARK INTER:                  -6.048
REMARK INTRA:                  -0.378
REMARK UNBOUND:                -0.718
REMARK SMILES CC(=O)CCC=C(C)CCC=C(C)C
REMARK SMILES IDX 7 1 6 2 8 3 9 4 10 5 11 6 13 7 12 8 14 9 5 10 4 11 2 12 3 13
REMARK SMILES IDX 1 14
REMARK H PARENT
REMARK Flexibility Score: inf
ROOT
ATOM      1  C   UNL     1      16.281 -44.756  -6.779  1.00  0.00    -0.077 C 
ATOM      2  C   UNL     1      16.881 -45.732  -7.500  1.00  0.00    -0.028 C 
ATOM      3  C   UNL     1      17.037 -43.541  -6.296  1.00  0.00     0.039 C 
ENDROOT
BRANCH   1   4
ATOM      4  C   UNL     1      14.812 -44.893  -6.440  1.00  0.00     0.034 C 
BRANCH   4   5
ATOM      5  C   UNL     1      14.123 -43.524  -6.432  1.00  0.00     0.032 C 
BRANCH   5   6
ATOM      6  C   UNL     1      12.996 -43.486  -7.433  1.00  0.00    -0.028 C 
ATOM      7  C   UNL     1      10.901 -42.706  -8.451  1.00  0.00     0.039 C 
ATOM      8  C   UNL     1      11.979 -42.598  -7.404  1.00  0.00    -0.080 C 
ATOM      9  C   UNL     1      11.905 -41.499  -6.369  1.00  0.00     0.039 C 
ENDBRANCH   5   6
ENDBRANCH   4   5
ENDBRANCH   1   4
BRANCH   2  10
ATOM     10  C   UNL     1      18.322 -45.705  -7.940  1.00  0.00     0.035 C 
BRANCH  10  11
ATOM     11  C   UNL     1      18.443 -46.054  -9.427  1.00  0.00     0.079 C 
BRANCH  11  12
ATOM     12  C   UNL     1      19.843 -45.803  -9.921  1.00  0.00     0.130 C 
ATOM     13  O   UNL     1      20.785 -45.943  -9.154  1.00  0.00    -0.300 OA
ATOM     14  C   UNL     1      20.109 -45.372 -11.333  1.00  0.00     0.087 C 
ENDBRANCH  11  12
ENDBRANCH  10  11
ENDBRANCH   2  10
TORSDOF 6
ENDMDL
MODEL 7
REMARK VINA RESULT:    -4.218      1.950      2.899
REMARK INTER + INTRA:          -6.415
REMARK INTER:                  -5.370
REMARK INTRA:                  -1.045
REMARK UNBOUND:                -0.718
REMARK SMILES CC(=O)CCC=C(C)CCC=C(C)C
REMARK SMILES IDX 7 1 6 2 8 3 9 4 10 5 11 6 13 7 12 8 14 9 5 10 4 11 2 12 3 13
REMARK SMILES IDX 1 14
REMARK H PARENT
REMARK Flexibility Score: inf
ROOT
ATOM      1  C   UNL     1      14.426 -44.276  -6.560  1.00  0.00    -0.077 C 
ATOM      2  C   UNL     1      13.494 -44.188  -7.537  1.00  0.00    -0.028 C 
ATOM      3  C   UNL     1      14.399 -43.373  -5.348  1.00  0.00     0.039 C 
ENDROOT
BRANCH   1   4
ATOM      4  C   UNL     1      15.531 -45.301  -6.691  1.00  0.00     0.034 C 
BRANCH   4   5
ATOM      5  C   UNL     1      16.852 -44.632  -7.088  1.00  0.00     0.032 C 
BRANCH   5   6
ATOM      6  C   UNL     1      16.995 -44.580  -8.589  1.00  0.00    -0.028 C 
ATOM      7  C   UNL     1      16.926 -43.586 -10.835  1.00  0.00     0.039 C 
ATOM      8  C   UNL     1      16.781 -43.478  -9.339  1.00  0.00    -0.080 C 
ATOM      9  C   UNL     1      16.420 -42.146  -8.721  1.00  0.00     0.039 C 
ENDBRANCH   5   6
ENDBRANCH   4   5
ENDBRANCH   1   4
BRANCH   2  10
ATOM     10  C   UNL     1      12.320 -43.243  -7.516  1.00  0.00     0.035 C 
BRANCH  10  11
ATOM     11  C   UNL     1      12.597 -42.012  -8.386  1.00  0.00     0.079 C 
BRANCH  11  12
ATOM     12  C   UNL     1      11.348 -41.572  -9.100  1.00  0.00     0.130 C 
ATOM     13  O   UNL     1      11.441 -40.947 -10.146  1.00  0.00    -0.300 OA
ATOM     14  C   UNL     1       9.984 -41.872  -8.549  1.00  0.00     0.087 C 
ENDBRANCH  11  12
ENDBRANCH  10  11
ENDBRANCH   2  10
TORSDOF 6
ENDMDL
MODEL 8
REMARK VINA RESULT:    -4.093     17.869     20.265
REMARK INTER + INTRA:          -6.246
REMARK INTER:                  -5.599
REMARK INTRA:                  -0.648
REMARK UNBOUND:                -0.718
REMARK SMILES CC(=O)CCC=C(C)CCC=C(C)C
REMARK SMILES IDX 7 1 6 2 8 3 9 4 10 5 11 6 13 7 12 8 14 9 5 10 4 11 2 12 3 13
REMARK SMILES IDX 1 14
REMARK H PARENT
REMARK Flexibility Score: inf
ROOT
ATOM      1  C   UNL     1      27.870 -30.353 -14.357  1.00  0.00    -0.077 C 
ATOM      2  C   UNL     1      28.608 -31.148 -13.548  1.00  0.00    -0.028 C 
ATOM      3  C   UNL     1      26.707 -30.889 -15.159  1.00  0.00     0.039 C 
ENDROOT
BRANCH   1   4
ATOM      4  C   UNL     1      28.229 -28.887 -14.470  1.00  0.00     0.034 C 
BRANCH   4   5
ATOM      5  C   UNL     1      27.040 -28.072 -14.990  1.00  0.00     0.032 C 
BRANCH   5   6
ATOM      6  C   UNL     1      27.471 -27.144 -16.098  1.00  0.00    -0.028 C 
ATOM      7  C   UNL     1      27.407 -26.084 -18.314  1.00  0.00     0.039 C 
ATOM      8  C   UNL     1      26.838 -27.027 -17.286  1.00  0.00    -0.080 C 
ATOM      9  C   UNL     1      25.576 -27.797 -17.600  1.00  0.00     0.039 C 
ENDBRANCH   5   6
ENDBRANCH   4   5
ENDBRANCH   1   4
BRANCH   2  10
ATOM     10  C   UNL     1      28.339 -32.613 -13.313  1.00  0.00     0.035 C 
BRANCH  10  11
ATOM     11  C   UNL     1      29.560 -33.457 -13.690  1.00  0.00     0.079 C 
BRANCH  11  12
ATOM     12  C   UNL     1      29.302 -34.231 -14.955  1.00  0.00     0.130 C 
ATOM     13  O   UNL     1      28.420 -33.862 -15.716  1.00  0.00    -0.300 OA
ATOM     14  C   UNL     1      30.097 -35.456 -15.300  1.00  0.00     0.087 C 
ENDBRANCH  11  12
ENDBRANCH  10  11
ENDBRANCH   2  10
TORSDOF 6
ENDMDL
MODEL 9
REMARK VINA RESULT:    -4.084     16.116     17.816
REMARK INTER + INTRA:          -6.235
REMARK INTER:                  -5.098
REMARK INTRA:                  -1.136
REMARK UNBOUND:                -0.718
REMARK SMILES CC(=O)CCC=C(C)CCC=C(C)C
REMARK SMILES IDX 7 1 6 2 8 3 9 4 10 5 11 6 13 7 12 8 14 9 5 10 4 11 2 12 3 13
REMARK SMILES IDX 1 14
REMARK H PARENT
REMARK Flexibility Score: inf
ROOT
ATOM      1  C   UNL     1      28.090 -43.306 -21.186  1.00  0.00    -0.077 C 
ATOM      2  C   UNL     1      28.735 -42.399 -20.416  1.00  0.00    -0.028 C 
ATOM      3  C   UNL     1      26.960 -44.151 -20.647  1.00  0.00     0.039 C 
ENDROOT
BRANCH   1   4
ATOM      4  C   UNL     1      28.521 -43.484 -22.626  1.00  0.00     0.034 C 
BRANCH   4   5
ATOM      5  C   UNL     1      27.395 -43.086 -23.587  1.00  0.00     0.032 C 
BRANCH   5   6
ATOM      6  C   UNL     1      27.441 -41.608 -23.880  1.00  0.00    -0.028 C 
ATOM      7  C   UNL     1      26.713 -39.262 -23.801  1.00  0.00     0.039 C 
ATOM      8  C   UNL     1      26.566 -40.704 -23.389  1.00  0.00    -0.080 C 
ATOM      9  C   UNL     1      25.464 -41.095 -22.430  1.00  0.00     0.039 C 
ENDBRANCH   5   6
ENDBRANCH   4   5
ENDBRANCH   1   4
BRANCH   2  10
ATOM     10  C   UNL     1      28.384 -42.093 -18.982  1.00  0.00     0.035 C 
BRANCH  10  11
ATOM     11  C   UNL     1      29.414 -42.706 -18.028  1.00  0.00     0.079 C 
BRANCH  11  12
ATOM     12  C   UNL     1      29.063 -44.136 -17.713  1.00  0.00     0.130 C 
ATOM     13  O   UNL     1      28.218 -44.374 -16.862  1.00  0.00    -0.300 OA
ATOM     14  C   UNL     1      29.736 -45.280 -18.412  1.00  0.00     0.087 C 
ENDBRANCH  11  12
ENDBRANCH  10  11
ENDBRANCH   2  10
TORSDOF 6
ENDMDL
