MODEL 1
REMARK VINA RESULT:    -7.162      0.000      0.000
REMARK INTER + INTRA:         -11.585
REMARK INTER:                 -10.093
REMARK INTRA:                  -1.493
REMARK UNBOUND:                -1.493
REMARK SMILES COc1c(O[C@@H]2O[C@@H](C(=O)[O-])[C@H](O)[C@H](O)[C@@H]2O)cc(O)c2c(=O)cc(-c3ccccc3)oc12
REMARK SMILES IDX 5 1 6 2 8 3 12 4 7 5 14 6 16 7 9 8 10 9 11 10 13 11 15 13
REMARK SMILES IDX 17 15 4 17 3 18 18 19 33 20 19 21 21 22 32 23 22 24 25 25
REMARK SMILES IDX 24 26 23 27 2 28 1 29 20 30 26 32 27 33 31 34 28 35 30 36
REMARK SMILES IDX 29 37
REMARK H PARENT 13 12 15 14 17 16 20 31
REMARK Flexibility Score: inf
ROOT
ATOM      1  O   UNL     1     -65.768 -44.525 -37.925  1.00  0.00    -0.458 OA
ENDROOT
BRANCH   1   2
ATOM      2  C   UNL     1     -65.494 -45.866 -38.336  1.00  0.00     0.339 C 
ATOM      3  C   UNL     1     -64.254 -45.196 -40.211  1.00  0.00     0.199 C 
ATOM      4  C   UNL     1     -65.265 -45.774 -41.221  1.00  0.00     0.180 C 
ATOM      5  O   UNL     1     -64.250 -45.950 -39.008  1.00  0.00    -0.328 OA
ATOM      6  C   UNL     1     -66.680 -45.842 -40.606  1.00  0.00     0.181 C 
ATOM      7  C   UNL     1     -66.641 -46.446 -39.188  1.00  0.00     0.214 C 
BRANCH   3   8
ATOM      8  C   UNL     1     -62.872 -45.216 -40.793  1.00  0.00     0.073 C 
ATOM      9  O   UNL     1     -62.620 -45.895 -41.824  1.00  0.00    -0.547 OA
ATOM     10  O   UNL     1     -61.863 -44.466 -40.211  1.00  0.00    -0.547 OA
ENDBRANCH   3   8
BRANCH   4  11
ATOM     11  O   UNL     1     -65.282 -44.990 -42.386  1.00  0.00    -0.387 OA
ATOM     12  H   UNL     1     -66.191 -44.590 -42.445  1.00  0.00     0.211 HD
ENDBRANCH   4  11
BRANCH   6  13
ATOM     13  O   UNL     1     -67.329 -44.593 -40.629  1.00  0.00    -0.387 OA
ATOM     14  H   UNL     1     -66.951 -44.026 -39.911  1.00  0.00     0.211 HD
ENDBRANCH   6  13
BRANCH   7  15
ATOM     15  O   UNL     1     -67.872 -46.247 -38.536  1.00  0.00    -0.384 OA
ATOM     16  H   UNL     1     -68.583 -46.549 -39.162  1.00  0.00     0.211 HD
ENDBRANCH   7  15
ENDBRANCH   1   2
BRANCH   1  17
ATOM     17  C   UNL     1     -65.661 -44.125 -36.593  1.00  0.00     0.172 A 
ATOM     18  C   UNL     1     -64.526 -43.438 -36.149  1.00  0.00     0.205 A 
ATOM     19  C   UNL     1     -66.681 -44.459 -35.704  1.00  0.00     0.097 A 
ATOM     20  C   UNL     1     -64.458 -43.012 -34.798  1.00  0.00     0.188 A 
ATOM     21  C   UNL     1     -66.615 -44.097 -34.360  1.00  0.00     0.134 A 
ATOM     22  C   UNL     1     -65.522 -43.313 -33.898  1.00  0.00     0.111 A 
ATOM     23  O   UNL     1     -63.408 -42.312 -34.374  1.00  0.00    -0.452 OA
ATOM     24  C   UNL     1     -65.435 -42.779 -32.590  1.00  0.00     0.197 A 
ATOM     25  C   UNL     1     -63.277 -41.860 -33.128  1.00  0.00     0.138 A 
ATOM     26  C   UNL     1     -64.296 -42.082 -32.201  1.00  0.00     0.100 A 
ATOM     27  O   UNL     1     -66.378 -42.879 -31.762  1.00  0.00    -0.289 OA
BRANCH  18  28
ATOM     28  O   UNL     1     -63.505 -43.216 -37.094  1.00  0.00    -0.490 OA
ATOM     29  C   UNL     1     -63.357 -42.070 -37.918  1.00  0.00     0.278 C 
ENDBRANCH  18  28
BRANCH  21  30
ATOM     30  O   UNL     1     -67.641 -44.567 -33.534  1.00  0.00    -0.507 OA
ATOM     31  H   UNL     1     -68.596 -44.710 -33.831  1.00  0.00     0.293 HD
ENDBRANCH  21  30
BRANCH  25  32
ATOM     32  C   UNL     1     -62.066 -41.092 -32.762  1.00  0.00     0.017 A 
ATOM     33  C   UNL     1     -61.401 -41.375 -31.558  1.00  0.00     0.012 A 
ATOM     34  C   UNL     1     -61.564 -40.073 -33.597  1.00  0.00     0.012 A 
ATOM     35  C   UNL     1     -60.251 -40.665 -31.202  1.00  0.00     0.001 A 
ATOM     36  C   UNL     1     -60.418 -39.360 -33.230  1.00  0.00     0.001 A 
ATOM     37  C   UNL     1     -59.760 -39.658 -32.035  1.00  0.00     0.000 A 
ENDBRANCH  25  32
ENDBRANCH   1  17
TORSDOF 9
ENDMDL
MODEL 2
REMARK VINA RESULT:    -7.114      2.885      3.936
REMARK INTER + INTRA:         -11.518
REMARK INTER:                  -9.938
REMARK INTRA:                  -1.580
REMARK UNBOUND:                -1.493
REMARK SMILES COc1c(O[C@@H]2O[C@@H](C(=O)[O-])[C@H](O)[C@H](O)[C@@H]2O)cc(O)c2c(=O)cc(-c3ccccc3)oc12
REMARK SMILES IDX 5 1 6 2 8 3 12 4 7 5 14 6 16 7 9 8 10 9 11 10 13 11 15 13
REMARK SMILES IDX 17 15 4 17 3 18 18 19 33 20 19 21 21 22 32 23 22 24 25 25
REMARK SMILES IDX 24 26 23 27 2 28 1 29 20 30 26 32 27 33 31 34 28 35 30 36
REMARK SMILES IDX 29 37
REMARK H PARENT 13 12 15 14 17 16 20 31
REMARK Flexibility Score: inf
ROOT
ATOM      1  O   UNL     1     -64.315 -44.259 -39.804  1.00  0.00    -0.458 OA
ENDROOT
BRANCH   1   2
ATOM      2  C   UNL     1     -65.486 -45.077 -39.760  1.00  0.00     0.339 C 
ATOM      3  C   UNL     1     -65.752 -45.078 -42.090  1.00  0.00     0.199 C 
ATOM      4  C   UNL     1     -67.079 -44.294 -42.047  1.00  0.00     0.180 C 
ATOM      5  O   UNL     1     -65.596 -45.875 -40.925  1.00  0.00    -0.328 OA
ATOM      6  C   UNL     1     -67.166 -43.430 -40.770  1.00  0.00     0.181 C 
ATOM      7  C   UNL     1     -66.758 -44.238 -39.523  1.00  0.00     0.214 C 
BRANCH   3   8
ATOM      8  C   UNL     1     -65.721 -45.976 -43.291  1.00  0.00     0.073 C 
ATOM      9  O   UNL     1     -66.787 -46.294 -43.881  1.00  0.00    -0.547 OA
ATOM     10  O   UNL     1     -64.511 -46.444 -43.775  1.00  0.00    -0.547 OA
ENDBRANCH   3   8
BRANCH   4  11
ATOM     11  O   UNL     1     -67.195 -43.482 -43.188  1.00  0.00    -0.387 OA
ATOM     12  H   UNL     1     -67.824 -43.947 -43.803  1.00  0.00     0.211 HD
ENDBRANCH   4  11
BRANCH   6  13
ATOM     13  O   UNL     1     -66.431 -42.234 -40.887  1.00  0.00    -0.387 OA
ATOM     14  H   UNL     1     -65.467 -42.447 -40.817  1.00  0.00     0.211 HD
ENDBRANCH   6  13
BRANCH   7  15
ATOM     15  O   UNL     1     -66.570 -43.381 -38.422  1.00  0.00    -0.384 OA
ATOM     16  H   UNL     1     -66.831 -42.469 -38.718  1.00  0.00     0.211 HD
ENDBRANCH   7  15
ENDBRANCH   1   2
BRANCH   1  17
ATOM     17  C   UNL     1     -63.269 -44.419 -38.894  1.00  0.00     0.172 A 
ATOM     18  C   UNL     1     -63.024 -43.443 -37.920  1.00  0.00     0.205 A 
ATOM     19  C   UNL     1     -62.449 -45.541 -38.996  1.00  0.00     0.097 A 
ATOM     20  C   UNL     1     -61.977 -43.646 -36.986  1.00  0.00     0.188 A 
ATOM     21  C   UNL     1     -61.382 -45.738 -38.122  1.00  0.00     0.134 A 
ATOM     22  C   UNL     1     -61.166 -44.816 -37.061  1.00  0.00     0.111 A 
ATOM     23  O   UNL     1     -61.764 -42.752 -36.022  1.00  0.00    -0.452 OA
ATOM     24  C   UNL     1     -60.201 -45.002 -36.042  1.00  0.00     0.197 A 
ATOM     25  C   UNL     1     -60.816 -42.877 -35.095  1.00  0.00     0.138 A 
ATOM     26  C   UNL     1     -60.008 -44.015 -35.082  1.00  0.00     0.100 A 
ATOM     27  O   UNL     1     -59.525 -46.060 -35.947  1.00  0.00    -0.289 OA
BRANCH  18  28
ATOM     28  O   UNL     1     -63.847 -42.300 -37.941  1.00  0.00    -0.490 OA
ATOM     29  C   UNL     1     -63.725 -41.192 -38.821  1.00  0.00     0.278 C 
ENDBRANCH  18  28
BRANCH  21  30
ATOM     30  O   UNL     1     -60.563 -46.842 -38.374  1.00  0.00    -0.507 OA
ATOM     31  H   UNL     1     -60.418 -47.252 -39.287  1.00  0.00     0.293 HD
ENDBRANCH  21  30
BRANCH  25  32
ATOM     32  C   UNL     1     -60.665 -41.822 -34.069  1.00  0.00     0.017 A 
ATOM     33  C   UNL     1     -60.286 -42.172 -32.762  1.00  0.00     0.012 A 
ATOM     34  C   UNL     1     -60.898 -40.466 -34.372  1.00  0.00     0.012 A 
ATOM     35  C   UNL     1     -60.129 -41.186 -31.784  1.00  0.00     0.001 A 
ATOM     36  C   UNL     1     -60.749 -39.485 -33.385  1.00  0.00     0.001 A 
ATOM     37  C   UNL     1     -60.361 -39.845 -32.093  1.00  0.00     0.000 A 
ENDBRANCH  25  32
ENDBRANCH   1  17
TORSDOF 9
ENDMDL
MODEL 3
REMARK VINA RESULT:    -6.862      2.635      8.347
REMARK INTER + INTRA:         -11.163
REMARK INTER:                  -9.980
REMARK INTRA:                  -1.182
REMARK UNBOUND:                -1.493
REMARK SMILES COc1c(O[C@@H]2O[C@@H](C(=O)[O-])[C@H](O)[C@H](O)[C@@H]2O)cc(O)c2c(=O)cc(-c3ccccc3)oc12
REMARK SMILES IDX 5 1 6 2 8 3 12 4 7 5 14 6 16 7 9 8 10 9 11 10 13 11 15 13
REMARK SMILES IDX 17 15 4 17 3 18 18 19 33 20 19 21 21 22 32 23 22 24 25 25
REMARK SMILES IDX 24 26 23 27 2 28 1 29 20 30 26 32 27 33 31 34 28 35 30 36
REMARK SMILES IDX 29 37
REMARK H PARENT 13 12 15 14 17 16 20 31
REMARK Flexibility Score: inf
ROOT
ATOM      1  O   UNL     1     -63.296 -42.766 -35.262  1.00  0.00    -0.458 OA
ENDROOT
BRANCH   1   2
ATOM      2  C   UNL     1     -62.341 -43.508 -34.500  1.00  0.00     0.339 C 
ATOM      3  C   UNL     1     -62.171 -41.864 -32.836  1.00  0.00     0.199 C 
ATOM      4  C   UNL     1     -60.701 -41.535 -33.160  1.00  0.00     0.180 C 
ATOM      5  O   UNL     1     -62.461 -43.226 -33.118  1.00  0.00    -0.328 OA
ATOM      6  C   UNL     1     -60.370 -41.878 -34.628  1.00  0.00     0.181 C 
ATOM      7  C   UNL     1     -60.904 -43.274 -35.007  1.00  0.00     0.214 C 
BRANCH   3   8
ATOM      8  C   UNL     1     -62.452 -41.606 -31.385  1.00  0.00     0.073 C 
ATOM      9  O   UNL     1     -63.219 -42.365 -30.736  1.00  0.00    -0.547 OA
ATOM     10  O   UNL     1     -61.848 -40.538 -30.742  1.00  0.00    -0.547 OA
ENDBRANCH   3   8
BRANCH   4  11
ATOM     11  O   UNL     1     -60.447 -40.176 -32.913  1.00  0.00    -0.387 OA
ATOM     12  H   UNL     1     -60.583 -39.701 -33.776  1.00  0.00     0.211 HD
ENDBRANCH   4  11
BRANCH   6  13
ATOM     13  O   UNL     1     -60.818 -40.884 -35.520  1.00  0.00    -0.387 OA
ATOM     14  H   UNL     1     -60.658 -39.998 -35.110  1.00  0.00     0.211 HD
ENDBRANCH   6  13
BRANCH   7  15
ATOM     15  O   UNL     1     -60.849 -43.460 -36.401  1.00  0.00    -0.384 OA
ATOM     16  H   UNL     1     -61.155 -44.388 -36.581  1.00  0.00     0.211 HD
ENDBRANCH   7  15
ENDBRANCH   1   2
BRANCH   1  17
ATOM     17  C   UNL     1     -64.262 -43.396 -36.049  1.00  0.00     0.172 A 
ATOM     18  C   UNL     1     -64.573 -42.898 -37.319  1.00  0.00     0.205 A 
ATOM     19  C   UNL     1     -64.939 -44.499 -35.533  1.00  0.00     0.097 A 
ATOM     20  C   UNL     1     -65.532 -43.577 -38.113  1.00  0.00     0.188 A 
ATOM     21  C   UNL     1     -65.922 -45.153 -36.273  1.00  0.00     0.134 A 
ATOM     22  C   UNL     1     -66.194 -44.733 -37.604  1.00  0.00     0.111 A 
ATOM     23  O   UNL     1     -65.802 -43.145 -39.344  1.00  0.00    -0.452 OA
ATOM     24  C   UNL     1     -67.069 -45.416 -38.481  1.00  0.00     0.197 A 
ATOM     25  C   UNL     1     -66.674 -43.736 -40.158  1.00  0.00     0.138 A 
ATOM     26  C   UNL     1     -67.331 -44.896 -39.744  1.00  0.00     0.100 A 
ATOM     27  O   UNL     1     -67.601 -46.515 -38.174  1.00  0.00    -0.289 OA
BRANCH  18  28
ATOM     28  O   UNL     1     -63.902 -41.728 -37.728  1.00  0.00    -0.490 OA
ATOM     29  C   UNL     1     -62.852 -41.652 -38.681  1.00  0.00     0.278 C 
ENDBRANCH  18  28
BRANCH  21  30
ATOM     30  O   UNL     1     -66.610 -46.184 -35.626  1.00  0.00    -0.507 OA
ATOM     31  H   UNL     1     -66.305 -46.627 -34.770  1.00  0.00     0.293 HD
ENDBRANCH  21  30
BRANCH  25  32
ATOM     32  C   UNL     1     -66.899 -43.172 -41.507  1.00  0.00     0.017 A 
ATOM     33  C   UNL     1     -67.135 -41.796 -41.656  1.00  0.00     0.012 A 
ATOM     34  C   UNL     1     -66.885 -43.991 -42.655  1.00  0.00     0.012 A 
ATOM     35  C   UNL     1     -67.340 -41.246 -42.924  1.00  0.00     0.001 A 
ATOM     36  C   UNL     1     -67.100 -43.435 -43.921  1.00  0.00     0.001 A 
ATOM     37  C   UNL     1     -67.324 -42.063 -44.056  1.00  0.00     0.000 A 
ENDBRANCH  25  32
ENDBRANCH   1  17
TORSDOF 9
ENDMDL
MODEL 4
REMARK VINA RESULT:    -6.822      2.392      8.118
REMARK INTER + INTRA:         -11.106
REMARK INTER:                  -9.982
REMARK INTRA:                  -1.124
REMARK UNBOUND:                -1.493
REMARK SMILES COc1c(O[C@@H]2O[C@@H](C(=O)[O-])[C@H](O)[C@H](O)[C@@H]2O)cc(O)c2c(=O)cc(-c3ccccc3)oc12
REMARK SMILES IDX 5 1 6 2 8 3 12 4 7 5 14 6 16 7 9 8 10 9 11 10 13 11 15 13
REMARK SMILES IDX 17 15 4 17 3 18 18 19 33 20 19 21 21 22 32 23 22 24 25 25
REMARK SMILES IDX 24 26 23 27 2 28 1 29 20 30 26 32 27 33 31 34 28 35 30 36
REMARK SMILES IDX 29 37
REMARK H PARENT 13 12 15 14 17 16 20 31
REMARK Flexibility Score: inf
ROOT
ATOM      1  O   UNL     1     -63.757 -43.516 -34.855  1.00  0.00    -0.458 OA
ENDROOT
BRANCH   1   2
ATOM      2  C   UNL     1     -64.119 -42.369 -34.084  1.00  0.00     0.339 C 
ATOM      3  C   UNL     1     -61.901 -41.645 -33.846  1.00  0.00     0.199 C 
ATOM      4  C   UNL     1     -61.879 -41.866 -32.321  1.00  0.00     0.180 C 
ATOM      5  O   UNL     1     -63.206 -41.306 -34.291  1.00  0.00    -0.328 OA
ATOM      6  C   UNL     1     -62.902 -42.945 -31.906  1.00  0.00     0.181 C 
ATOM      7  C   UNL     1     -64.265 -42.711 -32.588  1.00  0.00     0.214 C 
BRANCH   3   8
ATOM      8  C   UNL     1     -60.965 -40.534 -34.222  1.00  0.00     0.073 C 
ATOM      9  O   UNL     1     -60.379 -40.539 -35.336  1.00  0.00    -0.547 OA
ATOM     10  O   UNL     1     -60.756 -39.479 -33.349  1.00  0.00    -0.547 OA
ENDBRANCH   3   8
BRANCH   4  11
ATOM     11  O   UNL     1     -60.589 -42.239 -31.908  1.00  0.00    -0.387 OA
ATOM     12  H   UNL     1     -60.504 -41.959 -30.957  1.00  0.00     0.211 HD
ENDBRANCH   4  11
BRANCH   6  13
ATOM     13  O   UNL     1     -62.418 -44.249 -32.130  1.00  0.00    -0.387 OA
ATOM     14  H   UNL     1     -62.923 -44.649 -32.881  1.00  0.00     0.211 HD
ENDBRANCH   6  13
BRANCH   7  15
ATOM     15  O   UNL     1     -65.092 -43.838 -32.430  1.00  0.00    -0.384 OA
ATOM     16  H   UNL     1     -65.251 -43.946 -31.455  1.00  0.00     0.211 HD
ENDBRANCH   7  15
ENDBRANCH   1   2
BRANCH   1  17
ATOM     17  C   UNL     1     -64.635 -44.098 -35.770  1.00  0.00     0.172 A 
ATOM     18  C   UNL     1     -64.889 -43.478 -36.999  1.00  0.00     0.205 A 
ATOM     19  C   UNL     1     -65.286 -45.280 -35.423  1.00  0.00     0.097 A 
ATOM     20  C   UNL     1     -65.758 -44.108 -37.925  1.00  0.00     0.188 A 
ATOM     21  C   UNL     1     -66.185 -45.892 -36.295  1.00  0.00     0.134 A 
ATOM     22  C   UNL     1     -66.391 -45.341 -37.590  1.00  0.00     0.111 A 
ATOM     23  O   UNL     1     -65.970 -43.557 -39.119  1.00  0.00    -0.452 OA
ATOM     24  C   UNL     1     -67.171 -45.962 -38.594  1.00  0.00     0.197 A 
ATOM     25  C   UNL     1     -66.755 -44.093 -40.050  1.00  0.00     0.138 A 
ATOM     26  C   UNL     1     -67.377 -45.318 -39.809  1.00  0.00     0.100 A 
ATOM     27  O   UNL     1     -67.665 -47.110 -38.442  1.00  0.00    -0.289 OA
BRANCH  18  28
ATOM     28  O   UNL     1     -64.254 -42.242 -37.233  1.00  0.00    -0.490 OA
ATOM     29  C   UNL     1     -63.002 -42.050 -37.874  1.00  0.00     0.278 C 
ENDBRANCH  18  28
BRANCH  21  30
ATOM     30  O   UNL     1     -66.859 -47.017 -35.811  1.00  0.00    -0.507 OA
ATOM     31  H   UNL     1     -66.409 -47.813 -35.378  1.00  0.00     0.293 HD
ENDBRANCH  21  30
BRANCH  25  32
ATOM     32  C   UNL     1     -66.921 -43.395 -41.345  1.00  0.00     0.017 A 
ATOM     33  C   UNL     1     -66.823 -44.120 -42.544  1.00  0.00     0.012 A 
ATOM     34  C   UNL     1     -67.174 -42.010 -41.403  1.00  0.00     0.012 A 
ATOM     35  C   UNL     1     -66.987 -43.478 -43.774  1.00  0.00     0.001 A 
ATOM     36  C   UNL     1     -67.328 -41.371 -42.639  1.00  0.00     0.001 A 
ATOM     37  C   UNL     1     -67.238 -42.106 -43.823  1.00  0.00     0.000 A 
ENDBRANCH  25  32
ENDBRANCH   1  17
TORSDOF 9
ENDMDL
MODEL 5
REMARK VINA RESULT:    -6.787      1.317      2.819
REMARK INTER + INTRA:         -11.058
REMARK INTER:                  -9.628
REMARK INTRA:                  -1.430
REMARK UNBOUND:                -1.493
REMARK SMILES COc1c(O[C@@H]2O[C@@H](C(=O)[O-])[C@H](O)[C@H](O)[C@@H]2O)cc(O)c2c(=O)cc(-c3ccccc3)oc12
REMARK SMILES IDX 5 1 6 2 8 3 12 4 7 5 14 6 16 7 9 8 10 9 11 10 13 11 15 13
REMARK SMILES IDX 17 15 4 17 3 18 18 19 33 20 19 21 21 22 32 23 22 24 25 25
REMARK SMILES IDX 24 26 23 27 2 28 1 29 20 30 26 32 27 33 31 34 28 35 30 36
REMARK SMILES IDX 29 37
REMARK H PARENT 13 12 15 14 17 16 20 31
REMARK Flexibility Score: inf
ROOT
ATOM      1  O   UNL     1     -64.116 -45.112 -38.172  1.00  0.00    -0.458 OA
ENDROOT
BRANCH   1   2
ATOM      2  C   UNL     1     -64.138 -44.285 -39.338  1.00  0.00     0.339 C 
ATOM      3  C   UNL     1     -65.768 -45.587 -40.410  1.00  0.00     0.199 C 
ATOM      4  C   UNL     1     -64.818 -46.042 -41.536  1.00  0.00     0.180 C 
ATOM      5  O   UNL     1     -65.418 -44.292 -39.944  1.00  0.00    -0.328 OA
ATOM      6  C   UNL     1     -63.348 -46.003 -41.065  1.00  0.00     0.181 C 
ATOM      7  C   UNL     1     -63.033 -44.681 -40.337  1.00  0.00     0.214 C 
BRANCH   3   8
ATOM      8  C   UNL     1     -67.182 -45.549 -40.911  1.00  0.00     0.073 C 
ATOM      9  O   UNL     1     -67.751 -44.450 -41.141  1.00  0.00    -0.547 OA
ATOM     10  O   UNL     1     -67.866 -46.730 -41.146  1.00  0.00    -0.547 OA
ENDBRANCH   3   8
BRANCH   4  11
ATOM     11  O   UNL     1     -65.156 -47.340 -41.954  1.00  0.00    -0.387 OA
ATOM     12  H   UNL     1     -66.146 -47.409 -41.891  1.00  0.00     0.211 HD
ENDBRANCH   4  11
BRANCH   6  13
ATOM     13  O   UNL     1     -63.009 -47.126 -40.286  1.00  0.00    -0.387 OA
ATOM     14  H   UNL     1     -62.177 -47.521 -40.647  1.00  0.00     0.211 HD
ENDBRANCH   6  13
BRANCH   7  15
ATOM     15  O   UNL     1     -61.794 -44.768 -39.674  1.00  0.00    -0.384 OA
ATOM     16  H   UNL     1     -61.364 -45.611 -39.977  1.00  0.00     0.211 HD
ENDBRANCH   7  15
ENDBRANCH   1   2
BRANCH   1  17
ATOM     17  C   UNL     1     -64.333 -44.592 -36.895  1.00  0.00     0.172 A 
ATOM     18  C   UNL     1     -63.297 -43.948 -36.209  1.00  0.00     0.205 A 
ATOM     19  C   UNL     1     -65.581 -44.763 -36.299  1.00  0.00     0.097 A 
ATOM     20  C   UNL     1     -63.552 -43.399 -34.927  1.00  0.00     0.188 A 
ATOM     21  C   UNL     1     -65.842 -44.277 -35.019  1.00  0.00     0.134 A 
ATOM     22  C   UNL     1     -64.842 -43.532 -34.334  1.00  0.00     0.111 A 
ATOM     23  O   UNL     1     -62.592 -42.738 -34.283  1.00  0.00    -0.452 OA
ATOM     24  C   UNL     1     -65.057 -42.880 -33.097  1.00  0.00     0.197 A 
ATOM     25  C   UNL     1     -62.756 -42.176 -33.088  1.00  0.00     0.138 A 
ATOM     26  C   UNL     1     -64.002 -42.232 -32.463  1.00  0.00     0.100 A 
ATOM     27  O   UNL     1     -66.192 -42.830 -32.555  1.00  0.00    -0.289 OA
BRANCH  18  28
ATOM     28  O   UNL     1     -62.043 -43.895 -36.850  1.00  0.00    -0.490 OA
ATOM     29  C   UNL     1     -60.859 -44.561 -36.437  1.00  0.00     0.278 C 
ENDBRANCH  18  28
BRANCH  21  30
ATOM     30  O   UNL     1     -67.091 -44.588 -34.474  1.00  0.00    -0.507 OA
ATOM     31  H   UNL     1     -67.948 -44.095 -34.686  1.00  0.00     0.293 HD
ENDBRANCH  21  30
BRANCH  25  32
ATOM     32  C   UNL     1     -61.619 -41.466 -32.461  1.00  0.00     0.017 A 
ATOM     33  C   UNL     1     -61.093 -40.317 -33.075  1.00  0.00     0.012 A 
ATOM     34  C   UNL     1     -61.047 -41.919 -31.255  1.00  0.00     0.012 A 
ATOM     35  C   UNL     1     -60.027 -39.629 -32.490  1.00  0.00     0.001 A 
ATOM     36  C   UNL     1     -59.973 -41.230 -30.681  1.00  0.00     0.001 A 
ATOM     37  C   UNL     1     -59.466 -40.084 -31.296  1.00  0.00     0.000 A 
ENDBRANCH  25  32
ENDBRANCH   1  17
TORSDOF 9
ENDMDL
MODEL 6
REMARK VINA RESULT:    -6.785      4.464      5.956
REMARK INTER + INTRA:         -11.054
REMARK INTER:                  -9.933
REMARK INTRA:                  -1.121
REMARK UNBOUND:                -1.493
REMARK SMILES COc1c(O[C@@H]2O[C@@H](C(=O)[O-])[C@H](O)[C@H](O)[C@@H]2O)cc(O)c2c(=O)cc(-c3ccccc3)oc12
REMARK SMILES IDX 5 1 6 2 8 3 12 4 7 5 14 6 16 7 9 8 10 9 11 10 13 11 15 13
REMARK SMILES IDX 17 15 4 17 3 18 18 19 33 20 19 21 21 22 32 23 22 24 25 25
REMARK SMILES IDX 24 26 23 27 2 28 1 29 20 30 26 32 27 33 31 34 28 35 30 36
REMARK SMILES IDX 29 37
REMARK H PARENT 13 12 15 14 17 16 20 31
REMARK Flexibility Score: inf
ROOT
ATOM      1  O   UNL     1     -63.042 -43.367 -36.821  1.00  0.00    -0.458 OA
ENDROOT
BRANCH   1   2
ATOM      2  C   UNL     1     -64.140 -42.452 -36.807  1.00  0.00     0.339 C 
ATOM      3  C   UNL     1     -65.751 -44.156 -36.827  1.00  0.00     0.199 C 
ATOM      4  C   UNL     1     -66.288 -43.780 -38.222  1.00  0.00     0.180 C 
ATOM      5  O   UNL     1     -65.261 -43.011 -36.146  1.00  0.00    -0.328 OA
ATOM      6  C   UNL     1     -65.203 -43.064 -39.055  1.00  0.00     0.181 C 
ATOM      7  C   UNL     1     -64.498 -41.971 -38.227  1.00  0.00     0.214 C 
BRANCH   3   8
ATOM      8  C   UNL     1     -66.842 -44.773 -36.002  1.00  0.00     0.073 C 
ATOM      9  O   UNL     1     -67.473 -45.778 -36.421  1.00  0.00    -0.547 OA
ATOM     10  O   UNL     1     -67.147 -44.251 -34.755  1.00  0.00    -0.547 OA
ENDBRANCH   3   8
BRANCH   4  11
ATOM     11  O   UNL     1     -66.731 -44.932 -38.893  1.00  0.00    -0.387 OA
ATOM     12  H   UNL     1     -65.926 -45.496 -39.049  1.00  0.00     0.211 HD
ENDBRANCH   4  11
BRANCH   6  13
ATOM     13  O   UNL     1     -64.285 -43.970 -39.622  1.00  0.00    -0.387 OA
ATOM     14  H   UNL     1     -64.761 -44.528 -40.286  1.00  0.00     0.211 HD
ENDBRANCH   6  13
BRANCH   7  15
ATOM     15  O   UNL     1     -63.340 -41.524 -38.890  1.00  0.00    -0.384 OA
ATOM     16  H   UNL     1     -63.391 -41.864 -39.822  1.00  0.00     0.211 HD
ENDBRANCH   7  15
ENDBRANCH   1   2
BRANCH   1  17
ATOM     17  C   UNL     1     -62.203 -43.530 -35.718  1.00  0.00     0.172 A 
ATOM     18  C   UNL     1     -61.171 -44.475 -35.747  1.00  0.00     0.205 A 
ATOM     19  C   UNL     1     -62.437 -42.770 -34.573  1.00  0.00     0.097 A 
ATOM     20  C   UNL     1     -60.311 -44.596 -34.627  1.00  0.00     0.188 A 
ATOM     21  C   UNL     1     -61.638 -42.907 -33.440  1.00  0.00     0.134 A 
ATOM     22  C   UNL     1     -60.520 -43.787 -33.472  1.00  0.00     0.111 A 
ATOM     23  O   UNL     1     -59.292 -45.454 -34.660  1.00  0.00    -0.452 OA
ATOM     24  C   UNL     1     -59.572 -43.891 -32.427  1.00  0.00     0.197 A 
ATOM     25  C   UNL     1     -58.430 -45.614 -33.659  1.00  0.00     0.138 A 
ATOM     26  C   UNL     1     -58.548 -44.828 -32.511  1.00  0.00     0.100 A 
ATOM     27  O   UNL     1     -59.595 -43.130 -31.424  1.00  0.00    -0.289 OA
BRANCH  18  28
ATOM     28  O   UNL     1     -61.059 -45.260 -36.912  1.00  0.00    -0.490 OA
ATOM     29  C   UNL     1     -60.326 -44.928 -38.082  1.00  0.00     0.278 C 
ENDBRANCH  18  28
BRANCH  21  30
ATOM     30  O   UNL     1     -62.019 -42.172 -32.313  1.00  0.00    -0.507 OA
ATOM     31  H   UNL     1     -61.859 -42.463 -31.358  1.00  0.00     0.293 HD
ENDBRANCH  21  30
BRANCH  25  32
ATOM     32  C   UNL     1     -57.333 -46.597 -33.800  1.00  0.00     0.017 A 
ATOM     33  C   UNL     1     -56.047 -46.277 -33.333  1.00  0.00     0.012 A 
ATOM     34  C   UNL     1     -57.548 -47.854 -34.400  1.00  0.00     0.012 A 
ATOM     35  C   UNL     1     -55.003 -47.199 -33.450  1.00  0.00     0.001 A 
ATOM     36  C   UNL     1     -56.496 -48.767 -34.523  1.00  0.00     0.001 A 
ATOM     37  C   UNL     1     -55.225 -48.441 -34.045  1.00  0.00     0.000 A 
ENDBRANCH  25  32
ENDBRANCH   1  17
TORSDOF 9
ENDMDL
MODEL 7
REMARK VINA RESULT:    -6.633      2.389      8.713
REMARK INTER + INTRA:         -10.839
REMARK INTER:                  -9.253
REMARK INTRA:                  -1.586
REMARK UNBOUND:                -1.493
REMARK SMILES COc1c(O[C@@H]2O[C@@H](C(=O)[O-])[C@H](O)[C@H](O)[C@@H]2O)cc(O)c2c(=O)cc(-c3ccccc3)oc12
REMARK SMILES IDX 5 1 6 2 8 3 12 4 7 5 14 6 16 7 9 8 10 9 11 10 13 11 15 13
REMARK SMILES IDX 17 15 4 17 3 18 18 19 33 20 19 21 21 22 32 23 22 24 25 25
REMARK SMILES IDX 24 26 23 27 2 28 1 29 20 30 26 32 27 33 31 34 28 35 30 36
REMARK SMILES IDX 29 37
REMARK H PARENT 13 12 15 14 17 16 20 31
REMARK Flexibility Score: inf
ROOT
ATOM      1  O   UNL     1     -62.939 -42.890 -35.400  1.00  0.00    -0.458 OA
ENDROOT
BRANCH   1   2
ATOM      2  C   UNL     1     -63.443 -42.395 -34.157  1.00  0.00     0.339 C 
ATOM      3  C   UNL     1     -61.466 -41.239 -33.649  1.00  0.00     0.199 C 
ATOM      4  C   UNL     1     -61.137 -42.121 -32.428  1.00  0.00     0.180 C 
ATOM      5  O   UNL     1     -62.870 -41.139 -33.840  1.00  0.00    -0.328 OA
ATOM      6  C   UNL     1     -61.777 -43.519 -32.571  1.00  0.00     0.181 C 
ATOM      7  C   UNL     1     -63.249 -43.414 -33.018  1.00  0.00     0.214 C 
BRANCH   3   8
ATOM      8  C   UNL     1     -60.910 -39.859 -33.455  1.00  0.00     0.073 C 
ATOM      9  O   UNL     1     -61.150 -38.949 -34.291  1.00  0.00    -0.547 OA
ATOM     10  O   UNL     1     -60.145 -39.571 -32.337  1.00  0.00    -0.547 OA
ENDBRANCH   3   8
BRANCH   4  11
ATOM     11  O   UNL     1     -59.745 -42.240 -32.282  1.00  0.00    -0.387 OA
ATOM     12  H   UNL     1     -59.365 -42.268 -33.201  1.00  0.00     0.211 HD
ENDBRANCH   4  11
BRANCH   6  13
ATOM     13  O   UNL     1     -61.029 -44.362 -33.416  1.00  0.00    -0.387 OA
ATOM     14  H   UNL     1     -60.202 -44.630 -32.943  1.00  0.00     0.211 HD
ENDBRANCH   6  13
BRANCH   7  15
ATOM     15  O   UNL     1     -63.733 -44.675 -33.412  1.00  0.00    -0.384 OA
ATOM     16  H   UNL     1     -63.959 -45.171 -32.581  1.00  0.00     0.211 HD
ENDBRANCH   7  15
ENDBRANCH   1   2
BRANCH   1  17
ATOM     17  C   UNL     1     -63.703 -42.867 -36.567  1.00  0.00     0.172 A 
ATOM     18  C   UNL     1     -64.386 -44.014 -36.989  1.00  0.00     0.205 A 
ATOM     19  C   UNL     1     -63.741 -41.699 -37.327  1.00  0.00     0.097 A 
ATOM     20  C   UNL     1     -65.183 -43.954 -38.160  1.00  0.00     0.188 A 
ATOM     21  C   UNL     1     -64.476 -41.630 -38.509  1.00  0.00     0.134 A 
ATOM     22  C   UNL     1     -65.259 -42.746 -38.914  1.00  0.00     0.111 A 
ATOM     23  O   UNL     1     -65.879 -45.021 -38.546  1.00  0.00    -0.452 OA
ATOM     24  C   UNL     1     -66.146 -42.725 -40.017  1.00  0.00     0.197 A 
ATOM     25  C   UNL     1     -66.665 -45.041 -39.620  1.00  0.00     0.138 A 
ATOM     26  C   UNL     1     -66.820 -43.884 -40.385  1.00  0.00     0.100 A 
ATOM     27  O   UNL     1     -66.381 -41.673 -40.667  1.00  0.00    -0.289 OA
BRANCH  18  28
ATOM     28  O   UNL     1     -64.224 -45.175 -36.208  1.00  0.00    -0.490 OA
ATOM     29  C   UNL     1     -63.321 -46.241 -36.463  1.00  0.00     0.278 C 
ENDBRANCH  18  28
BRANCH  21  30
ATOM     30  O   UNL     1     -64.366 -40.446 -39.246  1.00  0.00    -0.507 OA
ATOM     31  H   UNL     1     -63.884 -39.616 -38.928  1.00  0.00     0.293 HD
ENDBRANCH  21  30
BRANCH  25  32
ATOM     32  C   UNL     1     -67.395 -46.283 -39.959  1.00  0.00     0.017 A 
ATOM     33  C   UNL     1     -67.879 -46.471 -41.265  1.00  0.00     0.012 A 
ATOM     34  C   UNL     1     -67.619 -47.287 -38.996  1.00  0.00     0.012 A 
ATOM     35  C   UNL     1     -68.560 -47.643 -41.603  1.00  0.00     0.001 A 
ATOM     36  C   UNL     1     -68.312 -48.453 -39.340  1.00  0.00     0.001 A 
ATOM     37  C   UNL     1     -68.778 -48.633 -40.644  1.00  0.00     0.000 A 
ENDBRANCH  25  32
ENDBRANCH   1  17
TORSDOF 9
ENDMDL
MODEL 8
REMARK VINA RESULT:    -6.620      2.521      8.203
REMARK INTER + INTRA:         -10.822
REMARK INTER:                  -9.580
REMARK INTRA:                  -1.242
REMARK UNBOUND:                -1.493
REMARK SMILES COc1c(O[C@@H]2O[C@@H](C(=O)[O-])[C@H](O)[C@H](O)[C@@H]2O)cc(O)c2c(=O)cc(-c3ccccc3)oc12
REMARK SMILES IDX 5 1 6 2 8 3 12 4 7 5 14 6 16 7 9 8 10 9 11 10 13 11 15 13
REMARK SMILES IDX 17 15 4 17 3 18 18 19 33 20 19 21 21 22 32 23 22 24 25 25
REMARK SMILES IDX 24 26 23 27 2 28 1 29 20 30 26 32 27 33 31 34 28 35 30 36
REMARK SMILES IDX 29 37
REMARK H PARENT 13 12 15 14 17 16 20 31
REMARK Flexibility Score: inf
ROOT
ATOM      1  O   UNL     1     -62.472 -40.918 -34.947  1.00  0.00    -0.458 OA
ENDROOT
BRANCH   1   2
ATOM      2  C   UNL     1     -61.044 -40.902 -34.866  1.00  0.00     0.339 C 
ATOM      3  C   UNL     1     -60.964 -42.678 -33.336  1.00  0.00     0.199 C 
ATOM      4  C   UNL     1     -60.398 -41.811 -32.194  1.00  0.00     0.180 C 
ATOM      5  O   UNL     1     -60.534 -42.196 -34.601  1.00  0.00    -0.328 OA
ATOM      6  C   UNL     1     -60.789 -40.329 -32.383  1.00  0.00     0.181 C 
ATOM      7  C   UNL     1     -60.545 -39.870 -33.835  1.00  0.00     0.214 C 
BRANCH   3   8
ATOM      8  C   UNL     1     -60.504 -44.098 -33.185  1.00  0.00     0.073 C 
ATOM      9  O   UNL     1     -59.515 -44.377 -32.457  1.00  0.00    -0.547 OA
ATOM     10  O   UNL     1     -61.183 -45.120 -33.828  1.00  0.00    -0.547 OA
ENDBRANCH   3   8
BRANCH   4  11
ATOM     11  O   UNL     1     -60.868 -42.280 -30.957  1.00  0.00    -0.387 OA
ATOM     12  H   UNL     1     -61.182 -43.212 -31.108  1.00  0.00     0.211 HD
ENDBRANCH   4  11
BRANCH   6  13
ATOM     13  O   UNL     1     -62.108 -40.070 -31.963  1.00  0.00    -0.387 OA
ATOM     14  H   UNL     1     -62.686 -39.998 -32.764  1.00  0.00     0.211 HD
ENDBRANCH   6  13
BRANCH   7  15
ATOM     15  O   UNL     1     -61.157 -38.625 -34.065  1.00  0.00    -0.384 OA
ATOM     16  H   UNL     1     -60.548 -37.931 -33.697  1.00  0.00     0.211 HD
ENDBRANCH   7  15
ENDBRANCH   1   2
BRANCH   1  17
ATOM     17  C   UNL     1     -63.154 -41.832 -35.751  1.00  0.00     0.172 A 
ATOM     18  C   UNL     1     -64.221 -42.573 -35.230  1.00  0.00     0.205 A 
ATOM     19  C   UNL     1     -62.730 -42.025 -37.064  1.00  0.00     0.097 A 
ATOM     20  C   UNL     1     -64.920 -43.469 -36.077  1.00  0.00     0.188 A 
ATOM     21  C   UNL     1     -63.368 -42.938 -37.902  1.00  0.00     0.134 A 
ATOM     22  C   UNL     1     -64.517 -43.635 -37.435  1.00  0.00     0.111 A 
ATOM     23  O   UNL     1     -65.970 -44.144 -35.611  1.00  0.00    -0.452 OA
ATOM     24  C   UNL     1     -65.314 -44.473 -38.250  1.00  0.00     0.197 A 
ATOM     25  C   UNL     1     -66.691 -44.988 -36.345  1.00  0.00     0.138 A 
ATOM     26  C   UNL     1     -66.379 -45.172 -37.693  1.00  0.00     0.100 A 
ATOM     27  O   UNL     1     -65.118 -44.584 -39.489  1.00  0.00    -0.289 OA
BRANCH  18  28
ATOM     28  O   UNL     1     -64.529 -42.378 -33.869  1.00  0.00    -0.490 OA
ATOM     29  C   UNL     1     -64.342 -43.318 -32.822  1.00  0.00     0.278 C 
ENDBRANCH  18  28
BRANCH  21  30
ATOM     30  O   UNL     1     -62.802 -43.128 -39.166  1.00  0.00    -0.507 OA
ATOM     31  H   UNL     1     -61.924 -43.600 -39.336  1.00  0.00     0.293 HD
ENDBRANCH  21  30
BRANCH  25  32
ATOM     32  C   UNL     1     -67.839 -45.687 -35.726  1.00  0.00     0.017 A 
ATOM     33  C   UNL     1     -68.596 -46.592 -36.488  1.00  0.00     0.012 A 
ATOM     34  C   UNL     1     -68.195 -45.461 -34.381  1.00  0.00     0.012 A 
ATOM     35  C   UNL     1     -69.676 -47.268 -35.914  1.00  0.00     0.001 A 
ATOM     36  C   UNL     1     -69.284 -46.133 -33.816  1.00  0.00     0.001 A 
ATOM     37  C   UNL     1     -70.022 -47.039 -34.581  1.00  0.00     0.000 A 
ENDBRANCH  25  32
ENDBRANCH   1  17
TORSDOF 9
ENDMDL
MODEL 9
REMARK VINA RESULT:    -6.575      2.267      8.117
REMARK INTER + INTRA:         -10.759
REMARK INTER:                  -9.970
REMARK INTRA:                  -0.789
REMARK UNBOUND:                -1.493
REMARK SMILES COc1c(O[C@@H]2O[C@@H](C(=O)[O-])[C@H](O)[C@H](O)[C@@H]2O)cc(O)c2c(=O)cc(-c3ccccc3)oc12
REMARK SMILES IDX 5 1 6 2 8 3 12 4 7 5 14 6 16 7 9 8 10 9 11 10 13 11 15 13
REMARK SMILES IDX 17 15 4 17 3 18 18 19 33 20 19 21 21 22 32 23 22 24 25 25
REMARK SMILES IDX 24 26 23 27 2 28 1 29 20 30 26 32 27 33 31 34 28 35 30 36
REMARK SMILES IDX 29 37
REMARK H PARENT 13 12 15 14 17 16 20 31
REMARK Flexibility Score: inf
ROOT
ATOM      1  O   UNL     1     -63.256 -41.463 -35.325  1.00  0.00    -0.458 OA
ENDROOT
BRANCH   1   2
ATOM      2  C   UNL     1     -61.847 -41.699 -35.345  1.00  0.00     0.339 C 
ATOM      3  C   UNL     1     -61.945 -43.318 -33.651  1.00  0.00     0.199 C 
ATOM      4  C   UNL     1     -61.140 -42.471 -32.645  1.00  0.00     0.180 C 
ATOM      5  O   UNL     1     -61.548 -43.036 -34.985  1.00  0.00    -0.328 OA
ATOM      6  C   UNL     1     -61.282 -40.966 -32.957  1.00  0.00     0.181 C 
ATOM      7  C   UNL     1     -61.088 -40.689 -34.461  1.00  0.00     0.214 C 
BRANCH   3   8
ATOM      8  C   UNL     1     -61.729 -44.779 -33.386  1.00  0.00     0.073 C 
ATOM      9  O   UNL     1     -62.436 -45.647 -33.964  1.00  0.00    -0.547 OA
ATOM     10  O   UNL     1     -60.728 -45.186 -32.519  1.00  0.00    -0.547 OA
ENDBRANCH   3   8
BRANCH   4  11
ATOM     11  O   UNL     1     -61.576 -42.736 -31.336  1.00  0.00    -0.387 OA
ATOM     12  H   UNL     1     -62.567 -42.644 -31.344  1.00  0.00     0.211 HD
ENDBRANCH   4  11
BRANCH   6  13
ATOM     13  O   UNL     1     -62.494 -40.435 -32.476  1.00  0.00    -0.387 OA
ATOM     14  H   UNL     1     -62.667 -39.575 -32.934  1.00  0.00     0.211 HD
ENDBRANCH   6  13
BRANCH   7  15
ATOM     15  O   UNL     1     -61.491 -39.377 -34.775  1.00  0.00    -0.384 OA
ATOM     16  H   UNL     1     -62.317 -39.452 -35.323  1.00  0.00     0.211 HD
ENDBRANCH   7  15
ENDBRANCH   1   2
BRANCH   1  17
ATOM     17  C   UNL     1     -64.163 -42.365 -35.883  1.00  0.00     0.172 A 
ATOM     18  C   UNL     1     -64.395 -42.371 -37.263  1.00  0.00     0.205 A 
ATOM     19  C   UNL     1     -64.863 -43.227 -35.041  1.00  0.00     0.097 A 
ATOM     20  C   UNL     1     -65.295 -43.321 -37.809  1.00  0.00     0.188 A 
ATOM     21  C   UNL     1     -65.791 -44.134 -35.548  1.00  0.00     0.134 A 
ATOM     22  C   UNL     1     -65.979 -44.234 -36.954  1.00  0.00     0.111 A 
ATOM     23  O   UNL     1     -65.488 -43.374 -39.126  1.00  0.00    -0.452 OA
ATOM     24  C   UNL     1     -66.790 -45.216 -37.572  1.00  0.00     0.197 A 
ATOM     25  C   UNL     1     -66.299 -44.247 -39.719  1.00  0.00     0.138 A 
ATOM     26  C   UNL     1     -66.973 -45.197 -38.950  1.00  0.00     0.100 A 
ATOM     27  O   UNL     1     -67.332 -46.145 -36.917  1.00  0.00    -0.289 OA
BRANCH  18  28
ATOM     28  O   UNL     1     -63.708 -41.409 -38.030  1.00  0.00    -0.490 OA
ATOM     29  C   UNL     1     -62.609 -41.653 -38.895  1.00  0.00     0.278 C 
ENDBRANCH  18  28
BRANCH  21  30
ATOM     30  O   UNL     1     -66.511 -44.882 -34.611  1.00  0.00    -0.507 OA
ATOM     31  H   UNL     1     -67.503 -45.070 -34.668  1.00  0.00     0.293 HD
ENDBRANCH  21  30
BRANCH  25  32
ATOM     32  C   UNL     1     -66.441 -44.218 -41.192  1.00  0.00     0.017 A 
ATOM     33  C   UNL     1     -67.246 -43.237 -41.794  1.00  0.00     0.012 A 
ATOM     34  C   UNL     1     -65.784 -45.159 -42.009  1.00  0.00     0.012 A 
ATOM     35  C   UNL     1     -67.381 -43.190 -43.184  1.00  0.00     0.001 A 
ATOM     36  C   UNL     1     -65.932 -45.112 -43.400  1.00  0.00     0.001 A 
ATOM     37  C   UNL     1     -66.727 -44.126 -43.987  1.00  0.00     0.000 A 
ENDBRANCH  25  32
ENDBRANCH   1  17
TORSDOF 9
ENDMDL
