MODEL 1
REMARK VINA RESULT:    -3.856      0.000      0.000
REMARK INTER + INTRA:          -8.096
REMARK INTER:                  -6.786
REMARK INTRA:                  -1.310
REMARK UNBOUND:                -1.310
REMARK SMILES CCCCCCC=CCCCCCCCC(=O)[O-]
REMARK SMILES IDX 10 1 11 2 12 3 13 4 14 5 15 6 16 7 17 8 18 9 9 10 8 11 7 12
REMARK SMILES IDX 6 13 5 14 4 15 3 16 2 17 1 18
REMARK H PARENT
REMARK Flexibility Score: inf
ROOT
ATOM      1  C   UNL     1     -13.970 -17.067  21.276  1.00  0.00     0.004 C 
ENDROOT
BRANCH   1   2
ATOM      2  C   UNL     1     -15.034 -17.518  22.290  1.00  0.00     0.000 C 
BRANCH   2   3
ATOM      3  C   UNL     1     -14.474 -17.727  23.716  1.00  0.00     0.000 C 
BRANCH   3   4
ATOM      4  C   UNL     1     -14.991 -16.685  24.728  1.00  0.00     0.000 C 
BRANCH   4   5
ATOM      5  C   UNL     1     -15.125 -15.269  24.137  1.00  0.00     0.006 C 
BRANCH   5   6
ATOM      6  C   UNL     1     -13.844 -14.441  24.301  1.00  0.00     0.053 C 
BRANCH   6   7
ATOM      7  C   UNL     1     -13.547 -13.685  23.045  1.00  0.00     0.041 C 
ATOM      8  O   UNL     1     -12.437 -13.828  22.466  1.00  0.00    -0.550 OA
ATOM      9  O   UNL     1     -14.476 -12.784  22.539  1.00  0.00    -0.550 OA
ENDBRANCH   6   7
ENDBRANCH   5   6
ENDBRANCH   4   5
ENDBRANCH   3   4
ENDBRANCH   2   3
ENDBRANCH   1   2
BRANCH   1  10
ATOM     10  C   UNL     1     -14.371 -17.368  19.825  1.00  0.00     0.027 C 
BRANCH  10  11
ATOM     11  C   UNL     1     -14.523 -16.097  19.038  1.00  0.00    -0.031 C 
ATOM     12  C   UNL     1     -14.572 -14.901  19.641  1.00  0.00    -0.031 C 
BRANCH  12  13
ATOM     13  C   UNL     1     -14.755 -13.628  18.858  1.00  0.00     0.027 C 
BRANCH  13  14
ATOM     14  C   UNL     1     -13.677 -12.585  19.190  1.00  0.00     0.004 C 
BRANCH  14  15
ATOM     15  C   UNL     1     -12.262 -13.190  19.156  1.00  0.00     0.000 C 
BRANCH  15  16
ATOM     16  C   UNL     1     -11.236 -12.273  18.466  1.00  0.00    -0.000 C 
BRANCH  16  17
ATOM     17  C   UNL     1     -11.732 -11.608  17.170  1.00  0.00    -0.003 C 
ATOM     18  C   UNL     1     -11.311 -10.144  17.046  1.00  0.00     0.004 C 
ENDBRANCH  16  17
ENDBRANCH  15  16
ENDBRANCH  14  15
ENDBRANCH  13  14
ENDBRANCH  12  13
ENDBRANCH  10  11
ENDBRANCH   1  10
TORSDOF 13
ENDMDL
MODEL 2
REMARK VINA RESULT:    -3.788      1.758      3.238
REMARK INTER + INTRA:          -7.977
REMARK INTER:                  -6.715
REMARK INTRA:                  -1.262
REMARK UNBOUND:                -1.310
REMARK SMILES CCCCCCC=CCCCCCCCC(=O)[O-]
REMARK SMILES IDX 10 1 11 2 12 3 13 4 14 5 15 6 16 7 17 8 18 9 9 10 8 11 7 12
REMARK SMILES IDX 6 13 5 14 4 15 3 16 2 17 1 18
REMARK H PARENT
REMARK Flexibility Score: inf
ROOT
ATOM      1  C   UNL     1     -13.478 -13.411  23.300  1.00  0.00     0.004 C 
ENDROOT
BRANCH   1   2
ATOM      2  C   UNL     1     -13.367 -14.911  23.617  1.00  0.00     0.000 C 
BRANCH   2   3
ATOM      3  C   UNL     1     -14.669 -15.697  23.338  1.00  0.00     0.000 C 
BRANCH   3   4
ATOM      4  C   UNL     1     -14.423 -17.190  23.042  1.00  0.00     0.000 C 
BRANCH   4   5
ATOM      5  C   UNL     1     -14.865 -17.617  21.630  1.00  0.00     0.006 C 
BRANCH   5   6
ATOM      6  C   UNL     1     -15.024 -16.424  20.678  1.00  0.00     0.053 C 
BRANCH   6   7
ATOM      7  C   UNL     1     -13.797 -16.261  19.837  1.00  0.00     0.041 C 
ATOM      8  O   UNL     1     -13.645 -16.953  18.796  1.00  0.00    -0.550 OA
ATOM      9  O   UNL     1     -12.797 -15.380  20.230  1.00  0.00    -0.550 OA
ENDBRANCH   6   7
ENDBRANCH   5   6
ENDBRANCH   4   5
ENDBRANCH   3   4
ENDBRANCH   2   3
ENDBRANCH   1   2
BRANCH   1  10
ATOM     10  C   UNL     1     -14.915 -12.979  22.976  1.00  0.00     0.027 C 
BRANCH  10  11
ATOM     11  C   UNL     1     -14.949 -12.106  21.753  1.00  0.00    -0.031 C 
ATOM     12  C   UNL     1     -15.078 -12.627  20.525  1.00  0.00    -0.031 C 
BRANCH  12  13
ATOM     13  C   UNL     1     -15.081 -11.758  19.295  1.00  0.00     0.027 C 
BRANCH  13  14
ATOM     14  C   UNL     1     -14.078 -12.247  18.240  1.00  0.00     0.004 C 
BRANCH  14  15
ATOM     15  C   UNL     1     -12.767 -12.738  18.876  1.00  0.00     0.000 C 
BRANCH  15  16
ATOM     16  C   UNL     1     -11.530 -11.984  18.356  1.00  0.00    -0.000 C 
BRANCH  16  17
ATOM     17  C   UNL     1     -11.682 -11.386  16.946  1.00  0.00    -0.003 C 
ATOM     18  C   UNL     1     -11.302  -9.908  16.875  1.00  0.00     0.004 C 
ENDBRANCH  16  17
ENDBRANCH  15  16
ENDBRANCH  14  15
ENDBRANCH  13  14
ENDBRANCH  12  13
ENDBRANCH  10  11
ENDBRANCH   1  10
TORSDOF 13
ENDMDL
MODEL 3
REMARK VINA RESULT:    -3.766      1.736      5.610
REMARK INTER + INTRA:          -7.938
REMARK INTER:                  -6.592
REMARK INTRA:                  -1.346
REMARK UNBOUND:                -1.310
REMARK SMILES CCCCCCC=CCCCCCCCC(=O)[O-]
REMARK SMILES IDX 10 1 11 2 12 3 13 4 14 5 15 6 16 7 17 8 18 9 9 10 8 11 7 12
REMARK SMILES IDX 6 13 5 14 4 15 3 16 2 17 1 18
REMARK H PARENT
REMARK Flexibility Score: inf
ROOT
ATOM      1  C   UNL     1     -13.700 -15.820  19.146  1.00  0.00     0.004 C 
ENDROOT
BRANCH   1   2
ATOM      2  C   UNL     1     -15.097 -15.198  19.302  1.00  0.00     0.000 C 
BRANCH   2   3
ATOM      3  C   UNL     1     -15.125 -13.675  19.035  1.00  0.00     0.000 C 
BRANCH   3   4
ATOM      4  C   UNL     1     -13.720 -13.042  18.996  1.00  0.00     0.000 C 
BRANCH   4   5
ATOM      5  C   UNL     1     -13.682 -11.674  18.291  1.00  0.00     0.006 C 
BRANCH   5   6
ATOM      6  C   UNL     1     -12.272 -11.296  17.818  1.00  0.00     0.053 C 
BRANCH   6   7
ATOM      7  C   UNL     1     -11.313 -12.410  18.095  1.00  0.00     0.041 C 
ATOM      8  O   UNL     1     -11.088 -13.286  17.218  1.00  0.00    -0.550 OA
ATOM      9  O   UNL     1     -10.703 -12.511  19.340  1.00  0.00    -0.550 OA
ENDBRANCH   6   7
ENDBRANCH   5   6
ENDBRANCH   4   5
ENDBRANCH   3   4
ENDBRANCH   2   3
ENDBRANCH   1   2
BRANCH   1  10
ATOM     10  C   UNL     1     -13.676 -17.316  19.493  1.00  0.00     0.027 C 
BRANCH  10  11
ATOM     11  C   UNL     1     -14.531 -17.600  20.695  1.00  0.00    -0.031 C 
ATOM     12  C   UNL     1     -13.999 -17.717  21.920  1.00  0.00    -0.031 C 
BRANCH  12  13
ATOM     13  C   UNL     1     -14.849 -18.033  23.123  1.00  0.00     0.027 C 
BRANCH  13  14
ATOM     14  C   UNL     1     -14.731 -16.956  24.212  1.00  0.00     0.004 C 
BRANCH  14  15
ATOM     15  C   UNL     1     -15.092 -15.558  23.680  1.00  0.00     0.000 C 
BRANCH  15  16
ATOM     16  C   UNL     1     -14.151 -14.457  24.202  1.00  0.00    -0.000 C 
BRANCH  16  17
ATOM     17  C   UNL     1     -13.516 -13.578  23.110  1.00  0.00    -0.003 C 
ATOM     18  C   UNL     1     -12.496 -14.326  22.252  1.00  0.00     0.004 C 
ENDBRANCH  16  17
ENDBRANCH  15  16
ENDBRANCH  14  15
ENDBRANCH  13  14
ENDBRANCH  12  13
ENDBRANCH  10  11
ENDBRANCH   1  10
TORSDOF 13
ENDMDL
MODEL 4
REMARK VINA RESULT:    -3.439      1.365      5.940
REMARK INTER + INTRA:          -7.364
REMARK INTER:                  -5.743
REMARK INTRA:                  -1.621
REMARK UNBOUND:                -1.310
REMARK SMILES CCCCCCC=CCCCCCCCC(=O)[O-]
REMARK SMILES IDX 10 1 11 2 12 3 13 4 14 5 15 6 16 7 17 8 18 9 9 10 8 11 7 12
REMARK SMILES IDX 6 13 5 14 4 15 3 16 2 17 1 18
REMARK H PARENT
REMARK Flexibility Score: inf
ROOT
ATOM      1  C   UNL     1     -15.125 -13.603  20.228  1.00  0.00     0.004 C 
ENDROOT
BRANCH   1   2
ATOM      2  C   UNL     1     -14.903 -12.116  19.906  1.00  0.00     0.000 C 
BRANCH   2   3
ATOM      3  C   UNL     1     -14.462 -11.863  18.446  1.00  0.00     0.000 C 
BRANCH   3   4
ATOM      4  C   UNL     1     -12.989 -11.424  18.326  1.00  0.00     0.000 C 
BRANCH   4   5
ATOM      5  C   UNL     1     -12.057 -12.534  17.805  1.00  0.00     0.006 C 
BRANCH   5   6
ATOM      6  C   UNL     1     -10.981 -12.925  18.826  1.00  0.00     0.053 C 
BRANCH   6   7
ATOM      7  C   UNL     1     -11.530 -13.906  19.813  1.00  0.00     0.041 C 
ATOM      8  O   UNL     1     -11.791 -13.542  20.991  1.00  0.00    -0.550 OA
ATOM      9  O   UNL     1     -11.707 -15.235  19.448  1.00  0.00    -0.550 OA
ENDBRANCH   6   7
ENDBRANCH   5   6
ENDBRANCH   4   5
ENDBRANCH   3   4
ENDBRANCH   2   3
ENDBRANCH   1   2
BRANCH   1  10
ATOM     10  C   UNL     1     -14.996 -14.503  18.991  1.00  0.00     0.027 C 
BRANCH  10  11
ATOM     11  C   UNL     1     -14.812 -15.940  19.392  1.00  0.00    -0.031 C 
ATOM     12  C   UNL     1     -14.882 -16.323  20.674  1.00  0.00    -0.031 C 
BRANCH  12  13
ATOM     13  C   UNL     1     -14.668 -17.757  21.082  1.00  0.00     0.027 C 
BRANCH  13  14
ATOM     14  C   UNL     1     -14.616 -17.922  22.608  1.00  0.00     0.004 C 
BRANCH  14  15
ATOM     15  C   UNL     1     -14.040 -16.676  23.302  1.00  0.00     0.000 C 
BRANCH  15  16
ATOM     16  C   UNL     1     -14.971 -16.113  24.391  1.00  0.00    -0.000 C 
BRANCH  16  17
ATOM     17  C   UNL     1     -14.772 -14.619  24.704  1.00  0.00    -0.003 C 
ATOM     18  C   UNL     1     -13.746 -13.946  23.794  1.00  0.00     0.004 C 
ENDBRANCH  16  17
ENDBRANCH  15  16
ENDBRANCH  14  15
ENDBRANCH  13  14
ENDBRANCH  12  13
ENDBRANCH  10  11
ENDBRANCH   1  10
TORSDOF 13
ENDMDL
MODEL 5
REMARK VINA RESULT:    -3.234      1.792      3.696
REMARK INTER + INTRA:          -7.003
REMARK INTER:                  -6.272
REMARK INTRA:                  -0.731
REMARK UNBOUND:                -1.310
REMARK SMILES CCCCCCC=CCCCCCCCC(=O)[O-]
REMARK SMILES IDX 10 1 11 2 12 3 13 4 14 5 15 6 16 7 17 8 18 9 9 10 8 11 7 12
REMARK SMILES IDX 6 13 5 14 4 15 3 16 2 17 1 18
REMARK H PARENT
REMARK Flexibility Score: inf
ROOT
ATOM      1  C   UNL     1     -13.452 -13.564  23.219  1.00  0.00     0.004 C 
ENDROOT
BRANCH   1   2
ATOM      2  C   UNL     1     -13.739 -14.531  24.380  1.00  0.00     0.000 C 
BRANCH   2   3
ATOM      3  C   UNL     1     -14.869 -15.540  24.074  1.00  0.00     0.000 C 
BRANCH   3   4
ATOM      4  C   UNL     1     -14.355 -16.975  23.848  1.00  0.00     0.000 C 
BRANCH   4   5
ATOM      5  C   UNL     1     -14.682 -17.533  22.451  1.00  0.00     0.006 C 
BRANCH   5   6
ATOM      6  C   UNL     1     -15.106 -16.436  21.465  1.00  0.00     0.053 C 
BRANCH   6   7
ATOM      7  C   UNL     1     -14.201 -16.427  20.274  1.00  0.00     0.041 C 
ATOM      8  O   UNL     1     -14.395 -15.608  19.337  1.00  0.00    -0.550 OA
ATOM      9  O   UNL     1     -13.173 -17.357  20.174  1.00  0.00    -0.550 OA
ENDBRANCH   6   7
ENDBRANCH   5   6
ENDBRANCH   4   5
ENDBRANCH   3   4
ENDBRANCH   2   3
ENDBRANCH   1   2
BRANCH   1  10
ATOM     10  C   UNL     1     -12.737 -14.245  22.044  1.00  0.00     0.027 C 
BRANCH  10  11
ATOM     11  C   UNL     1     -12.213 -13.225  21.072  1.00  0.00    -0.031 C 
ATOM     12  C   UNL     1     -11.390 -13.570  20.072  1.00  0.00    -0.031 C 
BRANCH  12  13
ATOM     13  C   UNL     1     -10.839 -12.546  19.115  1.00  0.00     0.027 C 
BRANCH  13  14
ATOM     14  C   UNL     1     -11.586 -12.548  17.773  1.00  0.00     0.004 C 
BRANCH  14  15
ATOM     15  C   UNL     1     -12.837 -11.653  17.809  1.00  0.00     0.000 C 
BRANCH  15  16
ATOM     16  C   UNL     1     -14.099 -12.407  18.267  1.00  0.00    -0.000 C 
BRANCH  16  17
ATOM     17  C   UNL     1     -15.115 -11.553  19.046  1.00  0.00    -0.003 C 
ATOM     18  C   UNL     1     -14.966 -11.674  20.562  1.00  0.00     0.004 C 
ENDBRANCH  16  17
ENDBRANCH  15  16
ENDBRANCH  14  15
ENDBRANCH  13  14
ENDBRANCH  12  13
ENDBRANCH  10  11
ENDBRANCH   1  10
TORSDOF 13
ENDMDL
MODEL 6
REMARK VINA RESULT:    -3.133      1.240      2.275
REMARK INTER + INTRA:          -6.824
REMARK INTER:                  -5.238
REMARK INTRA:                  -1.585
REMARK UNBOUND:                -1.310
REMARK SMILES CCCCCCC=CCCCCCCCC(=O)[O-]
REMARK SMILES IDX 10 1 11 2 12 3 13 4 14 5 15 6 16 7 17 8 18 9 9 10 8 11 7 12
REMARK SMILES IDX 6 13 5 14 4 15 3 16 2 17 1 18
REMARK H PARENT
REMARK Flexibility Score: inf
ROOT
ATOM      1  C   UNL     1     -13.713 -16.480  18.748  1.00  0.00     0.004 C 
ENDROOT
BRANCH   1   2
ATOM      2  C   UNL     1     -13.841 -17.769  19.577  1.00  0.00     0.000 C 
BRANCH   2   3
ATOM      3  C   UNL     1     -15.124 -17.821  20.438  1.00  0.00     0.000 C 
BRANCH   3   4
ATOM      4  C   UNL     1     -14.836 -17.926  21.948  1.00  0.00     0.000 C 
BRANCH   4   5
ATOM      5  C   UNL     1     -15.009 -16.593  22.701  1.00  0.00     0.006 C 
BRANCH   5   6
ATOM      6  C   UNL     1     -13.667 -15.959  23.089  1.00  0.00     0.053 C 
BRANCH   6   7
ATOM      7  C   UNL     1     -13.888 -14.652  23.782  1.00  0.00     0.041 C 
ATOM      8  O   UNL     1     -13.257 -13.626  23.416  1.00  0.00    -0.550 OA
ATOM      9  O   UNL     1     -14.754 -14.577  24.866  1.00  0.00    -0.550 OA
ENDBRANCH   6   7
ENDBRANCH   5   6
ENDBRANCH   4   5
ENDBRANCH   3   4
ENDBRANCH   2   3
ENDBRANCH   1   2
BRANCH   1  10
ATOM     10  C   UNL     1     -14.718 -15.401  19.173  1.00  0.00     0.027 C 
BRANCH  10  11
ATOM     11  C   UNL     1     -14.011 -14.209  19.753  1.00  0.00    -0.031 C 
ATOM     12  C   UNL     1     -12.684 -14.206  19.944  1.00  0.00    -0.031 C 
BRANCH  12  13
ATOM     13  C   UNL     1     -11.976 -13.025  20.554  1.00  0.00     0.027 C 
BRANCH  13  14
ATOM     14  C   UNL     1     -10.829 -12.519  19.667  1.00  0.00     0.004 C 
BRANCH  14  15
ATOM     15  C   UNL     1     -10.830 -13.193  18.284  1.00  0.00     0.000 C 
BRANCH  15  16
ATOM     16  C   UNL     1     -11.740 -12.477  17.271  1.00  0.00    -0.000 C 
BRANCH  16  17
ATOM     17  C   UNL     1     -12.064 -11.012  17.614  1.00  0.00    -0.003 C 
ATOM     18  C   UNL     1     -11.340 -10.009  16.717  1.00  0.00     0.004 C 
ENDBRANCH  16  17
ENDBRANCH  15  16
ENDBRANCH  14  15
ENDBRANCH  13  14
ENDBRANCH  12  13
ENDBRANCH  10  11
ENDBRANCH   1  10
TORSDOF 13
ENDMDL
MODEL 7
REMARK VINA RESULT:    -3.017      1.902      6.132
REMARK INTER + INTRA:          -6.620
REMARK INTER:                  -5.516
REMARK INTRA:                  -1.104
REMARK UNBOUND:                -1.310
REMARK SMILES CCCCCCC=CCCCCCCCC(=O)[O-]
REMARK SMILES IDX 10 1 11 2 12 3 13 4 14 5 15 6 16 7 17 8 18 9 9 10 8 11 7 12
REMARK SMILES IDX 6 13 5 14 4 15 3 16 2 17 1 18
REMARK H PARENT
REMARK Flexibility Score: inf
ROOT
ATOM      1  C   UNL     1     -13.730 -12.974  22.138  1.00  0.00     0.004 C 
ENDROOT
BRANCH   1   2
ATOM      2  C   UNL     1     -13.786 -13.801  20.842  1.00  0.00     0.000 C 
BRANCH   2   3
ATOM      3  C   UNL     1     -15.047 -13.527  19.992  1.00  0.00     0.000 C 
BRANCH   3   4
ATOM      4  C   UNL     1     -14.782 -12.584  18.802  1.00  0.00     0.000 C 
BRANCH   4   5
ATOM      5  C   UNL     1     -13.503 -11.741  18.958  1.00  0.00     0.006 C 
BRANCH   5   6
ATOM      6  C   UNL     1     -12.633 -11.754  17.694  1.00  0.00     0.053 C 
BRANCH   6   7
ATOM      7  C   UNL     1     -11.355 -12.489  17.947  1.00  0.00     0.041 C 
ATOM      8  O   UNL     1     -10.629 -12.848  16.983  1.00  0.00    -0.550 OA
ATOM      9  O   UNL     1     -10.990 -12.823  19.246  1.00  0.00    -0.550 OA
ENDBRANCH   6   7
ENDBRANCH   5   6
ENDBRANCH   4   5
ENDBRANCH   3   4
ENDBRANCH   2   3
ENDBRANCH   1   2
BRANCH   1  10
ATOM     10  C   UNL     1     -15.072 -12.949  22.882  1.00  0.00     0.027 C 
BRANCH  10  11
ATOM     11  C   UNL     1     -15.125 -14.029  23.926  1.00  0.00    -0.031 C 
ATOM     12  C   UNL     1     -14.764 -15.290  23.647  1.00  0.00    -0.031 C 
BRANCH  12  13
ATOM     13  C   UNL     1     -14.845 -16.381  24.682  1.00  0.00     0.027 C 
BRANCH  13  14
ATOM     14  C   UNL     1     -14.373 -17.735  24.132  1.00  0.00     0.004 C 
BRANCH  14  15
ATOM     15  C   UNL     1     -15.086 -18.103  22.819  1.00  0.00     0.000 C 
BRANCH  15  16
ATOM     16  C   UNL     1     -14.174 -17.974  21.586  1.00  0.00    -0.000 C 
BRANCH  16  17
ATOM     17  C   UNL     1     -14.781 -17.188  20.411  1.00  0.00    -0.003 C 
ATOM     18  C   UNL     1     -13.863 -17.125  19.191  1.00  0.00     0.004 C 
ENDBRANCH  16  17
ENDBRANCH  15  16
ENDBRANCH  14  15
ENDBRANCH  13  14
ENDBRANCH  12  13
ENDBRANCH  10  11
ENDBRANCH   1  10
TORSDOF 13
ENDMDL
MODEL 8
REMARK VINA RESULT:    -1.175      2.378      6.096
REMARK INTER + INTRA:          -3.378
REMARK INTER:                  -2.475
REMARK INTRA:                  -0.903
REMARK UNBOUND:                -1.310
REMARK SMILES CCCCCCC=CCCCCCCCC(=O)[O-]
REMARK SMILES IDX 10 1 11 2 12 3 13 4 14 5 15 6 16 7 17 8 18 9 9 10 8 11 7 12
REMARK SMILES IDX 6 13 5 14 4 15 3 16 2 17 1 18
REMARK H PARENT
REMARK Flexibility Score: inf
ROOT
ATOM      1  C   UNL     1     -14.526 -11.904  18.808  1.00  0.00     0.004 C 
ENDROOT
BRANCH   1   2
ATOM      2  C   UNL     1     -14.894 -13.378  18.572  1.00  0.00     0.000 C 
BRANCH   2   3
ATOM      3  C   UNL     1     -13.737 -14.357  18.876  1.00  0.00     0.000 C 
BRANCH   3   4
ATOM      4  C   UNL     1     -12.773 -13.837  19.960  1.00  0.00     0.000 C 
BRANCH   4   5
ATOM      5  C   UNL     1     -11.334 -13.626  19.454  1.00  0.00     0.006 C 
BRANCH   5   6
ATOM      6  C   UNL     1     -11.027 -12.153  19.156  1.00  0.00     0.053 C 
BRANCH   6   7
ATOM      7  C   UNL     1     -11.168 -11.875  17.693  1.00  0.00     0.041 C 
ATOM      8  O   UNL     1     -11.446 -10.715  17.291  1.00  0.00    -0.550 OA
ATOM      9  O   UNL     1     -11.040 -12.910  16.773  1.00  0.00    -0.550 OA
ENDBRANCH   6   7
ENDBRANCH   5   6
ENDBRANCH   4   5
ENDBRANCH   3   4
ENDBRANCH   2   3
ENDBRANCH   1   2
BRANCH   1  10
ATOM     10  C   UNL     1     -15.125 -11.344  20.106  1.00  0.00     0.027 C 
BRANCH  10  11
ATOM     11  C   UNL     1     -15.085 -12.372  21.201  1.00  0.00    -0.031 C 
ATOM     12  C   UNL     1     -14.895 -12.023  22.482  1.00  0.00    -0.031 C 
BRANCH  12  13
ATOM     13  C   UNL     1     -14.824 -13.054  23.577  1.00  0.00     0.027 C 
BRANCH  13  14
ATOM     14  C   UNL     1     -15.125 -14.468  23.061  1.00  0.00     0.004 C 
BRANCH  14  15
ATOM     15  C   UNL     1     -14.080 -15.491  23.540  1.00  0.00     0.000 C 
BRANCH  15  16
ATOM     16  C   UNL     1     -14.507 -16.947  23.285  1.00  0.00    -0.000 C 
BRANCH  16  17
ATOM     17  C   UNL     1     -15.099 -17.213  21.889  1.00  0.00    -0.003 C 
ATOM     18  C   UNL     1     -14.053 -17.172  20.775  1.00  0.00     0.004 C 
ENDBRANCH  16  17
ENDBRANCH  15  16
ENDBRANCH  14  15
ENDBRANCH  13  14
ENDBRANCH  12  13
ENDBRANCH  10  11
ENDBRANCH   1  10
TORSDOF 13
ENDMDL
