MODEL 1
REMARK VINA RESULT:    -2.888      0.000      0.000
REMARK INTER + INTRA:          -2.888
REMARK INTER:                  -2.888
REMARK INTRA:                   0.000
REMARK UNBOUND:                 0.000
REMARK SMILES c1cc[nH]c1
REMARK SMILES IDX 1 1 5 2 4 3 3 4 2 5
REMARK H PARENT 4 6
REMARK Flexibility Score: inf
ROOT
ATOM      1  C   UNL     1      22.351  26.668  15.813  1.00  0.00     0.019 A 
ATOM      2  C   UNL     1      21.221  27.368  16.182  1.00  0.00     0.082 A 
ATOM      3  N   UNL     1      20.534  27.742  15.088  1.00  0.00    -0.368 N 
ATOM      4  C   UNL     1      21.212  27.287  14.021  1.00  0.00     0.082 A 
ATOM      5  C   UNL     1      22.345  26.616  14.433  1.00  0.00     0.019 A 
ATOM      6  H   UNL     1      19.642  28.283  15.071  1.00  0.00     0.165 HD
ENDROOT
TORSDOF 0
ENDMDL
MODEL 2
REMARK VINA RESULT:    -2.829     16.320     16.798
REMARK INTER + INTRA:          -2.829
REMARK INTER:                  -2.829
REMARK INTRA:                   0.000
REMARK UNBOUND:                 0.000
REMARK SMILES c1cc[nH]c1
REMARK SMILES IDX 1 1 5 2 4 3 3 4 2 5
REMARK H PARENT 4 6
REMARK Flexibility Score: inf
ROOT
ATOM      1  C   UNL     1       5.193  26.672  16.054  1.00  0.00     0.019 A 
ATOM      2  C   UNL     1       5.963  26.669  14.910  1.00  0.00     0.082 A 
ATOM      3  N   UNL     1       5.170  26.665  13.823  1.00  0.00    -0.368 N 
ATOM      4  C   UNL     1       3.899  26.666  14.260  1.00  0.00     0.082 A 
ATOM      5  C   UNL     1       3.876  26.669  15.640  1.00  0.00     0.019 A 
ATOM      6  H   UNL     1       5.483  26.663  12.827  1.00  0.00     0.165 HD
ENDROOT
TORSDOF 0
ENDMDL
MODEL 3
REMARK VINA RESULT:    -2.802     16.304     16.772
REMARK INTER + INTRA:          -2.802
REMARK INTER:                  -2.802
REMARK INTRA:                   0.000
REMARK UNBOUND:                 0.000
REMARK SMILES c1cc[nH]c1
REMARK SMILES IDX 1 1 5 2 4 3 3 4 2 5
REMARK H PARENT 4 6
REMARK Flexibility Score: inf
ROOT
ATOM      1  C   UNL     1       4.438  27.033  16.050  1.00  0.00     0.019 A 
ATOM      2  C   UNL     1       3.876  27.488  14.875  1.00  0.00     0.082 A 
ATOM      3  N   UNL     1       4.608  27.073  13.826  1.00  0.00    -0.368 N 
ATOM      4  C   UNL     1       5.633  26.355  14.317  1.00  0.00     0.082 A 
ATOM      5  C   UNL     1       5.559  26.311  15.695  1.00  0.00     0.019 A 
ATOM      6  H   UNL     1       4.416  27.269  12.819  1.00  0.00     0.165 HD
ENDROOT
TORSDOF 0
ENDMDL
MODEL 4
REMARK VINA RESULT:    -2.755      0.175      1.632
REMARK INTER + INTRA:          -2.755
REMARK INTER:                  -2.755
REMARK INTRA:                   0.000
REMARK UNBOUND:                 0.000
REMARK SMILES c1cc[nH]c1
REMARK SMILES IDX 1 1 5 2 4 3 3 4 2 5
REMARK H PARENT 4 6
REMARK Flexibility Score: inf
ROOT
ATOM      1  C   UNL     1      22.259  26.750  14.500  1.00  0.00     0.019 A 
ATOM      2  C   UNL     1      21.124  27.438  14.125  1.00  0.00     0.082 A 
ATOM      3  N   UNL     1      20.470  27.875  15.216  1.00  0.00    -0.368 N 
ATOM      4  C   UNL     1      21.177  27.474  16.288  1.00  0.00     0.082 A 
ATOM      5  C   UNL     1      22.293  26.772  15.880  1.00  0.00     0.019 A 
ATOM      6  H   UNL     1      19.582  28.423  15.230  1.00  0.00     0.165 HD
ENDROOT
TORSDOF 0
ENDMDL
MODEL 5
REMARK VINA RESULT:    -2.567      5.844      5.945
REMARK INTER + INTRA:          -2.567
REMARK INTER:                  -2.567
REMARK INTRA:                   0.000
REMARK UNBOUND:                 0.000
REMARK SMILES c1cc[nH]c1
REMARK SMILES IDX 1 1 5 2 4 3 3 4 2 5
REMARK H PARENT 4 6
REMARK Flexibility Score: inf
ROOT
ATOM      1  C   UNL     1      24.125  32.612  15.904  1.00  0.00     0.019 A 
ATOM      2  C   UNL     1      23.443  31.545  15.360  1.00  0.00     0.082 A 
ATOM      3  N   UNL     1      23.019  31.854  14.121  1.00  0.00    -0.368 N 
ATOM      4  C   UNL     1      23.424  33.110  13.867  1.00  0.00     0.082 A 
ATOM      5  C   UNL     1      24.113  33.612  14.953  1.00  0.00     0.019 A 
ATOM      6  H   UNL     1      22.477  31.236  13.478  1.00  0.00     0.165 HD
ENDROOT
TORSDOF 0
ENDMDL
MODEL 6
REMARK VINA RESULT:    -2.526      2.612      3.002
REMARK INTER + INTRA:          -2.526
REMARK INTER:                  -2.526
REMARK INTRA:                   0.000
REMARK UNBOUND:                 0.000
REMARK SMILES c1cc[nH]c1
REMARK SMILES IDX 1 1 5 2 4 3 3 4 2 5
REMARK H PARENT 4 6
REMARK Flexibility Score: inf
ROOT
ATOM      1  C   UNL     1      21.108  27.449  18.682  1.00  0.00     0.019 A 
ATOM      2  C   UNL     1      20.292  26.670  17.889  1.00  0.00     0.082 A 
ATOM      3  N   UNL     1      20.009  27.318  16.745  1.00  0.00    -0.368 N 
ATOM      4  C   UNL     1      20.637  28.506  16.797  1.00  0.00     0.082 A 
ATOM      5  C   UNL     1      21.328  28.621  17.986  1.00  0.00     0.019 A 
ATOM      6  H   UNL     1      19.414  26.966  15.963  1.00  0.00     0.165 HD
ENDROOT
TORSDOF 0
ENDMDL
MODEL 7
REMARK VINA RESULT:    -2.526     10.175     10.798
REMARK INTER + INTRA:          -2.526
REMARK INTER:                  -2.526
REMARK INTRA:                   0.000
REMARK UNBOUND:                 0.000
REMARK SMILES c1cc[nH]c1
REMARK SMILES IDX 1 1 5 2 4 3 3 4 2 5
REMARK H PARENT 4 6
REMARK Flexibility Score: inf
ROOT
ATOM      1  C   UNL     1      23.413  18.885  19.805  1.00  0.00     0.019 A 
ATOM      2  C   UNL     1      22.326  18.046  19.675  1.00  0.00     0.082 A 
ATOM      3  N   UNL     1      22.127  17.370  20.821  1.00  0.00    -0.368 N 
ATOM      4  C   UNL     1      23.077  17.768  21.685  1.00  0.00     0.082 A 
ATOM      5  C   UNL     1      23.893  18.708  21.087  1.00  0.00     0.019 A 
ATOM      6  H   UNL     1      21.377  16.668  21.006  1.00  0.00     0.165 HD
ENDROOT
TORSDOF 0
ENDMDL
MODEL 8
REMARK VINA RESULT:    -2.505      4.581      5.164
REMARK INTER + INTRA:          -2.505
REMARK INTER:                  -2.505
REMARK INTRA:                   0.000
REMARK UNBOUND:                 0.000
REMARK SMILES c1cc[nH]c1
REMARK SMILES IDX 1 1 5 2 4 3 3 4 2 5
REMARK H PARENT 4 6
REMARK Flexibility Score: inf
ROOT
ATOM      1  C   UNL     1      20.088  26.031  18.690  1.00  0.00     0.019 A 
ATOM      2  C   UNL     1      19.621  25.536  19.889  1.00  0.00     0.082 A 
ATOM      3  N   UNL     1      20.027  26.324  20.901  1.00  0.00    -0.368 N 
ATOM      4  C   UNL     1      20.749  27.321  20.360  1.00  0.00     0.082 A 
ATOM      5  C   UNL     1      20.808  27.170  18.989  1.00  0.00     0.019 A 
ATOM      6  H   UNL     1      19.820  26.188  21.915  1.00  0.00     0.165 HD
ENDROOT
TORSDOF 0
ENDMDL
MODEL 9
REMARK VINA RESULT:    -2.425      1.583      2.344
REMARK INTER + INTRA:          -2.425
REMARK INTER:                  -2.425
REMARK INTRA:                   0.000
REMARK UNBOUND:                 0.000
REMARK SMILES c1cc[nH]c1
REMARK SMILES IDX 1 1 5 2 4 3 3 4 2 5
REMARK H PARENT 4 6
REMARK Flexibility Score: inf
ROOT
ATOM      1  C   UNL     1      21.119  28.457  17.614  1.00  0.00     0.019 A 
ATOM      2  C   UNL     1      22.033  29.026  16.752  1.00  0.00     0.082 A 
ATOM      3  N   UNL     1      21.937  28.455  15.538  1.00  0.00    -0.368 N 
ATOM      4  C   UNL     1      20.970  27.524  15.614  1.00  0.00     0.082 A 
ATOM      5  C   UNL     1      20.440  27.498  16.888  1.00  0.00     0.019 A 
ATOM      6  H   UNL     1      22.507  28.689  14.695  1.00  0.00     0.165 HD
ENDROOT
TORSDOF 0
ENDMDL
