MODEL 1
REMARK VINA RESULT:    -3.019      0.000      0.000
REMARK INTER + INTRA:          -3.019
REMARK INTER:                  -3.019
REMARK INTRA:                   0.000
REMARK UNBOUND:                 0.000
REMARK SMILES CC(=O)[O-]
REMARK SMILES IDX 1 1 2 2 3 3 4 4
REMARK H PARENT
REMARK Flexibility Score: inf
ROOT
ATOM      1  C   UNL     1       2.587  -2.546  -1.543  1.00  0.00     0.063 C 
ATOM      2  C   UNL     1       1.774  -2.570  -0.294  1.00  0.00     0.038 C 
ATOM      3  O   UNL     1       2.186  -3.200   0.715  1.00  0.00    -0.550 OA
ATOM      4  O   UNL     1       0.534  -1.943  -0.256  1.00  0.00    -0.550 OA
ENDROOT
TORSDOF 0
ENDMDL
MODEL 2
REMARK VINA RESULT:    -3.012      1.425      1.847
REMARK INTER + INTRA:          -3.012
REMARK INTER:                  -3.012
REMARK INTRA:                   0.000
REMARK UNBOUND:                 0.000
REMARK SMILES CC(=O)[O-]
REMARK SMILES IDX 1 1 2 2 3 3 4 4
REMARK H PARENT
REMARK Flexibility Score: inf
ROOT
ATOM      1  C   UNL     1       0.689  -2.899  -1.169  1.00  0.00     0.063 C 
ATOM      2  C   UNL     1       2.062  -3.036  -0.605  1.00  0.00     0.038 C 
ATOM      3  O   UNL     1       2.223  -3.176   0.637  1.00  0.00    -0.550 OA
ATOM      4  O   UNL     1       3.170  -2.954  -1.438  1.00  0.00    -0.550 OA
ENDROOT
TORSDOF 0
ENDMDL
MODEL 3
REMARK VINA RESULT:    -2.897      1.685      1.906
REMARK INTER + INTRA:          -2.897
REMARK INTER:                  -2.897
REMARK INTRA:                   0.000
REMARK UNBOUND:                 0.000
REMARK SMILES CC(=O)[O-]
REMARK SMILES IDX 1 1 2 2 3 3 4 4
REMARK H PARENT
REMARK Flexibility Score: inf
ROOT
ATOM      1  C   UNL     1       2.106  -3.045   0.406  1.00  0.00     0.063 C 
ATOM      2  C   UNL     1       1.708  -2.742  -0.998  1.00  0.00     0.038 C 
ATOM      3  O   UNL     1       2.547  -2.252  -1.800  1.00  0.00    -0.550 OA
ATOM      4  O   UNL     1       0.398  -2.948  -1.412  1.00  0.00    -0.550 OA
ENDROOT
TORSDOF 0
ENDMDL
MODEL 4
REMARK VINA RESULT:    -2.722      2.804      3.080
REMARK INTER + INTRA:          -2.722
REMARK INTER:                  -2.722
REMARK INTRA:                   0.000
REMARK UNBOUND:                 0.000
REMARK SMILES CC(=O)[O-]
REMARK SMILES IDX 1 1 2 2 3 3 4 4
REMARK H PARENT
REMARK Flexibility Score: inf
ROOT
ATOM      1  C   UNL     1       3.731  -1.091  -3.718  1.00  0.00     0.063 C 
ATOM      2  C   UNL     1       3.560  -2.067  -2.604  1.00  0.00     0.038 C 
ATOM      3  O   UNL     1       4.338  -3.052  -2.502  1.00  0.00    -0.550 OA
ATOM      4  O   UNL     1       2.509  -1.922  -1.706  1.00  0.00    -0.550 OA
ENDROOT
TORSDOF 0
ENDMDL
MODEL 5
REMARK VINA RESULT:    -2.653      3.723      4.207
REMARK INTER + INTRA:          -2.653
REMARK INTER:                  -2.653
REMARK INTRA:                   0.000
REMARK UNBOUND:                 0.000
REMARK SMILES CC(=O)[O-]
REMARK SMILES IDX 1 1 2 2 3 3 4 4
REMARK H PARENT
REMARK Flexibility Score: inf
ROOT
ATOM      1  C   UNL     1       2.925  -2.156  -2.034  1.00  0.00     0.063 C 
ATOM      2  C   UNL     1       3.573  -1.875  -3.346  1.00  0.00     0.038 C 
ATOM      3  O   UNL     1       3.556  -0.708  -3.821  1.00  0.00    -0.550 OA
ATOM      4  O   UNL     1       4.149  -2.907  -4.076  1.00  0.00    -0.550 OA
ENDROOT
TORSDOF 0
ENDMDL
MODEL 6
REMARK VINA RESULT:    -2.205      7.739      8.208
REMARK INTER + INTRA:          -2.205
REMARK INTER:                  -2.205
REMARK INTRA:                   0.000
REMARK UNBOUND:                 0.000
REMARK SMILES CC(=O)[O-]
REMARK SMILES IDX 1 1 2 2 3 3 4 4
REMARK H PARENT
REMARK Flexibility Score: inf
ROOT
ATOM      1  C   UNL     1      -2.552  -7.381   5.989  1.00  0.00     0.063 C 
ATOM      2  C   UNL     1      -2.072  -7.561   4.589  1.00  0.00     0.038 C 
ATOM      3  O   UNL     1      -1.464  -8.614   4.261  1.00  0.00    -0.550 OA
ATOM      4  O   UNL     1      -2.247  -6.547   3.656  1.00  0.00    -0.550 OA
ENDROOT
TORSDOF 0
ENDMDL
MODEL 7
REMARK VINA RESULT:    -2.198     12.926     13.441
REMARK INTER + INTRA:          -2.198
REMARK INTER:                  -2.198
REMARK INTRA:                   0.000
REMARK UNBOUND:                 0.000
REMARK SMILES CC(=O)[O-]
REMARK SMILES IDX 1 1 2 2 3 3 4 4
REMARK H PARENT
REMARK Flexibility Score: inf
ROOT
ATOM      1  C   UNL     1      -4.403  10.124  -3.269  1.00  0.00     0.063 C 
ATOM      2  C   UNL     1      -3.475   9.094  -3.818  1.00  0.00     0.038 C 
ATOM      3  O   UNL     1      -3.832   8.377  -4.790  1.00  0.00    -0.550 OA
ATOM      4  O   UNL     1      -2.236   8.885  -3.226  1.00  0.00    -0.550 OA
ENDROOT
TORSDOF 0
ENDMDL
MODEL 8
REMARK VINA RESULT:    -2.187     14.038     14.271
REMARK INTER + INTRA:          -2.187
REMARK INTER:                  -2.187
REMARK INTRA:                   0.000
REMARK UNBOUND:                 0.000
REMARK SMILES CC(=O)[O-]
REMARK SMILES IDX 1 1 2 2 3 3 4 4
REMARK H PARENT
REMARK Flexibility Score: inf
ROOT
ATOM      1  C   UNL     1       9.283   6.686   8.849  1.00  0.00     0.063 C 
ATOM      2  C   UNL     1       7.838   6.651   8.486  1.00  0.00     0.038 C 
ATOM      3  O   UNL     1       7.464   7.034   7.345  1.00  0.00    -0.550 OA
ATOM      4  O   UNL     1       6.893   6.246   9.420  1.00  0.00    -0.550 OA
ENDROOT
TORSDOF 0
ENDMDL
MODEL 9
REMARK VINA RESULT:    -2.179     12.253     12.840
REMARK INTER + INTRA:          -2.179
REMARK INTER:                  -2.179
REMARK INTRA:                   0.000
REMARK UNBOUND:                 0.000
REMARK SMILES CC(=O)[O-]
REMARK SMILES IDX 1 1 2 2 3 3 4 4
REMARK H PARENT
REMARK Flexibility Score: inf
ROOT
ATOM      1  C   UNL     1       3.106   6.606  -7.482  1.00  0.00     0.063 C 
ATOM      2  C   UNL     1       2.326   7.849  -7.745  1.00  0.00     0.038 C 
ATOM      3  O   UNL     1       2.669   8.624  -8.677  1.00  0.00    -0.550 OA
ATOM      4  O   UNL     1       1.252   8.184  -6.930  1.00  0.00    -0.550 OA
ENDROOT
TORSDOF 0
ENDMDL
