MODEL 1
REMARK VINA RESULT:    -4.583      0.000      0.000
REMARK INTER + INTRA:         -11.150
REMARK INTER:                  -9.941
REMARK INTRA:                  -1.209
REMARK UNBOUND:                -1.209
REMARK SMILES CCCCCCCCCCCCCCCCCCCCCC(=O)[O-]
REMARK SMILES IDX 12 1 11 2 10 3 9 4 8 5 7 6 6 7 5 8 4 9 3 10 2 11 1 12 13 13
REMARK SMILES IDX 14 14 15 15 16 16 17 17 18 18 19 19 20 20 21 21 22 22 23 23
REMARK SMILES IDX 24 24
REMARK H PARENT
REMARK Flexibility Score: inf
ROOT
ATOM      1  C   UNL     1      41.799  65.060  23.748  1.00  0.00     0.000 C 
ENDROOT
BRANCH   1   2
ATOM      2  C   UNL     1      40.974  65.073  25.044  1.00  0.00     0.000 C 
BRANCH   2   3
ATOM      3  C   UNL     1      41.049  66.421  25.784  1.00  0.00     0.000 C 
BRANCH   3   4
ATOM      4  C   UNL     1      39.681  67.132  25.837  1.00  0.00    -0.000 C 
BRANCH   4   5
ATOM      5  C   UNL     1      38.784  66.840  24.621  1.00  0.00    -0.000 C 
BRANCH   5   6
ATOM      6  C   UNL     1      37.457  67.615  24.657  1.00  0.00    -0.000 C 
BRANCH   6   7
ATOM      7  C   UNL     1      36.780  67.558  26.037  1.00  0.00    -0.000 C 
BRANCH   7   8
ATOM      8  C   UNL     1      35.244  67.549  25.938  1.00  0.00    -0.000 C 
BRANCH   8   9
ATOM      9  C   UNL     1      34.659  66.129  25.842  1.00  0.00    -0.000 C 
BRANCH   9  10
ATOM     10  C   UNL     1      34.999  65.198  27.024  1.00  0.00    -0.000 C 
BRANCH  10  11
ATOM     11  C   UNL     1      34.798  63.697  26.748  1.00  0.00    -0.003 C 
ATOM     12  C   UNL     1      34.544  62.886  28.019  1.00  0.00     0.004 C 
ENDBRANCH  10  11
ENDBRANCH   9  10
ENDBRANCH   8   9
ENDBRANCH   7   8
ENDBRANCH   6   7
ENDBRANCH   5   6
ENDBRANCH   4   5
ENDBRANCH   3   4
ENDBRANCH   2   3
ENDBRANCH   1   2
BRANCH   1  13
ATOM     13  C   UNL     1      40.939  65.280  22.496  1.00  0.00     0.000 C 
BRANCH  13  14
ATOM     14  C   UNL     1      40.768  66.776  22.202  1.00  0.00     0.000 C 
BRANCH  14  15
ATOM     15  C   UNL     1      42.095  67.526  22.380  1.00  0.00     0.000 C 
BRANCH  15  16
ATOM     16  C   UNL     1      42.058  68.526  23.546  1.00  0.00     0.000 C 
BRANCH  16  17
ATOM     17  C   UNL     1      43.455  69.045  23.929  1.00  0.00     0.000 C 
BRANCH  17  18
ATOM     18  C   UNL     1      43.404  70.115  25.030  1.00  0.00     0.000 C 
BRANCH  18  19
ATOM     19  C   UNL     1      44.221  71.369  24.670  1.00  0.00     0.000 C 
BRANCH  19  20
ATOM     20  C   UNL     1      43.558  72.666  25.161  1.00  0.00     0.006 C 
BRANCH  20  21
ATOM     21  C   UNL     1      42.531  73.216  24.162  1.00  0.00     0.053 C 
BRANCH  21  22
ATOM     22  C   UNL     1      41.355  73.793  24.885  1.00  0.00     0.041 C 
ATOM     23  O   UNL     1      40.361  74.218  24.241  1.00  0.00    -0.550 OA
ATOM     24  O   UNL     1      41.339  73.824  26.275  1.00  0.00    -0.550 OA
ENDBRANCH  21  22
ENDBRANCH  20  21
ENDBRANCH  19  20
ENDBRANCH  18  19
ENDBRANCH  17  18
ENDBRANCH  16  17
ENDBRANCH  15  16
ENDBRANCH  14  15
ENDBRANCH  13  14
ENDBRANCH   1  13
TORSDOF 20
ENDMDL
MODEL 2
REMARK VINA RESULT:    -4.512      4.259      6.492
REMARK INTER + INTRA:         -10.997
REMARK INTER:                 -10.227
REMARK INTRA:                  -0.769
REMARK UNBOUND:                -1.209
REMARK SMILES CCCCCCCCCCCCCCCCCCCCCC(=O)[O-]
REMARK SMILES IDX 12 1 11 2 10 3 9 4 8 5 7 6 6 7 5 8 4 9 3 10 2 11 1 12 13 13
REMARK SMILES IDX 14 14 15 15 16 16 17 17 18 18 19 19 20 20 21 21 22 22 23 23
REMARK SMILES IDX 24 24
REMARK H PARENT
REMARK Flexibility Score: inf
ROOT
ATOM      1  C   UNL     1      41.347  68.182  23.494  1.00  0.00     0.000 C 
ENDROOT
BRANCH   1   2
ATOM      2  C   UNL     1      40.948  67.091  22.488  1.00  0.00     0.000 C 
BRANCH   2   3
ATOM      3  C   UNL     1      39.435  66.806  22.488  1.00  0.00     0.000 C 
BRANCH   3   4
ATOM      4  C   UNL     1      38.863  66.697  23.917  1.00  0.00    -0.000 C 
BRANCH   4   5
ATOM      5  C   UNL     1      37.681  67.645  24.183  1.00  0.00    -0.000 C 
BRANCH   5   6
ATOM      6  C   UNL     1      37.119  67.512  25.609  1.00  0.00    -0.000 C 
BRANCH   6   7
ATOM      7  C   UNL     1      35.582  67.464  25.633  1.00  0.00    -0.000 C 
BRANCH   7   8
ATOM      8  C   UNL     1      35.043  66.372  26.574  1.00  0.00    -0.000 C 
BRANCH   8   9
ATOM      9  C   UNL     1      34.371  65.210  25.819  1.00  0.00    -0.000 C 
BRANCH   9  10
ATOM     10  C   UNL     1      34.817  63.800  26.256  1.00  0.00    -0.000 C 
BRANCH  10  11
ATOM     11  C   UNL     1      35.086  63.642  27.763  1.00  0.00    -0.003 C 
ATOM     12  C   UNL     1      34.067  62.740  28.460  1.00  0.00     0.004 C 
ENDBRANCH  10  11
ENDBRANCH   9  10
ENDBRANCH   8   9
ENDBRANCH   7   8
ENDBRANCH   6   7
ENDBRANCH   5   6
ENDBRANCH   4   5
ENDBRANCH   3   4
ENDBRANCH   2   3
ENDBRANCH   1   2
BRANCH   1  13
ATOM     13  C   UNL     1      42.161  67.632  24.673  1.00  0.00     0.000 C 
BRANCH  13  14
ATOM     14  C   UNL     1      41.239  67.062  25.759  1.00  0.00     0.000 C 
BRANCH  14  15
ATOM     15  C   UNL     1      41.427  65.545  25.900  1.00  0.00     0.000 C 
BRANCH  15  16
ATOM     16  C   UNL     1      41.743  64.861  24.561  1.00  0.00     0.000 C 
BRANCH  16  17
ATOM     17  C   UNL     1      41.942  63.342  24.703  1.00  0.00     0.000 C 
BRANCH  17  18
ATOM     18  C   UNL     1      42.395  62.937  26.114  1.00  0.00     0.000 C 
BRANCH  18  19
ATOM     19  C   UNL     1      43.114  61.576  26.134  1.00  0.00     0.000 C 
BRANCH  19  20
ATOM     20  C   UNL     1      44.575  61.687  26.597  1.00  0.00     0.006 C 
BRANCH  20  21
ATOM     21  C   UNL     1      45.536  62.005  25.444  1.00  0.00     0.053 C 
BRANCH  21  22
ATOM     22  C   UNL     1      46.571  62.992  25.882  1.00  0.00     0.041 C 
ATOM     23  O   UNL     1      46.617  63.372  27.081  1.00  0.00    -0.550 OA
ATOM     24  O   UNL     1      47.512  63.464  24.974  1.00  0.00    -0.550 OA
ENDBRANCH  21  22
ENDBRANCH  20  21
ENDBRANCH  19  20
ENDBRANCH  18  19
ENDBRANCH  17  18
ENDBRANCH  16  17
ENDBRANCH  15  16
ENDBRANCH  14  15
ENDBRANCH  13  14
ENDBRANCH   1  13
TORSDOF 20
ENDMDL
MODEL 3
REMARK VINA RESULT:    -4.508      3.627      8.581
REMARK INTER + INTRA:         -10.988
REMARK INTER:                  -9.851
REMARK INTRA:                  -1.137
REMARK UNBOUND:                -1.209
REMARK SMILES CCCCCCCCCCCCCCCCCCCCCC(=O)[O-]
REMARK SMILES IDX 12 1 11 2 10 3 9 4 8 5 7 6 6 7 5 8 4 9 3 10 2 11 1 12 13 13
REMARK SMILES IDX 14 14 15 15 16 16 17 17 18 18 19 19 20 20 21 21 22 22 23 23
REMARK SMILES IDX 24 24
REMARK H PARENT
REMARK Flexibility Score: inf
ROOT
ATOM      1  C   UNL     1      41.767  65.120  23.789  1.00  0.00     0.000 C 
ENDROOT
BRANCH   1   2
ATOM      2  C   UNL     1      40.848  65.259  22.565  1.00  0.00     0.000 C 
BRANCH   2   3
ATOM      3  C   UNL     1      40.738  66.711  22.067  1.00  0.00     0.000 C 
BRANCH   3   4
ATOM      4  C   UNL     1      42.035  67.510  22.310  1.00  0.00    -0.000 C 
BRANCH   4   5
ATOM      5  C   UNL     1      41.970  68.434  23.540  1.00  0.00    -0.000 C 
BRANCH   5   6
ATOM      6  C   UNL     1      43.343  69.010  23.926  1.00  0.00    -0.000 C 
BRANCH   6   7
ATOM      7  C   UNL     1      43.239  70.111  24.995  1.00  0.00    -0.000 C 
BRANCH   7   8
ATOM      8  C   UNL     1      44.155  71.310  24.694  1.00  0.00    -0.000 C 
BRANCH   8   9
ATOM      9  C   UNL     1      43.519  72.659  25.076  1.00  0.00    -0.000 C 
BRANCH   9  10
ATOM     10  C   UNL     1      42.518  73.226  24.049  1.00  0.00    -0.000 C 
BRANCH  10  11
ATOM     11  C   UNL     1      41.251  73.857  24.656  1.00  0.00    -0.003 C 
ATOM     12  C   UNL     1      41.258  73.857  26.184  1.00  0.00     0.004 C 
ENDBRANCH  10  11
ENDBRANCH   9  10
ENDBRANCH   8   9
ENDBRANCH   7   8
ENDBRANCH   6   7
ENDBRANCH   5   6
ENDBRANCH   4   5
ENDBRANCH   3   4
ENDBRANCH   2   3
ENDBRANCH   1   2
BRANCH   1  13
ATOM     13  C   UNL     1      40.993  65.135  25.115  1.00  0.00     0.000 C 
BRANCH  13  14
ATOM     14  C   UNL     1      41.026  66.529  25.755  1.00  0.00     0.000 C 
BRANCH  14  15
ATOM     15  C   UNL     1      39.611  67.111  25.879  1.00  0.00     0.000 C 
BRANCH  15  16
ATOM     16  C   UNL     1      38.737  66.809  24.652  1.00  0.00     0.000 C 
BRANCH  16  17
ATOM     17  C   UNL     1      37.421  67.606  24.649  1.00  0.00     0.000 C 
BRANCH  17  18
ATOM     18  C   UNL     1      36.734  67.611  26.024  1.00  0.00     0.000 C 
BRANCH  18  19
ATOM     19  C   UNL     1      35.201  67.519  25.914  1.00  0.00     0.000 C 
BRANCH  19  20
ATOM     20  C   UNL     1      34.701  66.068  25.843  1.00  0.00     0.006 C 
BRANCH  20  21
ATOM     21  C   UNL     1      34.888  65.314  27.166  1.00  0.00     0.053 C 
BRANCH  21  22
ATOM     22  C   UNL     1      34.819  63.837  26.942  1.00  0.00     0.041 C 
ATOM     23  O   UNL     1      34.886  63.044  27.917  1.00  0.00    -0.550 OA
ATOM     24  O   UNL     1      34.639  63.335  25.659  1.00  0.00    -0.550 OA
ENDBRANCH  21  22
ENDBRANCH  20  21
ENDBRANCH  19  20
ENDBRANCH  18  19
ENDBRANCH  17  18
ENDBRANCH  16  17
ENDBRANCH  15  16
ENDBRANCH  14  15
ENDBRANCH  13  14
ENDBRANCH   1  13
TORSDOF 20
ENDMDL
MODEL 4
REMARK VINA RESULT:    -4.483      2.702      6.028
REMARK INTER + INTRA:         -10.934
REMARK INTER:                  -9.986
REMARK INTRA:                  -0.948
REMARK UNBOUND:                -1.209
REMARK SMILES CCCCCCCCCCCCCCCCCCCCCC(=O)[O-]
REMARK SMILES IDX 12 1 11 2 10 3 9 4 8 5 7 6 6 7 5 8 4 9 3 10 2 11 1 12 13 13
REMARK SMILES IDX 14 14 15 15 16 16 17 17 18 18 19 19 20 20 21 21 22 22 23 23
REMARK SMILES IDX 24 24
REMARK H PARENT
REMARK Flexibility Score: inf
ROOT
ATOM      1  C   UNL     1      39.001  66.400  23.777  1.00  0.00     0.000 C 
ENDROOT
BRANCH   1   2
ATOM      2  C   UNL     1      39.791  66.543  22.466  1.00  0.00     0.000 C 
BRANCH   2   3
ATOM      3  C   UNL     1      40.763  65.373  22.227  1.00  0.00     0.000 C 
BRANCH   3   4
ATOM      4  C   UNL     1      41.710  65.149  23.426  1.00  0.00    -0.000 C 
BRANCH   4   5
ATOM      5  C   UNL     1      41.412  63.862  24.216  1.00  0.00    -0.000 C 
BRANCH   5   6
ATOM      6  C   UNL     1      42.370  63.655  25.401  1.00  0.00    -0.000 C 
BRANCH   6   7
ATOM      7  C   UNL     1      42.281  62.236  25.988  1.00  0.00    -0.000 C 
BRANCH   7   8
ATOM      8  C   UNL     1      43.593  61.449  25.820  1.00  0.00    -0.000 C 
BRANCH   8   9
ATOM      9  C   UNL     1      44.833  62.254  26.249  1.00  0.00    -0.000 C 
BRANCH   9  10
ATOM     10  C   UNL     1      45.965  62.319  25.204  1.00  0.00    -0.000 C 
BRANCH  10  11
ATOM     11  C   UNL     1      47.189  63.154  25.622  1.00  0.00    -0.003 C 
ATOM     12  C   UNL     1      47.174  63.533  27.103  1.00  0.00     0.004 C 
ENDBRANCH  10  11
ENDBRANCH   9  10
ENDBRANCH   8   9
ENDBRANCH   7   8
ENDBRANCH   6   7
ENDBRANCH   5   6
ENDBRANCH   4   5
ENDBRANCH   3   4
ENDBRANCH   2   3
ENDBRANCH   1   2
BRANCH   1  13
ATOM     13  C   UNL     1      39.358  67.484  24.804  1.00  0.00     0.000 C 
BRANCH  13  14
ATOM     14  C   UNL     1      40.458  66.997  25.757  1.00  0.00     0.000 C 
BRANCH  14  15
ATOM     15  C   UNL     1      41.748  67.807  25.569  1.00  0.00     0.000 C 
BRANCH  15  16
ATOM     16  C   UNL     1      41.944  68.280  24.120  1.00  0.00     0.000 C 
BRANCH  16  17
ATOM     17  C   UNL     1      43.263  69.045  23.919  1.00  0.00     0.000 C 
BRANCH  17  18
ATOM     18  C   UNL     1      43.539  70.050  25.048  1.00  0.00     0.000 C 
BRANCH  18  19
ATOM     19  C   UNL     1      44.205  71.340  24.537  1.00  0.00     0.000 C 
BRANCH  19  20
ATOM     20  C   UNL     1      43.587  72.607  25.150  1.00  0.00     0.006 C 
BRANCH  20  21
ATOM     21  C   UNL     1      42.705  73.372  24.155  1.00  0.00     0.053 C 
BRANCH  21  22
ATOM     22  C   UNL     1      41.412  73.765  24.796  1.00  0.00     0.041 C 
ATOM     23  O   UNL     1      40.400  74.003  24.088  1.00  0.00    -0.550 OA
ATOM     24  O   UNL     1      41.313  73.829  26.181  1.00  0.00    -0.550 OA
ENDBRANCH  21  22
ENDBRANCH  20  21
ENDBRANCH  19  20
ENDBRANCH  18  19
ENDBRANCH  17  18
ENDBRANCH  16  17
ENDBRANCH  15  16
ENDBRANCH  14  15
ENDBRANCH  13  14
ENDBRANCH   1  13
TORSDOF 20
ENDMDL
MODEL 5
REMARK VINA RESULT:    -4.394      4.514      8.470
REMARK INTER + INTRA:         -10.740
REMARK INTER:                 -10.043
REMARK INTRA:                  -0.697
REMARK UNBOUND:                -1.209
REMARK SMILES CCCCCCCCCCCCCCCCCCCCCC(=O)[O-]
REMARK SMILES IDX 12 1 11 2 10 3 9 4 8 5 7 6 6 7 5 8 4 9 3 10 2 11 1 12 13 13
REMARK SMILES IDX 14 14 15 15 16 16 17 17 18 18 19 19 20 20 21 21 22 22 23 23
REMARK SMILES IDX 24 24
REMARK H PARENT
REMARK Flexibility Score: inf
ROOT
ATOM      1  C   UNL     1      39.146  66.500  23.757  1.00  0.00     0.000 C 
ENDROOT
BRANCH   1   2
ATOM      2  C   UNL     1      39.432  67.346  25.008  1.00  0.00     0.000 C 
BRANCH   2   3
ATOM      3  C   UNL     1      40.773  66.989  25.675  1.00  0.00     0.000 C 
BRANCH   3   4
ATOM      4  C   UNL     1      41.832  68.094  25.481  1.00  0.00    -0.000 C 
BRANCH   4   5
ATOM      5  C   UNL     1      42.180  68.364  24.006  1.00  0.00    -0.000 C 
BRANCH   5   6
ATOM      6  C   UNL     1      43.422  69.256  23.841  1.00  0.00    -0.000 C 
BRANCH   6   7
ATOM      7  C   UNL     1      43.658  70.168  25.057  1.00  0.00    -0.000 C 
BRANCH   7   8
ATOM      8  C   UNL     1      44.108  71.582  24.653  1.00  0.00    -0.000 C 
BRANCH   8   9
ATOM      9  C   UNL     1      43.157  72.680  25.162  1.00  0.00    -0.000 C 
BRANCH   9  10
ATOM     10  C   UNL     1      42.307  73.368  24.073  1.00  0.00    -0.000 C 
BRANCH  10  11
ATOM     11  C   UNL     1      41.037  74.070  24.587  1.00  0.00    -0.003 C 
ATOM     12  C   UNL     1      41.002  74.201  26.110  1.00  0.00     0.004 C 
ENDBRANCH  10  11
ENDBRANCH   9  10
ENDBRANCH   8   9
ENDBRANCH   7   8
ENDBRANCH   6   7
ENDBRANCH   5   6
ENDBRANCH   4   5
ENDBRANCH   3   4
ENDBRANCH   2   3
ENDBRANCH   1   2
BRANCH   1  13
ATOM     13  C   UNL     1      39.747  67.107  22.481  1.00  0.00     0.000 C 
BRANCH  13  14
ATOM     14  C   UNL     1      40.886  66.233  21.941  1.00  0.00     0.000 C 
BRANCH  14  15
ATOM     15  C   UNL     1      40.877  64.847  22.601  1.00  0.00     0.000 C 
BRANCH  15  16
ATOM     16  C   UNL     1      41.780  64.777  23.842  1.00  0.00     0.000 C 
BRANCH  16  17
ATOM     17  C   UNL     1      41.639  63.449  24.605  1.00  0.00     0.000 C 
BRANCH  17  18
ATOM     18  C   UNL     1      42.659  63.315  25.747  1.00  0.00     0.000 C 
BRANCH  18  19
ATOM     19  C   UNL     1      42.957  61.847  26.100  1.00  0.00     0.000 C 
BRANCH  19  20
ATOM     20  C   UNL     1      44.436  61.612  26.447  1.00  0.00     0.006 C 
BRANCH  20  21
ATOM     21  C   UNL     1      45.386  62.170  25.379  1.00  0.00     0.053 C 
BRANCH  21  22
ATOM     22  C   UNL     1      46.504  62.930  26.020  1.00  0.00     0.041 C 
ATOM     23  O   UNL     1      46.468  63.194  27.250  1.00  0.00    -0.550 OA
ATOM     24  O   UNL     1      47.607  63.313  25.267  1.00  0.00    -0.550 OA
ENDBRANCH  21  22
ENDBRANCH  20  21
ENDBRANCH  19  20
ENDBRANCH  18  19
ENDBRANCH  17  18
ENDBRANCH  16  17
ENDBRANCH  15  16
ENDBRANCH  14  15
ENDBRANCH  13  14
ENDBRANCH   1  13
TORSDOF 20
ENDMDL
MODEL 6
REMARK VINA RESULT:    -4.252      4.440      8.582
REMARK INTER + INTRA:         -10.431
REMARK INTER:                  -9.382
REMARK INTRA:                  -1.050
REMARK UNBOUND:                -1.209
REMARK SMILES CCCCCCCCCCCCCCCCCCCCCC(=O)[O-]
REMARK SMILES IDX 12 1 11 2 10 3 9 4 8 5 7 6 6 7 5 8 4 9 3 10 2 11 1 12 13 13
REMARK SMILES IDX 14 14 15 15 16 16 17 17 18 18 19 19 20 20 21 21 22 22 23 23
REMARK SMILES IDX 24 24
REMARK H PARENT
REMARK Flexibility Score: inf
ROOT
ATOM      1  C   UNL     1      41.456  68.241  23.856  1.00  0.00     0.000 C 
ENDROOT
BRANCH   1   2
ATOM      2  C   UNL     1      42.106  67.256  22.872  1.00  0.00     0.000 C 
BRANCH   2   3
ATOM      3  C   UNL     1      41.071  66.412  22.105  1.00  0.00     0.000 C 
BRANCH   3   4
ATOM      4  C   UNL     1      40.904  65.004  22.712  1.00  0.00    -0.000 C 
BRANCH   4   5
ATOM      5  C   UNL     1      41.764  64.766  23.966  1.00  0.00    -0.000 C 
BRANCH   5   6
ATOM      6  C   UNL     1      41.705  63.311  24.462  1.00  0.00    -0.000 C 
BRANCH   6   7
ATOM      7  C   UNL     1      42.412  63.122  25.815  1.00  0.00    -0.000 C 
BRANCH   7   8
ATOM      8  C   UNL     1      43.242  61.827  25.867  1.00  0.00    -0.000 C 
BRANCH   8   9
ATOM      9  C   UNL     1      44.682  62.060  26.359  1.00  0.00    -0.000 C 
BRANCH   9  10
ATOM     10  C   UNL     1      45.735  62.231  25.245  1.00  0.00    -0.000 C 
BRANCH  10  11
ATOM     11  C   UNL     1      46.979  63.046  25.645  1.00  0.00    -0.003 C 
ATOM     12  C   UNL     1      46.987  63.434  27.123  1.00  0.00     0.004 C 
ENDBRANCH  10  11
ENDBRANCH   9  10
ENDBRANCH   8   9
ENDBRANCH   7   8
ENDBRANCH   6   7
ENDBRANCH   5   6
ENDBRANCH   4   5
ENDBRANCH   3   4
ENDBRANCH   2   3
ENDBRANCH   1   2
BRANCH   1  13
ATOM     13  C   UNL     1      41.747  67.892  25.323  1.00  0.00     0.000 C 
BRANCH  13  14
ATOM     14  C   UNL     1      40.856  66.738  25.800  1.00  0.00     0.000 C 
BRANCH  14  15
ATOM     15  C   UNL     1      39.398  67.195  25.953  1.00  0.00     0.000 C 
BRANCH  15  16
ATOM     16  C   UNL     1      38.533  66.831  24.737  1.00  0.00     0.000 C 
BRANCH  16  17
ATOM     17  C   UNL     1      37.268  67.700  24.626  1.00  0.00     0.000 C 
BRANCH  17  18
ATOM     18  C   UNL     1      36.578  67.910  25.982  1.00  0.00     0.000 C 
BRANCH  18  19
ATOM     19  C   UNL     1      35.078  67.569  25.937  1.00  0.00     0.000 C 
BRANCH  19  20
ATOM     20  C   UNL     1      34.818  66.060  25.813  1.00  0.00     0.006 C 
BRANCH  20  21
ATOM     21  C   UNL     1      35.037  65.314  27.136  1.00  0.00     0.053 C 
BRANCH  21  22
ATOM     22  C   UNL     1      34.790  63.849  26.958  1.00  0.00     0.041 C 
ATOM     23  O   UNL     1      34.684  63.360  25.804  1.00  0.00    -0.550 OA
ATOM     24  O   UNL     1      34.717  63.016  28.068  1.00  0.00    -0.550 OA
ENDBRANCH  21  22
ENDBRANCH  20  21
ENDBRANCH  19  20
ENDBRANCH  18  19
ENDBRANCH  17  18
ENDBRANCH  16  17
ENDBRANCH  15  16
ENDBRANCH  14  15
ENDBRANCH  13  14
ENDBRANCH   1  13
TORSDOF 20
ENDMDL
MODEL 7
REMARK VINA RESULT:    -4.112     12.523     15.316
REMARK INTER + INTRA:         -10.129
REMARK INTER:                  -9.197
REMARK INTRA:                  -0.931
REMARK UNBOUND:                -1.209
REMARK SMILES CCCCCCCCCCCCCCCCCCCCCC(=O)[O-]
REMARK SMILES IDX 12 1 11 2 10 3 9 4 8 5 7 6 6 7 5 8 4 9 3 10 2 11 1 12 13 13
REMARK SMILES IDX 14 14 15 15 16 16 17 17 18 18 19 19 20 20 21 21 22 22 23 23
REMARK SMILES IDX 24 24
REMARK H PARENT
REMARK Flexibility Score: inf
ROOT
ATOM      1  C   UNL     1      40.800  62.422  12.630  1.00  0.00     0.000 C 
ENDROOT
BRANCH   1   2
ATOM      2  C   UNL     1      41.487  61.269  11.880  1.00  0.00     0.000 C 
BRANCH   2   3
ATOM      3  C   UNL     1      42.531  60.536  12.743  1.00  0.00     0.000 C 
BRANCH   3   4
ATOM      4  C   UNL     1      43.556  59.764  11.885  1.00  0.00    -0.000 C 
BRANCH   4   5
ATOM      5  C   UNL     1      43.442  58.235  12.015  1.00  0.00    -0.000 C 
BRANCH   5   6
ATOM      6  C   UNL     1      44.807  57.528  11.953  1.00  0.00    -0.000 C 
BRANCH   6   7
ATOM      7  C   UNL     1      44.970  56.467  13.055  1.00  0.00    -0.000 C 
BRANCH   7   8
ATOM      8  C   UNL     1      43.623  56.035  13.658  1.00  0.00    -0.000 C 
BRANCH   8   9
ATOM      9  C   UNL     1      43.672  55.892  15.190  1.00  0.00    -0.000 C 
BRANCH   9  10
ATOM     10  C   UNL     1      42.670  56.773  15.963  1.00  0.00    -0.000 C 
BRANCH  10  11
ATOM     11  C   UNL     1      42.816  58.287  15.725  1.00  0.00    -0.003 C 
ATOM     12  C   UNL     1      43.978  58.903  16.504  1.00  0.00     0.004 C 
ENDBRANCH  10  11
ENDBRANCH   9  10
ENDBRANCH   8   9
ENDBRANCH   7   8
ENDBRANCH   6   7
ENDBRANCH   5   6
ENDBRANCH   4   5
ENDBRANCH   3   4
ENDBRANCH   2   3
ENDBRANCH   1   2
BRANCH   1  13
ATOM     13  C   UNL     1      39.296  62.187  12.827  1.00  0.00     0.000 C 
BRANCH  13  14
ATOM     14  C   UNL     1      38.542  63.519  12.938  1.00  0.00     0.000 C 
BRANCH  14  15
ATOM     15  C   UNL     1      37.237  63.348  13.729  1.00  0.00     0.000 C 
BRANCH  15  16
ATOM     16  C   UNL     1      36.035  63.033  12.826  1.00  0.00     0.000 C 
BRANCH  16  17
ATOM     17  C   UNL     1      35.307  64.300  12.344  1.00  0.00     0.000 C 
BRANCH  17  18
ATOM     18  C   UNL     1      33.793  64.244  12.606  1.00  0.00     0.000 C 
BRANCH  18  19
ATOM     19  C   UNL     1      33.265  65.523  13.279  1.00  0.00     0.000 C 
BRANCH  19  20
ATOM     20  C   UNL     1      31.739  65.661  13.169  1.00  0.00     0.006 C 
BRANCH  20  21
ATOM     21  C   UNL     1      31.170  66.699  14.146  1.00  0.00     0.053 C 
BRANCH  21  22
ATOM     22  C   UNL     1      32.007  66.767  15.384  1.00  0.00     0.041 C 
ATOM     23  O   UNL     1      32.359  67.881  15.850  1.00  0.00    -0.550 OA
ATOM     24  O   UNL     1      32.364  65.599  16.047  1.00  0.00    -0.550 OA
ENDBRANCH  21  22
ENDBRANCH  20  21
ENDBRANCH  19  20
ENDBRANCH  18  19
ENDBRANCH  17  18
ENDBRANCH  16  17
ENDBRANCH  15  16
ENDBRANCH  14  15
ENDBRANCH  13  14
ENDBRANCH   1  13
TORSDOF 20
ENDMDL
MODEL 8
REMARK VINA RESULT:    -4.041      4.234      8.024
REMARK INTER + INTRA:          -9.976
REMARK INTER:                  -8.886
REMARK INTRA:                  -1.090
REMARK UNBOUND:                -1.209
REMARK SMILES CCCCCCCCCCCCCCCCCCCCCC(=O)[O-]
REMARK SMILES IDX 12 1 11 2 10 3 9 4 8 5 7 6 6 7 5 8 4 9 3 10 2 11 1 12 13 13
REMARK SMILES IDX 14 14 15 15 16 16 17 17 18 18 19 19 20 20 21 21 22 22 23 23
REMARK SMILES IDX 24 24
REMARK H PARENT
REMARK Flexibility Score: inf
ROOT
ATOM      1  C   UNL     1      42.496  67.726  24.231  1.00  0.00     0.000 C 
ENDROOT
BRANCH   1   2
ATOM      2  C   UNL     1      41.752  67.949  25.558  1.00  0.00     0.000 C 
BRANCH   2   3
ATOM      3  C   UNL     1      40.897  66.737  25.971  1.00  0.00     0.000 C 
BRANCH   3   4
ATOM      4  C   UNL     1      41.697  65.418  25.930  1.00  0.00    -0.000 C 
BRANCH   4   5
ATOM      5  C   UNL     1      41.589  64.672  24.588  1.00  0.00    -0.000 C 
BRANCH   5   6
ATOM      6  C   UNL     1      42.118  63.230  24.663  1.00  0.00    -0.000 C 
BRANCH   6   7
ATOM      7  C   UNL     1      42.456  62.802  26.102  1.00  0.00    -0.000 C 
BRANCH   7   8
ATOM      8  C   UNL     1      43.460  61.637  26.147  1.00  0.00    -0.000 C 
BRANCH   8   9
ATOM      9  C   UNL     1      44.897  62.098  26.450  1.00  0.00    -0.000 C 
BRANCH   9  10
ATOM     10  C   UNL     1      45.810  62.251  25.216  1.00  0.00    -0.000 C 
BRANCH  10  11
ATOM     11  C   UNL     1      47.074  63.100  25.443  1.00  0.00    -0.003 C 
ATOM     12  C   UNL     1      47.283  63.476  26.910  1.00  0.00     0.004 C 
ENDBRANCH  10  11
ENDBRANCH   9  10
ENDBRANCH   8   9
ENDBRANCH   7   8
ENDBRANCH   6   7
ENDBRANCH   5   6
ENDBRANCH   4   5
ENDBRANCH   3   4
ENDBRANCH   2   3
ENDBRANCH   1   2
BRANCH   1  13
ATOM     13  C   UNL     1      41.611  67.993  23.005  1.00  0.00     0.000 C 
BRANCH  13  14
ATOM     14  C   UNL     1      41.619  66.792  22.050  1.00  0.00     0.000 C 
BRANCH  14  15
ATOM     15  C   UNL     1      40.206  66.215  21.881  1.00  0.00     0.000 C 
BRANCH  15  16
ATOM     16  C   UNL     1      39.118  67.136  22.454  1.00  0.00     0.000 C 
BRANCH  16  17
ATOM     17  C   UNL     1      38.720  66.761  23.893  1.00  0.00     0.000 C 
BRANCH  17  18
ATOM     18  C   UNL     1      37.675  67.721  24.483  1.00  0.00     0.000 C 
BRANCH  18  19
ATOM     19  C   UNL     1      36.937  67.116  25.690  1.00  0.00     0.000 C 
BRANCH  19  20
ATOM     20  C   UNL     1      35.451  67.505  25.728  1.00  0.00     0.006 C 
BRANCH  20  21
ATOM     21  C   UNL     1      34.665  66.727  26.792  1.00  0.00     0.053 C 
BRANCH  21  22
ATOM     22  C   UNL     1      34.681  65.262  26.487  1.00  0.00     0.041 C 
ATOM     23  O   UNL     1      34.340  64.848  25.349  1.00  0.00    -0.550 OA
ATOM     24  O   UNL     1      35.113  64.356  27.448  1.00  0.00    -0.550 OA
ENDBRANCH  21  22
ENDBRANCH  20  21
ENDBRANCH  19  20
ENDBRANCH  18  19
ENDBRANCH  17  18
ENDBRANCH  16  17
ENDBRANCH  15  16
ENDBRANCH  14  15
ENDBRANCH  13  14
ENDBRANCH   1  13
TORSDOF 20
ENDMDL
MODEL 9
REMARK VINA RESULT:    -4.015     12.563     14.778
REMARK INTER + INTRA:          -9.917
REMARK INTER:                  -8.237
REMARK INTRA:                  -1.680
REMARK UNBOUND:                -1.209
REMARK SMILES CCCCCCCCCCCCCCCCCCCCCC(=O)[O-]
REMARK SMILES IDX 12 1 11 2 10 3 9 4 8 5 7 6 6 7 5 8 4 9 3 10 2 11 1 12 13 13
REMARK SMILES IDX 14 14 15 15 16 16 17 17 18 18 19 19 20 20 21 21 22 22 23 23
REMARK SMILES IDX 24 24
REMARK H PARENT
REMARK Flexibility Score: inf
ROOT
ATOM      1  C   UNL     1      42.987  63.635  12.624  1.00  0.00     0.000 C 
ENDROOT
BRANCH   1   2
ATOM      2  C   UNL     1      43.840  62.521  11.996  1.00  0.00     0.000 C 
BRANCH   2   3
ATOM      3  C   UNL     1      43.754  61.196  12.774  1.00  0.00     0.000 C 
BRANCH   3   4
ATOM      4  C   UNL     1      43.201  60.046  11.907  1.00  0.00    -0.000 C 
BRANCH   4   5
ATOM      5  C   UNL     1      43.987  58.730  12.051  1.00  0.00    -0.000 C 
BRANCH   5   6
ATOM      6  C   UNL     1      43.101  57.485  11.881  1.00  0.00    -0.000 C 
BRANCH   6   7
ATOM      7  C   UNL     1      43.676  56.252  12.599  1.00  0.00    -0.000 C 
BRANCH   7   8
ATOM      8  C   UNL     1      44.103  56.559  14.045  1.00  0.00    -0.000 C 
BRANCH   8   9
ATOM      9  C   UNL     1      43.075  56.082  15.086  1.00  0.00    -0.000 C 
BRANCH   9  10
ATOM     10  C   UNL     1      42.620  57.154  16.097  1.00  0.00    -0.000 C 
BRANCH  10  11
ATOM     11  C   UNL     1      43.034  58.595  15.747  1.00  0.00    -0.003 C 
ATOM     12  C   UNL     1      43.995  59.203  16.768  1.00  0.00     0.004 C 
ENDBRANCH  10  11
ENDBRANCH   9  10
ENDBRANCH   8   9
ENDBRANCH   7   8
ENDBRANCH   6   7
ENDBRANCH   5   6
ENDBRANCH   4   5
ENDBRANCH   3   4
ENDBRANCH   2   3
ENDBRANCH   1   2
BRANCH   1  13
ATOM     13  C   UNL     1      41.656  63.848  11.888  1.00  0.00     0.000 C 
BRANCH  13  14
ATOM     14  C   UNL     1      40.477  63.340  12.727  1.00  0.00     0.000 C 
BRANCH  14  15
ATOM     15  C   UNL     1      39.150  63.924  12.221  1.00  0.00     0.000 C 
BRANCH  15  16
ATOM     16  C   UNL     1      37.981  62.935  12.348  1.00  0.00     0.000 C 
BRANCH  16  17
ATOM     17  C   UNL     1      36.788  63.522  13.121  1.00  0.00     0.000 C 
BRANCH  17  18
ATOM     18  C   UNL     1      35.777  64.221  12.199  1.00  0.00     0.000 C 
BRANCH  18  19
ATOM     19  C   UNL     1      35.361  65.607  12.726  1.00  0.00     0.000 C 
BRANCH  19  20
ATOM     20  C   UNL     1      35.926  66.755  11.876  1.00  0.00     0.006 C 
BRANCH  20  21
ATOM     21  C   UNL     1      37.381  67.091  12.232  1.00  0.00     0.053 C 
BRANCH  21  22
ATOM     22  C   UNL     1      37.460  68.418  12.917  1.00  0.00     0.041 C 
ATOM     23  O   UNL     1      38.389  69.220  12.641  1.00  0.00    -0.550 OA
ATOM     24  O   UNL     1      36.482  68.787  13.834  1.00  0.00    -0.550 OA
ENDBRANCH  21  22
ENDBRANCH  20  21
ENDBRANCH  19  20
ENDBRANCH  18  19
ENDBRANCH  17  18
ENDBRANCH  16  17
ENDBRANCH  15  16
ENDBRANCH  14  15
ENDBRANCH  13  14
ENDBRANCH   1  13
TORSDOF 20
ENDMDL
