MODEL 1
REMARK VINA RESULT:    -3.356      0.000      0.000
REMARK INTER + INTRA:         -13.810
REMARK INTER:                  -8.752
REMARK INTRA:                  -5.058
REMARK UNBOUND:                -5.058
REMARK SMILES CCCCCCCCCCCCCCCCCCCCCCCCCCCCCO
REMARK SMILES IDX 16 1 15 2 14 3 13 4 12 5 11 6 10 7 9 8 8 9 7 10 6 11 5 12
REMARK SMILES IDX 4 13 3 14 2 15 1 16 17 17 18 18 19 19 20 20 21 21 22 22
REMARK SMILES IDX 23 23 24 24 25 25 26 26 27 27 28 28 29 29 30 30
REMARK H PARENT 30 31
REMARK Flexibility Score: inf
ROOT
ATOM      1  C   UNL     1     167.589 166.330 168.375  1.00  0.00     0.000 C 
ENDROOT
BRANCH   1   2
ATOM      2  C   UNL     1     169.060 166.656 168.680  1.00  0.00     0.000 C 
BRANCH   2   3
ATOM      3  C   UNL     1     169.950 166.561 167.432  1.00  0.00     0.000 C 
BRANCH   3   4
ATOM      4  C   UNL     1     171.234 167.385 167.599  1.00  0.00     0.000 C 
BRANCH   4   5
ATOM      5  C   UNL     1     171.540 167.624 169.086  1.00  0.00     0.000 C 
BRANCH   5   6
ATOM      6  C   UNL     1     172.534 166.597 169.665  1.00  0.00     0.000 C 
BRANCH   6   7
ATOM      7  C   UNL     1     171.905 165.621 170.679  1.00  0.00     0.000 C 
BRANCH   7   8
ATOM      8  C   UNL     1     171.725 166.184 172.098  1.00  0.00    -0.000 C 
BRANCH   8   9
ATOM      9  C   UNL     1     170.692 165.398 172.922  1.00  0.00    -0.000 C 
BRANCH   9  10
ATOM     10  C   UNL     1     169.759 164.583 172.012  1.00  0.00    -0.000 C 
BRANCH  10  11
ATOM     11  C   UNL     1     168.350 165.193 171.917  1.00  0.00    -0.000 C 
BRANCH  11  12
ATOM     12  C   UNL     1     167.863 165.848 173.223  1.00  0.00    -0.000 C 
BRANCH  12  13
ATOM     13  C   UNL     1     167.463 167.321 173.029  1.00  0.00    -0.000 C 
BRANCH  13  14
ATOM     14  C   UNL     1     168.151 167.957 171.811  1.00  0.00    -0.000 C 
BRANCH  14  15
ATOM     15  C   UNL     1     168.615 169.394 172.088  1.00  0.00    -0.003 C 
ATOM     16  C   UNL     1     170.134 169.510 171.995  1.00  0.00     0.004 C 
ENDBRANCH  14  15
ENDBRANCH  13  14
ENDBRANCH  12  13
ENDBRANCH  11  12
ENDBRANCH  10  11
ENDBRANCH   9  10
ENDBRANCH   8   9
ENDBRANCH   7   8
ENDBRANCH   6   7
ENDBRANCH   5   6
ENDBRANCH   4   5
ENDBRANCH   3   4
ENDBRANCH   2   3
ENDBRANCH   1   2
BRANCH   1  17
ATOM     17  C   UNL     1     167.369 165.954 166.902  1.00  0.00     0.000 C 
BRANCH  17  18
ATOM     18  C   UNL     1     165.891 166.084 166.510  1.00  0.00     0.000 C 
BRANCH  18  19
ATOM     19  C   UNL     1     165.096 164.850 166.957  1.00  0.00     0.000 C 
BRANCH  19  20
ATOM     20  C   UNL     1     163.656 165.230 167.330  1.00  0.00     0.000 C 
BRANCH  20  21
ATOM     21  C   UNL     1     163.314 164.930 168.797  1.00  0.00     0.000 C 
BRANCH  21  22
ATOM     22  C   UNL     1     164.516 164.616 169.709  1.00  0.00     0.000 C 
BRANCH  22  23
ATOM     23  C   UNL     1     164.881 165.743 170.700  1.00  0.00     0.000 C 
BRANCH  23  24
ATOM     24  C   UNL     1     164.101 167.048 170.441  1.00  0.00     0.000 C 
BRANCH  24  25
ATOM     25  C   UNL     1     165.013 168.209 170.003  1.00  0.00     0.000 C 
BRANCH  25  26
ATOM     26  C   UNL     1     164.645 169.579 170.605  1.00  0.00     0.000 C 
BRANCH  26  27
ATOM     27  C   UNL     1     164.183 170.610 169.553  1.00  0.00     0.002 C 
BRANCH  27  28
ATOM     28  C   UNL     1     164.306 170.069 168.120  1.00  0.00     0.028 C 
BRANCH  28  29
ATOM     29  C   UNL     1     164.693 171.166 167.128  1.00  0.00     0.156 C 
BRANCH  29  30
ATOM     30  O   UNL     1     163.979 172.339 167.404  1.00  0.00    -0.396 OA
ATOM     31  H   UNL     1     163.935 172.410 168.393  1.00  0.00     0.210 HD
ENDBRANCH  29  30
ENDBRANCH  28  29
ENDBRANCH  27  28
ENDBRANCH  26  27
ENDBRANCH  25  26
ENDBRANCH  24  25
ENDBRANCH  23  24
ENDBRANCH  22  23
ENDBRANCH  21  22
ENDBRANCH  20  21
ENDBRANCH  19  20
ENDBRANCH  18  19
ENDBRANCH  17  18
ENDBRANCH   1  17
TORSDOF 28
ENDMDL
MODEL 2
REMARK VINA RESULT:    -3.341      4.282      8.191
REMARK INTER + INTRA:         -13.771
REMARK INTER:                  -9.485
REMARK INTRA:                  -4.287
REMARK UNBOUND:                -5.058
REMARK SMILES CCCCCCCCCCCCCCCCCCCCCCCCCCCCCO
REMARK SMILES IDX 16 1 15 2 14 3 13 4 12 5 11 6 10 7 9 8 8 9 7 10 6 11 5 12
REMARK SMILES IDX 4 13 3 14 2 15 1 16 17 17 18 18 19 19 20 20 21 21 22 22
REMARK SMILES IDX 23 23 24 24 25 25 26 26 27 27 28 28 29 29 30 30
REMARK H PARENT 30 31
REMARK Flexibility Score: inf
ROOT
ATOM      1  C   UNL     1     164.577 171.535 168.694  1.00  0.00     0.000 C 
ENDROOT
BRANCH   1   2
ATOM      2  C   UNL     1     163.380 172.481 168.882  1.00  0.00     0.000 C 
BRANCH   2   3
ATOM      3  C   UNL     1     162.091 171.727 169.241  1.00  0.00     0.000 C 
BRANCH   3   4
ATOM      4  C   UNL     1     161.633 172.053 170.668  1.00  0.00     0.000 C 
BRANCH   4   5
ATOM      5  C   UNL     1     161.496 170.770 171.505  1.00  0.00     0.000 C 
BRANCH   5   6
ATOM      6  C   UNL     1     162.835 170.310 172.117  1.00  0.00     0.000 C 
BRANCH   6   7
ATOM      7  C   UNL     1     163.057 168.786 172.062  1.00  0.00     0.000 C 
BRANCH   7   8
ATOM      8  C   UNL     1     164.493 168.349 171.730  1.00  0.00    -0.000 C 
BRANCH   8   9
ATOM      9  C   UNL     1     164.596 166.851 171.398  1.00  0.00    -0.000 C 
BRANCH   9  10
ATOM     10  C   UNL     1     163.296 166.332 170.762  1.00  0.00    -0.000 C 
BRANCH  10  11
ATOM     11  C   UNL     1     163.158 164.803 170.870  1.00  0.00    -0.000 C 
BRANCH  11  12
ATOM     12  C   UNL     1     162.433 164.155 169.676  1.00  0.00    -0.000 C 
BRANCH  12  13
ATOM     13  C   UNL     1     162.769 164.842 168.341  1.00  0.00    -0.000 C 
BRANCH  13  14
ATOM     14  C   UNL     1     161.668 164.638 167.287  1.00  0.00    -0.000 C 
BRANCH  14  15
ATOM     15  C   UNL     1     160.408 163.989 167.878  1.00  0.00    -0.003 C 
ATOM     16  C   UNL     1     159.187 164.883 167.689  1.00  0.00     0.004 C 
ENDBRANCH  14  15
ENDBRANCH  13  14
ENDBRANCH  12  13
ENDBRANCH  11  12
ENDBRANCH  10  11
ENDBRANCH   9  10
ENDBRANCH   8   9
ENDBRANCH   7   8
ENDBRANCH   6   7
ENDBRANCH   5   6
ENDBRANCH   4   5
ENDBRANCH   3   4
ENDBRANCH   2   3
ENDBRANCH   1   2
BRANCH   1  17
ATOM     17  C   UNL     1     164.159 170.058 168.702  1.00  0.00     0.000 C 
BRANCH  17  18
ATOM     18  C   UNL     1     164.654 169.333 167.443  1.00  0.00     0.000 C 
BRANCH  18  19
ATOM     19  C   UNL     1     164.935 167.854 167.737  1.00  0.00     0.000 C 
BRANCH  19  20
ATOM     20  C   UNL     1     165.285 167.095 166.450  1.00  0.00     0.000 C 
BRANCH  20  21
ATOM     21  C   UNL     1     166.450 166.109 166.629  1.00  0.00     0.000 C 
BRANCH  21  22
ATOM     22  C   UNL     1     166.075 164.617 166.556  1.00  0.00     0.000 C 
BRANCH  22  23
ATOM     23  C   UNL     1     166.073 163.887 167.917  1.00  0.00     0.000 C 
BRANCH  23  24
ATOM     24  C   UNL     1     166.732 164.711 169.042  1.00  0.00     0.000 C 
BRANCH  24  25
ATOM     25  C   UNL     1     166.808 163.944 170.375  1.00  0.00     0.000 C 
BRANCH  25  26
ATOM     26  C   UNL     1     166.125 162.563 170.364  1.00  0.00     0.000 C 
BRANCH  26  27
ATOM     27  C   UNL     1     167.117 161.385 170.459  1.00  0.00     0.002 C 
BRANCH  27  28
ATOM     28  C   UNL     1     166.723 160.220 169.538  1.00  0.00     0.028 C 
BRANCH  28  29
ATOM     29  C   UNL     1     165.864 159.185 170.264  1.00  0.00     0.156 C 
BRANCH  29  30
ATOM     30  O   UNL     1     165.964 157.942 169.626  1.00  0.00    -0.396 OA
ATOM     31  H   UNL     1     166.235 158.133 168.690  1.00  0.00     0.210 HD
ENDBRANCH  29  30
ENDBRANCH  28  29
ENDBRANCH  27  28
ENDBRANCH  26  27
ENDBRANCH  25  26
ENDBRANCH  24  25
ENDBRANCH  23  24
ENDBRANCH  22  23
ENDBRANCH  21  22
ENDBRANCH  20  21
ENDBRANCH  19  20
ENDBRANCH  18  19
ENDBRANCH  17  18
ENDBRANCH   1  17
TORSDOF 28
ENDMDL
MODEL 3
REMARK VINA RESULT:    -3.334      3.252      6.725
REMARK INTER + INTRA:         -13.753
REMARK INTER:                  -9.020
REMARK INTRA:                  -4.733
REMARK UNBOUND:                -5.058
REMARK SMILES CCCCCCCCCCCCCCCCCCCCCCCCCCCCCO
REMARK SMILES IDX 16 1 15 2 14 3 13 4 12 5 11 6 10 7 9 8 8 9 7 10 6 11 5 12
REMARK SMILES IDX 4 13 3 14 2 15 1 16 17 17 18 18 19 19 20 20 21 21 22 22
REMARK SMILES IDX 23 23 24 24 25 25 26 26 27 27 28 28 29 29 30 30
REMARK H PARENT 30 31
REMARK Flexibility Score: inf
ROOT
ATOM      1  C   UNL     1     164.458 169.997 167.620  1.00  0.00     0.000 C 
ENDROOT
BRANCH   1   2
ATOM      2  C   UNL     1     164.706 171.259 166.777  1.00  0.00     0.000 C 
BRANCH   2   3
ATOM      3  C   UNL     1     164.939 172.505 167.645  1.00  0.00     0.000 C 
BRANCH   3   4
ATOM      4  C   UNL     1     164.989 172.144 169.135  1.00  0.00     0.000 C 
BRANCH   4   5
ATOM      5  C   UNL     1     164.132 173.118 169.962  1.00  0.00     0.000 C 
BRANCH   5   6
ATOM      6  C   UNL     1     162.690 173.243 169.432  1.00  0.00     0.000 C 
BRANCH   6   7
ATOM      7  C   UNL     1     161.885 171.930 169.492  1.00  0.00     0.000 C 
BRANCH   7   8
ATOM      8  C   UNL     1     161.255 171.614 170.858  1.00  0.00    -0.000 C 
BRANCH   8   9
ATOM      9  C   UNL     1     161.574 170.191 171.345  1.00  0.00    -0.000 C 
BRANCH   9  10
ATOM     10  C   UNL     1     163.023 170.088 171.848  1.00  0.00    -0.000 C 
BRANCH  10  11
ATOM     11  C   UNL     1     163.752 168.852 171.292  1.00  0.00    -0.000 C 
BRANCH  11  12
ATOM     12  C   UNL     1     165.267 169.052 171.101  1.00  0.00    -0.000 C 
BRANCH  12  13
ATOM     13  C   UNL     1     165.958 169.563 172.378  1.00  0.00    -0.000 C 
BRANCH  13  14
ATOM     14  C   UNL     1     166.767 170.846 172.130  1.00  0.00    -0.000 C 
BRANCH  14  15
ATOM     15  C   UNL     1     166.693 171.820 173.315  1.00  0.00    -0.003 C 
ATOM     16  C   UNL     1     165.333 172.508 173.379  1.00  0.00     0.004 C 
ENDBRANCH  14  15
ENDBRANCH  13  14
ENDBRANCH  12  13
ENDBRANCH  11  12
ENDBRANCH  10  11
ENDBRANCH   9  10
ENDBRANCH   8   9
ENDBRANCH   7   8
ENDBRANCH   6   7
ENDBRANCH   5   6
ENDBRANCH   4   5
ENDBRANCH   3   4
ENDBRANCH   2   3
ENDBRANCH   1   2
BRANCH   1  17
ATOM     17  C   UNL     1     164.897 168.716 166.896  1.00  0.00     0.000 C 
BRANCH  17  18
ATOM     18  C   UNL     1     164.947 167.523 167.859  1.00  0.00     0.000 C 
BRANCH  18  19
ATOM     19  C   UNL     1     165.277 166.227 167.108  1.00  0.00     0.000 C 
BRANCH  19  20
ATOM     20  C   UNL     1     166.680 165.723 167.472  1.00  0.00     0.000 C 
BRANCH  20  21
ATOM     21  C   UNL     1     167.252 166.390 168.733  1.00  0.00     0.000 C 
BRANCH  21  22
ATOM     22  C   UNL     1     167.222 165.530 170.011  1.00  0.00     0.000 C 
BRANCH  22  23
ATOM     23  C   UNL     1     165.832 165.414 170.674  1.00  0.00     0.000 C 
BRANCH  23  24
ATOM     24  C   UNL     1     165.212 164.010 170.529  1.00  0.00     0.000 C 
BRANCH  24  25
ATOM     25  C   UNL     1     163.676 164.024 170.640  1.00  0.00     0.000 C 
BRANCH  25  26
ATOM     26  C   UNL     1     162.977 165.095 169.781  1.00  0.00     0.000 C 
BRANCH  26  27
ATOM     27  C   UNL     1     162.266 164.519 168.538  1.00  0.00     0.002 C 
BRANCH  27  28
ATOM     28  C   UNL     1     160.757 164.343 168.765  1.00  0.00     0.028 C 
BRANCH  28  29
ATOM     29  C   UNL     1     159.959 164.552 167.478  1.00  0.00     0.156 C 
BRANCH  29  30
ATOM     30  O   UNL     1     160.473 163.743 166.455  1.00  0.00    -0.396 OA
ATOM     31  H   UNL     1     159.907 163.913 165.658  1.00  0.00     0.210 HD
ENDBRANCH  29  30
ENDBRANCH  28  29
ENDBRANCH  27  28
ENDBRANCH  26  27
ENDBRANCH  25  26
ENDBRANCH  24  25
ENDBRANCH  23  24
ENDBRANCH  22  23
ENDBRANCH  21  22
ENDBRANCH  20  21
ENDBRANCH  19  20
ENDBRANCH  18  19
ENDBRANCH  17  18
ENDBRANCH   1  17
TORSDOF 28
ENDMDL
MODEL 4
REMARK VINA RESULT:    -3.317      3.397      5.791
REMARK INTER + INTRA:         -13.709
REMARK INTER:                  -9.615
REMARK INTRA:                  -4.094
REMARK UNBOUND:                -5.058
REMARK SMILES CCCCCCCCCCCCCCCCCCCCCCCCCCCCCO
REMARK SMILES IDX 16 1 15 2 14 3 13 4 12 5 11 6 10 7 9 8 8 9 7 10 6 11 5 12
REMARK SMILES IDX 4 13 3 14 2 15 1 16 17 17 18 18 19 19 20 20 21 21 22 22
REMARK SMILES IDX 23 23 24 24 25 25 26 26 27 27 28 28 29 29 30 30
REMARK H PARENT 30 31
REMARK Flexibility Score: inf
ROOT
ATOM      1  C   UNL     1     161.612 164.643 166.976  1.00  0.00     0.000 C 
ENDROOT
BRANCH   1   2
ATOM      2  C   UNL     1     162.977 164.899 167.637  1.00  0.00     0.000 C 
BRANCH   2   3
ATOM      3  C   UNL     1     164.060 165.271 166.613  1.00  0.00     0.000 C 
BRANCH   3   4
ATOM      4  C   UNL     1     165.293 164.369 166.753  1.00  0.00     0.000 C 
BRANCH   4   5
ATOM      5  C   UNL     1     166.508 165.177 167.240  1.00  0.00     0.000 C 
BRANCH   5   6
ATOM      6  C   UNL     1     166.842 164.920 168.723  1.00  0.00     0.000 C 
BRANCH   6   7
ATOM      7  C   UNL     1     166.394 163.536 169.234  1.00  0.00     0.000 C 
BRANCH   7   8
ATOM      8  C   UNL     1     166.722 163.250 170.709  1.00  0.00    -0.000 C 
BRANCH   8   9
ATOM      9  C   UNL     1     165.969 162.028 171.259  1.00  0.00    -0.000 C 
BRANCH   9  10
ATOM     10  C   UNL     1     166.892 161.148 172.118  1.00  0.00    -0.000 C 
BRANCH  10  11
ATOM     11  C   UNL     1     167.417 159.922 171.349  1.00  0.00    -0.000 C 
BRANCH  11  12
ATOM     12  C   UNL     1     168.740 160.173 170.601  1.00  0.00    -0.000 C 
BRANCH  12  13
ATOM     13  C   UNL     1     168.658 159.784 169.115  1.00  0.00    -0.000 C 
BRANCH  13  14
ATOM     14  C   UNL     1     167.208 159.718 168.608  1.00  0.00    -0.000 C 
BRANCH  14  15
ATOM     15  C   UNL     1     166.981 160.603 167.373  1.00  0.00    -0.003 C 
ATOM     16  C   UNL     1     166.138 159.882 166.327  1.00  0.00     0.004 C 
ENDBRANCH  14  15
ENDBRANCH  13  14
ENDBRANCH  12  13
ENDBRANCH  11  12
ENDBRANCH  10  11
ENDBRANCH   9  10
ENDBRANCH   8   9
ENDBRANCH   7   8
ENDBRANCH   6   7
ENDBRANCH   5   6
ENDBRANCH   4   5
ENDBRANCH   3   4
ENDBRANCH   2   3
ENDBRANCH   1   2
BRANCH   1  17
ATOM     17  C   UNL     1     160.491 164.452 168.008  1.00  0.00     0.000 C 
BRANCH  17  18
ATOM     18  C   UNL     1     161.060 164.077 169.383  1.00  0.00     0.000 C 
BRANCH  18  19
ATOM     19  C   UNL     1     160.385 164.889 170.495  1.00  0.00     0.000 C 
BRANCH  19  20
ATOM     20  C   UNL     1     161.405 165.319 171.559  1.00  0.00     0.000 C 
BRANCH  20  21
ATOM     21  C   UNL     1     162.774 164.642 171.389  1.00  0.00     0.000 C 
BRANCH  21  22
ATOM     22  C   UNL     1     163.929 165.573 170.976  1.00  0.00     0.000 C 
BRANCH  22  23
ATOM     23  C   UNL     1     163.544 167.065 170.869  1.00  0.00     0.000 C 
BRANCH  23  24
ATOM     24  C   UNL     1     164.734 167.968 170.485  1.00  0.00     0.000 C 
BRANCH  24  25
ATOM     25  C   UNL     1     164.972 168.025 168.965  1.00  0.00     0.000 C 
BRANCH  25  26
ATOM     26  C   UNL     1     164.526 169.337 168.292  1.00  0.00     0.000 C 
BRANCH  26  27
ATOM     27  C   UNL     1     164.286 170.491 169.290  1.00  0.00     0.002 C 
BRANCH  27  28
ATOM     28  C   UNL     1     163.361 171.572 168.712  1.00  0.00     0.028 C 
BRANCH  28  29
ATOM     29  C   UNL     1     164.127 172.846 168.354  1.00  0.00     0.156 C 
BRANCH  29  30
ATOM     30  O   UNL     1     165.427 172.789 168.875  1.00  0.00    -0.396 OA
ATOM     31  H   UNL     1     165.482 173.507 169.559  1.00  0.00     0.210 HD
ENDBRANCH  29  30
ENDBRANCH  28  29
ENDBRANCH  27  28
ENDBRANCH  26  27
ENDBRANCH  25  26
ENDBRANCH  24  25
ENDBRANCH  23  24
ENDBRANCH  22  23
ENDBRANCH  21  22
ENDBRANCH  20  21
ENDBRANCH  19  20
ENDBRANCH  18  19
ENDBRANCH  17  18
ENDBRANCH   1  17
TORSDOF 28
ENDMDL
MODEL 5
REMARK VINA RESULT:    -3.312      2.921      6.962
REMARK INTER + INTRA:         -13.696
REMARK INTER:                  -8.636
REMARK INTRA:                  -5.060
REMARK UNBOUND:                -5.058
REMARK SMILES CCCCCCCCCCCCCCCCCCCCCCCCCCCCCO
REMARK SMILES IDX 16 1 15 2 14 3 13 4 12 5 11 6 10 7 9 8 8 9 7 10 6 11 5 12
REMARK SMILES IDX 4 13 3 14 2 15 1 16 17 17 18 18 19 19 20 20 21 21 22 22
REMARK SMILES IDX 23 23 24 24 25 25 26 26 27 27 28 28 29 29 30 30
REMARK H PARENT 30 31
REMARK Flexibility Score: inf
ROOT
ATOM      1  C   UNL     1     164.673 171.564 167.247  1.00  0.00     0.000 C 
ENDROOT
BRANCH   1   2
ATOM      2  C   UNL     1     164.471 171.685 168.766  1.00  0.00     0.000 C 
BRANCH   2   3
ATOM      3  C   UNL     1     163.964 173.075 169.179  1.00  0.00     0.000 C 
BRANCH   3   4
ATOM      4  C   UNL     1     162.557 172.998 169.786  1.00  0.00     0.000 C 
BRANCH   4   5
ATOM      5  C   UNL     1     161.992 171.572 169.676  1.00  0.00     0.000 C 
BRANCH   5   6
ATOM      6  C   UNL     1     161.143 171.171 170.899  1.00  0.00     0.000 C 
BRANCH   6   7
ATOM      7  C   UNL     1     161.835 170.164 171.838  1.00  0.00     0.000 C 
BRANCH   7   8
ATOM      8  C   UNL     1     163.112 169.519 171.274  1.00  0.00    -0.000 C 
BRANCH   8   9
ATOM      9  C   UNL     1     163.547 168.273 172.062  1.00  0.00    -0.000 C 
BRANCH   9  10
ATOM     10  C   UNL     1     165.070 168.251 172.271  1.00  0.00    -0.000 C 
BRANCH  10  11
ATOM     11  C   UNL     1     165.803 169.248 171.355  1.00  0.00    -0.000 C 
BRANCH  11  12
ATOM     12  C   UNL     1     166.758 170.197 172.102  1.00  0.00    -0.000 C 
BRANCH  12  13
ATOM     13  C   UNL     1     166.295 171.664 172.042  1.00  0.00    -0.000 C 
BRANCH  13  14
ATOM     14  C   UNL     1     165.125 171.945 172.998  1.00  0.00    -0.000 C 
BRANCH  14  15
ATOM     15  C   UNL     1     164.556 173.361 172.823  1.00  0.00    -0.003 C 
ATOM     16  C   UNL     1     165.571 174.282 172.153  1.00  0.00     0.004 C 
ENDBRANCH  14  15
ENDBRANCH  13  14
ENDBRANCH  12  13
ENDBRANCH  11  12
ENDBRANCH  10  11
ENDBRANCH   9  10
ENDBRANCH   8   9
ENDBRANCH   7   8
ENDBRANCH   6   7
ENDBRANCH   5   6
ENDBRANCH   4   5
ENDBRANCH   3   4
ENDBRANCH   2   3
ENDBRANCH   1   2
BRANCH   1  17
ATOM     17  C   UNL     1     164.492 170.123 166.747  1.00  0.00     0.000 C 
BRANCH  17  18
ATOM     18  C   UNL     1     164.683 169.112 167.885  1.00  0.00     0.000 C 
BRANCH  18  19
ATOM     19  C   UNL     1     165.061 167.732 167.334  1.00  0.00     0.000 C 
BRANCH  19  20
ATOM     20  C   UNL     1     165.071 166.678 168.450  1.00  0.00     0.000 C 
BRANCH  20  21
ATOM     21  C   UNL     1     166.487 166.316 168.925  1.00  0.00     0.000 C 
BRANCH  21  22
ATOM     22  C   UNL     1     166.579 165.711 170.339  1.00  0.00     0.000 C 
BRANCH  22  23
ATOM     23  C   UNL     1     168.019 165.523 170.864  1.00  0.00     0.000 C 
BRANCH  23  24
ATOM     24  C   UNL     1     168.464 166.652 171.815  1.00  0.00     0.000 C 
BRANCH  24  25
ATOM     25  C   UNL     1     169.619 167.493 171.241  1.00  0.00     0.000 C 
BRANCH  25  26
ATOM     26  C   UNL     1     170.513 166.753 170.227  1.00  0.00     0.000 C 
BRANCH  26  27
ATOM     27  C   UNL     1     170.757 167.549 168.926  1.00  0.00     0.002 C 
BRANCH  27  28
ATOM     28  C   UNL     1     170.379 166.742 167.675  1.00  0.00     0.028 C 
BRANCH  28  29
ATOM     29  C   UNL     1     171.609 166.340 166.863  1.00  0.00     0.156 C 
BRANCH  29  30
ATOM     30  O   UNL     1     172.750 166.977 167.368  1.00  0.00    -0.396 OA
ATOM     31  H   UNL     1     173.517 166.387 167.146  1.00  0.00     0.210 HD
ENDBRANCH  29  30
ENDBRANCH  28  29
ENDBRANCH  27  28
ENDBRANCH  26  27
ENDBRANCH  25  26
ENDBRANCH  24  25
ENDBRANCH  23  24
ENDBRANCH  22  23
ENDBRANCH  21  22
ENDBRANCH  20  21
ENDBRANCH  19  20
ENDBRANCH  18  19
ENDBRANCH  17  18
ENDBRANCH   1  17
TORSDOF 28
ENDMDL
MODEL 6
REMARK VINA RESULT:    -3.299      2.573      6.183
REMARK INTER + INTRA:         -13.661
REMARK INTER:                  -9.563
REMARK INTRA:                  -4.099
REMARK UNBOUND:                -5.058
REMARK SMILES CCCCCCCCCCCCCCCCCCCCCCCCCCCCCO
REMARK SMILES IDX 16 1 15 2 14 3 13 4 12 5 11 6 10 7 9 8 8 9 7 10 6 11 5 12
REMARK SMILES IDX 4 13 3 14 2 15 1 16 17 17 18 18 19 19 20 20 21 21 22 22
REMARK SMILES IDX 23 23 24 24 25 25 26 26 27 27 28 28 29 29 30 30
REMARK H PARENT 30 31
REMARK Flexibility Score: inf
ROOT
ATOM      1  C   UNL     1     164.184 172.356 168.549  1.00  0.00     0.000 C 
ENDROOT
BRANCH   1   2
ATOM      2  C   UNL     1     165.016 172.061 167.290  1.00  0.00     0.000 C 
BRANCH   2   3
ATOM      3  C   UNL     1     164.550 170.788 166.568  1.00  0.00     0.000 C 
BRANCH   3   4
ATOM      4  C   UNL     1     164.532 169.583 167.518  1.00  0.00     0.000 C 
BRANCH   4   5
ATOM      5  C   UNL     1     164.915 168.293 166.774  1.00  0.00     0.000 C 
BRANCH   5   6
ATOM      6  C   UNL     1     165.282 167.139 167.728  1.00  0.00     0.000 C 
BRANCH   6   7
ATOM      7  C   UNL     1     164.425 165.872 167.535  1.00  0.00     0.000 C 
BRANCH   7   8
ATOM      8  C   UNL     1     164.909 164.635 168.309  1.00  0.00    -0.000 C 
BRANCH   8   9
ATOM      9  C   UNL     1     166.418 164.672 168.604  1.00  0.00    -0.000 C 
BRANCH   9  10
ATOM     10  C   UNL     1     166.714 164.216 170.042  1.00  0.00    -0.000 C 
BRANCH  10  11
ATOM     11  C   UNL     1     167.730 165.129 170.751  1.00  0.00    -0.000 C 
BRANCH  11  12
ATOM     12  C   UNL     1     167.926 166.495 170.068  1.00  0.00    -0.000 C 
BRANCH  12  13
ATOM     13  C   UNL     1     169.391 166.754 169.678  1.00  0.00    -0.000 C 
BRANCH  13  14
ATOM     14  C   UNL     1     169.597 166.759 168.154  1.00  0.00    -0.000 C 
BRANCH  14  15
ATOM     15  C   UNL     1     171.001 167.238 167.757  1.00  0.00    -0.003 C 
ATOM     16  C   UNL     1     171.778 166.136 167.045  1.00  0.00     0.004 C 
ENDBRANCH  14  15
ENDBRANCH  13  14
ENDBRANCH  12  13
ENDBRANCH  11  12
ENDBRANCH  10  11
ENDBRANCH   9  10
ENDBRANCH   8   9
ENDBRANCH   7   8
ENDBRANCH   6   7
ENDBRANCH   5   6
ENDBRANCH   4   5
ENDBRANCH   3   4
ENDBRANCH   2   3
ENDBRANCH   1   2
BRANCH   1  17
ATOM     17  C   UNL     1     165.060 172.536 169.798  1.00  0.00     0.000 C 
BRANCH  17  18
ATOM     18  C   UNL     1     164.528 171.707 170.974  1.00  0.00     0.000 C 
BRANCH  18  19
ATOM     19  C   UNL     1     163.269 170.929 170.571  1.00  0.00     0.000 C 
BRANCH  19  20
ATOM     20  C   UNL     1     163.286 169.512 171.161  1.00  0.00     0.000 C 
BRANCH  20  21
ATOM     21  C   UNL     1     164.693 168.895 171.208  1.00  0.00     0.000 C 
BRANCH  21  22
ATOM     22  C   UNL     1     164.741 167.356 171.273  1.00  0.00     0.000 C 
BRANCH  22  23
ATOM     23  C   UNL     1     163.368 166.664 171.130  1.00  0.00     0.000 C 
BRANCH  23  24
ATOM     24  C   UNL     1     163.341 165.249 171.741  1.00  0.00     0.000 C 
BRANCH  24  25
ATOM     25  C   UNL     1     162.633 164.223 170.836  1.00  0.00     0.000 C 
BRANCH  25  26
ATOM     26  C   UNL     1     161.094 164.275 170.884  1.00  0.00     0.000 C 
BRANCH  26  27
ATOM     27  C   UNL     1     160.415 163.346 169.854  1.00  0.00     0.002 C 
BRANCH  27  28
ATOM     28  C   UNL     1     159.845 164.125 168.660  1.00  0.00     0.028 C 
BRANCH  28  29
ATOM     29  C   UNL     1     160.891 164.335 167.565  1.00  0.00     0.156 C 
BRANCH  29  30
ATOM     30  O   UNL     1     160.296 164.909 166.433  1.00  0.00    -0.396 OA
ATOM     31  H   UNL     1     160.861 164.645 165.661  1.00  0.00     0.210 HD
ENDBRANCH  29  30
ENDBRANCH  28  29
ENDBRANCH  27  28
ENDBRANCH  26  27
ENDBRANCH  25  26
ENDBRANCH  24  25
ENDBRANCH  23  24
ENDBRANCH  22  23
ENDBRANCH  21  22
ENDBRANCH  20  21
ENDBRANCH  19  20
ENDBRANCH  18  19
ENDBRANCH  17  18
ENDBRANCH   1  17
TORSDOF 28
ENDMDL
MODEL 7
REMARK VINA RESULT:    -3.294      1.299      2.623
REMARK INTER + INTRA:         -13.649
REMARK INTER:                  -9.233
REMARK INTRA:                  -4.416
REMARK UNBOUND:                -5.058
REMARK SMILES CCCCCCCCCCCCCCCCCCCCCCCCCCCCCO
REMARK SMILES IDX 16 1 15 2 14 3 13 4 12 5 11 6 10 7 9 8 8 9 7 10 6 11 5 12
REMARK SMILES IDX 4 13 3 14 2 15 1 16 17 17 18 18 19 19 20 20 21 21 22 22
REMARK SMILES IDX 23 23 24 24 25 25 26 26 27 27 28 28 29 29 30 30
REMARK H PARENT 30 31
REMARK Flexibility Score: inf
ROOT
ATOM      1  C   UNL     1     168.281 166.358 167.861  1.00  0.00     0.000 C 
ENDROOT
BRANCH   1   2
ATOM      2  C   UNL     1     168.649 166.361 166.369  1.00  0.00     0.000 C 
BRANCH   2   3
ATOM      3  C   UNL     1     170.155 166.561 166.140  1.00  0.00     0.000 C 
BRANCH   3   4
ATOM      4  C   UNL     1     170.846 167.085 167.405  1.00  0.00     0.000 C 
BRANCH   4   5
ATOM      5  C   UNL     1     172.221 166.421 167.593  1.00  0.00     0.000 C 
BRANCH   5   6
ATOM      6  C   UNL     1     172.689 166.421 169.062  1.00  0.00     0.000 C 
BRANCH   6   7
ATOM      7  C   UNL     1     173.219 167.784 169.550  1.00  0.00     0.000 C 
BRANCH   7   8
ATOM      8  C   UNL     1     172.144 168.752 170.072  1.00  0.00    -0.000 C 
BRANCH   8   9
ATOM      9  C   UNL     1     171.784 168.501 171.545  1.00  0.00    -0.000 C 
BRANCH   9  10
ATOM     10  C   UNL     1     170.263 168.553 171.762  1.00  0.00    -0.000 C 
BRANCH  10  11
ATOM     11  C   UNL     1     169.514 167.500 170.925  1.00  0.00    -0.000 C 
BRANCH  11  12
ATOM     12  C   UNL     1     169.900 166.047 171.259  1.00  0.00    -0.000 C 
BRANCH  12  13
ATOM     13  C   UNL     1     169.477 165.638 172.680  1.00  0.00    -0.000 C 
BRANCH  13  14
ATOM     14  C   UNL     1     168.029 165.122 172.733  1.00  0.00    -0.000 C 
BRANCH  14  15
ATOM     15  C   UNL     1     167.724 164.125 171.606  1.00  0.00    -0.003 C 
ATOM     16  C   UNL     1     168.278 162.741 171.930  1.00  0.00     0.004 C 
ENDBRANCH  14  15
ENDBRANCH  13  14
ENDBRANCH  12  13
ENDBRANCH  11  12
ENDBRANCH  10  11
ENDBRANCH   9  10
ENDBRANCH   8   9
ENDBRANCH   7   8
ENDBRANCH   6   7
ENDBRANCH   5   6
ENDBRANCH   4   5
ENDBRANCH   3   4
ENDBRANCH   2   3
ENDBRANCH   1   2
BRANCH   1  17
ATOM     17  C   UNL     1     167.143 165.377 168.178  1.00  0.00     0.000 C 
BRANCH  17  18
ATOM     18  C   UNL     1     166.036 165.448 167.118  1.00  0.00     0.000 C 
BRANCH  18  19
ATOM     19  C   UNL     1     164.909 164.457 167.436  1.00  0.00     0.000 C 
BRANCH  19  20
ATOM     20  C   UNL     1     163.739 165.163 168.137  1.00  0.00     0.000 C 
BRANCH  20  21
ATOM     21  C   UNL     1     163.759 164.991 169.664  1.00  0.00     0.000 C 
BRANCH  21  22
ATOM     22  C   UNL     1     163.808 166.297 170.479  1.00  0.00     0.000 C 
BRANCH  22  23
ATOM     23  C   UNL     1     165.227 166.734 170.906  1.00  0.00     0.000 C 
BRANCH  23  24
ATOM     24  C   UNL     1     165.637 168.102 170.325  1.00  0.00     0.000 C 
BRANCH  24  25
ATOM     25  C   UNL     1     164.532 168.738 169.462  1.00  0.00     0.000 C 
BRANCH  25  26
ATOM     26  C   UNL     1     164.802 168.708 167.945  1.00  0.00     0.000 C 
BRANCH  26  27
ATOM     27  C   UNL     1     164.512 170.051 167.242  1.00  0.00     0.002 C 
BRANCH  27  28
ATOM     28  C   UNL     1     164.133 171.156 168.239  1.00  0.00     0.028 C 
BRANCH  28  29
ATOM     29  C   UNL     1     164.783 172.493 167.882  1.00  0.00     0.156 C 
BRANCH  29  30
ATOM     30  O   UNL     1     165.441 173.023 169.000  1.00  0.00    -0.396 OA
ATOM     31  H   UNL     1     166.324 173.341 168.676  1.00  0.00     0.210 HD
ENDBRANCH  29  30
ENDBRANCH  28  29
ENDBRANCH  27  28
ENDBRANCH  26  27
ENDBRANCH  25  26
ENDBRANCH  24  25
ENDBRANCH  23  24
ENDBRANCH  22  23
ENDBRANCH  21  22
ENDBRANCH  20  21
ENDBRANCH  19  20
ENDBRANCH  18  19
ENDBRANCH  17  18
ENDBRANCH   1  17
TORSDOF 28
ENDMDL
MODEL 8
REMARK VINA RESULT:    -3.293      3.871      7.892
REMARK INTER + INTRA:         -13.645
REMARK INTER:                  -9.606
REMARK INTRA:                  -4.039
REMARK UNBOUND:                -5.058
REMARK SMILES CCCCCCCCCCCCCCCCCCCCCCCCCCCCCO
REMARK SMILES IDX 16 1 15 2 14 3 13 4 12 5 11 6 10 7 9 8 8 9 7 10 6 11 5 12
REMARK SMILES IDX 4 13 3 14 2 15 1 16 17 17 18 18 19 19 20 20 21 21 22 22
REMARK SMILES IDX 23 23 24 24 25 25 26 26 27 27 28 28 29 29 30 30
REMARK H PARENT 30 31
REMARK Flexibility Score: inf
ROOT
ATOM      1  C   UNL     1     165.602 169.987 171.478  1.00  0.00     0.000 C 
ENDROOT
BRANCH   1   2
ATOM      2  C   UNL     1     165.501 171.502 171.240  1.00  0.00     0.000 C 
BRANCH   2   3
ATOM      3  C   UNL     1     164.233 171.889 170.465  1.00  0.00     0.000 C 
BRANCH   3   4
ATOM      4  C   UNL     1     164.505 173.043 169.491  1.00  0.00     0.000 C 
BRANCH   4   5
ATOM      5  C   UNL     1     164.598 172.528 168.045  1.00  0.00     0.000 C 
BRANCH   5   6
ATOM      6  C   UNL     1     163.779 171.243 167.814  1.00  0.00     0.000 C 
BRANCH   6   7
ATOM      7  C   UNL     1     164.508 170.179 166.970  1.00  0.00     0.000 C 
BRANCH   7   8
ATOM      8  C   UNL     1     164.863 168.885 167.721  1.00  0.00    -0.000 C 
BRANCH   8   9
ATOM      9  C   UNL     1     164.858 167.648 166.807  1.00  0.00    -0.000 C 
BRANCH   9  10
ATOM     10  C   UNL     1     164.528 166.373 167.601  1.00  0.00    -0.000 C 
BRANCH  10  11
ATOM     11  C   UNL     1     164.834 165.091 166.807  1.00  0.00    -0.000 C 
BRANCH  11  12
ATOM     12  C   UNL     1     166.331 164.731 166.752  1.00  0.00    -0.000 C 
BRANCH  12  13
ATOM     13  C   UNL     1     167.123 165.333 167.926  1.00  0.00    -0.000 C 
BRANCH  13  14
ATOM     14  C   UNL     1     168.203 166.321 167.456  1.00  0.00    -0.000 C 
BRANCH  14  15
ATOM     15  C   UNL     1     169.217 166.647 168.562  1.00  0.00    -0.003 C 
ATOM     16  C   UNL     1     170.592 166.952 167.977  1.00  0.00     0.004 C 
ENDBRANCH  14  15
ENDBRANCH  13  14
ENDBRANCH  12  13
ENDBRANCH  11  12
ENDBRANCH  10  11
ENDBRANCH   9  10
ENDBRANCH   8   9
ENDBRANCH   7   8
ENDBRANCH   6   7
ENDBRANCH   5   6
ENDBRANCH   4   5
ENDBRANCH   3   4
ENDBRANCH   2   3
ENDBRANCH   1   2
BRANCH   1  17
ATOM     17  C   UNL     1     164.245 169.283 171.331  1.00  0.00     0.000 C 
BRANCH  17  18
ATOM     18  C   UNL     1     164.423 167.779 171.085  1.00  0.00     0.000 C 
BRANCH  18  19
ATOM     19  C   UNL     1     165.910 167.404 171.037  1.00  0.00     0.000 C 
BRANCH  19  20
ATOM     20  C   UNL     1     166.105 165.900 171.276  1.00  0.00     0.000 C 
BRANCH  20  21
ATOM     21  C   UNL     1     164.858 165.068 170.936  1.00  0.00     0.000 C 
BRANCH  21  22
ATOM     22  C   UNL     1     165.067 163.542 170.905  1.00  0.00     0.000 C 
BRANCH  22  23
ATOM     23  C   UNL     1     166.494 163.097 170.518  1.00  0.00     0.000 C 
BRANCH  23  24
ATOM     24  C   UNL     1     166.548 161.658 169.967  1.00  0.00     0.000 C 
BRANCH  24  25
ATOM     25  C   UNL     1     166.717 161.612 168.437  1.00  0.00     0.000 C 
BRANCH  25  26
ATOM     26  C   UNL     1     167.011 160.213 167.863  1.00  0.00     0.000 C 
BRANCH  26  27
ATOM     27  C   UNL     1     166.744 159.068 168.865  1.00  0.00     0.002 C 
BRANCH  27  28
ATOM     28  C   UNL     1     168.007 158.241 169.148  1.00  0.00     0.028 C 
BRANCH  28  29
ATOM     29  C   UNL     1     169.199 159.128 169.510  1.00  0.00     0.156 C 
BRANCH  29  30
ATOM     30  O   UNL     1     170.260 158.894 168.626  1.00  0.00    -0.396 OA
ATOM     31  H   UNL     1     171.087 158.917 169.175  1.00  0.00     0.210 HD
ENDBRANCH  29  30
ENDBRANCH  28  29
ENDBRANCH  27  28
ENDBRANCH  26  27
ENDBRANCH  25  26
ENDBRANCH  24  25
ENDBRANCH  23  24
ENDBRANCH  22  23
ENDBRANCH  21  22
ENDBRANCH  20  21
ENDBRANCH  19  20
ENDBRANCH  18  19
ENDBRANCH  17  18
ENDBRANCH   1  17
TORSDOF 28
ENDMDL
MODEL 9
REMARK VINA RESULT:    -3.292      2.661      6.366
REMARK INTER + INTRA:         -13.642
REMARK INTER:                  -9.661
REMARK INTRA:                  -3.980
REMARK UNBOUND:                -5.058
REMARK SMILES CCCCCCCCCCCCCCCCCCCCCCCCCCCCCO
REMARK SMILES IDX 16 1 15 2 14 3 13 4 12 5 11 6 10 7 9 8 8 9 7 10 6 11 5 12
REMARK SMILES IDX 4 13 3 14 2 15 1 16 17 17 18 18 19 19 20 20 21 21 22 22
REMARK SMILES IDX 23 23 24 24 25 25 26 26 27 27 28 28 29 29 30 30
REMARK H PARENT 30 31
REMARK Flexibility Score: inf
ROOT
ATOM      1  C   UNL     1     164.446 170.293 167.359  1.00  0.00     0.000 C 
ENDROOT
BRANCH   1   2
ATOM      2  C   UNL     1     164.893 171.605 166.694  1.00  0.00     0.000 C 
BRANCH   2   3
ATOM      3  C   UNL     1     164.838 172.798 167.660  1.00  0.00     0.000 C 
BRANCH   3   4
ATOM      4  C   UNL     1     164.915 172.336 169.121  1.00  0.00     0.000 C 
BRANCH   4   5
ATOM      5  C   UNL     1     163.705 172.846 169.920  1.00  0.00     0.000 C 
BRANCH   5   6
ATOM      6  C   UNL     1     162.392 172.134 169.536  1.00  0.00     0.000 C 
BRANCH   6   7
ATOM      7  C   UNL     1     161.842 171.201 170.633  1.00  0.00     0.000 C 
BRANCH   7   8
ATOM      8  C   UNL     1     162.893 170.671 171.623  1.00  0.00    -0.000 C 
BRANCH   8   9
ATOM      9  C   UNL     1     163.291 169.212 171.342  1.00  0.00    -0.000 C 
BRANCH   9  10
ATOM     10  C   UNL     1     164.729 169.122 170.805  1.00  0.00    -0.000 C 
BRANCH  10  11
ATOM     11  C   UNL     1     165.781 169.370 171.900  1.00  0.00    -0.000 C 
BRANCH  11  12
ATOM     12  C   UNL     1     166.250 168.090 172.618  1.00  0.00    -0.000 C 
BRANCH  12  13
ATOM     13  C   UNL     1     166.230 166.859 171.696  1.00  0.00    -0.000 C 
BRANCH  13  14
ATOM     14  C   UNL     1     167.610 166.189 171.587  1.00  0.00    -0.000 C 
BRANCH  14  15
ATOM     15  C   UNL     1     168.601 167.027 170.766  1.00  0.00    -0.003 C 
ATOM     16  C   UNL     1     169.457 167.908 171.670  1.00  0.00     0.004 C 
ENDBRANCH  14  15
ENDBRANCH  13  14
ENDBRANCH  12  13
ENDBRANCH  11  12
ENDBRANCH  10  11
ENDBRANCH   9  10
ENDBRANCH   8   9
ENDBRANCH   7   8
ENDBRANCH   6   7
ENDBRANCH   5   6
ENDBRANCH   4   5
ENDBRANCH   3   4
ENDBRANCH   2   3
ENDBRANCH   1   2
BRANCH   1  17
ATOM     17  C   UNL     1     164.883 169.056 166.562  1.00  0.00     0.000 C 
BRANCH  17  18
ATOM     18  C   UNL     1     164.897 167.802 167.446  1.00  0.00     0.000 C 
BRANCH  18  19
ATOM     19  C   UNL     1     165.678 166.666 166.772  1.00  0.00     0.000 C 
BRANCH  19  20
ATOM     20  C   UNL     1     166.930 166.304 167.584  1.00  0.00     0.000 C 
BRANCH  20  21
ATOM     21  C   UNL     1     166.890 164.874 168.147  1.00  0.00     0.000 C 
BRANCH  21  22
ATOM     22  C   UNL     1     165.500 164.209 168.174  1.00  0.00     0.000 C 
BRANCH  22  23
ATOM     23  C   UNL     1     164.799 164.244 169.549  1.00  0.00     0.000 C 
BRANCH  23  24
ATOM     24  C   UNL     1     163.621 165.238 169.600  1.00  0.00     0.000 C 
BRANCH  24  25
ATOM     25  C   UNL     1     162.436 164.803 168.719  1.00  0.00     0.000 C 
BRANCH  25  26
ATOM     26  C   UNL     1     161.304 164.080 169.474  1.00  0.00     0.000 C 
BRANCH  26  27
ATOM     27  C   UNL     1     160.098 163.721 168.579  1.00  0.00     0.002 C 
BRANCH  27  28
ATOM     28  C   UNL     1     160.122 164.482 167.245  1.00  0.00     0.028 C 
BRANCH  28  29
ATOM     29  C   UNL     1     158.789 165.174 166.959  1.00  0.00     0.156 C 
BRANCH  29  30
ATOM     30  O   UNL     1     158.174 165.551 168.160  1.00  0.00    -0.396 OA
ATOM     31  H   UNL     1     158.205 166.543 168.187  1.00  0.00     0.210 HD
ENDBRANCH  29  30
ENDBRANCH  28  29
ENDBRANCH  27  28
ENDBRANCH  26  27
ENDBRANCH  25  26
ENDBRANCH  24  25
ENDBRANCH  23  24
ENDBRANCH  22  23
ENDBRANCH  21  22
ENDBRANCH  20  21
ENDBRANCH  19  20
ENDBRANCH  18  19
ENDBRANCH  17  18
ENDBRANCH   1  17
TORSDOF 28
ENDMDL
