MODEL 1
REMARK VINA RESULT:    -2.572      0.000      0.000
REMARK INTER + INTRA:          -2.934
REMARK INTER:                  -2.872
REMARK INTRA:                  -0.062
REMARK UNBOUND:                -0.062
REMARK SMILES CCCC(=O)[O-]
REMARK SMILES IDX 3 1 4 2 5 3 6 4 2 5 1 6
REMARK H PARENT
REMARK Flexibility Score: inf
ROOT
ATOM      1  C   UNL     1     171.275 172.392 154.284  1.00  0.00     0.052 C 
ENDROOT
BRANCH   1   2
ATOM      2  C   UNL     1     170.558 171.080 154.328  1.00  0.00     0.041 C 
ATOM      3  O   UNL     1     170.235 170.570 155.433  1.00  0.00    -0.550 OA
ATOM      4  O   UNL     1     170.201 170.443 153.146  1.00  0.00    -0.550 OA
ENDBRANCH   1   2
BRANCH   1   5
ATOM      5  C   UNL     1     170.692 173.284 153.185  1.00  0.00     0.003 C 
ATOM      6  C   UNL     1     169.344 173.865 153.606  1.00  0.00     0.004 C 
ENDBRANCH   1   5
TORSDOF 2
ENDMDL
MODEL 2
REMARK VINA RESULT:    -2.544      1.607      2.359
REMARK INTER + INTRA:          -2.903
REMARK INTER:                  -2.844
REMARK INTRA:                  -0.060
REMARK UNBOUND:                -0.062
REMARK SMILES CCCC(=O)[O-]
REMARK SMILES IDX 3 1 4 2 5 3 6 4 2 5 1 6
REMARK H PARENT
REMARK Flexibility Score: inf
ROOT
ATOM      1  C   UNL     1     171.273 173.083 152.817  1.00  0.00     0.052 C 
ENDROOT
BRANCH   1   2
ATOM      2  C   UNL     1     170.871 171.861 152.053  1.00  0.00     0.041 C 
ATOM      3  O   UNL     1     170.904 171.861 150.794  1.00  0.00    -0.550 OA
ATOM      4  O   UNL     1     170.506 170.705 152.732  1.00  0.00    -0.550 OA
ENDBRANCH   1   2
BRANCH   1   5
ATOM      5  C   UNL     1     170.311 173.326 153.982  1.00  0.00     0.003 C 
ATOM      6  C   UNL     1     169.019 173.983 153.502  1.00  0.00     0.004 C 
ENDBRANCH   1   5
TORSDOF 2
ENDMDL
MODEL 3
REMARK VINA RESULT:    -2.535     16.306     17.023
REMARK INTER + INTRA:          -2.894
REMARK INTER:                  -2.879
REMARK INTRA:                  -0.015
REMARK UNBOUND:                -0.062
REMARK SMILES CCCC(=O)[O-]
REMARK SMILES IDX 3 1 4 2 5 3 6 4 2 5 1 6
REMARK H PARENT
REMARK Flexibility Score: inf
ROOT
ATOM      1  C   UNL     1     156.248 172.760 164.032  1.00  0.00     0.052 C 
ENDROOT
BRANCH   1   2
ATOM      2  C   UNL     1     157.190 173.115 162.925  1.00  0.00     0.041 C 
ATOM      3  O   UNL     1     158.392 172.745 162.972  1.00  0.00    -0.550 OA
ATOM      4  O   UNL     1     156.727 173.814 161.817  1.00  0.00    -0.550 OA
ENDBRANCH   1   2
BRANCH   1   5
ATOM      5  C   UNL     1     154.884 172.356 163.466  1.00  0.00     0.003 C 
ATOM      6  C   UNL     1     154.506 170.941 163.896  1.00  0.00     0.004 C 
ENDBRANCH   1   5
TORSDOF 2
ENDMDL
MODEL 4
REMARK VINA RESULT:    -2.535     17.158     17.940
REMARK INTER + INTRA:          -2.894
REMARK INTER:                  -2.856
REMARK INTRA:                  -0.038
REMARK UNBOUND:                -0.062
REMARK SMILES CCCC(=O)[O-]
REMARK SMILES IDX 3 1 4 2 5 3 6 4 2 5 1 6
REMARK H PARENT
REMARK Flexibility Score: inf
ROOT
ATOM      1  C   UNL     1     156.214 173.556 164.817  1.00  0.00     0.052 C 
ENDROOT
BRANCH   1   2
ATOM      2  C   UNL     1     155.539 174.886 164.707  1.00  0.00     0.041 C 
ATOM      3  O   UNL     1     154.312 174.998 164.965  1.00  0.00    -0.550 OA
ATOM      4  O   UNL     1     156.276 176.013 164.368  1.00  0.00    -0.550 OA
ENDBRANCH   1   2
BRANCH   1   5
ATOM      5  C   UNL     1     156.421 172.944 163.429  1.00  0.00     0.003 C 
ATOM      6  C   UNL     1     157.892 172.983 163.022  1.00  0.00     0.004 C 
ENDBRANCH   1   5
TORSDOF 2
ENDMDL
MODEL 5
REMARK VINA RESULT:    -2.512      8.180      8.628
REMARK INTER + INTRA:          -2.868
REMARK INTER:                  -2.842
REMARK INTRA:                  -0.026
REMARK UNBOUND:                -0.062
REMARK SMILES CCCC(=O)[O-]
REMARK SMILES IDX 3 1 4 2 5 3 6 4 2 5 1 6
REMARK H PARENT
REMARK Flexibility Score: inf
ROOT
ATOM      1  C   UNL     1     167.445 175.155 161.870  1.00  0.00     0.052 C 
ENDROOT
BRANCH   1   2
ATOM      2  C   UNL     1     166.414 174.859 160.827  1.00  0.00     0.041 C 
ATOM      3  O   UNL     1     165.510 174.012 161.051  1.00  0.00    -0.550 OA
ATOM      4  O   UNL     1     166.423 175.554 159.625  1.00  0.00    -0.550 OA
ENDBRANCH   1   2
BRANCH   1   5
ATOM      5  C   UNL     1     168.836 174.746 161.379  1.00  0.00     0.003 C 
ATOM      6  C   UNL     1     169.328 173.492 162.099  1.00  0.00     0.004 C 
ENDBRANCH   1   5
TORSDOF 2
ENDMDL
MODEL 6
REMARK VINA RESULT:    -2.458     16.700     17.408
REMARK INTER + INTRA:          -2.807
REMARK INTER:                  -2.801
REMARK INTRA:                  -0.007
REMARK UNBOUND:                -0.062
REMARK SMILES CCCC(=O)[O-]
REMARK SMILES IDX 3 1 4 2 5 3 6 4 2 5 1 6
REMARK H PARENT
REMARK Flexibility Score: inf
ROOT
ATOM      1  C   UNL     1     156.208 172.714 164.017  1.00  0.00     0.052 C 
ENDROOT
BRANCH   1   2
ATOM      2  C   UNL     1     154.921 172.079 163.597  1.00  0.00     0.041 C 
ATOM      3  O   UNL     1     154.014 172.773 163.066  1.00  0.00    -0.550 OA
ATOM      4  O   UNL     1     154.740 170.710 163.746  1.00  0.00    -0.550 OA
ENDBRANCH   1   2
BRANCH   1   5
ATOM      5  C   UNL     1     156.966 173.246 162.798  1.00  0.00     0.003 C 
ATOM      6  C   UNL     1     158.474 173.085 162.973  1.00  0.00     0.004 C 
ENDBRANCH   1   5
TORSDOF 2
ENDMDL
MODEL 7
REMARK VINA RESULT:    -2.445      2.183      3.249
REMARK INTER + INTRA:          -2.793
REMARK INTER:                  -2.787
REMARK INTRA:                  -0.006
REMARK UNBOUND:                -0.062
REMARK SMILES CCCC(=O)[O-]
REMARK SMILES IDX 3 1 4 2 5 3 6 4 2 5 1 6
REMARK H PARENT
REMARK Flexibility Score: inf
ROOT
ATOM      1  C   UNL     1     170.986 172.082 154.607  1.00  0.00     0.052 C 
ENDROOT
BRANCH   1   2
ATOM      2  C   UNL     1     170.689 173.173 153.626  1.00  0.00     0.041 C 
ATOM      3  O   UNL     1     171.478 173.400 152.671  1.00  0.00    -0.550 OA
ATOM      4  O   UNL     1     169.515 173.907 153.739  1.00  0.00    -0.550 OA
ENDBRANCH   1   2
BRANCH   1   5
ATOM      5  C   UNL     1     169.808 171.109 154.698  1.00  0.00     0.003 C 
ATOM      6  C   UNL     1     170.205 169.832 155.433  1.00  0.00     0.004 C 
ENDBRANCH   1   5
TORSDOF 2
ENDMDL
MODEL 8
REMARK VINA RESULT:    -2.372     15.659     16.390
REMARK INTER + INTRA:          -2.711
REMARK INTER:                  -2.679
REMARK INTRA:                  -0.033
REMARK UNBOUND:                -0.062
REMARK SMILES CCCC(=O)[O-]
REMARK SMILES IDX 3 1 4 2 5 3 6 4 2 5 1 6
REMARK H PARENT
REMARK Flexibility Score: inf
ROOT
ATOM      1  C   UNL     1     157.563 172.977 163.187  1.00  0.00     0.052 C 
ENDROOT
BRANCH   1   2
ATOM      2  C   UNL     1     157.177 173.816 162.010  1.00  0.00     0.041 C 
ATOM      3  O   UNL     1     155.976 173.875 161.640  1.00  0.00    -0.550 OA
ATOM      4  O   UNL     1     158.139 174.571 161.351  1.00  0.00    -0.550 OA
ENDBRANCH   1   2
BRANCH   1   5
ATOM      5  C   UNL     1     156.518 173.104 164.299  1.00  0.00     0.003 C 
ATOM      6  C   UNL     1     157.009 174.024 165.414  1.00  0.00     0.004 C 
ENDBRANCH   1   5
TORSDOF 2
ENDMDL
MODEL 9
REMARK VINA RESULT:    -2.340     17.481     18.204
REMARK INTER + INTRA:          -2.676
REMARK INTER:                  -2.645
REMARK INTRA:                  -0.031
REMARK UNBOUND:                -0.062
REMARK SMILES CCCC(=O)[O-]
REMARK SMILES IDX 3 1 4 2 5 3 6 4 2 5 1 6
REMARK H PARENT
REMARK Flexibility Score: inf
ROOT
ATOM      1  C   UNL     1     155.875 172.343 163.606  1.00  0.00     0.052 C 
ENDROOT
BRANCH   1   2
ATOM      2  C   UNL     1     155.378 173.499 162.796  1.00  0.00     0.041 C 
ATOM      3  O   UNL     1     154.280 173.421 162.186  1.00  0.00    -0.550 OA
ATOM      4  O   UNL     1     156.105 174.682 162.756  1.00  0.00    -0.550 OA
ENDBRANCH   1   2
BRANCH   1   5
ATOM      5  C   UNL     1     154.746 171.341 163.857  1.00  0.00     0.003 C 
ATOM      6  C   UNL     1     154.437 171.221 165.347  1.00  0.00     0.004 C 
ENDBRANCH   1   5
TORSDOF 2
ENDMDL
