MODEL 1
REMARK VINA RESULT:    -3.302      0.000      0.000
REMARK INTER + INTRA:          -5.291
REMARK INTER:                  -4.556
REMARK INTRA:                  -0.735
REMARK UNBOUND:                -0.735
REMARK SMILES OC[C@H](O)C(O)[C@@H](O)CO
REMARK SMILES IDX 5 1 7 2 9 3 10 4 8 6 3 8 2 9 1 10 4 12 6 14
REMARK H PARENT 10 5 8 7 1 11 4 13 6 15
REMARK Flexibility Score: inf
ROOT
ATOM      1  C   UNL     1      12.631  46.528  24.940  1.00  0.00     0.176 C 
ENDROOT
BRANCH   1   2
ATOM      2  C   UNL     1      12.771  47.644  23.866  1.00  0.00     0.171 C 
BRANCH   2   3
ATOM      3  C   UNL     1      13.359  47.114  22.545  1.00  0.00     0.190 C 
BRANCH   3   4
ATOM      4  O   UNL     1      14.754  47.028  22.636  1.00  0.00    -0.394 OA
ATOM      5  H   UNL     1      15.112  47.567  21.884  1.00  0.00     0.210 HD
ENDBRANCH   3   4
ENDBRANCH   2   3
BRANCH   2   6
ATOM      6  O   UNL     1      13.545  48.720  24.341  1.00  0.00    -0.388 OA
ATOM      7  H   UNL     1      14.485  48.569  24.062  1.00  0.00     0.211 HD
ENDBRANCH   2   6
ENDBRANCH   1   2
BRANCH   1   8
ATOM      8  C   UNL     1      12.070  47.049  26.292  1.00  0.00     0.171 C 
BRANCH   8   9
ATOM      9  C   UNL     1      13.096  47.058  27.449  1.00  0.00     0.190 C 
BRANCH   9  10
ATOM     10  O   UNL     1      14.034  48.088  27.288  1.00  0.00    -0.394 OA
ATOM     11  H   UNL     1      14.117  48.538  28.168  1.00  0.00     0.210 HD
ENDBRANCH   9  10
ENDBRANCH   8   9
BRANCH   8  12
ATOM     12  O   UNL     1      10.940  46.297  26.658  1.00  0.00    -0.388 OA
ATOM     13  H   UNL     1      10.464  46.796  27.374  1.00  0.00     0.211 HD
ENDBRANCH   8  12
ENDBRANCH   1   8
BRANCH   1  14
ATOM     14  O   UNL     1      13.859  45.875  25.149  1.00  0.00    -0.388 OA
ATOM     15  H   UNL     1      13.767  45.336  25.977  1.00  0.00     0.211 HD
ENDBRANCH   1  14
TORSDOF 9
ENDMDL
MODEL 2
REMARK VINA RESULT:    -3.188      1.332      3.643
REMARK INTER + INTRA:          -5.135
REMARK INTER:                  -4.296
REMARK INTRA:                  -0.838
REMARK UNBOUND:                -0.735
REMARK SMILES OC[C@H](O)C(O)[C@@H](O)CO
REMARK SMILES IDX 5 1 7 2 9 3 10 4 8 6 3 8 2 9 1 10 4 12 6 14
REMARK H PARENT 10 5 8 7 1 11 4 13 6 15
REMARK Flexibility Score: inf
ROOT
ATOM      1  C   UNL     1      12.159  47.821  24.634  1.00  0.00     0.176 C 
ENDROOT
BRANCH   1   2
ATOM      2  C   UNL     1      11.831  47.080  25.962  1.00  0.00     0.171 C 
BRANCH   2   3
ATOM      3  C   UNL     1      13.090  46.811  26.808  1.00  0.00     0.190 C 
BRANCH   3   4
ATOM      4  O   UNL     1      13.972  45.974  26.111  1.00  0.00    -0.394 OA
ATOM      5  H   UNL     1      14.282  46.495  25.326  1.00  0.00     0.210 HD
ENDBRANCH   3   4
ENDBRANCH   2   3
BRANCH   2   6
ATOM      6  O   UNL     1      11.144  45.875  25.722  1.00  0.00    -0.388 OA
ATOM      7  H   UNL     1      11.308  45.611  24.780  1.00  0.00     0.211 HD
ENDBRANCH   2   6
ENDBRANCH   1   2
BRANCH   1   8
ATOM      8  C   UNL     1      12.151  46.884  23.395  1.00  0.00     0.171 C 
BRANCH   8   9
ATOM      9  C   UNL     1      13.421  46.974  22.518  1.00  0.00     0.190 C 
BRANCH   9  10
ATOM     10  O   UNL     1      14.527  46.403  23.165  1.00  0.00    -0.394 OA
ATOM     11  H   UNL     1      14.479  46.687  24.115  1.00  0.00     0.210 HD
ENDBRANCH   9  10
ENDBRANCH   8   9
BRANCH   8  12
ATOM     12  O   UNL     1      11.010  47.140  22.614  1.00  0.00    -0.388 OA
ATOM     13  H   UNL     1      10.305  46.498  22.891  1.00  0.00     0.211 HD
ENDBRANCH   8  12
ENDBRANCH   1   8
BRANCH   1  14
ATOM     14  O   UNL     1      13.394  48.489  24.724  1.00  0.00    -0.388 OA
ATOM     15  H   UNL     1      13.574  48.892  23.836  1.00  0.00     0.211 HD
ENDBRANCH   1  14
TORSDOF 9
ENDMDL
MODEL 3
REMARK VINA RESULT:    -3.160      1.837      2.806
REMARK INTER + INTRA:          -5.096
REMARK INTER:                  -4.392
REMARK INTRA:                  -0.704
REMARK UNBOUND:                -0.735
REMARK SMILES OC[C@H](O)C(O)[C@@H](O)CO
REMARK SMILES IDX 5 1 7 2 9 3 10 4 8 6 3 8 2 9 1 10 4 12 6 14
REMARK H PARENT 10 5 8 7 1 11 4 13 6 15
REMARK Flexibility Score: inf
ROOT
ATOM      1  C   UNL     1      13.558  47.396  22.490  1.00  0.00     0.176 C 
ENDROOT
BRANCH   1   2
ATOM      2  C   UNL     1      13.895  48.901  22.698  1.00  0.00     0.171 C 
BRANCH   2   3
ATOM      3  C   UNL     1      15.251  49.287  22.078  1.00  0.00     0.190 C 
BRANCH   3   4
ATOM      4  O   UNL     1      15.573  48.410  21.034  1.00  0.00    -0.394 OA
ATOM      5  H   UNL     1      15.837  47.556  21.464  1.00  0.00     0.210 HD
ENDBRANCH   3   4
ENDBRANCH   2   3
BRANCH   2   6
ATOM      6  O   UNL     1      13.869  49.249  24.061  1.00  0.00    -0.388 OA
ATOM      7  H   UNL     1      14.043  50.223  24.133  1.00  0.00     0.211 HD
ENDBRANCH   2   6
ENDBRANCH   1   2
BRANCH   1   8
ATOM      8  C   UNL     1      12.250  46.959  23.207  1.00  0.00     0.171 C 
BRANCH   8   9
ATOM      9  C   UNL     1      12.464  45.991  24.393  1.00  0.00     0.190 C 
BRANCH   9  10
ATOM     10  O   UNL     1      13.387  46.511  25.312  1.00  0.00    -0.394 OA
ATOM     11  H   UNL     1      14.034  45.784  25.509  1.00  0.00     0.210 HD
ENDBRANCH   9  10
ENDBRANCH   8   9
BRANCH   8  12
ATOM     12  O   UNL     1      11.367  46.388  22.274  1.00  0.00    -0.388 OA
ATOM     13  H   UNL     1      10.441  46.600  22.565  1.00  0.00     0.211 HD
ENDBRANCH   8  12
ENDBRANCH   1   8
BRANCH   1  14
ATOM     14  O   UNL     1      14.627  46.581  22.903  1.00  0.00    -0.388 OA
ATOM     15  H   UNL     1      15.199  47.128  23.501  1.00  0.00     0.211 HD
ENDBRANCH   1  14
TORSDOF 9
ENDMDL
MODEL 4
REMARK VINA RESULT:    -3.155      1.604      2.412
REMARK INTER + INTRA:          -5.089
REMARK INTER:                  -4.335
REMARK INTRA:                  -0.754
REMARK UNBOUND:                -0.735
REMARK SMILES OC[C@H](O)C(O)[C@@H](O)CO
REMARK SMILES IDX 5 1 7 2 9 3 10 4 8 6 3 8 2 9 1 10 4 12 6 14
REMARK H PARENT 10 5 8 7 1 11 4 13 6 15
REMARK Flexibility Score: inf
ROOT
ATOM      1  C   UNL     1      12.763  47.579  24.204  1.00  0.00     0.176 C 
ENDROOT
BRANCH   1   2
ATOM      2  C   UNL     1      13.227  47.121  22.791  1.00  0.00     0.171 C 
BRANCH   2   3
ATOM      3  C   UNL     1      12.374  45.962  22.242  1.00  0.00     0.190 C 
BRANCH   3   4
ATOM      4  O   UNL     1      11.051  46.383  22.052  1.00  0.00    -0.394 OA
ATOM      5  H   UNL     1      11.044  46.888  21.198  1.00  0.00     0.210 HD
ENDBRANCH   3   4
ENDBRANCH   2   3
BRANCH   2   6
ATOM      6  O   UNL     1      14.588  46.763  22.789  1.00  0.00    -0.388 OA
ATOM      7  H   UNL     1      14.916  46.799  23.724  1.00  0.00     0.211 HD
ENDBRANCH   2   6
ENDBRANCH   1   2
BRANCH   1   8
ATOM      8  C   UNL     1      12.684  46.413  25.228  1.00  0.00     0.171 C 
BRANCH   8   9
ATOM      9  C   UNL     1      11.951  46.766  26.542  1.00  0.00     0.190 C 
BRANCH   9  10
ATOM     10  O   UNL     1      12.128  48.116  26.876  1.00  0.00    -0.394 OA
ATOM     11  H   UNL     1      11.528  48.301  27.645  1.00  0.00     0.210 HD
ENDBRANCH   9  10
ENDBRANCH   8   9
BRANCH   8  12
ATOM     12  O   UNL     1      13.978  45.943  25.511  1.00  0.00    -0.388 OA
ATOM     13  H   UNL     1      14.046  45.015  25.163  1.00  0.00     0.211 HD
ENDBRANCH   8  12
ENDBRANCH   1   8
BRANCH   1  14
ATOM     14  O   UNL     1      11.524  48.243  24.135  1.00  0.00    -0.388 OA
ATOM     15  H   UNL     1      11.702  49.161  23.805  1.00  0.00     0.211 HD
ENDBRANCH   1  14
TORSDOF 9
ENDMDL
MODEL 5
REMARK VINA RESULT:    -3.148      1.485      4.196
REMARK INTER + INTRA:          -5.079
REMARK INTER:                  -4.548
REMARK INTRA:                  -0.531
REMARK UNBOUND:                -0.735
REMARK SMILES OC[C@H](O)C(O)[C@@H](O)CO
REMARK SMILES IDX 5 1 7 2 9 3 10 4 8 6 3 8 2 9 1 10 4 12 6 14
REMARK H PARENT 10 5 8 7 1 11 4 13 6 15
REMARK Flexibility Score: inf
ROOT
ATOM      1  C   UNL     1      12.761  47.424  24.191  1.00  0.00     0.176 C 
ENDROOT
BRANCH   1   2
ATOM      2  C   UNL     1      12.721  46.268  25.232  1.00  0.00     0.171 C 
BRANCH   2   3
ATOM      3  C   UNL     1      11.808  46.592  26.430  1.00  0.00     0.190 C 
BRANCH   3   4
ATOM      4  O   UNL     1      11.399  47.931  26.379  1.00  0.00    -0.394 OA
ATOM      5  H   UNL     1      12.222  48.474  26.488  1.00  0.00     0.210 HD
ENDBRANCH   3   4
ENDBRANCH   2   3
BRANCH   2   6
ATOM      6  O   UNL     1      14.013  45.940  25.684  1.00  0.00    -0.388 OA
ATOM      7  H   UNL     1      14.227  45.025  25.366  1.00  0.00     0.211 HD
ENDBRANCH   2   6
ENDBRANCH   1   2
BRANCH   1   8
ATOM      8  C   UNL     1      13.258  46.967  22.792  1.00  0.00     0.171 C 
BRANCH   8   9
ATOM      9  C   UNL     1      12.332  45.951  22.084  1.00  0.00     0.190 C 
BRANCH   9  10
ATOM     10  O   UNL     1      10.990  46.353  22.153  1.00  0.00    -0.394 OA
ATOM     11  H   UNL     1      10.602  45.918  22.957  1.00  0.00     0.210 HD
ENDBRANCH   9  10
ENDBRANCH   8   9
BRANCH   8  12
ATOM     12  O   UNL     1      14.557  46.440  22.898  1.00  0.00    -0.388 OA
ATOM     13  H   UNL     1      15.107  46.843  22.176  1.00  0.00     0.211 HD
ENDBRANCH   8  12
ENDBRANCH   1   8
BRANCH   1  14
ATOM     14  O   UNL     1      13.550  48.492  24.656  1.00  0.00    -0.388 OA
ATOM     15  H   UNL     1      14.495  48.193  24.623  1.00  0.00     0.211 HD
ENDBRANCH   1  14
TORSDOF 9
ENDMDL
MODEL 6
REMARK VINA RESULT:    -3.124      1.467      1.495
REMARK INTER + INTRA:          -5.045
REMARK INTER:                  -4.310
REMARK INTRA:                  -0.735
REMARK UNBOUND:                -0.735
REMARK SMILES OC[C@H](O)C(O)[C@@H](O)CO
REMARK SMILES IDX 5 1 7 2 9 3 10 4 8 6 3 8 2 9 1 10 4 12 6 14
REMARK H PARENT 10 5 8 7 1 11 4 13 6 15
REMARK Flexibility Score: inf
ROOT
ATOM      1  C   UNL     1      12.627  46.417  24.538  1.00  0.00     0.176 C 
ENDROOT
BRANCH   1   2
ATOM      2  C   UNL     1      12.528  46.745  23.021  1.00  0.00     0.171 C 
BRANCH   2   3
ATOM      3  C   UNL     1      13.538  47.823  22.588  1.00  0.00     0.190 C 
BRANCH   3   4
ATOM      4  O   UNL     1      14.828  47.280  22.522  1.00  0.00    -0.394 OA
ATOM      5  H   UNL     1      15.183  47.303  23.448  1.00  0.00     0.210 HD
ENDBRANCH   3   4
ENDBRANCH   2   3
BRANCH   2   6
ATOM      6  O   UNL     1      11.223  47.134  22.664  1.00  0.00    -0.388 OA
ATOM      7  H   UNL     1      10.829  46.414  22.106  1.00  0.00     0.211 HD
ENDBRANCH   2   6
ENDBRANCH   1   2
BRANCH   1   8
ATOM      8  C   UNL     1      12.253  47.620  25.448  1.00  0.00     0.171 C 
BRANCH   8   9
ATOM      9  C   UNL     1      12.960  47.626  26.823  1.00  0.00     0.190 C 
BRANCH   9  10
ATOM     10  O   UNL     1      12.794  46.401  27.484  1.00  0.00    -0.394 OA
ATOM     11  H   UNL     1      13.299  46.466  28.337  1.00  0.00     0.210 HD
ENDBRANCH   9  10
ENDBRANCH   8   9
BRANCH   8  12
ATOM     12  O   UNL     1      10.859  47.665  25.625  1.00  0.00    -0.388 OA
ATOM     13  H   UNL     1      10.541  46.733  25.757  1.00  0.00     0.211 HD
ENDBRANCH   8  12
ENDBRANCH   1   8
BRANCH   1  14
ATOM     14  O   UNL     1      13.912  45.948  24.867  1.00  0.00    -0.388 OA
ATOM     15  H   UNL     1      14.187  45.320  24.150  1.00  0.00     0.211 HD
ENDBRANCH   1  14
TORSDOF 9
ENDMDL
MODEL 7
REMARK VINA RESULT:    -3.048      1.650      3.946
REMARK INTER + INTRA:          -4.941
REMARK INTER:                  -4.464
REMARK INTRA:                  -0.477
REMARK UNBOUND:                -0.735
REMARK SMILES OC[C@H](O)C(O)[C@@H](O)CO
REMARK SMILES IDX 5 1 7 2 9 3 10 4 8 6 3 8 2 9 1 10 4 12 6 14
REMARK H PARENT 10 5 8 7 1 11 4 13 6 15
REMARK Flexibility Score: inf
ROOT
ATOM      1  C   UNL     1      12.148  47.322  24.784  1.00  0.00     0.176 C 
ENDROOT
BRANCH   1   2
ATOM      2  C   UNL     1      11.734  46.219  25.799  1.00  0.00     0.171 C 
BRANCH   2   3
ATOM      3  C   UNL     1      10.205  46.104  25.945  1.00  0.00     0.190 C 
BRANCH   3   4
ATOM      4  O   UNL     1       9.587  47.283  25.510  1.00  0.00    -0.394 OA
ATOM      5  H   UNL     1       9.492  47.857  26.314  1.00  0.00     0.210 HD
ENDBRANCH   3   4
ENDBRANCH   2   3
BRANCH   2   6
ATOM      6  O   UNL     1      12.325  46.433  27.059  1.00  0.00    -0.388 OA
ATOM      7  H   UNL     1      13.012  45.731  27.198  1.00  0.00     0.211 HD
ENDBRANCH   2   6
ENDBRANCH   1   2
BRANCH   1   8
ATOM      8  C   UNL     1      12.188  46.817  23.316  1.00  0.00     0.171 C 
BRANCH   8   9
ATOM      9  C   UNL     1      13.426  47.280  22.513  1.00  0.00     0.190 C 
BRANCH   9  10
ATOM     10  O   UNL     1      14.578  46.587  22.912  1.00  0.00    -0.394 OA
ATOM     11  H   UNL     1      15.289  47.266  23.042  1.00  0.00     0.210 HD
ENDBRANCH   9  10
ENDBRANCH   8   9
BRANCH   8  12
ATOM     12  O   UNL     1      11.012  47.203  22.649  1.00  0.00    -0.388 OA
ATOM     13  H   UNL     1      10.830  46.529  21.942  1.00  0.00     0.211 HD
ENDBRANCH   8  12
ENDBRANCH   1   8
BRANCH   1  14
ATOM     14  O   UNL     1      13.390  47.884  25.133  1.00  0.00    -0.388 OA
ATOM     15  H   UNL     1      14.087  47.389  24.629  1.00  0.00     0.211 HD
ENDBRANCH   1  14
TORSDOF 9
ENDMDL
MODEL 8
REMARK VINA RESULT:    -2.913      1.714      2.800
REMARK INTER + INTRA:          -4.755
REMARK INTER:                  -4.272
REMARK INTRA:                  -0.483
REMARK UNBOUND:                -0.735
REMARK SMILES OC[C@H](O)C(O)[C@@H](O)CO
REMARK SMILES IDX 5 1 7 2 9 3 10 4 8 6 3 8 2 9 1 10 4 12 6 14
REMARK H PARENT 10 5 8 7 1 11 4 13 6 15
REMARK Flexibility Score: inf
ROOT
ATOM      1  C   UNL     1      12.458  46.915  23.046  1.00  0.00     0.176 C 
ENDROOT
BRANCH   1   2
ATOM      2  C   UNL     1      13.559  48.013  23.098  1.00  0.00     0.171 C 
BRANCH   2   3
ATOM      3  C   UNL     1      13.064  49.364  22.547  1.00  0.00     0.190 C 
BRANCH   3   4
ATOM      4  O   UNL     1      11.723  49.264  22.153  1.00  0.00    -0.394 OA
ATOM      5  H   UNL     1      11.647  49.774  21.306  1.00  0.00     0.210 HD
ENDBRANCH   3   4
ENDBRANCH   2   3
BRANCH   2   6
ATOM      6  O   UNL     1      14.720  47.608  22.413  1.00  0.00    -0.388 OA
ATOM      7  H   UNL     1      14.470  47.414  21.472  1.00  0.00     0.211 HD
ENDBRANCH   2   6
ENDBRANCH   1   2
BRANCH   1   8
ATOM      8  C   UNL     1      12.579  45.875  24.194  1.00  0.00     0.171 C 
BRANCH   8   9
ATOM      9  C   UNL     1      11.562  46.068  25.342  1.00  0.00     0.190 C 
BRANCH   9  10
ATOM     10  O   UNL     1      12.209  46.157  26.583  1.00  0.00    -0.394 OA
ATOM     11  H   UNL     1      11.657  46.756  27.151  1.00  0.00     0.210 HD
ENDBRANCH   9  10
ENDBRANCH   8   9
BRANCH   8  12
ATOM     12  O   UNL     1      13.889  45.884  24.706  1.00  0.00    -0.388 OA
ATOM     13  H   UNL     1      14.206  44.943  24.741  1.00  0.00     0.211 HD
ENDBRANCH   8  12
ENDBRANCH   1   8
BRANCH   1  14
ATOM     14  O   UNL     1      12.460  46.260  21.801  1.00  0.00    -0.388 OA
ATOM     15  H   UNL     1      11.746  45.572  21.832  1.00  0.00     0.211 HD
ENDBRANCH   1  14
TORSDOF 9
ENDMDL
MODEL 9
REMARK VINA RESULT:    -2.909     15.803     17.063
REMARK INTER + INTRA:          -4.750
REMARK INTER:                  -4.344
REMARK INTRA:                  -0.406
REMARK UNBOUND:                -0.735
REMARK SMILES OC[C@H](O)C(O)[C@@H](O)CO
REMARK SMILES IDX 5 1 7 2 9 3 10 4 8 6 3 8 2 9 1 10 4 12 6 14
REMARK H PARENT 10 5 8 7 1 11 4 13 6 15
REMARK Flexibility Score: inf
ROOT
ATOM      1  C   UNL     1      15.337  63.105  30.417  1.00  0.00     0.176 C 
ENDROOT
BRANCH   1   2
ATOM      2  C   UNL     1      15.887  61.835  31.126  1.00  0.00     0.171 C 
BRANCH   2   3
ATOM      3  C   UNL     1      14.956  60.620  30.955  1.00  0.00     0.190 C 
BRANCH   3   4
ATOM      4  O   UNL     1      13.871  60.954  30.134  1.00  0.00    -0.394 OA
ATOM      5  H   UNL     1      13.059  60.846  30.695  1.00  0.00     0.210 HD
ENDBRANCH   3   4
ENDBRANCH   2   3
BRANCH   2   6
ATOM      6  O   UNL     1      16.124  62.073  32.493  1.00  0.00    -0.388 OA
ATOM      7  H   UNL     1      15.474  61.536  33.016  1.00  0.00     0.211 HD
ENDBRANCH   2   6
ENDBRANCH   1   2
BRANCH   1   8
ATOM      8  C   UNL     1      16.036  63.399  29.061  1.00  0.00     0.171 C 
BRANCH   8   9
ATOM      9  C   UNL     1      15.374  64.521  28.229  1.00  0.00     0.190 C 
BRANCH   9  10
ATOM     10  O   UNL     1      15.436  65.752  28.898  1.00  0.00    -0.394 OA
ATOM     11  H   UNL     1      15.849  65.576  29.783  1.00  0.00     0.210 HD
ENDBRANCH   9  10
ENDBRANCH   8   9
BRANCH   8  12
ATOM     12  O   UNL     1      16.111  62.218  28.300  1.00  0.00    -0.388 OA
ATOM     13  H   UNL     1      16.729  62.387  27.541  1.00  0.00     0.211 HD
ENDBRANCH   8  12
ENDBRANCH   1   8
BRANCH   1  14
ATOM     14  O   UNL     1      15.428  64.229  31.258  1.00  0.00    -0.388 OA
ATOM     15  H   UNL     1      14.834  64.927  30.879  1.00  0.00     0.211 HD
ENDBRANCH   1  14
TORSDOF 9
ENDMDL
