MODEL 1
REMARK VINA RESULT:    -6.572      0.000      0.000
REMARK INTER + INTRA:          -7.471
REMARK INTER:                  -7.341
REMARK INTRA:                  -0.131
REMARK UNBOUND:                -0.131
REMARK SMILES CC1(C)CC[C@@]2(CO)CC=C3[C@](C)(CC[C@H]4[C@]5(C)CC[C@H](O)C(C)(C)[C@@H]5CC[C@@]34C)[C@@H]2C1
REMARK SMILES IDX 1 1 2 2 4 3 5 4 6 5 9 6 10 7 11 8 29 9 28 10 27 11 26 12
REMARK SMILES IDX 23 13 21 14 20 15 19 16 17 17 16 18 15 19 14 20 12 21 31 22
REMARK SMILES IDX 32 23 13 24 18 25 24 26 25 27 30 28 3 29 7 30 8 31 22 33
REMARK H PARENT 8 32 22 34
REMARK Flexibility Score: inf
ROOT
ATOM      1  C   UNL     1     114.682 122.206 131.727  1.00  0.00     0.011 C 
ATOM      2  C   UNL     1     115.576 120.971 131.994  1.00  0.00    -0.035 C 
ATOM      3  C   UNL     1     115.153 119.775 131.100  1.00  0.00     0.007 C 
ATOM      4  C   UNL     1     115.531 119.963 129.622  1.00  0.00     0.010 C 
ATOM      5  C   UNL     1     117.048 120.244 129.406  1.00  0.00     0.001 C 
ATOM      6  C   UNL     1     117.240 120.649 127.928  1.00  0.00     0.037 C 
ATOM      7  C   UNL     1     118.617 121.174 127.637  1.00  0.00    -0.026 C 
ATOM      8  C   UNL     1     119.465 121.680 128.575  1.00  0.00    -0.062 C 
ATOM      9  C   UNL     1     120.895 122.161 128.155  1.00  0.00    -0.008 C 
ATOM     10  C   UNL     1     121.557 121.229 127.063  1.00  0.00     0.012 C 
ATOM     11  C   UNL     1     122.424 120.115 127.634  1.00  0.00     0.006 C 
ATOM     12  C   UNL     1     123.684 120.624 128.421  1.00  0.00     0.003 C 
ATOM     13  C   UNL     1     125.081 120.489 127.650  1.00  0.00    -0.006 C 
ATOM     14  C   UNL     1     125.417 121.769 126.820  1.00  0.00     0.120 C 
ATOM     15  C   UNL     1     125.325 123.046 127.663  1.00  0.00     0.033 C 
ATOM     16  C   UNL     1     123.921 123.232 128.241  1.00  0.00     0.010 C 
ATOM     17  C   UNL     1     123.419 122.038 129.121  1.00  0.00    -0.025 C 
ATOM     18  C   UNL     1     121.861 122.234 129.431  1.00  0.00     0.005 C 
ATOM     19  C   UNL     1     121.392 121.263 130.565  1.00  0.00     0.006 C 
ATOM     20  C   UNL     1     119.944 121.446 131.047  1.00  0.00     0.012 C 
ATOM     21  C   UNL     1     118.941 122.007 129.999  1.00  0.00    -0.008 C 
ATOM     22  C   UNL     1     117.458 121.477 130.262  1.00  0.00     0.008 C 
ATOM     23  C   UNL     1     117.075 121.304 131.765  1.00  0.00     0.011 C 
ATOM     24  C   UNL     1     118.868 123.556 130.155  1.00  0.00     0.016 C 
ATOM     25  C   UNL     1     124.194 122.150 130.479  1.00  0.00     0.012 C 
ATOM     26  C   UNL     1     125.132 119.262 126.691  1.00  0.00     0.014 C 
ATOM     27  C   UNL     1     126.230 120.213 128.665  1.00  0.00     0.014 C 
ATOM     28  C   UNL     1     120.681 123.580 127.514  1.00  0.00     0.016 C 
ATOM     29  C   UNL     1     115.383 120.569 133.474  1.00  0.00     0.011 C 
ENDROOT
BRANCH   5  30
ATOM     30  C   UNL     1     117.904 118.975 129.735  1.00  0.00     0.163 C 
BRANCH  30  31
ATOM     31  O   UNL     1     117.419 117.829 129.083  1.00  0.00    -0.396 OA
ATOM     32  H   UNL     1     117.736 117.045 129.602  1.00  0.00     0.210 HD
ENDBRANCH  30  31
ENDBRANCH   5  30
BRANCH  14  33
ATOM     33  O   UNL     1     124.568 121.867 125.703  1.00  0.00    -0.393 OA
ATOM     34  H   UNL     1     125.129 122.128 124.927  1.00  0.00     0.210 HD
ENDBRANCH  14  33
TORSDOF 3
ENDMDL
MODEL 2
REMARK VINA RESULT:    -6.516      1.939      7.999
REMARK INTER + INTRA:          -7.409
REMARK INTER:                  -7.264
REMARK INTRA:                  -0.145
REMARK UNBOUND:                -0.131
REMARK SMILES CC1(C)CC[C@@]2(CO)CC=C3[C@](C)(CC[C@H]4[C@]5(C)CC[C@H](O)C(C)(C)[C@@H]5CC[C@@]34C)[C@@H]2C1
REMARK SMILES IDX 1 1 2 2 4 3 5 4 6 5 9 6 10 7 11 8 29 9 28 10 27 11 26 12
REMARK SMILES IDX 23 13 21 14 20 15 19 16 17 17 16 18 15 19 14 20 12 21 31 22
REMARK SMILES IDX 32 23 13 24 18 25 24 26 25 27 30 28 3 29 7 30 8 31 22 33
REMARK H PARENT 8 32 22 34
REMARK Flexibility Score: inf
ROOT
ATOM      1  C   UNL     1     124.817 120.117 123.835  1.00  0.00     0.011 C 
ATOM      2  C   UNL     1     124.674 119.416 125.208  1.00  0.00    -0.035 C 
ATOM      3  C   UNL     1     125.550 120.115 126.282  1.00  0.00     0.007 C 
ATOM      4  C   UNL     1     125.001 121.484 126.713  1.00  0.00     0.010 C 
ATOM      5  C   UNL     1     123.529 121.424 127.222  1.00  0.00     0.001 C 
ATOM      6  C   UNL     1     123.035 122.877 127.385  1.00  0.00     0.037 C 
ATOM      7  C   UNL     1     121.559 122.969 127.645  1.00  0.00    -0.026 C 
ATOM      8  C   UNL     1     120.657 121.997 127.335  1.00  0.00    -0.062 C 
ATOM      9  C   UNL     1     119.145 122.192 127.693  1.00  0.00    -0.008 C 
ATOM     10  C   UNL     1     118.934 122.901 129.090  1.00  0.00     0.012 C 
ATOM     11  C   UNL     1     118.781 121.941 130.262  1.00  0.00     0.006 C 
ATOM     12  C   UNL     1     117.508 121.026 130.177  1.00  0.00     0.003 C 
ATOM     13  C   UNL     1     116.297 121.435 131.141  1.00  0.00    -0.006 C 
ATOM     14  C   UNL     1     115.304 122.420 130.444  1.00  0.00     0.120 C 
ATOM     15  C   UNL     1     114.829 121.898 129.084  1.00  0.00     0.033 C 
ATOM     16  C   UNL     1     116.004 121.684 128.129  1.00  0.00     0.010 C 
ATOM     17  C   UNL     1     117.104 120.705 128.662  1.00  0.00    -0.025 C 
ATOM     18  C   UNL     1     118.384 120.782 127.705  1.00  0.00     0.005 C 
ATOM     19  C   UNL     1     119.367 119.599 127.993  1.00  0.00     0.006 C 
ATOM     20  C   UNL     1     120.573 119.486 127.048  1.00  0.00     0.012 C 
ATOM     21  C   UNL     1     121.075 120.817 126.418  1.00  0.00    -0.008 C 
ATOM     22  C   UNL     1     122.643 120.773 126.121  1.00  0.00     0.008 C 
ATOM     23  C   UNL     1     123.191 119.384 125.669  1.00  0.00     0.011 C 
ATOM     24  C   UNL     1     120.389 121.003 125.030  1.00  0.00     0.016 C 
ATOM     25  C   UNL     1     116.495 119.266 128.532  1.00  0.00     0.012 C 
ATOM     26  C   UNL     1     116.772 122.087 132.473  1.00  0.00     0.014 C 
ATOM     27  C   UNL     1     115.526 120.164 131.605  1.00  0.00     0.014 C 
ATOM     28  C   UNL     1     118.576 123.142 126.577  1.00  0.00     0.016 C 
ATOM     29  C   UNL     1     125.169 117.962 125.041  1.00  0.00     0.011 C 
ENDROOT
BRANCH   5  30
ATOM     30  C   UNL     1     123.441 120.665 128.588  1.00  0.00     0.163 C 
BRANCH  30  31
ATOM     31  O   UNL     1     124.097 121.359 129.620  1.00  0.00    -0.396 OA
ATOM     32  H   UNL     1     124.104 120.761 130.412  1.00  0.00     0.210 HD
ENDBRANCH  30  31
ENDBRANCH   5  30
BRANCH  14  33
ATOM     33  O   UNL     1     115.893 123.689 130.295  1.00  0.00    -0.393 OA
ATOM     34  H   UNL     1     115.537 124.267 131.019  1.00  0.00     0.210 HD
ENDBRANCH  14  33
TORSDOF 3
ENDMDL
MODEL 3
REMARK VINA RESULT:    -6.504      3.257      5.145
REMARK INTER + INTRA:          -7.395
REMARK INTER:                  -7.686
REMARK INTRA:                   0.291
REMARK UNBOUND:                -0.131
REMARK SMILES CC1(C)CC[C@@]2(CO)CC=C3[C@](C)(CC[C@H]4[C@]5(C)CC[C@H](O)C(C)(C)[C@@H]5CC[C@@]34C)[C@@H]2C1
REMARK SMILES IDX 1 1 2 2 4 3 5 4 6 5 9 6 10 7 11 8 29 9 28 10 27 11 26 12
REMARK SMILES IDX 23 13 21 14 20 15 19 16 17 17 16 18 15 19 14 20 12 21 31 22
REMARK SMILES IDX 32 23 13 24 18 25 24 26 25 27 30 28 3 29 7 30 8 31 22 33
REMARK H PARENT 8 32 22 34
REMARK Flexibility Score: inf
ROOT
ATOM      1  C   UNL     1     119.198 127.089 129.947  1.00  0.00     0.011 C 
ATOM      2  C   UNL     1     118.070 126.031 130.014  1.00  0.00    -0.035 C 
ATOM      3  C   UNL     1     117.038 126.247 128.875  1.00  0.00     0.007 C 
ATOM      4  C   UNL     1     117.578 125.858 127.489  1.00  0.00     0.010 C 
ATOM      5  C   UNL     1     118.105 124.393 127.422  1.00  0.00     0.001 C 
ATOM      6  C   UNL     1     118.829 124.222 126.069  1.00  0.00     0.037 C 
ATOM      7  C   UNL     1     119.589 122.930 125.970  1.00  0.00    -0.026 C 
ATOM      8  C   UNL     1     120.003 122.193 127.038  1.00  0.00    -0.062 C 
ATOM      9  C   UNL     1     120.754 120.838 126.806  1.00  0.00    -0.008 C 
ATOM     10  C   UNL     1     120.169 120.015 125.591  1.00  0.00     0.012 C 
ATOM     11  C   UNL     1     119.092 119.009 125.977  1.00  0.00     0.006 C 
ATOM     12  C   UNL     1     119.599 117.862 126.921  1.00  0.00     0.003 C 
ATOM     13  C   UNL     1     119.820 116.438 126.222  1.00  0.00    -0.006 C 
ATOM     14  C   UNL     1     121.279 116.272 125.686  1.00  0.00     0.120 C 
ATOM     15  C   UNL     1     122.329 116.576 126.761  1.00  0.00     0.033 C 
ATOM     16  C   UNL     1     122.194 118.008 127.282  1.00  0.00     0.010 C 
ATOM     17  C   UNL     1     120.786 118.353 127.874  1.00  0.00    -0.025 C 
ATOM     18  C   UNL     1     120.696 119.930 128.126  1.00  0.00     0.005 C 
ATOM     19  C   UNL     1     119.456 120.283 129.013  1.00  0.00     0.006 C 
ATOM     20  C   UNL     1     119.333 121.755 129.436  1.00  0.00     0.012 C 
ATOM     21  C   UNL     1     119.953 122.800 128.465  1.00  0.00    -0.008 C 
ATOM     22  C   UNL     1     119.179 124.195 128.530  1.00  0.00     0.008 C 
ATOM     23  C   UNL     1     118.648 124.591 129.943  1.00  0.00     0.011 C 
ATOM     24  C   UNL     1     121.411 123.105 128.924  1.00  0.00     0.016 C 
ATOM     25  C   UNL     1     120.723 117.642 129.270  1.00  0.00     0.012 C 
ATOM     26  C   UNL     1     118.838 116.179 125.042  1.00  0.00     0.014 C 
ATOM     27  C   UNL     1     119.504 115.290 127.226  1.00  0.00     0.014 C 
ATOM     28  C   UNL     1     122.231 121.241 126.451  1.00  0.00     0.016 C 
ATOM     29  C   UNL     1     117.348 126.205 131.369  1.00  0.00     0.011 C 
ENDROOT
BRANCH   5  30
ATOM     30  C   UNL     1     116.927 123.369 127.540  1.00  0.00     0.163 C 
BRANCH  30  31
ATOM     31  O   UNL     1     115.678 124.009 127.617  1.00  0.00    -0.396 OA
ATOM     32  H   UNL     1     115.735 124.823 127.053  1.00  0.00     0.210 HD
ENDBRANCH  30  31
ENDBRANCH   5  30
BRANCH  14  33
ATOM     33  O   UNL     1     121.486 117.094 124.563  1.00  0.00    -0.393 OA
ATOM     34  H   UNL     1     121.396 116.522 123.758  1.00  0.00     0.210 HD
ENDBRANCH  14  33
TORSDOF 3
ENDMDL
MODEL 4
REMARK VINA RESULT:    -6.489      2.573      4.251
REMARK INTER + INTRA:          -7.378
REMARK INTER:                  -7.255
REMARK INTRA:                  -0.123
REMARK UNBOUND:                -0.131
REMARK SMILES CC1(C)CC[C@@]2(CO)CC=C3[C@](C)(CC[C@H]4[C@]5(C)CC[C@H](O)C(C)(C)[C@@H]5CC[C@@]34C)[C@@H]2C1
REMARK SMILES IDX 1 1 2 2 4 3 5 4 6 5 9 6 10 7 11 8 29 9 28 10 27 11 26 12
REMARK SMILES IDX 23 13 21 14 20 15 19 16 17 17 16 18 15 19 14 20 12 21 31 22
REMARK SMILES IDX 32 23 13 24 18 25 24 26 25 27 30 28 3 29 7 30 8 31 22 33
REMARK H PARENT 8 32 22 34
REMARK Flexibility Score: inf
ROOT
ATOM      1  C   UNL     1     116.506 121.199 133.995  1.00  0.00     0.011 C 
ATOM      2  C   UNL     1     115.732 121.203 132.655  1.00  0.00    -0.035 C 
ATOM      3  C   UNL     1     115.454 122.654 132.179  1.00  0.00     0.007 C 
ATOM      4  C   UNL     1     116.713 123.374 131.671  1.00  0.00     0.010 C 
ATOM      5  C   UNL     1     117.449 122.602 130.535  1.00  0.00     0.001 C 
ATOM      6  C   UNL     1     118.802 123.305 130.296  1.00  0.00     0.037 C 
ATOM      7  C   UNL     1     119.716 122.528 129.392  1.00  0.00    -0.026 C 
ATOM      8  C   UNL     1     119.617 121.190 129.158  1.00  0.00    -0.062 C 
ATOM      9  C   UNL     1     120.606 120.497 128.159  1.00  0.00    -0.008 C 
ATOM     10  C   UNL     1     120.925 121.392 126.896  1.00  0.00     0.012 C 
ATOM     11  C   UNL     1     120.012 121.139 125.704  1.00  0.00     0.006 C 
ATOM     12  C   UNL     1     120.130 119.692 125.104  1.00  0.00     0.003 C 
ATOM     13  C   UNL     1     120.946 119.577 123.731  1.00  0.00    -0.006 C 
ATOM     14  C   UNL     1     122.465 119.307 123.976  1.00  0.00     0.120 C 
ATOM     15  C   UNL     1     122.699 118.112 124.907  1.00  0.00     0.033 C 
ATOM     16  C   UNL     1     122.049 118.336 126.274  1.00  0.00     0.010 C 
ATOM     17  C   UNL     1     120.508 118.612 126.222  1.00  0.00    -0.025 C 
ATOM     18  C   UNL     1     120.013 119.092 127.666  1.00  0.00     0.005 C 
ATOM     19  C   UNL     1     118.451 119.061 127.758  1.00  0.00     0.006 C 
ATOM     20  C   UNL     1     117.856 119.375 129.140  1.00  0.00     0.012 C 
ATOM     21  C   UNL     1     118.700 120.312 130.051  1.00  0.00    -0.008 C 
ATOM     22  C   UNL     1     117.775 121.165 131.034  1.00  0.00     0.008 C 
ATOM     23  C   UNL     1     116.507 120.421 131.559  1.00  0.00     0.011 C 
ATOM     24  C   UNL     1     119.600 119.436 130.973  1.00  0.00     0.016 C 
ATOM     25  C   UNL     1     119.836 117.228 125.922  1.00  0.00     0.012 C 
ATOM     26  C   UNL     1     120.817 120.846 122.837  1.00  0.00     0.014 C 
ATOM     27  C   UNL     1     120.353 118.440 122.847  1.00  0.00     0.014 C 
ATOM     28  C   UNL     1     121.940 120.306 128.967  1.00  0.00     0.016 C 
ATOM     29  C   UNL     1     114.379 120.498 132.897  1.00  0.00     0.011 C 
ENDROOT
BRANCH   5  30
ATOM     30  C   UNL     1     116.600 122.600 129.219  1.00  0.00     0.163 C 
BRANCH  30  31
ATOM     31  O   UNL     1     116.088 123.875 128.921  1.00  0.00    -0.396 OA
ATOM     32  H   UNL     1     115.338 124.039 129.550  1.00  0.00     0.210 HD
ENDBRANCH  30  31
ENDBRANCH   5  30
BRANCH  14  33
ATOM     33  O   UNL     1     123.090 120.454 124.498  1.00  0.00    -0.393 OA
ATOM     34  H   UNL     1     123.922 120.601 123.976  1.00  0.00     0.210 HD
ENDBRANCH  14  33
TORSDOF 3
ENDMDL
MODEL 5
REMARK VINA RESULT:    -6.442      3.199      5.662
REMARK INTER + INTRA:          -7.326
REMARK INTER:                  -7.197
REMARK INTRA:                  -0.129
REMARK UNBOUND:                -0.131
REMARK SMILES CC1(C)CC[C@@]2(CO)CC=C3[C@](C)(CC[C@H]4[C@]5(C)CC[C@H](O)C(C)(C)[C@@H]5CC[C@@]34C)[C@@H]2C1
REMARK SMILES IDX 1 1 2 2 4 3 5 4 6 5 9 6 10 7 11 8 29 9 28 10 27 11 26 12
REMARK SMILES IDX 23 13 21 14 20 15 19 16 17 17 16 18 15 19 14 20 12 21 31 22
REMARK SMILES IDX 32 23 13 24 18 25 24 26 25 27 30 28 3 29 7 30 8 31 22 33
REMARK H PARENT 8 32 22 34
REMARK Flexibility Score: inf
ROOT
ATOM      1  C   UNL     1     117.401 127.195 129.486  1.00  0.00     0.011 C 
ATOM      2  C   UNL     1     118.899 126.897 129.234  1.00  0.00    -0.035 C 
ATOM      3  C   UNL     1     119.645 126.633 130.569  1.00  0.00     0.007 C 
ATOM      4  C   UNL     1     119.289 125.279 131.203  1.00  0.00     0.010 C 
ATOM      5  C   UNL     1     119.521 124.071 130.247  1.00  0.00     0.001 C 
ATOM      6  C   UNL     1     118.902 122.825 130.915  1.00  0.00     0.037 C 
ATOM      7  C   UNL     1     118.847 121.635 130.000  1.00  0.00    -0.026 C 
ATOM      8  C   UNL     1     118.888 121.703 128.640  1.00  0.00    -0.062 C 
ATOM      9  C   UNL     1     118.863 120.387 127.792  1.00  0.00    -0.008 C 
ATOM     10  C   UNL     1     119.710 119.223 128.445  1.00  0.00     0.012 C 
ATOM     11  C   UNL     1     121.153 119.154 127.965  1.00  0.00     0.006 C 
ATOM     12  C   UNL     1     121.303 118.833 126.435  1.00  0.00     0.003 C 
ATOM     13  C   UNL     1     121.753 117.337 126.083  1.00  0.00    -0.006 C 
ATOM     14  C   UNL     1     120.527 116.390 125.885  1.00  0.00     0.120 C 
ATOM     15  C   UNL     1     119.513 116.956 124.884  1.00  0.00     0.033 C 
ATOM     16  C   UNL     1     118.974 118.311 125.344  1.00  0.00     0.010 C 
ATOM     17  C   UNL     1     120.074 119.400 125.583  1.00  0.00    -0.025 C 
ATOM     18  C   UNL     1     119.413 120.662 126.311  1.00  0.00     0.005 C 
ATOM     19  C   UNL     1     120.376 121.895 126.274  1.00  0.00     0.006 C 
ATOM     20  C   UNL     1     119.802 123.209 126.826  1.00  0.00     0.012 C 
ATOM     21  C   UNL     1     118.712 123.071 127.927  1.00  0.00    -0.008 C 
ATOM     22  C   UNL     1     118.728 124.312 128.931  1.00  0.00     0.008 C 
ATOM     23  C   UNL     1     119.075 125.686 128.277  1.00  0.00     0.011 C 
ATOM     24  C   UNL     1     117.309 123.097 127.247  1.00  0.00     0.016 C 
ATOM     25  C   UNL     1     120.537 119.860 124.158  1.00  0.00     0.012 C 
ATOM     26  C   UNL     1     122.681 116.709 127.165  1.00  0.00     0.014 C 
ATOM     27  C   UNL     1     122.628 117.328 124.795  1.00  0.00     0.014 C 
ATOM     28  C   UNL     1     117.358 119.937 127.771  1.00  0.00     0.016 C 
ATOM     29  C   UNL     1     119.516 128.145 128.565  1.00  0.00     0.011 C 
ENDROOT
BRANCH   5  30
ATOM     30  C   UNL     1     121.050 123.846 129.993  1.00  0.00     0.163 C 
BRANCH  30  31
ATOM     31  O   UNL     1     121.786 123.827 131.190  1.00  0.00    -0.396 OA
ATOM     32  H   UNL     1     122.745 123.793 130.939  1.00  0.00     0.210 HD
ENDBRANCH  30  31
ENDBRANCH   5  30
BRANCH  14  33
ATOM     33  O   UNL     1     119.897 116.137 127.118  1.00  0.00    -0.393 OA
ATOM     34  H   UNL     1     120.391 116.647 127.812  1.00  0.00     0.210 HD
ENDBRANCH  14  33
TORSDOF 3
ENDMDL
MODEL 6
REMARK VINA RESULT:    -6.286      3.546      6.272
REMARK INTER + INTRA:          -7.152
REMARK INTER:                  -7.422
REMARK INTRA:                   0.270
REMARK UNBOUND:                -0.131
REMARK SMILES CC1(C)CC[C@@]2(CO)CC=C3[C@](C)(CC[C@H]4[C@]5(C)CC[C@H](O)C(C)(C)[C@@H]5CC[C@@]34C)[C@@H]2C1
REMARK SMILES IDX 1 1 2 2 4 3 5 4 6 5 9 6 10 7 11 8 29 9 28 10 27 11 26 12
REMARK SMILES IDX 23 13 21 14 20 15 19 16 17 17 16 18 15 19 14 20 12 21 31 22
REMARK SMILES IDX 32 23 13 24 18 25 24 26 25 27 30 28 3 29 7 30 8 31 22 33
REMARK H PARENT 8 32 22 34
REMARK Flexibility Score: inf
ROOT
ATOM      1  C   UNL     1     119.225 130.256 129.119  1.00  0.00     0.011 C 
ATOM      2  C   UNL     1     119.320 129.319 130.347  1.00  0.00    -0.035 C 
ATOM      3  C   UNL     1     117.953 129.215 131.074  1.00  0.00     0.007 C 
ATOM      4  C   UNL     1     116.914 128.396 130.293  1.00  0.00     0.010 C 
ATOM      5  C   UNL     1     117.405 126.962 129.933  1.00  0.00     0.001 C 
ATOM      6  C   UNL     1     116.377 126.351 128.956  1.00  0.00     0.037 C 
ATOM      7  C   UNL     1     116.844 125.061 128.344  1.00  0.00    -0.026 C 
ATOM      8  C   UNL     1     118.146 124.672 128.260  1.00  0.00    -0.062 C 
ATOM      9  C   UNL     1     118.507 123.282 127.635  1.00  0.00    -0.008 C 
ATOM     10  C   UNL     1     117.478 122.149 128.030  1.00  0.00     0.012 C 
ATOM     11  C   UNL     1     117.866 121.358 129.272  1.00  0.00     0.006 C 
ATOM     12  C   UNL     1     119.196 120.537 129.118  1.00  0.00     0.003 C 
ATOM     13  C   UNL     1     119.015 118.959 128.912  1.00  0.00    -0.006 C 
ATOM     14  C   UNL     1     118.921 118.575 127.400  1.00  0.00     0.120 C 
ATOM     15  C   UNL     1     120.082 119.152 126.582  1.00  0.00     0.033 C 
ATOM     16  C   UNL     1     120.117 120.679 126.664  1.00  0.00     0.010 C 
ATOM     17  C   UNL     1     120.224 121.248 128.119  1.00  0.00    -0.025 C 
ATOM     18  C   UNL     1     119.978 122.829 128.082  1.00  0.00     0.005 C 
ATOM     19  C   UNL     1     120.396 123.490 129.438  1.00  0.00     0.006 C 
ATOM     20  C   UNL     1     120.332 125.025 129.482  1.00  0.00     0.012 C 
ATOM     21  C   UNL     1     119.280 125.692 128.551  1.00  0.00    -0.008 C 
ATOM     22  C   UNL     1     118.748 127.070 129.156  1.00  0.00     0.008 C 
ATOM     23  C   UNL     1     119.813 127.904 129.934  1.00  0.00     0.011 C 
ATOM     24  C   UNL     1     119.969 126.062 127.203  1.00  0.00     0.016 C 
ATOM     25  C   UNL     1     121.707 121.006 128.566  1.00  0.00     0.012 C 
ATOM     26  C   UNL     1     117.760 118.390 129.636  1.00  0.00     0.014 C 
ATOM     27  C   UNL     1     120.201 118.192 129.568  1.00  0.00     0.014 C 
ATOM     28  C   UNL     1     118.420 123.494 126.080  1.00  0.00     0.016 C 
ATOM     29  C   UNL     1     120.350 129.932 131.322  1.00  0.00     0.011 C 
ENDROOT
BRANCH   5  30
ATOM     30  C   UNL     1     117.525 126.074 131.217  1.00  0.00     0.163 C 
BRANCH  30  31
ATOM     31  O   UNL     1     116.559 125.053 131.245  1.00  0.00    -0.396 OA
ATOM     32  H   UNL     1     115.737 125.443 131.640  1.00  0.00     0.210 HD
ENDBRANCH  30  31
ENDBRANCH   5  30
BRANCH  14  33
ATOM     33  O   UNL     1     117.693 119.001 126.861  1.00  0.00    -0.393 OA
ATOM     34  H   UNL     1     117.049 118.254 126.967  1.00  0.00     0.210 HD
ENDBRANCH  14  33
TORSDOF 3
ENDMDL
MODEL 7
REMARK VINA RESULT:    -6.269      9.903     12.120
REMARK INTER + INTRA:          -7.133
REMARK INTER:                  -7.000
REMARK INTRA:                  -0.133
REMARK UNBOUND:                -0.131
REMARK SMILES CC1(C)CC[C@@]2(CO)CC=C3[C@](C)(CC[C@H]4[C@]5(C)CC[C@H](O)C(C)(C)[C@@H]5CC[C@@]34C)[C@@H]2C1
REMARK SMILES IDX 1 1 2 2 4 3 5 4 6 5 9 6 10 7 11 8 29 9 28 10 27 11 26 12
REMARK SMILES IDX 23 13 21 14 20 15 19 16 17 17 16 18 15 19 14 20 12 21 31 22
REMARK SMILES IDX 32 23 13 24 18 25 24 26 25 27 30 28 3 29 7 30 8 31 22 33
REMARK H PARENT 8 32 22 34
REMARK Flexibility Score: inf
ROOT
ATOM      1  C   UNL     1     129.315 114.929 129.260  1.00  0.00     0.011 C 
ATOM      2  C   UNL     1     129.795 116.357 128.908  1.00  0.00    -0.035 C 
ATOM      3  C   UNL     1     131.307 116.365 128.559  1.00  0.00     0.007 C 
ATOM      4  C   UNL     1     131.616 115.723 127.197  1.00  0.00     0.010 C 
ATOM      5  C   UNL     1     130.823 116.363 126.020  1.00  0.00     0.001 C 
ATOM      6  C   UNL     1     131.041 115.476 124.776  1.00  0.00     0.037 C 
ATOM      7  C   UNL     1     130.146 115.846 123.627  1.00  0.00    -0.026 C 
ATOM      8  C   UNL     1     128.979 116.536 123.748  1.00  0.00    -0.062 C 
ATOM      9  C   UNL     1     128.150 116.898 122.469  1.00  0.00    -0.008 C 
ATOM     10  C   UNL     1     129.063 117.305 121.245  1.00  0.00     0.012 C 
ATOM     11  C   UNL     1     129.330 118.800 121.132  1.00  0.00     0.006 C 
ATOM     12  C   UNL     1     128.043 119.661 120.867  1.00  0.00     0.003 C 
ATOM     13  C   UNL     1     127.867 120.197 119.368  1.00  0.00    -0.006 C 
ATOM     14  C   UNL     1     127.053 119.199 118.484  1.00  0.00     0.120 C 
ATOM     15  C   UNL     1     125.722 118.802 119.133  1.00  0.00     0.033 C 
ATOM     16  C   UNL     1     125.943 118.133 120.491  1.00  0.00     0.010 C 
ATOM     17  C   UNL     1     126.740 119.003 121.521  1.00  0.00    -0.025 C 
ATOM     18  C   UNL     1     127.132 118.097 122.779  1.00  0.00     0.005 C 
ATOM     19  C   UNL     1     127.630 118.982 123.970  1.00  0.00     0.006 C 
ATOM     20  C   UNL     1     127.912 118.238 125.285  1.00  0.00     0.012 C 
ATOM     21  C   UNL     1     128.346 116.751 125.149  1.00  0.00    -0.008 C 
ATOM     22  C   UNL     1     129.303 116.305 126.347  1.00  0.00     0.008 C 
ATOM     23  C   UNL     1     128.973 116.949 127.730  1.00  0.00     0.011 C 
ATOM     24  C   UNL     1     127.081 115.848 125.263  1.00  0.00     0.016 C 
ATOM     25  C   UNL     1     125.739 120.103 122.017  1.00  0.00     0.012 C 
ATOM     26  C   UNL     1     129.224 120.478 118.658  1.00  0.00     0.014 C 
ATOM     27  C   UNL     1     127.157 121.583 119.373  1.00  0.00     0.014 C 
ATOM     28  C   UNL     1     127.386 115.580 122.086  1.00  0.00     0.016 C 
ATOM     29  C   UNL     1     129.574 117.243 130.155  1.00  0.00     0.011 C 
ENDROOT
BRANCH   5  30
ATOM     30  C   UNL     1     131.319 117.822 125.739  1.00  0.00     0.163 C 
BRANCH  30  31
ATOM     31  O   UNL     1     132.709 117.874 125.534  1.00  0.00    -0.396 OA
ATOM     32  H   UNL     1     132.877 118.602 124.880  1.00  0.00     0.210 HD
ENDBRANCH  30  31
ENDBRANCH   5  30
BRANCH  14  33
ATOM     33  O   UNL     1     127.817 118.049 118.209  1.00  0.00    -0.393 OA
ATOM     34  H   UNL     1     127.486 117.326 118.803  1.00  0.00     0.210 HD
ENDBRANCH  14  33
TORSDOF 3
ENDMDL
MODEL 8
REMARK VINA RESULT:    -6.200      2.131      8.038
REMARK INTER + INTRA:          -7.056
REMARK INTER:                  -6.911
REMARK INTRA:                  -0.144
REMARK UNBOUND:                -0.131
REMARK SMILES CC1(C)CC[C@@]2(CO)CC=C3[C@](C)(CC[C@H]4[C@]5(C)CC[C@H](O)C(C)(C)[C@@H]5CC[C@@]34C)[C@@H]2C1
REMARK SMILES IDX 1 1 2 2 4 3 5 4 6 5 9 6 10 7 11 8 29 9 28 10 27 11 26 12
REMARK SMILES IDX 23 13 21 14 20 15 19 16 17 17 16 18 15 19 14 20 12 21 31 22
REMARK SMILES IDX 32 23 13 24 18 25 24 26 25 27 30 28 3 29 7 30 8 31 22 33
REMARK H PARENT 8 32 22 34
REMARK Flexibility Score: inf
ROOT
ATOM      1  C   UNL     1     126.165 123.218 127.641  1.00  0.00     0.011 C 
ATOM      2  C   UNL     1     125.736 121.970 128.449  1.00  0.00    -0.035 C 
ATOM      3  C   UNL     1     126.155 122.101 129.938  1.00  0.00     0.007 C 
ATOM      4  C   UNL     1     125.313 123.126 130.714  1.00  0.00     0.010 C 
ATOM      5  C   UNL     1     123.782 122.845 130.643  1.00  0.00     0.001 C 
ATOM      6  C   UNL     1     123.058 124.066 131.249  1.00  0.00     0.037 C 
ATOM      7  C   UNL     1     121.572 124.034 131.032  1.00  0.00    -0.026 C 
ATOM      8  C   UNL     1     120.948 123.311 130.061  1.00  0.00    -0.062 C 
ATOM      9  C   UNL     1     119.385 123.326 129.960  1.00  0.00    -0.008 C 
ATOM     10  C   UNL     1     118.681 123.323 131.375  1.00  0.00     0.012 C 
ATOM     11  C   UNL     1     118.337 121.935 131.899  1.00  0.00     0.006 C 
ATOM     12  C   UNL     1     117.288 121.162 131.023  1.00  0.00     0.003 C 
ATOM     13  C   UNL     1     115.805 121.091 131.622  1.00  0.00    -0.006 C 
ATOM     14  C   UNL     1     114.923 122.288 131.140  1.00  0.00     0.120 C 
ATOM     15  C   UNL     1     114.941 122.443 129.615  1.00  0.00     0.033 C 
ATOM     16  C   UNL     1     116.360 122.683 129.096  1.00  0.00     0.010 C 
ATOM     17  C   UNL     1     117.388 121.566 129.478  1.00  0.00    -0.025 C 
ATOM     18  C   UNL     1     118.864 122.066 129.117  1.00  0.00     0.005 C 
ATOM     19  C   UNL     1     119.883 120.879 129.166  1.00  0.00     0.006 C 
ATOM     20  C   UNL     1     121.314 121.206 128.709  1.00  0.00     0.012 C 
ATOM     21  C   UNL     1     121.778 122.676 128.913  1.00  0.00    -0.008 C 
ATOM     22  C   UNL     1     123.354 122.768 129.150  1.00  0.00     0.008 C 
ATOM     23  C   UNL     1     124.204 121.735 128.346  1.00  0.00     0.011 C 
ATOM     24  C   UNL     1     121.501 123.474 127.603  1.00  0.00     0.016 C 
ATOM     25  C   UNL     1     117.057 120.345 128.552  1.00  0.00     0.012 C 
ATOM     26  C   UNL     1     115.777 121.065 133.179  1.00  0.00     0.014 C 
ATOM     27  C   UNL     1     115.125 119.750 131.217  1.00  0.00     0.014 C 
ATOM     28  C   UNL     1     119.031 124.681 129.246  1.00  0.00     0.016 C 
ATOM     29  C   UNL     1     126.462 120.749 127.841  1.00  0.00     0.011 C 
ENDROOT
BRANCH   5  30
ATOM     30  C   UNL     1     123.415 121.548 131.440  1.00  0.00     0.163 C 
BRANCH  30  31
ATOM     31  O   UNL     1     123.641 121.694 132.819  1.00  0.00    -0.396 OA
ATOM     32  H   UNL     1     123.443 122.640 133.046  1.00  0.00     0.210 HD
ENDBRANCH  30  31
ENDBRANCH   5  30
BRANCH  14  33
ATOM     33  O   UNL     1     115.341 123.484 131.751  1.00  0.00    -0.393 OA
ATOM     34  H   UNL     1     115.841 123.237 132.572  1.00  0.00     0.210 HD
ENDBRANCH  14  33
TORSDOF 3
ENDMDL
MODEL 9
REMARK VINA RESULT:    -6.156      2.604      7.988
REMARK INTER + INTRA:          -7.006
REMARK INTER:                  -7.040
REMARK INTRA:                   0.033
REMARK UNBOUND:                -0.131
REMARK SMILES CC1(C)CC[C@@]2(CO)CC=C3[C@](C)(CC[C@H]4[C@]5(C)CC[C@H](O)C(C)(C)[C@@H]5CC[C@@]34C)[C@@H]2C1
REMARK SMILES IDX 1 1 2 2 4 3 5 4 6 5 9 6 10 7 11 8 29 9 28 10 27 11 26 12
REMARK SMILES IDX 23 13 21 14 20 15 19 16 17 17 16 18 15 19 14 20 12 21 31 22
REMARK SMILES IDX 32 23 13 24 18 25 24 26 25 27 30 28 3 29 7 30 8 31 22 33
REMARK H PARENT 8 32 22 34
REMARK Flexibility Score: inf
ROOT
ATOM      1  C   UNL     1     124.667 117.732 124.205  1.00  0.00     0.011 C 
ATOM      2  C   UNL     1     124.103 119.167 124.075  1.00  0.00    -0.035 C 
ATOM      3  C   UNL     1     123.160 119.284 122.848  1.00  0.00     0.007 C 
ATOM      4  C   UNL     1     121.814 118.572 123.051  1.00  0.00     0.010 C 
ATOM      5  C   UNL     1     121.050 119.049 124.322  1.00  0.00     0.001 C 
ATOM      6  C   UNL     1     119.856 118.094 124.532  1.00  0.00     0.037 C 
ATOM      7  C   UNL     1     119.169 118.295 125.853  1.00  0.00    -0.026 C 
ATOM      8  C   UNL     1     119.740 118.885 126.939  1.00  0.00    -0.062 C 
ATOM      9  C   UNL     1     118.907 119.075 128.252  1.00  0.00    -0.008 C 
ATOM     10  C   UNL     1     117.402 119.468 127.970  1.00  0.00     0.012 C 
ATOM     11  C   UNL     1     117.143 120.969 127.942  1.00  0.00     0.006 C 
ATOM     12  C   UNL     1     117.406 121.689 129.312  1.00  0.00     0.003 C 
ATOM     13  C   UNL     1     116.098 122.093 130.144  1.00  0.00    -0.006 C 
ATOM     14  C   UNL     1     115.662 120.963 131.130  1.00  0.00     0.120 C 
ATOM     15  C   UNL     1     116.815 120.498 132.026  1.00  0.00     0.033 C 
ATOM     16  C   UNL     1     117.981 119.956 131.198  1.00  0.00     0.010 C 
ATOM     17  C   UNL     1     118.561 120.968 130.153  1.00  0.00    -0.025 C 
ATOM     18  C   UNL     1     119.573 120.198 129.183  1.00  0.00     0.005 C 
ATOM     19  C   UNL     1     120.422 121.211 128.345  1.00  0.00     0.006 C 
ATOM     20  C   UNL     1     121.525 120.595 127.470  1.00  0.00     0.012 C 
ATOM     21  C   UNL     1     121.269 119.147 126.965  1.00  0.00    -0.008 C 
ATOM     22  C   UNL     1     121.978 118.880 125.559  1.00  0.00     0.008 C 
ATOM     23  C   UNL     1     123.352 119.593 125.367  1.00  0.00     0.011 C 
ATOM     24  C   UNL     1     121.925 118.146 127.964  1.00  0.00     0.016 C 
ATOM     25  C   UNL     1     119.391 122.008 130.981  1.00  0.00     0.012 C 
ATOM     26  C   UNL     1     114.882 122.441 129.235  1.00  0.00     0.014 C 
ATOM     27  C   UNL     1     116.353 123.407 130.941  1.00  0.00     0.014 C 
ATOM     28  C   UNL     1     118.916 117.668 128.953  1.00  0.00     0.016 C 
ATOM     29  C   UNL     1     125.301 120.121 123.866  1.00  0.00     0.011 C 
ENDROOT
BRANCH   5  30
ATOM     30  C   UNL     1     120.543 120.520 124.150  1.00  0.00     0.163 C 
BRANCH  30  31
ATOM     31  O   UNL     1     120.387 120.869 122.798  1.00  0.00    -0.396 OA
ATOM     32  H   UNL     1     120.979 121.648 122.629  1.00  0.00     0.210 HD
ENDBRANCH  30  31
ENDBRANCH   5  30
BRANCH  14  33
ATOM     33  O   UNL     1     115.132 119.869 130.420  1.00  0.00    -0.393 OA
ATOM     34  H   UNL     1     114.647 119.300 131.074  1.00  0.00     0.210 HD
ENDBRANCH  14  33
TORSDOF 3
ENDMDL
