MODEL 1
REMARK VINA RESULT:    -4.293      0.000      0.000
REMARK INTER + INTRA:          -5.337
REMARK INTER:                  -5.046
REMARK INTRA:                  -0.291
REMARK UNBOUND:                -0.291
REMARK SMILES O=c1cc(-c2ccc(O)c(O)c2)oc2cc(O)cc(O)c12
REMARK SMILES IDX 4 1 3 2 2 3 1 4 21 5 19 6 18 7 16 8 15 9 14 10 13 11 5 12
REMARK SMILES IDX 6 13 7 14 8 15 12 16 10 17 9 18 11 20 20 22 17 24
REMARK H PARENT 9 19 11 21 20 23 17 25
REMARK Flexibility Score: inf
ROOT
ATOM      1  C   UNL     1       8.745  12.230  22.324  1.00  0.00     0.138 A 
ATOM      2  C   UNL     1       7.482  12.606  22.802  1.00  0.00     0.100 A 
ATOM      3  C   UNL     1       7.041  13.919  22.625  1.00  0.00     0.197 A 
ATOM      4  O   UNL     1       5.930  14.243  23.120  1.00  0.00    -0.289 OA
ATOM      5  C   UNL     1       7.859  14.849  21.940  1.00  0.00     0.107 A 
ATOM      6  C   UNL     1       7.496  16.202  21.666  1.00  0.00     0.134 A 
ATOM      7  C   UNL     1       8.433  17.062  21.082  1.00  0.00     0.093 A 
ATOM      8  C   UNL     1       9.698  16.603  20.707  1.00  0.00     0.123 A 
ATOM      9  C   UNL     1      10.043  15.271  20.921  1.00  0.00     0.094 A 
ATOM     10  C   UNL     1       9.142  14.396  21.533  1.00  0.00     0.146 A 
ATOM     11  O   UNL     1       9.515  13.136  21.733  1.00  0.00    -0.456 OA
ENDROOT
BRANCH   1  12
ATOM     12  C   UNL     1       9.262  10.846  22.484  1.00  0.00     0.021 A 
ATOM     13  C   UNL     1      10.637  10.561  22.430  1.00  0.00     0.016 A 
ATOM     14  C   UNL     1      11.095   9.252  22.594  1.00  0.00     0.051 A 
ATOM     15  C   UNL     1      10.198   8.204  22.822  1.00  0.00     0.157 A 
ATOM     16  C   UNL     1       8.362   9.794  22.727  1.00  0.00     0.062 A 
ATOM     17  C   UNL     1       8.813   8.479  22.893  1.00  0.00     0.158 A 
BRANCH  15  18
ATOM     18  O   UNL     1      10.722   6.918  22.976  1.00  0.00    -0.504 OA
ATOM     19  H   UNL     1      10.329   6.094  22.544  1.00  0.00     0.293 HD
ENDBRANCH  15  18
BRANCH  17  20
ATOM     20  O   UNL     1       7.858   7.486  23.122  1.00  0.00    -0.504 OA
ATOM     21  H   UNL     1       8.079   6.515  23.279  1.00  0.00     0.293 HD
ENDBRANCH  17  20
ENDBRANCH   1  12
BRANCH   6  22
ATOM     22  O   UNL     1       6.230  16.739  21.922  1.00  0.00    -0.507 OA
ATOM     23  H   UNL     1       5.357  16.300  21.674  1.00  0.00     0.293 HD
ENDBRANCH   6  22
BRANCH   8  24
ATOM     24  O   UNL     1      10.618  17.464  20.113  1.00  0.00    -0.508 OA
ATOM     25  H   UNL     1      10.352  18.088  19.361  1.00  0.00     0.293 HD
ENDBRANCH   8  24
TORSDOF 5
ENDMDL
MODEL 2
REMARK VINA RESULT:    -4.091      1.491      3.056
REMARK INTER + INTRA:          -5.099
REMARK INTER:                  -4.831
REMARK INTRA:                  -0.267
REMARK UNBOUND:                -0.291
REMARK SMILES O=c1cc(-c2ccc(O)c(O)c2)oc2cc(O)cc(O)c12
REMARK SMILES IDX 4 1 3 2 2 3 1 4 21 5 19 6 18 7 16 8 15 9 14 10 13 11 5 12
REMARK SMILES IDX 6 13 7 14 8 15 12 16 10 17 9 18 11 20 20 22 17 24
REMARK H PARENT 9 19 11 21 20 23 17 25
REMARK Flexibility Score: inf
ROOT
ATOM      1  C   UNL     1       9.577  12.517  21.585  1.00  0.00     0.138 A 
ATOM      2  C   UNL     1      10.430  13.462  20.998  1.00  0.00     0.100 A 
ATOM      3  C   UNL     1      10.007  14.786  20.868  1.00  0.00     0.197 A 
ATOM      4  O   UNL     1      10.769  15.598  20.281  1.00  0.00    -0.289 OA
ATOM      5  C   UNL     1       8.735  15.168  21.356  1.00  0.00     0.107 A 
ATOM      6  C   UNL     1       8.215  16.497  21.314  1.00  0.00     0.134 A 
ATOM      7  C   UNL     1       6.897  16.735  21.721  1.00  0.00     0.093 A 
ATOM      8  C   UNL     1       6.101  15.703  22.226  1.00  0.00     0.123 A 
ATOM      9  C   UNL     1       6.617  14.413  22.321  1.00  0.00     0.094 A 
ATOM     10  C   UNL     1       7.917  14.137  21.890  1.00  0.00     0.146 A 
ATOM     11  O   UNL     1       8.367  12.890  21.985  1.00  0.00    -0.456 OA
ENDROOT
BRANCH   1  12
ATOM     12  C   UNL     1       9.978  11.096  21.749  1.00  0.00     0.021 A 
ATOM     13  C   UNL     1       9.953  10.461  23.003  1.00  0.00     0.016 A 
ATOM     14  C   UNL     1      10.326   9.121  23.125  1.00  0.00     0.051 A 
ATOM     15  C   UNL     1      10.723   8.385  22.005  1.00  0.00     0.157 A 
ATOM     16  C   UNL     1      10.365  10.351  20.621  1.00  0.00     0.062 A 
ATOM     17  C   UNL     1      10.741   9.006  20.735  1.00  0.00     0.158 A 
BRANCH  15  18
ATOM     18  O   UNL     1      11.085   7.049  22.197  1.00  0.00    -0.504 OA
ATOM     19  H   UNL     1      11.706   6.732  22.929  1.00  0.00     0.293 HD
ENDBRANCH  15  18
BRANCH  17  20
ATOM     20  O   UNL     1      11.121   8.335  19.572  1.00  0.00    -0.504 OA
ATOM     21  H   UNL     1      12.076   8.113  19.334  1.00  0.00     0.293 HD
ENDBRANCH  17  20
ENDBRANCH   1  12
BRANCH   6  22
ATOM     22  O   UNL     1       8.953  17.613  20.908  1.00  0.00    -0.507 OA
ATOM     23  H   UNL     1       8.602  18.354  20.321  1.00  0.00     0.293 HD
ENDBRANCH   6  22
BRANCH   8  24
ATOM     24  O   UNL     1       4.795  15.953  22.644  1.00  0.00    -0.508 OA
ATOM     25  H   UNL     1       4.466  15.664  23.557  1.00  0.00     0.293 HD
ENDBRANCH   8  24
TORSDOF 5
ENDMDL
MODEL 3
REMARK VINA RESULT:    -3.845     12.058     14.518
REMARK INTER + INTRA:          -4.810
REMARK INTER:                  -4.526
REMARK INTRA:                  -0.284
REMARK UNBOUND:                -0.291
REMARK SMILES O=c1cc(-c2ccc(O)c(O)c2)oc2cc(O)cc(O)c12
REMARK SMILES IDX 4 1 3 2 2 3 1 4 21 5 19 6 18 7 16 8 15 9 14 10 13 11 5 12
REMARK SMILES IDX 6 13 7 14 8 15 12 16 10 17 9 18 11 20 20 22 17 24
REMARK H PARENT 9 19 11 21 20 23 17 25
REMARK Flexibility Score: inf
ROOT
ATOM      1  C   UNL     1      -4.016  16.536  21.995  1.00  0.00     0.138 A 
ATOM      2  C   UNL     1      -4.788  15.428  21.614  1.00  0.00     0.100 A 
ATOM      3  C   UNL     1      -6.177  15.547  21.543  1.00  0.00     0.197 A 
ATOM      4  O   UNL     1      -6.846  14.520  21.260  1.00  0.00    -0.289 OA
ATOM      5  C   UNL     1      -6.792  16.790  21.826  1.00  0.00     0.107 A 
ATOM      6  C   UNL     1      -8.195  17.039  21.747  1.00  0.00     0.134 A 
ATOM      7  C   UNL     1      -8.700  18.276  22.163  1.00  0.00     0.093 A 
ATOM      8  C   UNL     1      -7.848  19.295  22.596  1.00  0.00     0.123 A 
ATOM      9  C   UNL     1      -6.471  19.080  22.626  1.00  0.00     0.094 A 
ATOM     10  C   UNL     1      -5.940  17.844  22.251  1.00  0.00     0.146 A 
ATOM     11  O   UNL     1      -4.622  17.676  22.308  1.00  0.00    -0.456 OA
ENDROOT
BRANCH   1  12
ATOM     12  C   UNL     1      -2.535  16.465  22.084  1.00  0.00     0.021 A 
ATOM     13  C   UNL     1      -1.819  17.183  23.057  1.00  0.00     0.016 A 
ATOM     14  C   UNL     1      -0.427  17.088  23.124  1.00  0.00     0.051 A 
ATOM     15  C   UNL     1       0.278  16.275  22.232  1.00  0.00     0.157 A 
ATOM     16  C   UNL     1      -1.827  15.636  21.197  1.00  0.00     0.062 A 
ATOM     17  C   UNL     1      -0.431  15.536  21.257  1.00  0.00     0.158 A 
BRANCH  15  18
ATOM     18  O   UNL     1       1.669  16.227  22.352  1.00  0.00    -0.504 OA
ATOM     19  H   UNL     1       2.300  16.146  21.568  1.00  0.00     0.293 HD
ENDBRANCH  15  18
BRANCH  17  20
ATOM     20  O   UNL     1       0.202  14.699  20.336  1.00  0.00    -0.504 OA
ATOM     21  H   UNL     1      -0.145  13.791  20.066  1.00  0.00     0.293 HD
ENDBRANCH  17  20
ENDBRANCH   1  12
BRANCH   6  22
ATOM     22  O   UNL     1      -9.124  16.120  21.249  1.00  0.00    -0.507 OA
ATOM     23  H   UNL     1      -9.945  16.363  20.715  1.00  0.00     0.293 HD
ENDBRANCH   6  22
BRANCH   8  24
ATOM     24  O   UNL     1      -8.359  20.528  22.993  1.00  0.00    -0.508 OA
ATOM     25  H   UNL     1      -9.208  20.599  23.541  1.00  0.00     0.293 HD
ENDBRANCH   8  24
TORSDOF 5
ENDMDL
MODEL 4
REMARK VINA RESULT:    -3.596      2.406      7.385
REMARK INTER + INTRA:          -4.517
REMARK INTER:                  -4.225
REMARK INTRA:                  -0.293
REMARK UNBOUND:                -0.291
REMARK SMILES O=c1cc(-c2ccc(O)c(O)c2)oc2cc(O)cc(O)c12
REMARK SMILES IDX 4 1 3 2 2 3 1 4 21 5 19 6 18 7 16 8 15 9 14 10 13 11 5 12
REMARK SMILES IDX 6 13 7 14 8 15 12 16 10 17 9 18 11 20 20 22 17 24
REMARK H PARENT 9 19 11 21 20 23 17 25
REMARK Flexibility Score: inf
ROOT
ATOM      1  C   UNL     1      10.129  12.984  20.136  1.00  0.00     0.138 A 
ATOM      2  C   UNL     1      10.345  12.540  18.824  1.00  0.00     0.100 A 
ATOM      3  C   UNL     1      10.651  11.198  18.592  1.00  0.00     0.197 A 
ATOM      4  O   UNL     1      10.901  10.841  17.411  1.00  0.00    -0.289 OA
ATOM      5  C   UNL     1      10.711  10.292  19.678  1.00  0.00     0.107 A 
ATOM      6  C   UNL     1      10.973   8.894  19.556  1.00  0.00     0.134 A 
ATOM      7  C   UNL     1      11.123   8.118  20.711  1.00  0.00     0.093 A 
ATOM      8  C   UNL     1      10.959   8.676  21.982  1.00  0.00     0.123 A 
ATOM      9  C   UNL     1      10.649  10.028  22.109  1.00  0.00     0.094 A 
ATOM     10  C   UNL     1      10.527  10.837  20.977  1.00  0.00     0.146 A 
ATOM     11  O   UNL     1      10.245  12.125  21.143  1.00  0.00    -0.456 OA
ENDROOT
BRANCH   1  12
ATOM     12  C   UNL     1       9.800  14.400  20.439  1.00  0.00     0.021 A 
ATOM     13  C   UNL     1      10.480  15.465  19.825  1.00  0.00     0.016 A 
ATOM     14  C   UNL     1      10.141  16.787  20.121  1.00  0.00     0.051 A 
ATOM     15  C   UNL     1       9.117  17.076  21.027  1.00  0.00     0.157 A 
ATOM     16  C   UNL     1       8.760  14.691  21.340  1.00  0.00     0.062 A 
ATOM     17  C   UNL     1       8.414  16.014  21.643  1.00  0.00     0.158 A 
BRANCH  15  18
ATOM     18  O   UNL     1       8.829  18.419  21.281  1.00  0.00    -0.504 OA
ATOM     19  H   UNL     1       8.300  19.011  20.656  1.00  0.00     0.293 HD
ENDBRANCH  15  18
BRANCH  17  20
ATOM     20  O   UNL     1       7.377  16.225  22.553  1.00  0.00    -0.504 OA
ATOM     21  H   UNL     1       6.431  15.902  22.416  1.00  0.00     0.293 HD
ENDBRANCH  17  20
ENDBRANCH   1  12
BRANCH   6  22
ATOM     22  O   UNL     1      11.071   8.221  18.335  1.00  0.00    -0.507 OA
ATOM     23  H   UNL     1      11.935   7.928  17.906  1.00  0.00     0.293 HD
ENDBRANCH   6  22
BRANCH   8  24
ATOM     24  O   UNL     1      11.094   7.891  23.125  1.00  0.00    -0.508 OA
ATOM     25  H   UNL     1      10.368   7.851  23.830  1.00  0.00     0.293 HD
ENDBRANCH   8  24
TORSDOF 5
ENDMDL
MODEL 5
REMARK VINA RESULT:    -3.547      2.118      3.555
REMARK INTER + INTRA:          -4.459
REMARK INTER:                  -4.182
REMARK INTRA:                  -0.277
REMARK UNBOUND:                -0.291
REMARK SMILES O=c1cc(-c2ccc(O)c(O)c2)oc2cc(O)cc(O)c12
REMARK SMILES IDX 4 1 3 2 2 3 1 4 21 5 19 6 18 7 16 8 15 9 14 10 13 11 5 12
REMARK SMILES IDX 6 13 7 14 8 15 12 16 10 17 9 18 11 20 20 22 17 24
REMARK H PARENT 9 19 11 21 20 23 17 25
REMARK Flexibility Score: inf
ROOT
ATOM      1  C   UNL     1       9.803  13.071  20.308  1.00  0.00     0.138 A 
ATOM      2  C   UNL     1      10.608  14.136  19.880  1.00  0.00     0.100 A 
ATOM      3  C   UNL     1      10.251  15.446  20.206  1.00  0.00     0.197 A 
ATOM      4  O   UNL     1      10.959  16.384  19.756  1.00  0.00    -0.289 OA
ATOM      5  C   UNL     1       9.097  15.685  20.990  1.00  0.00     0.107 A 
ATOM      6  C   UNL     1       8.659  16.974  21.417  1.00  0.00     0.134 A 
ATOM      7  C   UNL     1       7.438  17.099  22.091  1.00  0.00     0.093 A 
ATOM      8  C   UNL     1       6.671  15.975  22.408  1.00  0.00     0.123 A 
ATOM      9  C   UNL     1       7.117  14.707  22.043  1.00  0.00     0.094 A 
ATOM     10  C   UNL     1       8.314  14.553  21.338  1.00  0.00     0.146 A 
ATOM     11  O   UNL     1       8.696  13.327  20.996  1.00  0.00    -0.456 OA
ENDROOT
BRANCH   1  12
ATOM     12  C   UNL     1      10.138  11.659  19.990  1.00  0.00     0.021 A 
ATOM     13  C   UNL     1      10.252  11.208  18.664  1.00  0.00     0.016 A 
ATOM     14  C   UNL     1      10.578   9.877  18.396  1.00  0.00     0.051 A 
ATOM     15  C   UNL     1      10.804   8.972  19.437  1.00  0.00     0.157 A 
ATOM     16  C   UNL     1      10.378  10.753  21.037  1.00  0.00     0.062 A 
ATOM     17  C   UNL     1      10.706   9.416  20.776  1.00  0.00     0.158 A 
BRANCH  15  18
ATOM     18  O   UNL     1      11.125   7.655  19.100  1.00  0.00    -0.504 OA
ATOM     19  H   UNL     1      11.874   7.129  19.528  1.00  0.00     0.293 HD
ENDBRANCH  15  18
BRANCH  17  20
ATOM     20  O   UNL     1      10.922   8.573  21.868  1.00  0.00    -0.504 OA
ATOM     21  H   UNL     1      10.187   8.091  22.364  1.00  0.00     0.293 HD
ENDBRANCH  17  20
ENDBRANCH   1  12
BRANCH   6  22
ATOM     22  O   UNL     1       9.390  18.151  21.228  1.00  0.00    -0.507 OA
ATOM     23  H   UNL     1      10.333  18.302  21.552  1.00  0.00     0.293 HD
ENDBRANCH   6  22
BRANCH   8  24
ATOM     24  O   UNL     1       5.466  16.109  23.093  1.00  0.00    -0.508 OA
ATOM     25  H   UNL     1       4.953  15.301  23.427  1.00  0.00     0.293 HD
ENDBRANCH   8  24
TORSDOF 5
ENDMDL
MODEL 6
REMARK VINA RESULT:    -3.422     15.005     18.605
REMARK INTER + INTRA:          -4.313
REMARK INTER:                  -4.050
REMARK INTRA:                  -0.263
REMARK UNBOUND:                -0.291
REMARK SMILES O=c1cc(-c2ccc(O)c(O)c2)oc2cc(O)cc(O)c12
REMARK SMILES IDX 4 1 3 2 2 3 1 4 21 5 19 6 18 7 16 8 15 9 14 10 13 11 5 12
REMARK SMILES IDX 6 13 7 14 8 15 12 16 10 17 9 18 11 20 20 22 17 24
REMARK H PARENT 9 19 11 21 20 23 17 25
REMARK Flexibility Score: inf
ROOT
ATOM      1  C   UNL     1      -7.720  19.388  21.832  1.00  0.00     0.138 A 
ATOM      2  C   UNL     1      -8.636  18.401  21.442  1.00  0.00     0.100 A 
ATOM      3  C   UNL     1      -8.236  17.065  21.404  1.00  0.00     0.197 A 
ATOM      4  O   UNL     1      -9.061  16.209  20.991  1.00  0.00    -0.289 OA
ATOM      5  C   UNL     1      -6.919  16.714  21.788  1.00  0.00     0.107 A 
ATOM      6  C   UNL     1      -6.413  15.380  21.828  1.00  0.00     0.134 A 
ATOM      7  C   UNL     1      -5.060  15.164  22.112  1.00  0.00     0.093 A 
ATOM      8  C   UNL     1      -4.209  16.229  22.418  1.00  0.00     0.123 A 
ATOM      9  C   UNL     1      -4.706  17.530  22.435  1.00  0.00     0.094 A 
ATOM     10  C   UNL     1      -6.044  17.781  22.121  1.00  0.00     0.146 A 
ATOM     11  O   UNL     1      -6.475  19.038  22.135  1.00  0.00    -0.456 OA
ENDROOT
BRANCH   1  12
ATOM     12  C   UNL     1      -8.094  20.824  21.891  1.00  0.00     0.021 A 
ATOM     13  C   UNL     1      -8.464  21.442  23.098  1.00  0.00     0.016 A 
ATOM     14  C   UNL     1      -8.801  22.797  23.125  1.00  0.00     0.051 A 
ATOM     15  C   UNL     1      -8.769  23.565  21.957  1.00  0.00     0.157 A 
ATOM     16  C   UNL     1      -8.048  21.600  20.720  1.00  0.00     0.062 A 
ATOM     17  C   UNL     1      -8.385  22.960  20.738  1.00  0.00     0.158 A 
BRANCH  15  18
ATOM     18  O   UNL     1      -9.119  24.914  22.053  1.00  0.00    -0.504 OA
ATOM     19  H   UNL     1      -8.649  25.656  21.554  1.00  0.00     0.293 HD
ENDBRANCH  15  18
BRANCH  17  20
ATOM     20  O   UNL     1      -8.324  23.663  19.533  1.00  0.00    -0.504 OA
ATOM     21  H   UNL     1      -9.114  23.805  18.922  1.00  0.00     0.293 HD
ENDBRANCH  17  20
ENDBRANCH   1  12
BRANCH   6  22
ATOM     22  O   UNL     1      -7.197  14.240  21.621  1.00  0.00    -0.507 OA
ATOM     23  H   UNL     1      -7.693  14.028  20.769  1.00  0.00     0.293 HD
ENDBRANCH   6  22
BRANCH   8  24
ATOM     24  O   UNL     1      -2.866  16.002  22.715  1.00  0.00    -0.508 OA
ATOM     25  H   UNL     1      -2.134  16.596  22.344  1.00  0.00     0.293 HD
ENDBRANCH   8  24
TORSDOF 5
ENDMDL
MODEL 7
REMARK VINA RESULT:    -3.266     14.490     18.289
REMARK INTER + INTRA:          -4.129
REMARK INTER:                  -3.835
REMARK INTRA:                  -0.293
REMARK UNBOUND:                -0.291
REMARK SMILES O=c1cc(-c2ccc(O)c(O)c2)oc2cc(O)cc(O)c12
REMARK SMILES IDX 4 1 3 2 2 3 1 4 21 5 19 6 18 7 16 8 15 9 14 10 13 11 5 12
REMARK SMILES IDX 6 13 7 14 8 15 12 16 10 17 9 18 11 20 20 22 17 24
REMARK H PARENT 9 19 11 21 20 23 17 25
REMARK Flexibility Score: inf
ROOT
ATOM      1  C   UNL     1      -6.602  19.549  22.573  1.00  0.00     0.138 A 
ATOM      2  C   UNL     1      -5.249  19.288  22.835  1.00  0.00     0.100 A 
ATOM      3  C   UNL     1      -4.759  17.988  22.696  1.00  0.00     0.197 A 
ATOM      4  O   UNL     1      -3.557  17.772  22.998  1.00  0.00    -0.289 OA
ATOM      5  C   UNL     1      -5.622  16.954  22.262  1.00  0.00     0.107 A 
ATOM      6  C   UNL     1      -5.223  15.600  22.045  1.00  0.00     0.134 A 
ATOM      7  C   UNL     1      -6.190  14.639  21.728  1.00  0.00     0.093 A 
ATOM      8  C   UNL     1      -7.531  14.993  21.559  1.00  0.00     0.123 A 
ATOM      9  C   UNL     1      -7.921  16.321  21.716  1.00  0.00     0.094 A 
ATOM     10  C   UNL     1      -6.986  17.297  22.066  1.00  0.00     0.146 A 
ATOM     11  O   UNL     1      -7.403  18.550  22.220  1.00  0.00    -0.456 OA
ENDROOT
BRANCH   1  12
ATOM     12  C   UNL     1      -7.175  20.913  22.704  1.00  0.00     0.021 A 
ATOM     13  C   UNL     1      -8.563  21.134  22.715  1.00  0.00     0.016 A 
ATOM     14  C   UNL     1      -9.073  22.427  22.850  1.00  0.00     0.051 A 
ATOM     15  C   UNL     1      -8.216  23.523  22.984  1.00  0.00     0.157 A 
ATOM     16  C   UNL     1      -6.313  22.015  22.852  1.00  0.00     0.062 A 
ATOM     17  C   UNL     1      -6.817  23.315  22.988  1.00  0.00     0.158 A 
BRANCH  15  18
ATOM     18  O   UNL     1      -8.791  24.790  23.113  1.00  0.00    -0.504 OA
ATOM     19  H   UNL     1      -9.292  25.101  23.933  1.00  0.00     0.293 HD
ENDBRANCH  15  18
BRANCH  17  20
ATOM     20  O   UNL     1      -5.899  24.359  23.122  1.00  0.00    -0.504 OA
ATOM     21  H   UNL     1      -5.138  24.360  23.784  1.00  0.00     0.293 HD
ENDBRANCH  17  20
ENDBRANCH   1  12
BRANCH   6  22
ATOM     22  O   UNL     1      -3.898  15.157  22.105  1.00  0.00    -0.507 OA
ATOM     23  H   UNL     1      -3.497  14.643  22.874  1.00  0.00     0.293 HD
ENDBRANCH   6  22
BRANCH   8  24
ATOM     24  O   UNL     1      -8.483  14.031  21.228  1.00  0.00    -0.508 OA
ATOM     25  H   UNL     1      -8.398  13.071  21.541  1.00  0.00     0.293 HD
ENDBRANCH   8  24
TORSDOF 5
ENDMDL
