MODEL 1
REMARK VINA RESULT:    -3.369      0.000      0.000
REMARK INTER + INTRA:          -4.252
REMARK INTER:                  -4.156
REMARK INTRA:                  -0.095
REMARK UNBOUND:                -0.095
REMARK SMILES CCCCCC(=O)[O-]
REMARK SMILES IDX 4 1 5 2 6 3 7 4 8 5 3 6 2 7 1 8
REMARK H PARENT
REMARK Flexibility Score: inf
ROOT
ATOM      1  C   UNL     1       5.429  34.172  -2.258  1.00  0.00     0.006 C 
ENDROOT
BRANCH   1   2
ATOM      2  C   UNL     1       6.710  33.495  -2.763  1.00  0.00     0.053 C 
BRANCH   2   3
ATOM      3  C   UNL     1       7.793  33.506  -1.728  1.00  0.00     0.041 C 
ATOM      4  O   UNL     1       7.614  34.097  -0.630  1.00  0.00    -0.550 OA
ATOM      5  O   UNL     1       9.010  32.889  -1.987  1.00  0.00    -0.550 OA
ENDBRANCH   2   3
ENDBRANCH   1   2
BRANCH   1   6
ATOM      6  C   UNL     1       4.189  33.280  -2.446  1.00  0.00     0.000 C 
BRANCH   6   7
ATOM      7  C   UNL     1       2.879  34.020  -2.136  1.00  0.00    -0.003 C 
ATOM      8  C   UNL     1       2.897  35.477  -2.601  1.00  0.00     0.004 C 
ENDBRANCH   6   7
ENDBRANCH   1   6
TORSDOF 4
ENDMDL
MODEL 2
REMARK VINA RESULT:    -3.282      1.320      2.130
REMARK INTER + INTRA:          -4.145
REMARK INTER:                  -4.098
REMARK INTRA:                  -0.047
REMARK UNBOUND:                -0.095
REMARK SMILES CCCCCC(=O)[O-]
REMARK SMILES IDX 4 1 5 2 6 3 7 4 8 5 3 6 2 7 1 8
REMARK H PARENT
REMARK Flexibility Score: inf
ROOT
ATOM      1  C   UNL     1       7.056  34.084  -1.605  1.00  0.00     0.006 C 
ENDROOT
BRANCH   1   2
ATOM      2  C   UNL     1       8.322  33.285  -1.938  1.00  0.00     0.053 C 
BRANCH   2   3
ATOM      3  C   UNL     1       9.092  32.920  -0.706  1.00  0.00     0.041 C 
ATOM      4  O   UNL     1       9.770  31.859  -0.673  1.00  0.00    -0.550 OA
ATOM      5  O   UNL     1       9.037  33.736   0.417  1.00  0.00    -0.550 OA
ENDBRANCH   2   3
ENDBRANCH   1   2
BRANCH   1   6
ATOM      6  C   UNL     1       5.883  33.728  -2.537  1.00  0.00     0.000 C 
BRANCH   6   7
ATOM      7  C   UNL     1       4.554  34.340  -2.070  1.00  0.00    -0.003 C 
ATOM      8  C   UNL     1       3.367  33.395  -2.259  1.00  0.00     0.004 C 
ENDBRANCH   6   7
ENDBRANCH   1   6
TORSDOF 4
ENDMDL
MODEL 3
REMARK VINA RESULT:    -3.271      1.336      1.847
REMARK INTER + INTRA:          -4.131
REMARK INTER:                  -4.083
REMARK INTRA:                  -0.048
REMARK UNBOUND:                -0.095
REMARK SMILES CCCCCC(=O)[O-]
REMARK SMILES IDX 4 1 5 2 6 3 7 4 8 5 3 6 2 7 1 8
REMARK H PARENT
REMARK Flexibility Score: inf
ROOT
ATOM      1  C   UNL     1       7.037  34.071  -1.533  1.00  0.00     0.006 C 
ENDROOT
BRANCH   1   2
ATOM      2  C   UNL     1       8.314  33.300  -1.889  1.00  0.00     0.053 C 
BRANCH   2   3
ATOM      3  C   UNL     1       9.088  32.907  -0.668  1.00  0.00     0.041 C 
ATOM      4  O   UNL     1       9.074  33.641   0.355  1.00  0.00    -0.550 OA
ATOM      5  O   UNL     1       9.850  31.745  -0.670  1.00  0.00    -0.550 OA
ENDBRANCH   2   3
ENDBRANCH   1   2
BRANCH   1   6
ATOM      6  C   UNL     1       5.875  33.743  -2.488  1.00  0.00     0.000 C 
BRANCH   6   7
ATOM      7  C   UNL     1       4.549  34.377  -2.041  1.00  0.00    -0.003 C 
ATOM      8  C   UNL     1       3.361  33.426  -2.180  1.00  0.00     0.004 C 
ENDBRANCH   6   7
ENDBRANCH   1   6
TORSDOF 4
ENDMDL
MODEL 4
REMARK VINA RESULT:    -3.231      2.543      5.296
REMARK INTER + INTRA:          -4.082
REMARK INTER:                  -4.018
REMARK INTRA:                  -0.063
REMARK UNBOUND:                -0.095
REMARK SMILES CCCCCC(=O)[O-]
REMARK SMILES IDX 4 1 5 2 6 3 7 4 8 5 3 6 2 7 1 8
REMARK H PARENT
REMARK Flexibility Score: inf
ROOT
ATOM      1  C   UNL     1       8.616  33.104  -1.863  1.00  0.00     0.006 C 
ENDROOT
BRANCH   1   2
ATOM      2  C   UNL     1       7.430  34.024  -1.544  1.00  0.00     0.053 C 
BRANCH   2   3
ATOM      3  C   UNL     1       6.243  33.724  -2.406  1.00  0.00     0.041 C 
ATOM      4  O   UNL     1       6.302  32.812  -3.272  1.00  0.00    -0.550 OA
ATOM      5  O   UNL     1       5.079  34.471  -2.274  1.00  0.00    -0.550 OA
ENDBRANCH   2   3
ENDBRANCH   1   2
BRANCH   1   6
ATOM      6  C   UNL     1       9.467  32.801  -0.617  1.00  0.00     0.000 C 
BRANCH   6   7
ATOM      7  C   UNL     1      10.091  31.398  -0.657  1.00  0.00    -0.003 C 
ATOM      8  C   UNL     1      11.157  31.255  -1.744  1.00  0.00     0.004 C 
ENDBRANCH   6   7
ENDBRANCH   1   6
TORSDOF 4
ENDMDL
MODEL 5
REMARK VINA RESULT:    -3.175      2.212      3.367
REMARK INTER + INTRA:          -4.013
REMARK INTER:                  -3.898
REMARK INTRA:                  -0.115
REMARK UNBOUND:                -0.095
REMARK SMILES CCCCCC(=O)[O-]
REMARK SMILES IDX 4 1 5 2 6 3 7 4 8 5 3 6 2 7 1 8
REMARK H PARENT
REMARK Flexibility Score: inf
ROOT
ATOM      1  C   UNL     1       8.708  33.705  -0.435  1.00  0.00     0.006 C 
ENDROOT
BRANCH   1   2
ATOM      2  C   UNL     1       9.149  32.733  -1.537  1.00  0.00     0.053 C 
BRANCH   2   3
ATOM      3  C   UNL     1      10.021  31.639  -1.001  1.00  0.00     0.041 C 
ATOM      4  O   UNL     1       9.807  31.161   0.144  1.00  0.00    -0.550 OA
ATOM      5  O   UNL     1      11.090  31.169  -1.753  1.00  0.00    -0.550 OA
ENDBRANCH   2   3
ENDBRANCH   1   2
BRANCH   1   6
ATOM      6  C   UNL     1       7.414  34.452  -0.804  1.00  0.00     0.000 C 
BRANCH   6   7
ATOM      7  C   UNL     1       6.832  33.992  -2.149  1.00  0.00    -0.003 C 
ATOM      8  C   UNL     1       5.306  34.076  -2.193  1.00  0.00     0.004 C 
ENDBRANCH   6   7
ENDBRANCH   1   6
TORSDOF 4
ENDMDL
MODEL 6
REMARK VINA RESULT:    -3.171     12.589     14.230
REMARK INTER + INTRA:          -4.007
REMARK INTER:                  -3.815
REMARK INTRA:                  -0.193
REMARK UNBOUND:                -0.095
REMARK SMILES CCCCCC(=O)[O-]
REMARK SMILES IDX 4 1 5 2 6 3 7 4 8 5 3 6 2 7 1 8
REMARK H PARENT
REMARK Flexibility Score: inf
ROOT
ATOM      1  C   UNL     1      13.741  28.871   8.378  1.00  0.00     0.006 C 
ENDROOT
BRANCH   1   2
ATOM      2  C   UNL     1      12.222  28.975   8.195  1.00  0.00     0.053 C 
BRANCH   2   3
ATOM      3  C   UNL     1      11.705  27.959   7.223  1.00  0.00     0.041 C 
ATOM      4  O   UNL     1      10.710  27.248   7.519  1.00  0.00    -0.550 OA
ATOM      5  O   UNL     1      12.342  27.777   6.002  1.00  0.00    -0.550 OA
ENDBRANCH   2   3
ENDBRANCH   1   2
BRANCH   1   6
ATOM      6  C   UNL     1      14.175  27.468   8.840  1.00  0.00     0.000 C 
BRANCH   6   7
ATOM      7  C   UNL     1      15.157  26.804   7.862  1.00  0.00    -0.003 C 
ATOM      8  C   UNL     1      16.013  27.818   7.103  1.00  0.00     0.004 C 
ENDBRANCH   6   7
ENDBRANCH   1   6
TORSDOF 4
ENDMDL
MODEL 7
REMARK VINA RESULT:    -3.164     13.287     14.354
REMARK INTER + INTRA:          -4.000
REMARK INTER:                  -3.763
REMARK INTRA:                  -0.236
REMARK UNBOUND:                -0.095
REMARK SMILES CCCCCC(=O)[O-]
REMARK SMILES IDX 4 1 5 2 6 3 7 4 8 5 3 6 2 7 1 8
REMARK H PARENT
REMARK Flexibility Score: inf
ROOT
ATOM      1  C   UNL     1      13.951  28.487   8.957  1.00  0.00     0.006 C 
ENDROOT
BRANCH   1   2
ATOM      2  C   UNL     1      15.086  28.386   7.930  1.00  0.00     0.053 C 
BRANCH   2   3
ATOM      3  C   UNL     1      15.483  26.965   7.673  1.00  0.00     0.041 C 
ATOM      4  O   UNL     1      14.743  26.021   8.057  1.00  0.00    -0.550 OA
ATOM      5  O   UNL     1      16.685  26.682   7.037  1.00  0.00    -0.550 OA
ENDBRANCH   2   3
ENDBRANCH   1   2
BRANCH   1   6
ATOM      6  C   UNL     1      12.731  29.244   8.401  1.00  0.00     0.000 C 
BRANCH   6   7
ATOM      7  C   UNL     1      12.198  28.627   7.099  1.00  0.00    -0.003 C 
ATOM      8  C   UNL     1      11.440  27.320   7.330  1.00  0.00     0.004 C 
ENDBRANCH   6   7
ENDBRANCH   1   6
TORSDOF 4
ENDMDL
MODEL 8
REMARK VINA RESULT:    -3.144      5.175      6.090
REMARK INTER + INTRA:          -3.974
REMARK INTER:                  -3.866
REMARK INTRA:                  -0.108
REMARK UNBOUND:                -0.095
REMARK SMILES CCCCCC(=O)[O-]
REMARK SMILES IDX 4 1 5 2 6 3 7 4 8 5 3 6 2 7 1 8
REMARK H PARENT
REMARK Flexibility Score: inf
ROOT
ATOM      1  C   UNL     1      10.834  33.900  -1.222  1.00  0.00     0.006 C 
ENDROOT
BRANCH   1   2
ATOM      2  C   UNL     1      10.421  35.375  -1.154  1.00  0.00     0.053 C 
BRANCH   2   3
ATOM      3  C   UNL     1      11.029  36.071   0.025  1.00  0.00     0.041 C 
ATOM      4  O   UNL     1      10.556  35.895   1.179  1.00  0.00    -0.550 OA
ATOM      5  O   UNL     1      12.099  36.938  -0.154  1.00  0.00    -0.550 OA
ENDBRANCH   2   3
ENDBRANCH   1   2
BRANCH   1   6
ATOM      6  C   UNL     1       9.691  32.957  -0.804  1.00  0.00     0.000 C 
BRANCH   6   7
ATOM      7  C   UNL     1      10.110  31.479  -0.826  1.00  0.00    -0.003 C 
ATOM      8  C   UNL     1      11.229  31.195  -1.828  1.00  0.00     0.004 C 
ENDBRANCH   6   7
ENDBRANCH   1   6
TORSDOF 4
ENDMDL
MODEL 9
REMARK VINA RESULT:    -3.119     13.125     14.125
REMARK INTER + INTRA:          -3.944
REMARK INTER:                  -3.746
REMARK INTRA:                  -0.198
REMARK UNBOUND:                -0.095
REMARK SMILES CCCCCC(=O)[O-]
REMARK SMILES IDX 4 1 5 2 6 3 7 4 8 5 3 6 2 7 1 8
REMARK H PARENT
REMARK Flexibility Score: inf
ROOT
ATOM      1  C   UNL     1      14.396  27.646   8.429  1.00  0.00     0.006 C 
ENDROOT
BRANCH   1   2
ATOM      2  C   UNL     1      15.642  28.034   7.623  1.00  0.00     0.053 C 
BRANCH   2   3
ATOM      3  C   UNL     1      15.543  27.592   6.195  1.00  0.00     0.041 C 
ATOM      4  O   UNL     1      14.538  26.944   5.800  1.00  0.00    -0.550 OA
ATOM      5  O   UNL     1      16.574  27.871   5.307  1.00  0.00    -0.550 OA
ENDBRANCH   2   3
ENDBRANCH   1   2
BRANCH   1   6
ATOM      6  C   UNL     1      13.728  28.866   9.089  1.00  0.00     0.000 C 
BRANCH   6   7
ATOM      7  C   UNL     1      12.391  29.234   8.427  1.00  0.00    -0.003 C 
ATOM      8  C   UNL     1      11.756  28.061   7.681  1.00  0.00     0.004 C 
ENDBRANCH   6   7
ENDBRANCH   1   6
TORSDOF 4
ENDMDL
