MODEL 1
REMARK VINA RESULT:    -2.818      0.000      0.000
REMARK INTER + INTRA:          -3.166
REMARK INTER:                  -3.147
REMARK INTRA:                  -0.019
REMARK UNBOUND:                -0.019
REMARK SMILES CCCC(=O)[O-]
REMARK SMILES IDX 3 1 4 2 5 3 6 4 2 5 1 6
REMARK H PARENT
REMARK Flexibility Score: inf
ROOT
ATOM      1  C   UNL     1      40.987  53.409   8.920  1.00  0.00     0.052 C 
ENDROOT
BRANCH   1   2
ATOM      2  C   UNL     1      40.541  51.982   8.926  1.00  0.00     0.041 C 
ATOM      3  O   UNL     1      41.383  51.054   8.803  1.00  0.00    -0.550 OA
ATOM      4  O   UNL     1      39.189  51.676   9.020  1.00  0.00    -0.550 OA
ENDBRANCH   1   2
BRANCH   1   5
ATOM      5  C   UNL     1      42.020  53.643   7.814  1.00  0.00     0.003 C 
ATOM      6  C   UNL     1      43.019  54.724   8.214  1.00  0.00     0.004 C 
ENDBRANCH   1   5
TORSDOF 2
ENDMDL
MODEL 2
REMARK VINA RESULT:    -2.631      2.315      3.193
REMARK INTER + INTRA:          -2.958
REMARK INTER:                  -2.935
REMARK INTRA:                  -0.023
REMARK UNBOUND:                -0.019
REMARK SMILES CCCC(=O)[O-]
REMARK SMILES IDX 3 1 4 2 5 3 6 4 2 5 1 6
REMARK H PARENT
REMARK Flexibility Score: inf
ROOT
ATOM      1  C   UNL     1      41.188  53.784   9.260  1.00  0.00     0.052 C 
ENDROOT
BRANCH   1   2
ATOM      2  C   UNL     1      42.202  54.118   8.212  1.00  0.00     0.041 C 
ATOM      3  O   UNL     1      43.346  54.526   8.544  1.00  0.00    -0.550 OA
ATOM      4  O   UNL     1      41.868  54.024   6.867  1.00  0.00    -0.550 OA
ENDBRANCH   1   2
BRANCH   1   5
ATOM      5  C   UNL     1      40.431  52.506   8.884  1.00  0.00     0.003 C 
ATOM      6  C   UNL     1      41.371  51.307   8.824  1.00  0.00     0.004 C 
ENDBRANCH   1   5
TORSDOF 2
ENDMDL
MODEL 3
REMARK VINA RESULT:    -2.587     18.740     19.512
REMARK INTER + INTRA:          -2.908
REMARK INTER:                  -2.861
REMARK INTRA:                  -0.047
REMARK UNBOUND:                -0.019
REMARK SMILES CCCC(=O)[O-]
REMARK SMILES IDX 3 1 4 2 5 3 6 4 2 5 1 6
REMARK H PARENT
REMARK Flexibility Score: inf
ROOT
ATOM      1  C   UNL     1      30.043  53.185  25.254  1.00  0.00     0.052 C 
ENDROOT
BRANCH   1   2
ATOM      2  C   UNL     1      29.775  51.756  24.905  1.00  0.00     0.041 C 
ATOM      3  O   UNL     1      29.253  50.983  25.752  1.00  0.00    -0.550 OA
ATOM      4  O   UNL     1      30.145  51.263  23.661  1.00  0.00    -0.550 OA
ENDBRANCH   1   2
BRANCH   1   5
ATOM      5  C   UNL     1      31.257  53.707  24.481  1.00  0.00     0.003 C 
ATOM      6  C   UNL     1      32.546  53.493  25.270  1.00  0.00     0.004 C 
ENDBRANCH   1   5
TORSDOF 2
ENDMDL
MODEL 4
REMARK VINA RESULT:    -2.576     18.624     19.200
REMARK INTER + INTRA:          -2.896
REMARK INTER:                  -2.831
REMARK INTRA:                  -0.066
REMARK UNBOUND:                -0.019
REMARK SMILES CCCC(=O)[O-]
REMARK SMILES IDX 3 1 4 2 5 3 6 4 2 5 1 6
REMARK H PARENT
REMARK Flexibility Score: inf
ROOT
ATOM      1  C   UNL     1      30.246  53.163  25.324  1.00  0.00     0.052 C 
ENDROOT
BRANCH   1   2
ATOM      2  C   UNL     1      31.345  53.957  24.692  1.00  0.00     0.041 C 
ATOM      3  O   UNL     1      31.079  54.822  23.816  1.00  0.00    -0.550 OA
ATOM      4  O   UNL     1      32.668  53.709  25.036  1.00  0.00    -0.550 OA
ENDBRANCH   1   2
BRANCH   1   5
ATOM      5  C   UNL     1      30.458  51.666  25.078  1.00  0.00     0.003 C 
ATOM      6  C   UNL     1      30.453  51.347  23.586  1.00  0.00     0.004 C 
ENDBRANCH   1   5
TORSDOF 2
ENDMDL
MODEL 5
REMARK VINA RESULT:    -2.540     18.594     19.379
REMARK INTER + INTRA:          -2.856
REMARK INTER:                  -2.785
REMARK INTRA:                  -0.071
REMARK UNBOUND:                -0.019
REMARK SMILES CCCC(=O)[O-]
REMARK SMILES IDX 3 1 4 2 5 3 6 4 2 5 1 6
REMARK H PARENT
REMARK Flexibility Score: inf
ROOT
ATOM      1  C   UNL     1      31.125  51.847  23.890  1.00  0.00     0.052 C 
ENDROOT
BRANCH   1   2
ATOM      2  C   UNL     1      31.549  53.118  24.554  1.00  0.00     0.041 C 
ATOM      3  O   UNL     1      30.881  54.172  24.390  1.00  0.00    -0.550 OA
ATOM      4  O   UNL     1      32.709  53.150  25.318  1.00  0.00    -0.550 OA
ENDBRANCH   1   2
BRANCH   1   5
ATOM      5  C   UNL     1      29.720  51.445  24.349  1.00  0.00     0.003 C 
ATOM      6  C   UNL     1      29.708  51.084  25.831  1.00  0.00     0.004 C 
ENDBRANCH   1   5
TORSDOF 2
ENDMDL
MODEL 6
REMARK VINA RESULT:    -2.519     18.392     18.905
REMARK INTER + INTRA:          -2.833
REMARK INTER:                  -2.773
REMARK INTRA:                  -0.060
REMARK UNBOUND:                -0.019
REMARK SMILES CCCC(=O)[O-]
REMARK SMILES IDX 3 1 4 2 5 3 6 4 2 5 1 6
REMARK H PARENT
REMARK Flexibility Score: inf
ROOT
ATOM      1  C   UNL     1      32.256  50.857  24.707  1.00  0.00     0.052 C 
ENDROOT
BRANCH   1   2
ATOM      2  C   UNL     1      30.891  51.250  24.237  1.00  0.00     0.041 C 
ATOM      3  O   UNL     1      30.734  51.751  23.093  1.00  0.00    -0.550 OA
ATOM      4  O   UNL     1      29.797  51.105  25.082  1.00  0.00    -0.550 OA
ENDBRANCH   1   2
BRANCH   1   5
ATOM      5  C   UNL     1      32.688  51.733  25.887  1.00  0.00     0.003 C 
ATOM      6  C   UNL     1      32.879  53.184  25.455  1.00  0.00     0.004 C 
ENDBRANCH   1   5
TORSDOF 2
ENDMDL
MODEL 7
REMARK VINA RESULT:    -2.463     18.206     18.542
REMARK INTER + INTRA:          -2.770
REMARK INTER:                  -2.761
REMARK INTRA:                  -0.008
REMARK UNBOUND:                -0.019
REMARK SMILES CCCC(=O)[O-]
REMARK SMILES IDX 3 1 4 2 5 3 6 4 2 5 1 6
REMARK H PARENT
REMARK Flexibility Score: inf
ROOT
ATOM      1  C   UNL     1      32.178  51.512  25.251  1.00  0.00     0.052 C 
ENDROOT
BRANCH   1   2
ATOM      2  C   UNL     1      31.213  52.066  24.252  1.00  0.00     0.041 C 
ATOM      3  O   UNL     1      31.124  53.311  24.080  1.00  0.00    -0.550 OA
ATOM      4  O   UNL     1      30.377  51.212  23.545  1.00  0.00    -0.550 OA
ENDBRANCH   1   2
BRANCH   1   5
ATOM      5  C   UNL     1      32.828  50.233  24.715  1.00  0.00     0.003 C 
ATOM      6  C   UNL     1      34.321  50.201  25.026  1.00  0.00     0.004 C 
ENDBRANCH   1   5
TORSDOF 2
ENDMDL
MODEL 8
REMARK VINA RESULT:    -2.446     18.335     18.981
REMARK INTER + INTRA:          -2.750
REMARK INTER:                  -2.712
REMARK INTRA:                  -0.038
REMARK UNBOUND:                -0.019
REMARK SMILES CCCC(=O)[O-]
REMARK SMILES IDX 3 1 4 2 5 3 6 4 2 5 1 6
REMARK H PARENT
REMARK Flexibility Score: inf
ROOT
ATOM      1  C   UNL     1      32.098  51.662  24.857  1.00  0.00     0.052 C 
ENDROOT
BRANCH   1   2
ATOM      2  C   UNL     1      32.868  50.431  25.215  1.00  0.00     0.041 C 
ATOM      3  O   UNL     1      32.366  49.571  25.986  1.00  0.00    -0.550 OA
ATOM      4  O   UNL     1      34.160  50.255  24.736  1.00  0.00    -0.550 OA
ENDBRANCH   1   2
BRANCH   1   5
ATOM      5  C   UNL     1      30.953  51.318  23.900  1.00  0.00     0.003 C 
ATOM      6  C   UNL     1      29.600  51.429  24.598  1.00  0.00     0.004 C 
ENDBRANCH   1   5
TORSDOF 2
ENDMDL
