MODEL 1
REMARK VINA RESULT:    -3.975      0.000      0.000
REMARK INTER + INTRA:         -12.525
REMARK INTER:                  -9.088
REMARK INTRA:                  -3.437
REMARK UNBOUND:                -3.437
REMARK SMILES CCCCCCCCCCCCCCCCCCCCCCCC(=O)[O-]
REMARK SMILES IDX 13 1 14 2 15 3 16 4 17 5 18 6 19 7 20 8 21 9 22 10 23 11
REMARK SMILES IDX 24 12 25 13 26 14 12 15 11 16 10 17 9 18 8 19 7 20 6 21 5 22
REMARK SMILES IDX 4 23 3 24 2 25 1 26
REMARK H PARENT
REMARK Flexibility Score: inf
ROOT
ATOM      1  C   UNL     1      10.343 -17.625 -22.176  1.00  0.00     0.000 C 
ENDROOT
BRANCH   1   2
ATOM      2  C   UNL     1      11.443 -18.148 -23.119  1.00  0.00     0.000 C 
BRANCH   2   3
ATOM      3  C   UNL     1      11.789 -17.218 -24.297  1.00  0.00     0.000 C 
BRANCH   3   4
ATOM      4  C   UNL     1      10.899 -15.968 -24.354  1.00  0.00     0.000 C 
BRANCH   4   5
ATOM      5  C   UNL     1       9.797 -16.126 -25.409  1.00  0.00     0.000 C 
BRANCH   5   6
ATOM      6  C   UNL     1       8.456 -15.514 -24.972  1.00  0.00     0.000 C 
BRANCH   6   7
ATOM      7  C   UNL     1       8.336 -14.005 -25.273  1.00  0.00     0.000 C 
BRANCH   7   8
ATOM      8  C   UNL     1       8.528 -13.140 -24.015  1.00  0.00     0.000 C 
BRANCH   8   9
ATOM      9  C   UNL     1       9.882 -12.400 -24.020  1.00  0.00     0.000 C 
BRANCH   9  10
ATOM     10  C   UNL     1      10.575 -12.373 -22.647  1.00  0.00     0.006 C 
BRANCH  10  11
ATOM     11  C   UNL     1      10.165 -13.547 -21.749  1.00  0.00     0.053 C 
BRANCH  11  12
ATOM     12  C   UNL     1      10.325 -13.190 -20.304  1.00  0.00     0.041 C 
ATOM     13  O   UNL     1      10.196 -11.991 -19.930  1.00  0.00    -0.550 OA
ATOM     14  O   UNL     1      10.608 -14.180 -19.368  1.00  0.00    -0.550 OA
ENDBRANCH  11  12
ENDBRANCH  10  11
ENDBRANCH   9  10
ENDBRANCH   8   9
ENDBRANCH   7   8
ENDBRANCH   6   7
ENDBRANCH   5   6
ENDBRANCH   4   5
ENDBRANCH   3   4
ENDBRANCH   2   3
ENDBRANCH   1   2
BRANCH   1  15
ATOM     15  C   UNL     1       9.015 -18.381 -22.328  1.00  0.00     0.000 C 
BRANCH  15  16
ATOM     16  C   UNL     1       9.243 -19.777 -22.927  1.00  0.00     0.000 C 
BRANCH  16  17
ATOM     17  C   UNL     1       8.359 -20.050 -24.158  1.00  0.00     0.000 C 
BRANCH  17  18
ATOM     18  C   UNL     1       8.954 -19.585 -25.503  1.00  0.00    -0.000 C 
BRANCH  18  19
ATOM     19  C   UNL     1      10.052 -20.499 -26.085  1.00  0.00    -0.000 C 
BRANCH  19  20
ATOM     20  C   UNL     1      11.269 -19.755 -26.666  1.00  0.00    -0.000 C 
BRANCH  20  21
ATOM     21  C   UNL     1      11.033 -19.265 -28.106  1.00  0.00    -0.000 C 
BRANCH  21  22
ATOM     22  C   UNL     1      11.196 -17.744 -28.247  1.00  0.00    -0.000 C 
BRANCH  22  23
ATOM     23  C   UNL     1      12.598 -17.259 -27.837  1.00  0.00    -0.000 C 
BRANCH  23  24
ATOM     24  C   UNL     1      13.583 -17.215 -29.019  1.00  0.00    -0.000 C 
BRANCH  24  25
ATOM     25  C   UNL     1      14.694 -16.157 -28.892  1.00  0.00    -0.003 C 
ATOM     26  C   UNL     1      15.570 -16.358 -27.656  1.00  0.00     0.004 C 
ENDBRANCH  24  25
ENDBRANCH  23  24
ENDBRANCH  22  23
ENDBRANCH  21  22
ENDBRANCH  20  21
ENDBRANCH  19  20
ENDBRANCH  18  19
ENDBRANCH  17  18
ENDBRANCH  16  17
ENDBRANCH  15  16
ENDBRANCH   1  15
TORSDOF 22
ENDMDL
MODEL 2
REMARK VINA RESULT:    -3.949      1.120      2.101
REMARK INTER + INTRA:         -12.464
REMARK INTER:                  -9.089
REMARK INTRA:                  -3.376
REMARK UNBOUND:                -3.437
REMARK SMILES CCCCCCCCCCCCCCCCCCCCCCCC(=O)[O-]
REMARK SMILES IDX 13 1 14 2 15 3 16 4 17 5 18 6 19 7 20 8 21 9 22 10 23 11
REMARK SMILES IDX 24 12 25 13 26 14 12 15 11 16 10 17 9 18 8 19 7 20 6 21 5 22
REMARK SMILES IDX 4 23 3 24 2 25 1 26
REMARK H PARENT
REMARK Flexibility Score: inf
ROOT
ATOM      1  C   UNL     1      11.752 -17.226 -24.049  1.00  0.00     0.000 C 
ENDROOT
BRANCH   1   2
ATOM      2  C   UNL     1      10.763 -16.049 -24.151  1.00  0.00     0.000 C 
BRANCH   2   3
ATOM      3  C   UNL     1      10.129 -15.847 -25.540  1.00  0.00     0.000 C 
BRANCH   3   4
ATOM      4  C   UNL     1       8.595 -15.808 -25.498  1.00  0.00     0.000 C 
BRANCH   4   5
ATOM      5  C   UNL     1       8.075 -14.390 -25.766  1.00  0.00     0.000 C 
BRANCH   5   6
ATOM      6  C   UNL     1       8.200 -13.464 -24.545  1.00  0.00     0.000 C 
BRANCH   6   7
ATOM      7  C   UNL     1       8.968 -12.156 -24.835  1.00  0.00     0.000 C 
BRANCH   7   8
ATOM      8  C   UNL     1       9.862 -11.728 -23.658  1.00  0.00     0.000 C 
BRANCH   8   9
ATOM      9  C   UNL     1      10.630 -12.919 -23.049  1.00  0.00     0.000 C 
BRANCH   9  10
ATOM     10  C   UNL     1      10.095 -13.360 -21.677  1.00  0.00     0.006 C 
BRANCH  10  11
ATOM     11  C   UNL     1      11.083 -14.249 -20.909  1.00  0.00     0.053 C 
BRANCH  11  12
ATOM     12  C   UNL     1      10.400 -14.945 -19.775  1.00  0.00     0.041 C 
ATOM     13  O   UNL     1       9.154 -15.141 -19.810  1.00  0.00    -0.550 OA
ATOM     14  O   UNL     1      11.138 -15.386 -18.680  1.00  0.00    -0.550 OA
ENDBRANCH  11  12
ENDBRANCH  10  11
ENDBRANCH   9  10
ENDBRANCH   8   9
ENDBRANCH   7   8
ENDBRANCH   6   7
ENDBRANCH   5   6
ENDBRANCH   4   5
ENDBRANCH   3   4
ENDBRANCH   2   3
ENDBRANCH   1   2
BRANCH   1  15
ATOM     15  C   UNL     1      11.469 -18.144 -22.851  1.00  0.00     0.000 C 
BRANCH  15  16
ATOM     16  C   UNL     1      10.011 -18.010 -22.389  1.00  0.00     0.000 C 
BRANCH  16  17
ATOM     17  C   UNL     1       9.138 -19.207 -22.810  1.00  0.00     0.000 C 
BRANCH  17  18
ATOM     18  C   UNL     1       9.920 -20.433 -23.328  1.00  0.00    -0.000 C 
BRANCH  18  19
ATOM     19  C   UNL     1       9.626 -20.827 -24.790  1.00  0.00    -0.000 C 
BRANCH  19  20
ATOM     20  C   UNL     1       9.573 -19.647 -25.778  1.00  0.00    -0.000 C 
BRANCH  20  21
ATOM     21  C   UNL     1      10.868 -19.498 -26.596  1.00  0.00    -0.000 C 
BRANCH  21  22
ATOM     22  C   UNL     1      10.603 -19.088 -28.053  1.00  0.00    -0.000 C 
BRANCH  22  23
ATOM     23  C   UNL     1      11.214 -17.720 -28.403  1.00  0.00    -0.000 C 
BRANCH  23  24
ATOM     24  C   UNL     1      12.543 -17.457 -27.673  1.00  0.00    -0.000 C 
BRANCH  24  25
ATOM     25  C   UNL     1      13.791 -17.493 -28.575  1.00  0.00    -0.003 C 
ATOM     26  C   UNL     1      13.461 -17.319 -30.057  1.00  0.00     0.004 C 
ENDBRANCH  24  25
ENDBRANCH  23  24
ENDBRANCH  22  23
ENDBRANCH  21  22
ENDBRANCH  20  21
ENDBRANCH  19  20
ENDBRANCH  18  19
ENDBRANCH  17  18
ENDBRANCH  16  17
ENDBRANCH  15  16
ENDBRANCH   1  15
TORSDOF 22
ENDMDL
MODEL 3
REMARK VINA RESULT:    -3.802      1.434      2.762
REMARK INTER + INTRA:         -12.128
REMARK INTER:                  -9.748
REMARK INTRA:                  -2.380
REMARK UNBOUND:                -3.437
REMARK SMILES CCCCCCCCCCCCCCCCCCCCCCCC(=O)[O-]
REMARK SMILES IDX 13 1 14 2 15 3 16 4 17 5 18 6 19 7 20 8 21 9 22 10 23 11
REMARK SMILES IDX 24 12 25 13 26 14 12 15 11 16 10 17 9 18 8 19 7 20 6 21 5 22
REMARK SMILES IDX 4 23 3 24 2 25 1 26
REMARK H PARENT
REMARK Flexibility Score: inf
ROOT
ATOM      1  C   UNL     1      11.610 -18.124 -23.289  1.00  0.00     0.000 C 
ENDROOT
BRANCH   1   2
ATOM      2  C   UNL     1      10.853 -17.523 -22.090  1.00  0.00     0.000 C 
BRANCH   2   3
ATOM      3  C   UNL     1       9.323 -17.686 -22.135  1.00  0.00     0.000 C 
BRANCH   3   4
ATOM      4  C   UNL     1       8.725 -17.352 -23.509  1.00  0.00     0.000 C 
BRANCH   4   5
ATOM      5  C   UNL     1       7.876 -16.076 -23.442  1.00  0.00     0.000 C 
BRANCH   5   6
ATOM      6  C   UNL     1       8.165 -15.101 -24.596  1.00  0.00     0.000 C 
BRANCH   6   7
ATOM      7  C   UNL     1       9.615 -14.573 -24.612  1.00  0.00     0.000 C 
BRANCH   7   8
ATOM      8  C   UNL     1       9.692 -13.063 -24.324  1.00  0.00     0.000 C 
BRANCH   8   9
ATOM      9  C   UNL     1       9.536 -12.750 -22.821  1.00  0.00     0.000 C 
BRANCH   9  10
ATOM     10  C   UNL     1      10.533 -13.506 -21.927  1.00  0.00     0.006 C 
BRANCH  10  11
ATOM     11  C   UNL     1       9.845 -14.323 -20.825  1.00  0.00     0.053 C 
BRANCH  11  12
ATOM     12  C   UNL     1      10.576 -14.182 -19.526  1.00  0.00     0.041 C 
ATOM     13  O   UNL     1      10.887 -15.207 -18.860  1.00  0.00    -0.550 OA
ATOM     14  O   UNL     1      10.921 -12.919 -19.054  1.00  0.00    -0.550 OA
ENDBRANCH  11  12
ENDBRANCH  10  11
ENDBRANCH   9  10
ENDBRANCH   8   9
ENDBRANCH   7   8
ENDBRANCH   6   7
ENDBRANCH   5   6
ENDBRANCH   4   5
ENDBRANCH   3   4
ENDBRANCH   2   3
ENDBRANCH   1   2
BRANCH   1  15
ATOM     15  C   UNL     1      11.184 -19.565 -23.604  1.00  0.00     0.000 C 
BRANCH  15  16
ATOM     16  C   UNL     1      10.872 -19.733 -25.098  1.00  0.00     0.000 C 
BRANCH  16  17
ATOM     17  C   UNL     1      11.282 -18.507 -25.935  1.00  0.00     0.000 C 
BRANCH  17  18
ATOM     18  C   UNL     1      10.580 -18.389 -27.304  1.00  0.00    -0.000 C 
BRANCH  18  19
ATOM     19  C   UNL     1      11.438 -17.774 -28.429  1.00  0.00    -0.000 C 
BRANCH  19  20
ATOM     20  C   UNL     1      12.781 -17.182 -27.965  1.00  0.00    -0.000 C 
BRANCH  20  21
ATOM     21  C   UNL     1      13.931 -17.480 -28.944  1.00  0.00    -0.000 C 
BRANCH  21  22
ATOM     22  C   UNL     1      14.832 -16.259 -29.187  1.00  0.00    -0.000 C 
BRANCH  22  23
ATOM     23  C   UNL     1      15.957 -16.138 -28.143  1.00  0.00    -0.000 C 
BRANCH  23  24
ATOM     24  C   UNL     1      16.579 -17.496 -27.776  1.00  0.00    -0.000 C 
BRANCH  24  25
ATOM     25  C   UNL     1      17.860 -17.850 -28.555  1.00  0.00    -0.003 C 
ATOM     26  C   UNL     1      17.947 -19.333 -28.917  1.00  0.00     0.004 C 
ENDBRANCH  24  25
ENDBRANCH  23  24
ENDBRANCH  22  23
ENDBRANCH  21  22
ENDBRANCH  20  21
ENDBRANCH  19  20
ENDBRANCH  18  19
ENDBRANCH  17  18
ENDBRANCH  16  17
ENDBRANCH  15  16
ENDBRANCH   1  15
TORSDOF 22
ENDMDL
MODEL 4
REMARK VINA RESULT:    -3.759      1.725      2.964
REMARK INTER + INTRA:         -12.032
REMARK INTER:                  -8.004
REMARK INTRA:                  -4.028
REMARK UNBOUND:                -3.437
REMARK SMILES CCCCCCCCCCCCCCCCCCCCCCCC(=O)[O-]
REMARK SMILES IDX 13 1 14 2 15 3 16 4 17 5 18 6 19 7 20 8 21 9 22 10 23 11
REMARK SMILES IDX 24 12 25 13 26 14 12 15 11 16 10 17 9 18 8 19 7 20 6 21 5 22
REMARK SMILES IDX 4 23 3 24 2 25 1 26
REMARK H PARENT
REMARK Flexibility Score: inf
ROOT
ATOM      1  C   UNL     1      11.617 -17.408 -26.053  1.00  0.00     0.000 C 
ENDROOT
BRANCH   1   2
ATOM      2  C   UNL     1      11.632 -17.226 -24.524  1.00  0.00     0.000 C 
BRANCH   2   3
ATOM      3  C   UNL     1      11.291 -18.491 -23.713  1.00  0.00     0.000 C 
BRANCH   3   4
ATOM      4  C   UNL     1      10.033 -18.326 -22.848  1.00  0.00     0.000 C 
BRANCH   4   5
ATOM      5  C   UNL     1       8.796 -18.075 -23.721  1.00  0.00     0.000 C 
BRANCH   5   6
ATOM      6  C   UNL     1       8.079 -16.758 -23.381  1.00  0.00     0.000 C 
BRANCH   6   7
ATOM      7  C   UNL     1       8.169 -15.697 -24.499  1.00  0.00     0.000 C 
BRANCH   7   8
ATOM      8  C   UNL     1       9.277 -14.662 -24.238  1.00  0.00     0.000 C 
BRANCH   8   9
ATOM      9  C   UNL     1       9.252 -14.139 -22.786  1.00  0.00     0.000 C 
BRANCH   9  10
ATOM     10  C   UNL     1      10.628 -14.155 -22.101  1.00  0.00     0.006 C 
BRANCH  10  11
ATOM     11  C   UNL     1      10.761 -15.268 -21.054  1.00  0.00     0.053 C 
BRANCH  11  12
ATOM     12  C   UNL     1      10.830 -14.692 -19.674  1.00  0.00     0.041 C 
ATOM     13  O   UNL     1      10.530 -13.482 -19.477  1.00  0.00    -0.550 OA
ATOM     14  O   UNL     1      11.219 -15.492 -18.603  1.00  0.00    -0.550 OA
ENDBRANCH  11  12
ENDBRANCH  10  11
ENDBRANCH   9  10
ENDBRANCH   8   9
ENDBRANCH   7   8
ENDBRANCH   6   7
ENDBRANCH   5   6
ENDBRANCH   4   5
ENDBRANCH   3   4
ENDBRANCH   2   3
ENDBRANCH   1   2
BRANCH   1  15
ATOM     15  C   UNL     1      11.294 -18.847 -26.481  1.00  0.00     0.000 C 
BRANCH  15  16
ATOM     16  C   UNL     1       9.989 -18.899 -27.290  1.00  0.00     0.000 C 
BRANCH  16  17
ATOM     17  C   UNL     1       9.414 -17.502 -27.588  1.00  0.00     0.000 C 
BRANCH  17  18
ATOM     18  C   UNL     1       8.877 -17.310 -29.021  1.00  0.00    -0.000 C 
BRANCH  18  19
ATOM     19  C   UNL     1       9.958 -17.182 -30.114  1.00  0.00    -0.000 C 
BRANCH  19  20
ATOM     20  C   UNL     1       9.939 -18.298 -31.175  1.00  0.00    -0.000 C 
BRANCH  20  21
ATOM     21  C   UNL     1      11.302 -18.995 -31.329  1.00  0.00    -0.000 C 
BRANCH  21  22
ATOM     22  C   UNL     1      12.418 -18.293 -30.539  1.00  0.00    -0.000 C 
BRANCH  22  23
ATOM     23  C   UNL     1      13.124 -19.236 -29.549  1.00  0.00    -0.000 C 
BRANCH  23  24
ATOM     24  C   UNL     1      14.171 -18.515 -28.682  1.00  0.00    -0.000 C 
BRANCH  24  25
ATOM     25  C   UNL     1      14.158 -16.980 -28.799  1.00  0.00    -0.003 C 
ATOM     26  C   UNL     1      15.081 -16.297 -27.790  1.00  0.00     0.004 C 
ENDBRANCH  24  25
ENDBRANCH  23  24
ENDBRANCH  22  23
ENDBRANCH  21  22
ENDBRANCH  20  21
ENDBRANCH  19  20
ENDBRANCH  18  19
ENDBRANCH  17  18
ENDBRANCH  16  17
ENDBRANCH  15  16
ENDBRANCH   1  15
TORSDOF 22
ENDMDL
MODEL 5
REMARK VINA RESULT:    -3.745     14.819     18.311
REMARK INTER + INTRA:         -11.998
REMARK INTER:                  -7.990
REMARK INTRA:                  -4.007
REMARK UNBOUND:                -3.437
REMARK SMILES CCCCCCCCCCCCCCCCCCCCCCCC(=O)[O-]
REMARK SMILES IDX 13 1 14 2 15 3 16 4 17 5 18 6 19 7 20 8 21 9 22 10 23 11
REMARK SMILES IDX 24 12 25 13 26 14 12 15 11 16 10 17 9 18 8 19 7 20 6 21 5 22
REMARK SMILES IDX 4 23 3 24 2 25 1 26
REMARK H PARENT
REMARK Flexibility Score: inf
ROOT
ATOM      1  C   UNL     1      22.702  -2.575 -29.921  1.00  0.00     0.000 C 
ENDROOT
BRANCH   1   2
ATOM      2  C   UNL     1      23.603  -2.175 -28.738  1.00  0.00     0.000 C 
BRANCH   2   3
ATOM      3  C   UNL     1      24.087  -3.345 -27.861  1.00  0.00     0.000 C 
BRANCH   3   4
ATOM      4  C   UNL     1      24.124  -4.682 -28.616  1.00  0.00     0.000 C 
BRANCH   4   5
ATOM      5  C   UNL     1      23.033  -5.631 -28.104  1.00  0.00     0.000 C 
BRANCH   5   6
ATOM      6  C   UNL     1      23.298  -6.137 -26.677  1.00  0.00     0.000 C 
BRANCH   6   7
ATOM      7  C   UNL     1      23.614  -7.646 -26.603  1.00  0.00     0.000 C 
BRANCH   7   8
ATOM      8  C   UNL     1      23.738  -8.288 -27.996  1.00  0.00     0.000 C 
BRANCH   8   9
ATOM      9  C   UNL     1      25.107  -8.969 -28.201  1.00  0.00     0.000 C 
BRANCH   9  10
ATOM     10  C   UNL     1      25.059 -10.178 -29.150  1.00  0.00     0.006 C 
BRANCH  10  11
ATOM     11  C   UNL     1      23.651 -10.456 -29.691  1.00  0.00     0.053 C 
BRANCH  11  12
ATOM     12  C   UNL     1      23.272 -11.888 -29.477  1.00  0.00     0.041 C 
ATOM     13  O   UNL     1      22.794 -12.565 -30.427  1.00  0.00    -0.550 OA
ATOM     14  O   UNL     1      23.454 -12.478 -28.229  1.00  0.00    -0.550 OA
ENDBRANCH  11  12
ENDBRANCH  10  11
ENDBRANCH   9  10
ENDBRANCH   8   9
ENDBRANCH   7   8
ENDBRANCH   6   7
ENDBRANCH   5   6
ENDBRANCH   4   5
ENDBRANCH   3   4
ENDBRANCH   2   3
ENDBRANCH   1   2
BRANCH   1  15
ATOM     15  C   UNL     1      22.532  -1.448 -30.951  1.00  0.00     0.000 C 
BRANCH  15  16
ATOM     16  C   UNL     1      23.463  -1.658 -32.154  1.00  0.00     0.000 C 
BRANCH  16  17
ATOM     17  C   UNL     1      23.873  -3.130 -32.343  1.00  0.00     0.000 C 
BRANCH  17  18
ATOM     18  C   UNL     1      23.282  -3.816 -33.592  1.00  0.00    -0.000 C 
BRANCH  18  19
ATOM     19  C   UNL     1      21.847  -3.385 -33.958  1.00  0.00    -0.000 C 
BRANCH  19  20
ATOM     20  C   UNL     1      20.743  -4.013 -33.089  1.00  0.00    -0.000 C 
BRANCH  20  21
ATOM     21  C   UNL     1      20.981  -5.509 -32.815  1.00  0.00    -0.000 C 
BRANCH  21  22
ATOM     22  C   UNL     1      21.320  -5.794 -31.344  1.00  0.00    -0.000 C 
BRANCH  22  23
ATOM     23  C   UNL     1      21.719  -7.261 -31.103  1.00  0.00    -0.000 C 
BRANCH  23  24
ATOM     24  C   UNL     1      23.032  -7.645 -31.809  1.00  0.00    -0.000 C 
BRANCH  24  25
ATOM     25  C   UNL     1      24.237  -6.752 -31.460  1.00  0.00    -0.003 C 
ATOM     26  C   UNL     1      25.579  -7.456 -31.664  1.00  0.00     0.004 C 
ENDBRANCH  24  25
ENDBRANCH  23  24
ENDBRANCH  22  23
ENDBRANCH  21  22
ENDBRANCH  20  21
ENDBRANCH  19  20
ENDBRANCH  18  19
ENDBRANCH  17  18
ENDBRANCH  16  17
ENDBRANCH  15  16
ENDBRANCH   1  15
TORSDOF 22
ENDMDL
MODEL 6
REMARK VINA RESULT:    -3.705     16.010     19.470
REMARK INTER + INTRA:         -11.908
REMARK INTER:                  -8.102
REMARK INTRA:                  -3.806
REMARK UNBOUND:                -3.437
REMARK SMILES CCCCCCCCCCCCCCCCCCCCCCCC(=O)[O-]
REMARK SMILES IDX 13 1 14 2 15 3 16 4 17 5 18 6 19 7 20 8 21 9 22 10 23 11
REMARK SMILES IDX 24 12 25 13 26 14 12 15 11 16 10 17 9 18 8 19 7 20 6 21 5 22
REMARK SMILES IDX 4 23 3 24 2 25 1 26
REMARK H PARENT
REMARK Flexibility Score: inf
ROOT
ATOM      1  C   UNL     1      26.629  -2.184 -26.626  1.00  0.00     0.000 C 
ENDROOT
BRANCH   1   2
ATOM      2  C   UNL     1      27.234  -1.869 -28.006  1.00  0.00     0.000 C 
BRANCH   2   3
ATOM      3  C   UNL     1      27.393  -3.082 -28.942  1.00  0.00     0.000 C 
BRANCH   3   4
ATOM      4  C   UNL     1      26.997  -2.774 -30.393  1.00  0.00     0.000 C 
BRANCH   4   5
ATOM      5  C   UNL     1      26.535  -4.046 -31.117  1.00  0.00     0.000 C 
BRANCH   5   6
ATOM      6  C   UNL     1      26.343  -5.240 -30.168  1.00  0.00     0.000 C 
BRANCH   6   7
ATOM      7  C   UNL     1      24.929  -5.857 -30.228  1.00  0.00     0.000 C 
BRANCH   7   8
ATOM      8  C   UNL     1      24.963  -7.392 -30.322  1.00  0.00     0.000 C 
BRANCH   8   9
ATOM      9  C   UNL     1      23.951  -8.055 -29.363  1.00  0.00     0.000 C 
BRANCH   9  10
ATOM     10  C   UNL     1      24.465  -8.188 -27.920  1.00  0.00     0.006 C 
BRANCH  10  11
ATOM     11  C   UNL     1      23.363  -7.981 -26.873  1.00  0.00     0.053 C 
BRANCH  11  12
ATOM     12  C   UNL     1      23.427  -6.599 -26.302  1.00  0.00     0.041 C 
ATOM     13  O   UNL     1      23.894  -6.414 -25.144  1.00  0.00    -0.550 OA
ATOM     14  O   UNL     1      22.978  -5.514 -27.049  1.00  0.00    -0.550 OA
ENDBRANCH  11  12
ENDBRANCH  10  11
ENDBRANCH   9  10
ENDBRANCH   8   9
ENDBRANCH   7   8
ENDBRANCH   6   7
ENDBRANCH   5   6
ENDBRANCH   4   5
ENDBRANCH   3   4
ENDBRANCH   2   3
ENDBRANCH   1   2
BRANCH   1  15
ATOM     15  C   UNL     1      25.205  -2.754 -26.712  1.00  0.00     0.000 C 
BRANCH  15  16
ATOM     16  C   UNL     1      24.371  -1.995 -27.754  1.00  0.00     0.000 C 
BRANCH  16  17
ATOM     17  C   UNL     1      23.568  -2.932 -28.675  1.00  0.00     0.000 C 
BRANCH  17  18
ATOM     18  C   UNL     1      22.744  -2.221 -29.769  1.00  0.00    -0.000 C 
BRANCH  18  19
ATOM     19  C   UNL     1      23.356  -2.270 -31.184  1.00  0.00    -0.000 C 
BRANCH  19  20
ATOM     20  C   UNL     1      22.390  -1.879 -32.318  1.00  0.00    -0.000 C 
BRANCH  20  21
ATOM     21  C   UNL     1      22.483  -2.824 -33.530  1.00  0.00    -0.000 C 
BRANCH  21  22
ATOM     22  C   UNL     1      23.150  -4.164 -33.185  1.00  0.00    -0.000 C 
BRANCH  22  23
ATOM     23  C   UNL     1      22.203  -5.362 -33.379  1.00  0.00    -0.000 C 
BRANCH  23  24
ATOM     24  C   UNL     1      21.930  -6.125 -32.071  1.00  0.00    -0.000 C 
BRANCH  24  25
ATOM     25  C   UNL     1      21.120  -5.338 -31.024  1.00  0.00    -0.003 C 
ATOM     26  C   UNL     1      19.840  -4.728 -31.596  1.00  0.00     0.004 C 
ENDBRANCH  24  25
ENDBRANCH  23  24
ENDBRANCH  22  23
ENDBRANCH  21  22
ENDBRANCH  20  21
ENDBRANCH  19  20
ENDBRANCH  18  19
ENDBRANCH  17  18
ENDBRANCH  16  17
ENDBRANCH  15  16
ENDBRANCH   1  15
TORSDOF 22
ENDMDL
MODEL 7
REMARK VINA RESULT:    -3.680     14.331     18.641
REMARK INTER + INTRA:         -11.850
REMARK INTER:                  -7.963
REMARK INTRA:                  -3.887
REMARK UNBOUND:                -3.437
REMARK SMILES CCCCCCCCCCCCCCCCCCCCCCCC(=O)[O-]
REMARK SMILES IDX 13 1 14 2 15 3 16 4 17 5 18 6 19 7 20 8 21 9 22 10 23 11
REMARK SMILES IDX 24 12 25 13 26 14 12 15 11 16 10 17 9 18 8 19 7 20 6 21 5 22
REMARK SMILES IDX 4 23 3 24 2 25 1 26
REMARK H PARENT
REMARK Flexibility Score: inf
ROOT
ATOM      1  C   UNL     1      23.636  -8.172 -27.993  1.00  0.00     0.000 C 
ENDROOT
BRANCH   1   2
ATOM      2  C   UNL     1      24.932  -8.980 -28.189  1.00  0.00     0.000 C 
BRANCH   2   3
ATOM      3  C   UNL     1      25.624  -8.785 -29.551  1.00  0.00     0.000 C 
BRANCH   3   4
ATOM      4  C   UNL     1      25.636  -7.320 -30.011  1.00  0.00     0.000 C 
BRANCH   4   5
ATOM      5  C   UNL     1      25.017  -7.179 -31.407  1.00  0.00     0.000 C 
BRANCH   5   6
ATOM      6  C   UNL     1      24.145  -5.920 -31.552  1.00  0.00     0.000 C 
BRANCH   6   7
ATOM      7  C   UNL     1      22.697  -6.217 -31.995  1.00  0.00     0.000 C 
BRANCH   7   8
ATOM      8  C   UNL     1      21.987  -7.206 -31.053  1.00  0.00     0.000 C 
BRANCH   8   9
ATOM      9  C   UNL     1      21.735  -8.571 -31.728  1.00  0.00     0.000 C 
BRANCH   9  10
ATOM     10  C   UNL     1      22.218  -9.769 -30.895  1.00  0.00     0.006 C 
BRANCH  10  11
ATOM     11  C   UNL     1      22.568 -10.991 -31.755  1.00  0.00     0.053 C 
BRANCH  11  12
ATOM     12  C   UNL     1      21.898 -12.220 -31.227  1.00  0.00     0.041 C 
ATOM     13  O   UNL     1      20.745 -12.145 -30.720  1.00  0.00    -0.550 OA
ATOM     14  O   UNL     1      22.543 -13.452 -31.299  1.00  0.00    -0.550 OA
ENDBRANCH  11  12
ENDBRANCH  10  11
ENDBRANCH   9  10
ENDBRANCH   8   9
ENDBRANCH   7   8
ENDBRANCH   6   7
ENDBRANCH   5   6
ENDBRANCH   4   5
ENDBRANCH   3   4
ENDBRANCH   2   3
ENDBRANCH   1   2
BRANCH   1  15
ATOM     15  C   UNL     1      23.420  -7.729 -26.539  1.00  0.00     0.000 C 
BRANCH  15  16
ATOM     16  C   UNL     1      23.268  -6.203 -26.445  1.00  0.00     0.000 C 
BRANCH  16  17
ATOM     17  C   UNL     1      23.132  -5.531 -27.824  1.00  0.00     0.000 C 
BRANCH  17  18
ATOM     18  C   UNL     1      23.940  -4.229 -27.997  1.00  0.00    -0.000 C 
BRANCH  18  19
ATOM     19  C   UNL     1      23.514  -3.346 -29.188  1.00  0.00    -0.000 C 
BRANCH  19  20
ATOM     20  C   UNL     1      23.573  -1.831 -28.922  1.00  0.00    -0.000 C 
BRANCH  20  21
ATOM     21  C   UNL     1      24.166  -1.493 -27.542  1.00  0.00    -0.000 C 
BRANCH  21  22
ATOM     22  C   UNL     1      25.626  -1.021 -27.625  1.00  0.00    -0.000 C 
BRANCH  22  23
ATOM     23  C   UNL     1      26.601  -1.995 -26.940  1.00  0.00    -0.000 C 
BRANCH  23  24
ATOM     24  C   UNL     1      27.753  -2.432 -27.862  1.00  0.00    -0.000 C 
BRANCH  24  25
ATOM     25  C   UNL     1      27.375  -2.565 -29.348  1.00  0.00    -0.003 C 
ATOM     26  C   UNL     1      27.200  -4.018 -29.791  1.00  0.00     0.004 C 
ENDBRANCH  24  25
ENDBRANCH  23  24
ENDBRANCH  22  23
ENDBRANCH  21  22
ENDBRANCH  20  21
ENDBRANCH  19  20
ENDBRANCH  18  19
ENDBRANCH  17  18
ENDBRANCH  16  17
ENDBRANCH  15  16
ENDBRANCH   1  15
TORSDOF 22
ENDMDL
MODEL 8
REMARK VINA RESULT:    -3.669     14.587     18.694
REMARK INTER + INTRA:         -11.825
REMARK INTER:                  -8.348
REMARK INTRA:                  -3.476
REMARK UNBOUND:                -3.437
REMARK SMILES CCCCCCCCCCCCCCCCCCCCCCCC(=O)[O-]
REMARK SMILES IDX 13 1 14 2 15 3 16 4 17 5 18 6 19 7 20 8 21 9 22 10 23 11
REMARK SMILES IDX 24 12 25 13 26 14 12 15 11 16 10 17 9 18 8 19 7 20 6 21 5 22
REMARK SMILES IDX 4 23 3 24 2 25 1 26
REMARK H PARENT
REMARK Flexibility Score: inf
ROOT
ATOM      1  C   UNL     1      22.803  -1.874 -29.636  1.00  0.00     0.000 C 
ENDROOT
BRANCH   1   2
ATOM      2  C   UNL     1      23.622  -1.339 -28.446  1.00  0.00     0.000 C 
BRANCH   2   3
ATOM      3  C   UNL     1      24.498  -2.387 -27.734  1.00  0.00     0.000 C 
BRANCH   3   4
ATOM      4  C   UNL     1      26.001  -2.103 -27.871  1.00  0.00     0.000 C 
BRANCH   4   5
ATOM      5  C   UNL     1      26.669  -3.120 -28.804  1.00  0.00     0.000 C 
BRANCH   5   6
ATOM      6  C   UNL     1      26.345  -2.878 -30.287  1.00  0.00     0.000 C 
BRANCH   6   7
ATOM      7  C   UNL     1      25.732  -4.105 -30.996  1.00  0.00     0.000 C 
BRANCH   7   8
ATOM      8  C   UNL     1      25.408  -5.246 -30.016  1.00  0.00     0.000 C 
BRANCH   8   9
ATOM      9  C   UNL     1      23.888  -5.427 -29.819  1.00  0.00     0.000 C 
BRANCH   9  10
ATOM     10  C   UNL     1      23.525  -6.424 -28.707  1.00  0.00     0.006 C 
BRANCH  10  11
ATOM     11  C   UNL     1      23.224  -5.739 -27.367  1.00  0.00     0.053 C 
BRANCH  11  12
ATOM     12  C   UNL     1      23.388  -6.699 -26.231  1.00  0.00     0.041 C 
ATOM     13  O   UNL     1      23.967  -6.333 -25.171  1.00  0.00    -0.550 OA
ATOM     14  O   UNL     1      22.896  -7.997 -26.338  1.00  0.00    -0.550 OA
ENDBRANCH  11  12
ENDBRANCH  10  11
ENDBRANCH   9  10
ENDBRANCH   8   9
ENDBRANCH   7   8
ENDBRANCH   6   7
ENDBRANCH   5   6
ENDBRANCH   4   5
ENDBRANCH   3   4
ENDBRANCH   2   3
ENDBRANCH   1   2
BRANCH   1  15
ATOM     15  C   UNL     1      22.716  -0.875 -30.800  1.00  0.00     0.000 C 
BRANCH  15  16
ATOM     16  C   UNL     1      23.311  -1.473 -32.083  1.00  0.00     0.000 C 
BRANCH  16  17
ATOM     17  C   UNL     1      22.755  -2.874 -32.403  1.00  0.00     0.000 C 
BRANCH  17  18
ATOM     18  C   UNL     1      21.588  -2.896 -33.410  1.00  0.00    -0.000 C 
BRANCH  18  19
ATOM     19  C   UNL     1      20.609  -4.078 -33.252  1.00  0.00    -0.000 C 
BRANCH  19  20
ATOM     20  C   UNL     1      21.173  -5.283 -32.477  1.00  0.00    -0.000 C 
BRANCH  20  21
ATOM     21  C   UNL     1      21.669  -6.406 -33.405  1.00  0.00    -0.000 C 
BRANCH  21  22
ATOM     22  C   UNL     1      22.470  -7.482 -32.655  1.00  0.00    -0.000 C 
BRANCH  22  23
ATOM     23  C   UNL     1      21.689  -8.083 -31.472  1.00  0.00    -0.000 C 
BRANCH  23  24
ATOM     24  C   UNL     1      21.899  -9.601 -31.329  1.00  0.00    -0.000 C 
BRANCH  24  25
ATOM     25  C   UNL     1      20.671 -10.458 -31.690  1.00  0.00    -0.003 C 
ATOM     26  C   UNL     1      20.860 -11.938 -31.358  1.00  0.00     0.004 C 
ENDBRANCH  24  25
ENDBRANCH  23  24
ENDBRANCH  22  23
ENDBRANCH  21  22
ENDBRANCH  20  21
ENDBRANCH  19  20
ENDBRANCH  18  19
ENDBRANCH  17  18
ENDBRANCH  16  17
ENDBRANCH  15  16
ENDBRANCH   1  15
TORSDOF 22
ENDMDL
MODEL 9
REMARK VINA RESULT:    -3.659     16.264     19.041
REMARK INTER + INTRA:         -11.801
REMARK INTER:                  -7.444
REMARK INTRA:                  -4.357
REMARK UNBOUND:                -3.437
REMARK SMILES CCCCCCCCCCCCCCCCCCCCCCCC(=O)[O-]
REMARK SMILES IDX 13 1 14 2 15 3 16 4 17 5 18 6 19 7 20 8 21 9 22 10 23 11
REMARK SMILES IDX 24 12 25 13 26 14 12 15 11 16 10 17 9 18 8 19 7 20 6 21 5 22
REMARK SMILES IDX 4 23 3 24 2 25 1 26
REMARK H PARENT
REMARK Flexibility Score: inf
ROOT
ATOM      1  C   UNL     1      23.046  -7.251 -31.247  1.00  0.00     0.000 C 
ENDROOT
BRANCH   1   2
ATOM      2  C   UNL     1      24.006  -6.474 -32.167  1.00  0.00     0.000 C 
BRANCH   2   3
ATOM      3  C   UNL     1      24.899  -5.440 -31.454  1.00  0.00     0.000 C 
BRANCH   3   4
ATOM      4  C   UNL     1      25.150  -5.783 -29.979  1.00  0.00     0.000 C 
BRANCH   4   5
ATOM      5  C   UNL     1      24.664  -4.653 -29.062  1.00  0.00     0.000 C 
BRANCH   5   6
ATOM      6  C   UNL     1      23.356  -4.995 -28.330  1.00  0.00     0.000 C 
BRANCH   6   7
ATOM      7  C   UNL     1      23.549  -5.950 -27.132  1.00  0.00     0.000 C 
BRANCH   7   8
ATOM      8  C   UNL     1      23.176  -7.403 -27.475  1.00  0.00     0.000 C 
BRANCH   8   9
ATOM      9  C   UNL     1      24.417  -8.318 -27.547  1.00  0.00     0.000 C 
BRANCH   9  10
ATOM     10  C   UNL     1      24.426  -9.249 -28.770  1.00  0.00     0.006 C 
BRANCH  10  11
ATOM     11  C   UNL     1      25.812  -9.841 -29.059  1.00  0.00     0.053 C 
BRANCH  11  12
ATOM     12  C   UNL     1      26.141 -10.923 -28.079  1.00  0.00     0.041 C 
ATOM     13  O   UNL     1      25.647 -12.076 -28.219  1.00  0.00    -0.550 OA
ATOM     14  O   UNL     1      26.999 -10.662 -27.015  1.00  0.00    -0.550 OA
ENDBRANCH  11  12
ENDBRANCH  10  11
ENDBRANCH   9  10
ENDBRANCH   8   9
ENDBRANCH   7   8
ENDBRANCH   6   7
ENDBRANCH   5   6
ENDBRANCH   4   5
ENDBRANCH   3   4
ENDBRANCH   2   3
ENDBRANCH   1   2
BRANCH   1  15
ATOM     15  C   UNL     1      21.567  -6.981 -31.560  1.00  0.00     0.000 C 
BRANCH  15  16
ATOM     16  C   UNL     1      21.094  -5.678 -30.897  1.00  0.00     0.000 C 
BRANCH  16  17
ATOM     17  C   UNL     1      20.640  -4.619 -31.919  1.00  0.00     0.000 C 
BRANCH  17  18
ATOM     18  C   UNL     1      21.714  -3.579 -32.299  1.00  0.00    -0.000 C 
BRANCH  18  19
ATOM     19  C   UNL     1      22.288  -2.768 -31.119  1.00  0.00    -0.000 C 
BRANCH  19  20
ATOM     20  C   UNL     1      23.533  -1.928 -31.459  1.00  0.00    -0.000 C 
BRANCH  20  21
ATOM     21  C   UNL     1      24.159  -1.265 -30.219  1.00  0.00    -0.000 C 
BRANCH  21  22
ATOM     22  C   UNL     1      23.180  -1.177 -29.038  1.00  0.00    -0.000 C 
BRANCH  22  23
ATOM     23  C   UNL     1      23.888  -1.265 -27.675  1.00  0.00    -0.000 C 
BRANCH  23  24
ATOM     24  C   UNL     1      25.422  -1.302 -27.801  1.00  0.00    -0.000 C 
BRANCH  24  25
ATOM     25  C   UNL     1      26.130  -2.214 -26.782  1.00  0.00    -0.003 C 
ATOM     26  C   UNL     1      25.165  -2.853 -25.782  1.00  0.00     0.004 C 
ENDBRANCH  24  25
ENDBRANCH  23  24
ENDBRANCH  22  23
ENDBRANCH  21  22
ENDBRANCH  20  21
ENDBRANCH  19  20
ENDBRANCH  18  19
ENDBRANCH  17  18
ENDBRANCH  16  17
ENDBRANCH  15  16
ENDBRANCH   1  15
TORSDOF 22
ENDMDL
