MODEL 1
REMARK VINA RESULT:    -4.814      0.000      0.000
REMARK INTER + INTRA:          -5.163
REMARK INTER:                  -5.096
REMARK INTRA:                  -0.068
REMARK UNBOUND:                -0.068
REMARK SMILES CC(=O)c1ccccc1
REMARK SMILES IDX 4 1 5 2 6 3 7 4 8 5 9 6 2 7 1 8 3 9
REMARK H PARENT
REMARK Flexibility Score: inf
ROOT
ATOM      1  C   UNL     1      45.485  31.583  52.869  1.00  0.00     0.017 A 
ATOM      2  C   UNL     1      46.258  32.404  52.021  1.00  0.00     0.012 A 
ATOM      3  C   UNL     1      45.828  32.681  50.719  1.00  0.00     0.001 A 
ATOM      4  C   UNL     1      44.629  32.148  50.247  1.00  0.00     0.000 A 
ATOM      5  C   UNL     1      43.853  31.334  51.074  1.00  0.00     0.001 A 
ATOM      6  C   UNL     1      44.276  31.053  52.376  1.00  0.00     0.012 A 
ENDROOT
BRANCH   1   7
ATOM      7  C   UNL     1      45.922  31.275  54.257  1.00  0.00     0.159 C 
ATOM      8  C   UNL     1      46.853  32.176  55.013  1.00  0.00     0.093 C 
ATOM      9  O   UNL     1      45.506  30.230  54.827  1.00  0.00    -0.295 OA
ENDBRANCH   1   7
TORSDOF 1
ENDMDL
MODEL 2
REMARK VINA RESULT:    -4.807      0.076      1.615
REMARK INTER + INTRA:          -5.156
REMARK INTER:                  -5.087
REMARK INTRA:                  -0.070
REMARK UNBOUND:                -0.068
REMARK SMILES CC(=O)c1ccccc1
REMARK SMILES IDX 4 1 5 2 6 3 7 4 8 5 9 6 2 7 1 8 3 9
REMARK H PARENT
REMARK Flexibility Score: inf
ROOT
ATOM      1  C   UNL     1      45.482  31.571  52.896  1.00  0.00     0.017 A 
ATOM      2  C   UNL     1      44.273  31.079  52.360  1.00  0.00     0.012 A 
ATOM      3  C   UNL     1      43.896  31.398  51.052  1.00  0.00     0.001 A 
ATOM      4  C   UNL     1      44.713  32.208  50.263  1.00  0.00     0.000 A 
ATOM      5  C   UNL     1      45.912  32.703  50.780  1.00  0.00     0.001 A 
ATOM      6  C   UNL     1      46.295  32.388  52.086  1.00  0.00     0.012 A 
ENDROOT
BRANCH   1   7
ATOM      7  C   UNL     1      45.903  31.244  54.285  1.00  0.00     0.159 C 
ATOM      8  C   UNL     1      46.878  32.098  55.039  1.00  0.00     0.093 C 
ATOM      9  O   UNL     1      45.436  30.222  54.856  1.00  0.00    -0.295 OA
ENDBRANCH   1   7
TORSDOF 1
ENDMDL
MODEL 3
REMARK VINA RESULT:    -4.772      2.025      3.987
REMARK INTER + INTRA:          -5.118
REMARK INTER:                  -5.060
REMARK INTRA:                  -0.059
REMARK UNBOUND:                -0.068
REMARK SMILES CC(=O)c1ccccc1
REMARK SMILES IDX 4 1 5 2 6 3 7 4 8 5 9 6 2 7 1 8 3 9
REMARK H PARENT
REMARK Flexibility Score: inf
ROOT
ATOM      1  C   UNL     1      45.670  31.994  52.803  1.00  0.00     0.017 A 
ATOM      2  C   UNL     1      45.133  30.705  52.997  1.00  0.00     0.012 A 
ATOM      3  C   UNL     1      45.416  29.988  54.165  1.00  0.00     0.001 A 
ATOM      4  C   UNL     1      46.234  30.544  55.149  1.00  0.00     0.000 A 
ATOM      5  C   UNL     1      46.773  31.820  54.969  1.00  0.00     0.001 A 
ATOM      6  C   UNL     1      46.494  32.541  53.806  1.00  0.00     0.012 A 
ENDROOT
BRANCH   1   7
ATOM      7  C   UNL     1      45.381  32.775  51.569  1.00  0.00     0.159 C 
ATOM      8  C   UNL     1      44.201  33.694  51.471  1.00  0.00     0.093 C 
ATOM      9  O   UNL     1      46.142  32.669  50.569  1.00  0.00    -0.295 OA
ENDBRANCH   1   7
TORSDOF 1
ENDMDL
MODEL 4
REMARK VINA RESULT:    -4.746     13.641     14.265
REMARK INTER + INTRA:          -5.091
REMARK INTER:                  -5.022
REMARK INTRA:                  -0.069
REMARK UNBOUND:                -0.068
REMARK SMILES CC(=O)c1ccccc1
REMARK SMILES IDX 4 1 5 2 6 3 7 4 8 5 9 6 2 7 1 8 3 9
REMARK H PARENT
REMARK Flexibility Score: inf
ROOT
ATOM      1  C   UNL     1      40.747  37.709  64.222  1.00  0.00     0.017 A 
ATOM      2  C   UNL     1      40.533  36.426  64.768  1.00  0.00     0.012 A 
ATOM      3  C   UNL     1      41.617  35.604  65.094  1.00  0.00     0.001 A 
ATOM      4  C   UNL     1      42.923  36.047  64.881  1.00  0.00     0.000 A 
ATOM      5  C   UNL     1      43.150  37.314  64.340  1.00  0.00     0.001 A 
ATOM      6  C   UNL     1      42.072  38.140  64.013  1.00  0.00     0.012 A 
ENDROOT
BRANCH   1   7
ATOM      7  C   UNL     1      39.609  38.600  63.868  1.00  0.00     0.159 C 
ATOM      8  C   UNL     1      39.718  39.634  62.788  1.00  0.00     0.093 C 
ATOM      9  O   UNL     1      38.516  38.494  64.487  1.00  0.00    -0.295 OA
ENDBRANCH   1   7
TORSDOF 1
ENDMDL
MODEL 5
REMARK VINA RESULT:    -4.740     13.624     14.164
REMARK INTER + INTRA:          -5.085
REMARK INTER:                  -5.018
REMARK INTRA:                  -0.067
REMARK UNBOUND:                -0.068
REMARK SMILES CC(=O)c1ccccc1
REMARK SMILES IDX 4 1 5 2 6 3 7 4 8 5 9 6 2 7 1 8 3 9
REMARK H PARENT
REMARK Flexibility Score: inf
ROOT
ATOM      1  C   UNL     1      40.771  37.718  64.205  1.00  0.00     0.017 A 
ATOM      2  C   UNL     1      42.103  38.132  63.997  1.00  0.00     0.012 A 
ATOM      3  C   UNL     1      43.168  37.288  64.333  1.00  0.00     0.001 A 
ATOM      4  C   UNL     1      42.920  36.028  64.878  1.00  0.00     0.000 A 
ATOM      5  C   UNL     1      41.607  35.605  65.089  1.00  0.00     0.001 A 
ATOM      6  C   UNL     1      40.538  36.442  64.756  1.00  0.00     0.012 A 
ENDROOT
BRANCH   1   7
ATOM      7  C   UNL     1      39.624  38.598  63.855  1.00  0.00     0.159 C 
ATOM      8  C   UNL     1      39.719  39.629  62.770  1.00  0.00     0.093 C 
ATOM      9  O   UNL     1      38.535  38.485  64.479  1.00  0.00    -0.295 OA
ENDBRANCH   1   7
TORSDOF 1
ENDMDL
MODEL 6
REMARK VINA RESULT:    -4.709     12.878     13.967
REMARK INTER + INTRA:          -5.052
REMARK INTER:                  -4.992
REMARK INTRA:                  -0.060
REMARK UNBOUND:                -0.068
REMARK SMILES CC(=O)c1ccccc1
REMARK SMILES IDX 4 1 5 2 6 3 7 4 8 5 9 6 2 7 1 8 3 9
REMARK H PARENT
REMARK Flexibility Score: inf
ROOT
ATOM      1  C   UNL     1      41.322  37.356  64.417  1.00  0.00     0.017 A 
ATOM      2  C   UNL     1      41.550  38.380  63.475  1.00  0.00     0.012 A 
ATOM      3  C   UNL     1      40.531  39.279  63.144  1.00  0.00     0.001 A 
ATOM      4  C   UNL     1      39.277  39.171  63.746  1.00  0.00     0.000 A 
ATOM      5  C   UNL     1      39.036  38.162  64.680  1.00  0.00     0.001 A 
ATOM      6  C   UNL     1      40.050  37.260  65.015  1.00  0.00     0.012 A 
ENDROOT
BRANCH   1   7
ATOM      7  C   UNL     1      42.392  36.389  64.784  1.00  0.00     0.159 C 
ATOM      8  C   UNL     1      42.370  34.967  64.310  1.00  0.00     0.093 C 
ATOM      9  O   UNL     1      43.349  36.762  65.514  1.00  0.00    -0.295 OA
ENDBRANCH   1   7
TORSDOF 1
ENDMDL
MODEL 7
REMARK VINA RESULT:    -4.695      1.764      3.615
REMARK INTER + INTRA:          -5.037
REMARK INTER:                  -4.968
REMARK INTRA:                  -0.069
REMARK UNBOUND:                -0.068
REMARK SMILES CC(=O)c1ccccc1
REMARK SMILES IDX 4 1 5 2 6 3 7 4 8 5 9 6 2 7 1 8 3 9
REMARK H PARENT
REMARK Flexibility Score: inf
ROOT
ATOM      1  C   UNL     1      45.581  31.556  52.380  1.00  0.00     0.017 A 
ATOM      2  C   UNL     1      46.413  32.558  52.921  1.00  0.00     0.012 A 
ATOM      3  C   UNL     1      46.793  32.513  54.266  1.00  0.00     0.001 A 
ATOM      4  C   UNL     1      46.352  31.474  55.086  1.00  0.00     0.000 A 
ATOM      5  C   UNL     1      45.527  30.476  54.564  1.00  0.00     0.001 A 
ATOM      6  C   UNL     1      45.144  30.515  53.221  1.00  0.00     0.012 A 
ENDROOT
BRANCH   1   7
ATOM      7  C   UNL     1      45.165  31.584  50.951  1.00  0.00     0.159 C 
ATOM      8  C   UNL     1      45.288  32.822  50.114  1.00  0.00     0.093 C 
ATOM      9  O   UNL     1      44.693  30.545  50.416  1.00  0.00    -0.295 OA
ENDBRANCH   1   7
TORSDOF 1
ENDMDL
MODEL 8
REMARK VINA RESULT:    -4.644      2.262      3.820
REMARK INTER + INTRA:          -4.983
REMARK INTER:                  -4.922
REMARK INTRA:                  -0.061
REMARK UNBOUND:                -0.068
REMARK SMILES CC(=O)c1ccccc1
REMARK SMILES IDX 4 1 5 2 6 3 7 4 8 5 9 6 2 7 1 8 3 9
REMARK H PARENT
REMARK Flexibility Score: inf
ROOT
ATOM      1  C   UNL     1      44.705  32.451  51.599  1.00  0.00     0.017 A 
ATOM      2  C   UNL     1      46.059  32.486  51.990  1.00  0.00     0.012 A 
ATOM      3  C   UNL     1      46.405  32.508  53.345  1.00  0.00     0.001 A 
ATOM      4  C   UNL     1      45.411  32.496  54.324  1.00  0.00     0.000 A 
ATOM      5  C   UNL     1      44.066  32.462  53.951  1.00  0.00     0.001 A 
ATOM      6  C   UNL     1      43.713  32.440  52.599  1.00  0.00     0.012 A 
ENDROOT
BRANCH   1   7
ATOM      7  C   UNL     1      44.314  32.426  50.163  1.00  0.00     0.159 C 
ATOM      8  C   UNL     1      44.711  33.519  49.215  1.00  0.00     0.093 C 
ATOM      9  O   UNL     1      43.630  31.466  49.717  1.00  0.00    -0.295 OA
ENDBRANCH   1   7
TORSDOF 1
ENDMDL
MODEL 9
REMARK VINA RESULT:    -4.640     12.537     13.840
REMARK INTER + INTRA:          -4.979
REMARK INTER:                  -4.919
REMARK INTRA:                  -0.059
REMARK UNBOUND:                -0.068
REMARK SMILES CC(=O)c1ccccc1
REMARK SMILES IDX 4 1 5 2 6 3 7 4 8 5 9 6 2 7 1 8 3 9
REMARK H PARENT
REMARK Flexibility Score: inf
ROOT
ATOM      1  C   UNL     1      41.317  36.950  64.360  1.00  0.00     0.017 A 
ATOM      2  C   UNL     1      39.968  36.818  64.751  1.00  0.00     0.012 A 
ATOM      3  C   UNL     1      39.038  37.815  64.436  1.00  0.00     0.001 A 
ATOM      4  C   UNL     1      39.438  38.950  63.731  1.00  0.00     0.000 A 
ATOM      5  C   UNL     1      40.770  39.094  63.338  1.00  0.00     0.001 A 
ATOM      6  C   UNL     1      41.704  38.103  63.649  1.00  0.00     0.012 A 
ENDROOT
BRANCH   1   7
ATOM      7  C   UNL     1      42.322  35.902  64.685  1.00  0.00     0.159 C 
ATOM      8  C   UNL     1      42.310  34.559  64.018  1.00  0.00     0.093 C 
ATOM      9  O   UNL     1      43.216  36.137  65.542  1.00  0.00    -0.295 OA
ENDBRANCH   1   7
TORSDOF 1
ENDMDL
