MODEL 1
REMARK VINA RESULT:    -4.183      0.000      0.000
REMARK INTER + INTRA:          -5.750
REMARK INTER:                  -5.406
REMARK INTRA:                  -0.345
REMARK UNBOUND:                -0.345
REMARK SMILES CCCCCCC(=O)[O-]
REMARK SMILES IDX 5 1 6 2 7 3 8 4 9 5 4 6 3 7 2 8 1 9
REMARK H PARENT
REMARK Flexibility Score: inf
ROOT
ATOM      1  C   UNL     1       9.143  22.127  -8.598  1.00  0.00     0.006 C 
ENDROOT
BRANCH   1   2
ATOM      2  C   UNL     1      10.044  21.837  -7.390  1.00  0.00     0.053 C 
BRANCH   2   3
ATOM      3  C   UNL     1      10.804  20.557  -7.558  1.00  0.00     0.041 C 
ATOM      4  O   UNL     1      11.966  20.568  -8.042  1.00  0.00    -0.550 OA
ATOM      5  O   UNL     1      10.216  19.348  -7.207  1.00  0.00    -0.550 OA
ENDBRANCH   2   3
ENDBRANCH   1   2
BRANCH   1   6
ATOM      6  C   UNL     1       9.537  23.429  -9.316  1.00  0.00     0.000 C 
BRANCH   6   7
ATOM      7  C   UNL     1      10.950  23.372  -9.927  1.00  0.00    -0.000 C 
BRANCH   7   8
ATOM      8  C   UNL     1      11.872  24.541  -9.537  1.00  0.00    -0.003 C 
ATOM      9  C   UNL     1      12.737  24.240  -8.314  1.00  0.00     0.004 C 
ENDBRANCH   7   8
ENDBRANCH   6   7
ENDBRANCH   1   6
TORSDOF 5
ENDMDL
MODEL 2
REMARK VINA RESULT:    -4.162      2.737      4.194
REMARK INTER + INTRA:          -5.723
REMARK INTER:                  -5.566
REMARK INTRA:                  -0.157
REMARK UNBOUND:                -0.345
REMARK SMILES CCCCCCC(=O)[O-]
REMARK SMILES IDX 5 1 6 2 7 3 8 4 9 5 4 6 3 7 2 8 1 9
REMARK H PARENT
REMARK Flexibility Score: inf
ROOT
ATOM      1  C   UNL     1      10.094  22.928  -9.711  1.00  0.00     0.006 C 
ENDROOT
BRANCH   1   2
ATOM      2  C   UNL     1      11.165  23.071  -8.621  1.00  0.00     0.053 C 
BRANCH   2   3
ATOM      3  C   UNL     1      12.117  24.189  -8.921  1.00  0.00     0.041 C 
ATOM      4  O   UNL     1      12.976  24.537  -8.069  1.00  0.00    -0.550 OA
ATOM      5  O   UNL     1      12.035  24.865 -10.132  1.00  0.00    -0.550 OA
ENDBRANCH   2   3
ENDBRANCH   1   2
BRANCH   1   6
ATOM      6  C   UNL     1       8.818  22.248  -9.184  1.00  0.00     0.000 C 
BRANCH   6   7
ATOM      7  C   UNL     1       7.563  22.617  -9.997  1.00  0.00    -0.000 C 
BRANCH   7   8
ATOM      8  C   UNL     1       6.520  23.452  -9.234  1.00  0.00    -0.003 C 
ATOM      9  C   UNL     1       7.139  24.589  -8.423  1.00  0.00     0.004 C 
ENDBRANCH   7   8
ENDBRANCH   6   7
ENDBRANCH   1   6
TORSDOF 5
ENDMDL
MODEL 3
REMARK VINA RESULT:    -4.135      3.488      4.060
REMARK INTER + INTRA:          -5.689
REMARK INTER:                  -5.537
REMARK INTRA:                  -0.152
REMARK UNBOUND:                -0.345
REMARK SMILES CCCCCCC(=O)[O-]
REMARK SMILES IDX 5 1 6 2 7 3 8 4 9 5 4 6 3 7 2 8 1 9
REMARK H PARENT
REMARK Flexibility Score: inf
ROOT
ATOM      1  C   UNL     1       7.631  24.144  -8.357  1.00  0.00     0.006 C 
ENDROOT
BRANCH   1   2
ATOM      2  C   UNL     1       6.501  23.695  -7.422  1.00  0.00     0.053 C 
BRANCH   2   3
ATOM      3  C   UNL     1       6.842  23.934  -5.983  1.00  0.00     0.041 C 
ATOM      4  O   UNL     1       7.316  23.003  -5.279  1.00  0.00    -0.550 OA
ATOM      5  O   UNL     1       6.611  25.179  -5.411  1.00  0.00    -0.550 OA
ENDBRANCH   2   3
ENDBRANCH   1   2
BRANCH   1   6
ATOM      6  C   UNL     1       8.296  22.957  -9.076  1.00  0.00     0.000 C 
BRANCH   6   7
ATOM      7  C   UNL     1       9.807  22.858  -8.796  1.00  0.00    -0.000 C 
BRANCH   7   8
ATOM      8  C   UNL     1      10.713  23.216  -9.987  1.00  0.00    -0.003 C 
ATOM      9  C   UNL     1      11.684  24.355  -9.679  1.00  0.00     0.004 C 
ENDBRANCH   7   8
ENDBRANCH   6   7
ENDBRANCH   1   6
TORSDOF 5
ENDMDL
MODEL 4
REMARK VINA RESULT:    -4.121      3.509      4.436
REMARK INTER + INTRA:          -5.671
REMARK INTER:                  -5.408
REMARK INTRA:                  -0.263
REMARK UNBOUND:                -0.345
REMARK SMILES CCCCCCC(=O)[O-]
REMARK SMILES IDX 5 1 6 2 7 3 8 4 9 5 4 6 3 7 2 8 1 9
REMARK H PARENT
REMARK Flexibility Score: inf
ROOT
ATOM      1  C   UNL     1       7.583  24.042  -8.409  1.00  0.00     0.006 C 
ENDROOT
BRANCH   1   2
ATOM      2  C   UNL     1       6.446  23.690  -7.440  1.00  0.00     0.053 C 
BRANCH   2   3
ATOM      3  C   UNL     1       6.829  23.950  -6.015  1.00  0.00     0.041 C 
ATOM      4  O   UNL     1       7.309  23.025  -5.308  1.00  0.00    -0.550 OA
ATOM      5  O   UNL     1       6.627  25.207  -5.460  1.00  0.00    -0.550 OA
ENDBRANCH   2   3
ENDBRANCH   1   2
BRANCH   1   6
ATOM      6  C   UNL     1       7.966  22.857  -9.311  1.00  0.00     0.000 C 
BRANCH   6   7
ATOM      7  C   UNL     1       9.433  22.421  -9.139  1.00  0.00    -0.000 C 
BRANCH   7   8
ATOM      8  C   UNL     1       9.871  22.184  -7.683  1.00  0.00    -0.003 C 
ATOM      9  C   UNL     1      10.186  20.720  -7.383  1.00  0.00     0.004 C 
ENDBRANCH   7   8
ENDBRANCH   6   7
ENDBRANCH   1   6
TORSDOF 5
ENDMDL
MODEL 5
REMARK VINA RESULT:    -4.120      4.459      5.693
REMARK INTER + INTRA:          -5.669
REMARK INTER:                  -5.336
REMARK INTRA:                  -0.332
REMARK UNBOUND:                -0.345
REMARK SMILES CCCCCCC(=O)[O-]
REMARK SMILES IDX 5 1 6 2 7 3 8 4 9 5 4 6 3 7 2 8 1 9
REMARK H PARENT
REMARK Flexibility Score: inf
ROOT
ATOM      1  C   UNL     1       7.620  23.950  -8.279  1.00  0.00     0.006 C 
ENDROOT
BRANCH   1   2
ATOM      2  C   UNL     1       7.660  23.359  -6.863  1.00  0.00     0.053 C 
BRANCH   2   3
ATOM      3  C   UNL     1       6.540  23.876  -6.013  1.00  0.00     0.041 C 
ATOM      4  O   UNL     1       5.539  23.150  -5.772  1.00  0.00    -0.550 OA
ATOM      5  O   UNL     1       6.588  25.170  -5.510  1.00  0.00    -0.550 OA
ENDBRANCH   2   3
ENDBRANCH   1   2
BRANCH   1   6
ATOM      6  C   UNL     1       7.836  22.879  -9.361  1.00  0.00     0.000 C 
BRANCH   6   7
ATOM      7  C   UNL     1       6.540  22.514 -10.109  1.00  0.00    -0.000 C 
BRANCH   7   8
ATOM      8  C   UNL     1       5.313  23.363  -9.733  1.00  0.00    -0.003 C 
ATOM      9  C   UNL     1       4.251  22.575  -8.968  1.00  0.00     0.004 C 
ENDBRANCH   7   8
ENDBRANCH   6   7
ENDBRANCH   1   6
TORSDOF 5
ENDMDL
MODEL 6
REMARK VINA RESULT:    -4.113      2.094      3.269
REMARK INTER + INTRA:          -5.660
REMARK INTER:                  -5.316
REMARK INTRA:                  -0.344
REMARK UNBOUND:                -0.345
REMARK SMILES CCCCCCC(=O)[O-]
REMARK SMILES IDX 5 1 6 2 7 3 8 4 9 5 4 6 3 7 2 8 1 9
REMARK H PARENT
REMARK Flexibility Score: inf
ROOT
ATOM      1  C   UNL     1       9.444  22.987  -9.286  1.00  0.00     0.006 C 
ENDROOT
BRANCH   1   2
ATOM      2  C   UNL     1      10.429  21.899  -8.836  1.00  0.00     0.053 C 
BRANCH   2   3
ATOM      3  C   UNL     1      10.024  21.288  -7.529  1.00  0.00     0.041 C 
ATOM      4  O   UNL     1       9.560  22.010  -6.608  1.00  0.00    -0.550 OA
ATOM      5  O   UNL     1      10.186  19.924  -7.320  1.00  0.00    -0.550 OA
ENDBRANCH   2   3
ENDBRANCH   1   2
BRANCH   1   6
ATOM      6  C   UNL     1       8.115  22.395  -9.785  1.00  0.00     0.000 C 
BRANCH   6   7
ATOM      7  C   UNL     1       6.889  23.210  -9.330  1.00  0.00    -0.000 C 
BRANCH   7   8
ATOM      8  C   UNL     1       7.202  24.369  -8.368  1.00  0.00    -0.003 C 
ATOM      9  C   UNL     1       6.747  24.097  -6.935  1.00  0.00     0.004 C 
ENDBRANCH   7   8
ENDBRANCH   6   7
ENDBRANCH   1   6
TORSDOF 5
ENDMDL
MODEL 7
REMARK VINA RESULT:    -4.060      2.675      4.069
REMARK INTER + INTRA:          -5.592
REMARK INTER:                  -5.323
REMARK INTRA:                  -0.269
REMARK UNBOUND:                -0.345
REMARK SMILES CCCCCCC(=O)[O-]
REMARK SMILES IDX 5 1 6 2 7 3 8 4 9 5 4 6 3 7 2 8 1 9
REMARK H PARENT
REMARK Flexibility Score: inf
ROOT
ATOM      1  C   UNL     1       8.427  22.496  -9.790  1.00  0.00     0.006 C 
ENDROOT
BRANCH   1   2
ATOM      2  C   UNL     1       9.505  22.603  -8.703  1.00  0.00     0.053 C 
BRANCH   2   3
ATOM      3  C   UNL     1      10.799  23.121  -9.253  1.00  0.00     0.041 C 
ATOM      4  O   UNL     1      10.972  23.202 -10.497  1.00  0.00    -0.550 OA
ATOM      5  O   UNL     1      11.824  23.486  -8.389  1.00  0.00    -0.550 OA
ENDBRANCH   2   3
ENDBRANCH   1   2
BRANCH   1   6
ATOM      6  C   UNL     1       7.092  23.120  -9.348  1.00  0.00     0.000 C 
BRANCH   6   7
ATOM      7  C   UNL     1       7.243  24.061  -8.138  1.00  0.00    -0.000 C 
BRANCH   7   8
ATOM      8  C   UNL     1       6.372  23.697  -6.922  1.00  0.00    -0.003 C 
ATOM      9  C   UNL     1       7.192  23.279  -5.702  1.00  0.00     0.004 C 
ENDBRANCH   7   8
ENDBRANCH   6   7
ENDBRANCH   1   6
TORSDOF 5
ENDMDL
MODEL 8
REMARK VINA RESULT:    -4.008      3.008      4.620
REMARK INTER + INTRA:          -5.524
REMARK INTER:                  -5.349
REMARK INTRA:                  -0.174
REMARK UNBOUND:                -0.345
REMARK SMILES CCCCCCC(=O)[O-]
REMARK SMILES IDX 5 1 6 2 7 3 8 4 9 5 4 6 3 7 2 8 1 9
REMARK H PARENT
REMARK Flexibility Score: inf
ROOT
ATOM      1  C   UNL     1       8.518  23.417  -8.383  1.00  0.00     0.006 C 
ENDROOT
BRANCH   1   2
ATOM      2  C   UNL     1       9.049  22.373  -9.373  1.00  0.00     0.053 C 
BRANCH   2   3
ATOM      3  C   UNL     1      10.529  22.492  -9.567  1.00  0.00     0.041 C 
ATOM      4  O   UNL     1      10.992  23.214 -10.490  1.00  0.00    -0.550 OA
ATOM      5  O   UNL     1      11.398  21.784  -8.746  1.00  0.00    -0.550 OA
ENDBRANCH   2   3
ENDBRANCH   1   2
BRANCH   1   6
ATOM      6  C   UNL     1       7.122  23.932  -8.774  1.00  0.00     0.000 C 
BRANCH   6   7
ATOM      7  C   UNL     1       6.443  23.062  -9.849  1.00  0.00    -0.000 C 
BRANCH   7   8
ATOM      8  C   UNL     1       4.911  23.193  -9.916  1.00  0.00    -0.003 C 
ATOM      9  C   UNL     1       4.200  22.515  -8.746  1.00  0.00     0.004 C 
ENDBRANCH   7   8
ENDBRANCH   6   7
ENDBRANCH   1   6
TORSDOF 5
ENDMDL
MODEL 9
REMARK VINA RESULT:    -4.003      1.946      3.545
REMARK INTER + INTRA:          -5.518
REMARK INTER:                  -5.343
REMARK INTRA:                  -0.175
REMARK UNBOUND:                -0.345
REMARK SMILES CCCCCCC(=O)[O-]
REMARK SMILES IDX 5 1 6 2 7 3 8 4 9 5 4 6 3 7 2 8 1 9
REMARK H PARENT
REMARK Flexibility Score: inf
ROOT
ATOM      1  C   UNL     1       9.157  22.675  -8.104  1.00  0.00     0.006 C 
ENDROOT
BRANCH   1   2
ATOM      2  C   UNL     1      10.559  22.362  -7.561  1.00  0.00     0.053 C 
BRANCH   2   3
ATOM      3  C   UNL     1      10.865  20.897  -7.625  1.00  0.00     0.041 C 
ATOM      4  O   UNL     1      10.005  20.052  -7.261  1.00  0.00    -0.550 OA
ATOM      5  O   UNL     1      12.112  20.466  -8.060  1.00  0.00    -0.550 OA
ENDBRANCH   2   3
ENDBRANCH   1   2
BRANCH   1   6
ATOM      6  C   UNL     1       9.093  22.577  -9.637  1.00  0.00     0.000 C 
BRANCH   6   7
ATOM      7  C   UNL     1       7.677  22.272 -10.160  1.00  0.00    -0.000 C 
BRANCH   7   8
ATOM      8  C   UNL     1       6.560  23.131  -9.540  1.00  0.00    -0.003 C 
ATOM      9  C   UNL     1       5.469  23.507 -10.541  1.00  0.00     0.004 C 
ENDBRANCH   7   8
ENDBRANCH   6   7
ENDBRANCH   1   6
TORSDOF 5
ENDMDL
