MODEL 1
REMARK VINA RESULT:    -4.204      0.000      0.000
REMARK INTER + INTRA:          -5.934
REMARK INTER:                  -5.679
REMARK INTRA:                  -0.254
REMARK UNBOUND:                -0.254
REMARK SMILES CCCCCCCC(=O)[O-]
REMARK SMILES IDX 5 1 6 2 7 3 8 4 9 5 10 6 4 7 3 8 2 9 1 10
REMARK H PARENT
REMARK Flexibility Score: inf
ROOT
ATOM      1  C   UNL     1     -17.788  56.474  -0.537  1.00  0.00     0.000 C 
ENDROOT
BRANCH   1   2
ATOM      2  C   UNL     1     -17.241  56.079  -1.919  1.00  0.00     0.006 C 
BRANCH   2   3
ATOM      3  C   UNL     1     -18.063  56.690  -3.062  1.00  0.00     0.053 C 
BRANCH   3   4
ATOM      4  C   UNL     1     -19.374  55.988  -3.239  1.00  0.00     0.041 C 
ATOM      5  O   UNL     1     -19.429  54.730  -3.223  1.00  0.00    -0.550 OA
ATOM      6  O   UNL     1     -20.533  56.724  -3.455  1.00  0.00    -0.550 OA
ENDBRANCH   3   4
ENDBRANCH   2   3
ENDBRANCH   1   2
BRANCH   1   7
ATOM      7  C   UNL     1     -16.674  56.718   0.492  1.00  0.00     0.000 C 
BRANCH   7   8
ATOM      8  C   UNL     1     -16.489  58.207   0.823  1.00  0.00    -0.000 C 
BRANCH   8   9
ATOM      9  C   UNL     1     -15.251  58.775   0.120  1.00  0.00    -0.003 C 
ATOM     10  C   UNL     1     -14.167  59.148   1.128  1.00  0.00     0.004 C 
ENDBRANCH   8   9
ENDBRANCH   7   8
ENDBRANCH   1   7
TORSDOF 6
ENDMDL
MODEL 2
REMARK VINA RESULT:    -4.192      2.910      5.253
REMARK INTER + INTRA:          -5.917
REMARK INTER:                  -5.442
REMARK INTRA:                  -0.475
REMARK UNBOUND:                -0.254
REMARK SMILES CCCCCCCC(=O)[O-]
REMARK SMILES IDX 5 1 6 2 7 3 8 4 9 5 10 6 4 7 3 8 2 9 1 10
REMARK H PARENT
REMARK Flexibility Score: inf
ROOT
ATOM      1  C   UNL     1     -19.619  56.345  -3.272  1.00  0.00     0.000 C 
ENDROOT
BRANCH   1   2
ATOM      2  C   UNL     1     -18.217  56.056  -3.836  1.00  0.00     0.006 C 
BRANCH   2   3
ATOM      3  C   UNL     1     -17.110  56.701  -2.993  1.00  0.00     0.053 C 
BRANCH   3   4
ATOM      4  C   UNL     1     -17.093  56.163  -1.595  1.00  0.00     0.041 C 
ATOM      5  O   UNL     1     -16.755  54.970  -1.378  1.00  0.00    -0.550 OA
ATOM      6  O   UNL     1     -17.483  56.972  -0.535  1.00  0.00    -0.550 OA
ENDBRANCH   3   4
ENDBRANCH   2   3
ENDBRANCH   1   2
BRANCH   1   7
ATOM      7  C   UNL     1     -20.395  55.063  -2.931  1.00  0.00     0.000 C 
BRANCH   7   8
ATOM      8  C   UNL     1     -19.549  53.794  -3.108  1.00  0.00    -0.000 C 
BRANCH   8   9
ATOM      9  C   UNL     1     -19.808  52.799  -1.972  1.00  0.00    -0.003 C 
ATOM     10  C   UNL     1     -21.096  53.137  -1.225  1.00  0.00     0.004 C 
ENDBRANCH   8   9
ENDBRANCH   7   8
ENDBRANCH   1   7
TORSDOF 6
ENDMDL
MODEL 3
REMARK VINA RESULT:    -4.144      3.833      4.997
REMARK INTER + INTRA:          -5.851
REMARK INTER:                  -5.514
REMARK INTRA:                  -0.337
REMARK UNBOUND:                -0.254
REMARK SMILES CCCCCCCC(=O)[O-]
REMARK SMILES IDX 5 1 6 2 7 3 8 4 9 5 10 6 4 7 3 8 2 9 1 10
REMARK H PARENT
REMARK Flexibility Score: inf
ROOT
ATOM      1  C   UNL     1     -19.032  53.455  -1.836  1.00  0.00     0.000 C 
ENDROOT
BRANCH   1   2
ATOM      2  C   UNL     1     -20.317  52.621  -1.699  1.00  0.00     0.006 C 
BRANCH   2   3
ATOM      3  C   UNL     1     -21.052  52.903  -0.382  1.00  0.00     0.053 C 
BRANCH   3   4
ATOM      4  C   UNL     1     -22.205  53.838  -0.580  1.00  0.00     0.041 C 
ATOM      5  O   UNL     1     -22.509  54.235  -1.735  1.00  0.00    -0.550 OA
ATOM      6  O   UNL     1     -22.923  54.298   0.517  1.00  0.00    -0.550 OA
ENDBRANCH   3   4
ENDBRANCH   2   3
ENDBRANCH   1   2
BRANCH   1   7
ATOM      7  C   UNL     1     -18.941  54.184  -3.186  1.00  0.00     0.000 C 
BRANCH   7   8
ATOM      8  C   UNL     1     -19.504  55.611  -3.128  1.00  0.00    -0.000 C 
BRANCH   8   9
ATOM      9  C   UNL     1     -18.476  56.627  -3.639  1.00  0.00    -0.003 C 
ATOM     10  C   UNL     1     -17.068  56.037  -3.633  1.00  0.00     0.004 C 
ENDBRANCH   8   9
ENDBRANCH   7   8
ENDBRANCH   1   7
TORSDOF 6
ENDMDL
MODEL 4
REMARK VINA RESULT:    -4.122      3.150      5.478
REMARK INTER + INTRA:          -5.822
REMARK INTER:                  -5.209
REMARK INTRA:                  -0.613
REMARK UNBOUND:                -0.254
REMARK SMILES CCCCCCCC(=O)[O-]
REMARK SMILES IDX 5 1 6 2 7 3 8 4 9 5 10 6 4 7 3 8 2 9 1 10
REMARK H PARENT
REMARK Flexibility Score: inf
ROOT
ATOM      1  C   UNL     1     -18.567  53.742  -2.920  1.00  0.00     0.000 C 
ENDROOT
BRANCH   1   2
ATOM      2  C   UNL     1     -18.524  55.132  -3.578  1.00  0.00     0.006 C 
BRANCH   2   3
ATOM      3  C   UNL     1     -19.169  56.209  -2.697  1.00  0.00     0.053 C 
BRANCH   3   4
ATOM      4  C   UNL     1     -18.506  56.300  -1.357  1.00  0.00     0.041 C 
ATOM      5  O   UNL     1     -19.173  56.120  -0.305  1.00  0.00    -0.550 OA
ATOM      6  O   UNL     1     -17.156  56.617  -1.270  1.00  0.00    -0.550 OA
ENDBRANCH   3   4
ENDBRANCH   2   3
ENDBRANCH   1   2
BRANCH   1   7
ATOM      7  C   UNL     1     -20.001  53.229  -2.715  1.00  0.00     0.000 C 
BRANCH   7   8
ATOM      8  C   UNL     1     -20.196  52.544  -1.354  1.00  0.00    -0.000 C 
BRANCH   8   9
ATOM      9  C   UNL     1     -21.278  53.253  -0.533  1.00  0.00    -0.003 C 
ATOM     10  C   UNL     1     -22.210  54.064  -1.432  1.00  0.00     0.004 C 
ENDBRANCH   8   9
ENDBRANCH   7   8
ENDBRANCH   1   7
TORSDOF 6
ENDMDL
MODEL 5
REMARK VINA RESULT:    -4.107      3.369      5.729
REMARK INTER + INTRA:          -5.802
REMARK INTER:                  -5.537
REMARK INTRA:                  -0.265
REMARK UNBOUND:                -0.254
REMARK SMILES CCCCCCCC(=O)[O-]
REMARK SMILES IDX 5 1 6 2 7 3 8 4 9 5 10 6 4 7 3 8 2 9 1 10
REMARK H PARENT
REMARK Flexibility Score: inf
ROOT
ATOM      1  C   UNL     1     -20.374  55.412  -2.871  1.00  0.00     0.000 C 
ENDROOT
BRANCH   1   2
ATOM      2  C   UNL     1     -19.562  56.595  -3.426  1.00  0.00     0.006 C 
BRANCH   2   3
ATOM      3  C   UNL     1     -18.122  56.195  -3.775  1.00  0.00     0.053 C 
BRANCH   3   4
ATOM      4  C   UNL     1     -17.357  55.763  -2.562  1.00  0.00     0.041 C 
ATOM      5  O   UNL     1     -17.058  56.599  -1.669  1.00  0.00    -0.550 OA
ATOM      6  O   UNL     1     -16.945  54.443  -2.433  1.00  0.00    -0.550 OA
ENDBRANCH   3   4
ENDBRANCH   2   3
ENDBRANCH   1   2
BRANCH   1   7
ATOM      7  C   UNL     1     -21.870  55.512  -3.208  1.00  0.00     0.000 C 
BRANCH   7   8
ATOM      8  C   UNL     1     -22.760  54.833  -2.156  1.00  0.00    -0.000 C 
BRANCH   8   9
ATOM      9  C   UNL     1     -21.990  53.738  -1.411  1.00  0.00    -0.003 C 
ATOM     10  C   UNL     1     -22.300  53.766   0.084  1.00  0.00     0.004 C 
ENDBRANCH   8   9
ENDBRANCH   7   8
ENDBRANCH   1   7
TORSDOF 6
ENDMDL
MODEL 6
REMARK VINA RESULT:    -4.094      3.685      4.796
REMARK INTER + INTRA:          -5.785
REMARK INTER:                  -5.514
REMARK INTRA:                  -0.270
REMARK UNBOUND:                -0.254
REMARK SMILES CCCCCCCC(=O)[O-]
REMARK SMILES IDX 5 1 6 2 7 3 8 4 9 5 10 6 4 7 3 8 2 9 1 10
REMARK H PARENT
REMARK Flexibility Score: inf
ROOT
ATOM      1  C   UNL     1     -20.910  56.569  -3.011  1.00  0.00     0.000 C 
ENDROOT
BRANCH   1   2
ATOM      2  C   UNL     1     -21.866  55.392  -3.269  1.00  0.00     0.006 C 
BRANCH   2   3
ATOM      3  C   UNL     1     -22.788  55.123  -2.072  1.00  0.00     0.053 C 
BRANCH   3   4
ATOM      4  C   UNL     1     -22.241  54.049  -1.182  1.00  0.00     0.041 C 
ATOM      5  O   UNL     1     -22.666  53.924  -0.004  1.00  0.00    -0.550 OA
ATOM      6  O   UNL     1     -21.237  53.207  -1.644  1.00  0.00    -0.550 OA
ENDBRANCH   3   4
ENDBRANCH   2   3
ENDBRANCH   1   2
BRANCH   1   7
ATOM      7  C   UNL     1     -19.479  56.108  -2.692  1.00  0.00     0.000 C 
BRANCH   7   8
ATOM      8  C   UNL     1     -18.442  56.674  -3.673  1.00  0.00    -0.000 C 
BRANCH   8   9
ATOM      9  C   UNL     1     -17.105  55.936  -3.544  1.00  0.00    -0.003 C 
ATOM     10  C   UNL     1     -17.191  54.814  -2.513  1.00  0.00     0.004 C 
ENDBRANCH   8   9
ENDBRANCH   7   8
ENDBRANCH   1   7
TORSDOF 6
ENDMDL
MODEL 7
REMARK VINA RESULT:    -4.088      3.494      5.550
REMARK INTER + INTRA:          -5.776
REMARK INTER:                  -5.299
REMARK INTRA:                  -0.477
REMARK UNBOUND:                -0.254
REMARK SMILES CCCCCCCC(=O)[O-]
REMARK SMILES IDX 5 1 6 2 7 3 8 4 9 5 10 6 4 7 3 8 2 9 1 10
REMARK H PARENT
REMARK Flexibility Score: inf
ROOT
ATOM      1  C   UNL     1     -19.318  53.156  -1.993  1.00  0.00     0.000 C 
ENDROOT
BRANCH   1   2
ATOM      2  C   UNL     1     -19.165  54.042  -3.242  1.00  0.00     0.006 C 
BRANCH   2   3
ATOM      3  C   UNL     1     -19.648  55.477  -2.995  1.00  0.00     0.053 C 
BRANCH   3   4
ATOM      4  C   UNL     1     -18.510  56.400  -2.685  1.00  0.00     0.041 C 
ATOM      5  O   UNL     1     -18.173  56.614  -1.491  1.00  0.00    -0.550 OA
ATOM      6  O   UNL     1     -17.841  57.050  -3.715  1.00  0.00    -0.550 OA
ENDBRANCH   3   4
ENDBRANCH   2   3
ENDBRANCH   1   2
BRANCH   1   7
ATOM      7  C   UNL     1     -20.782  52.788  -1.706  1.00  0.00     0.000 C 
BRANCH   7   8
ATOM      8  C   UNL     1     -21.235  53.215  -0.302  1.00  0.00    -0.000 C 
BRANCH   8   9
ATOM      9  C   UNL     1     -22.227  54.380  -0.376  1.00  0.00    -0.003 C 
ATOM     10  C   UNL     1     -22.967  54.390  -1.712  1.00  0.00     0.004 C 
ENDBRANCH   8   9
ENDBRANCH   7   8
ENDBRANCH   1   7
TORSDOF 6
ENDMDL
MODEL 8
REMARK VINA RESULT:    -4.072      3.103      4.687
REMARK INTER + INTRA:          -5.755
REMARK INTER:                  -5.107
REMARK INTRA:                  -0.648
REMARK UNBOUND:                -0.254
REMARK SMILES CCCCCCCC(=O)[O-]
REMARK SMILES IDX 5 1 6 2 7 3 8 4 9 5 10 6 4 7 3 8 2 9 1 10
REMARK H PARENT
REMARK Flexibility Score: inf
ROOT
ATOM      1  C   UNL     1     -19.446  53.232  -2.119  1.00  0.00     0.000 C 
ENDROOT
BRANCH   1   2
ATOM      2  C   UNL     1     -19.545  53.903  -0.738  1.00  0.00     0.006 C 
BRANCH   2   3
ATOM      3  C   UNL     1     -18.174  54.044  -0.064  1.00  0.00     0.053 C 
BRANCH   3   4
ATOM      4  C   UNL     1     -17.798  55.481   0.130  1.00  0.00     0.041 C 
ATOM      5  O   UNL     1     -16.588  55.830   0.102  1.00  0.00    -0.550 OA
ATOM      6  O   UNL     1     -18.782  56.431   0.375  1.00  0.00    -0.550 OA
ENDBRANCH   3   4
ENDBRANCH   2   3
ENDBRANCH   1   2
BRANCH   1   7
ATOM      7  C   UNL     1     -18.864  54.168  -3.190  1.00  0.00     0.000 C 
BRANCH   7   8
ATOM      8  C   UNL     1     -19.524  55.555  -3.187  1.00  0.00    -0.000 C 
BRANCH   8   9
ATOM      9  C   UNL     1     -18.476  56.660  -3.353  1.00  0.00    -0.003 C 
ATOM     10  C   UNL     1     -17.085  56.073  -3.580  1.00  0.00     0.004 C 
ENDBRANCH   8   9
ENDBRANCH   7   8
ENDBRANCH   1   7
TORSDOF 6
ENDMDL
MODEL 9
REMARK VINA RESULT:    -4.003      3.562      4.667
REMARK INTER + INTRA:          -5.662
REMARK INTER:                  -5.344
REMARK INTRA:                  -0.318
REMARK UNBOUND:                -0.254
REMARK SMILES CCCCCCCC(=O)[O-]
REMARK SMILES IDX 5 1 6 2 7 3 8 4 9 5 10 6 4 7 3 8 2 9 1 10
REMARK H PARENT
REMARK Flexibility Score: inf
ROOT
ATOM      1  C   UNL     1     -19.295  53.322  -1.535  1.00  0.00     0.000 C 
ENDROOT
BRANCH   1   2
ATOM      2  C   UNL     1     -20.768  52.921  -1.722  1.00  0.00     0.006 C 
BRANCH   2   3
ATOM      3  C   UNL     1     -21.729  53.931  -1.082  1.00  0.00     0.053 C 
BRANCH   3   4
ATOM      4  C   UNL     1     -22.491  54.702  -2.115  1.00  0.00     0.041 C 
ATOM      5  O   UNL     1     -21.879  55.349  -3.005  1.00  0.00    -0.550 OA
ATOM      6  O   UNL     1     -23.880  54.733  -2.075  1.00  0.00    -0.550 OA
ENDBRANCH   3   4
ENDBRANCH   2   3
ENDBRANCH   1   2
BRANCH   1   7
ATOM      7  C   UNL     1     -18.680  53.925  -2.809  1.00  0.00     0.000 C 
BRANCH   7   8
ATOM      8  C   UNL     1     -17.369  54.675  -2.535  1.00  0.00    -0.000 C 
BRANCH   8   9
ATOM      9  C   UNL     1     -17.211  55.867  -3.484  1.00  0.00    -0.003 C 
ATOM     10  C   UNL     1     -18.534  56.606  -3.668  1.00  0.00     0.004 C 
ENDBRANCH   8   9
ENDBRANCH   7   8
ENDBRANCH   1   7
TORSDOF 6
ENDMDL
