MODEL 1
REMARK VINA RESULT:    -3.298      0.000      0.000
REMARK INTER + INTRA:          -4.994
REMARK INTER:                  -4.455
REMARK INTRA:                  -0.539
REMARK UNBOUND:                -0.539
REMARK SMILES CCCCCCCC(=O)[O-]
REMARK SMILES IDX 5 1 6 2 7 3 8 4 9 5 10 6 4 7 3 8 2 9 1 10
REMARK H PARENT
REMARK Flexibility Score: inf
ROOT
ATOM      1  C   UNL     1     185.215 179.739 199.830  1.00  0.00     0.000 C 
ENDROOT
BRANCH   1   2
ATOM      2  C   UNL     1     186.453 180.425 199.224  1.00  0.00     0.006 C 
BRANCH   2   3
ATOM      3  C   UNL     1     186.236 181.905 198.863  1.00  0.00     0.053 C 
BRANCH   3   4
ATOM      4  C   UNL     1     186.405 182.816 200.041  1.00  0.00     0.041 C 
ATOM      5  O   UNL     1     187.287 182.576 200.907  1.00  0.00    -0.550 OA
ATOM      6  O   UNL     1     185.566 183.913 200.202  1.00  0.00    -0.550 OA
ENDBRANCH   3   4
ENDBRANCH   2   3
ENDBRANCH   1   2
BRANCH   1   7
ATOM      7  C   UNL     1     185.318 179.553 201.353  1.00  0.00     0.000 C 
BRANCH   7   8
ATOM      8  C   UNL     1     184.366 180.482 202.125  1.00  0.00    -0.000 C 
BRANCH   8   9
ATOM      9  C   UNL     1     183.306 181.128 201.220  1.00  0.00    -0.003 C 
ATOM     10  C   UNL     1     182.258 181.869 202.046  1.00  0.00     0.004 C 
ENDBRANCH   8   9
ENDBRANCH   7   8
ENDBRANCH   1   7
TORSDOF 6
ENDMDL
MODEL 2
REMARK VINA RESULT:    -3.238      1.732      3.838
REMARK INTER + INTRA:          -4.913
REMARK INTER:                  -4.492
REMARK INTRA:                  -0.420
REMARK UNBOUND:                -0.539
REMARK SMILES CCCCCCCC(=O)[O-]
REMARK SMILES IDX 5 1 6 2 7 3 8 4 9 5 10 6 4 7 3 8 2 9 1 10
REMARK H PARENT
REMARK Flexibility Score: inf
ROOT
ATOM      1  C   UNL     1     184.123 179.942 200.963  1.00  0.00     0.000 C 
ENDROOT
BRANCH   1   2
ATOM      2  C   UNL     1     183.910 180.931 202.124  1.00  0.00     0.006 C 
BRANCH   2   3
ATOM      3  C   UNL     1     182.604 181.739 202.029  1.00  0.00     0.053 C 
BRANCH   3   4
ATOM      4  C   UNL     1     182.836 183.165 201.631  1.00  0.00     0.041 C 
ATOM      5  O   UNL     1     182.123 184.082 202.116  1.00  0.00    -0.550 OA
ATOM      6  O   UNL     1     183.817 183.479 200.697  1.00  0.00    -0.550 OA
ENDBRANCH   3   4
ENDBRANCH   2   3
ENDBRANCH   1   2
BRANCH   1   7
ATOM      7  C   UNL     1     185.587 179.865 200.501  1.00  0.00     0.000 C 
BRANCH   7   8
ATOM      8  C   UNL     1     186.463 180.959 201.133  1.00  0.00    -0.000 C 
BRANCH   8   9
ATOM      9  C   UNL     1     187.201 181.806 200.086  1.00  0.00    -0.003 C 
ATOM     10  C   UNL     1     186.946 181.280 198.676  1.00  0.00     0.004 C 
ENDBRANCH   8   9
ENDBRANCH   7   8
ENDBRANCH   1   7
TORSDOF 6
ENDMDL
MODEL 3
REMARK VINA RESULT:    -3.195      1.844      2.955
REMARK INTER + INTRA:          -4.855
REMARK INTER:                  -4.226
REMARK INTRA:                  -0.630
REMARK UNBOUND:                -0.539
REMARK SMILES CCCCCCCC(=O)[O-]
REMARK SMILES IDX 5 1 6 2 7 3 8 4 9 5 10 6 4 7 3 8 2 9 1 10
REMARK H PARENT
REMARK Flexibility Score: inf
ROOT
ATOM      1  C   UNL     1     184.452 183.694 199.097  1.00  0.00     0.000 C 
ENDROOT
BRANCH   1   2
ATOM      2  C   UNL     1     185.962 183.596 198.815  1.00  0.00     0.006 C 
BRANCH   2   3
ATOM      3  C   UNL     1     186.382 182.304 198.092  1.00  0.00     0.053 C 
BRANCH   3   4
ATOM      4  C   UNL     1     186.795 181.220 199.042  1.00  0.00     0.041 C 
ATOM      5  O   UNL     1     186.469 180.025 198.820  1.00  0.00    -0.550 OA
ATOM      6  O   UNL     1     187.512 181.535 200.191  1.00  0.00    -0.550 OA
ENDBRANCH   3   4
ENDBRANCH   2   3
ENDBRANCH   1   2
BRANCH   1   7
ATOM      7  C   UNL     1     184.135 183.986 200.573  1.00  0.00     0.000 C 
BRANCH   7   8
ATOM      8  C   UNL     1     184.451 182.793 201.490  1.00  0.00    -0.000 C 
BRANCH   8   9
ATOM      9  C   UNL     1     183.697 181.517 201.083  1.00  0.00    -0.003 C 
ATOM     10  C   UNL     1     184.329 180.281 201.717  1.00  0.00     0.004 C 
ENDBRANCH   8   9
ENDBRANCH   7   8
ENDBRANCH   1   7
TORSDOF 6
ENDMDL
MODEL 4
REMARK VINA RESULT:    -3.183      8.672     10.517
REMARK INTER + INTRA:          -4.839
REMARK INTER:                  -4.659
REMARK INTRA:                  -0.180
REMARK UNBOUND:                -0.539
REMARK SMILES CCCCCCCC(=O)[O-]
REMARK SMILES IDX 5 1 6 2 7 3 8 4 9 5 10 6 4 7 3 8 2 9 1 10
REMARK H PARENT
REMARK Flexibility Score: inf
ROOT
ATOM      1  C   UNL     1     186.643 184.224 191.989  1.00  0.00     0.000 C 
ENDROOT
BRANCH   1   2
ATOM      2  C   UNL     1     185.965 185.573 191.688  1.00  0.00     0.006 C 
BRANCH   2   3
ATOM      3  C   UNL     1     186.114 186.614 192.811  1.00  0.00     0.053 C 
BRANCH   3   4
ATOM      4  C   UNL     1     184.989 186.561 193.800  1.00  0.00     0.041 C 
ATOM      5  O   UNL     1     185.089 187.155 194.905  1.00  0.00    -0.550 OA
ATOM      6  O   UNL     1     183.843 185.827 193.515  1.00  0.00    -0.550 OA
ENDBRANCH   3   4
ENDBRANCH   2   3
ENDBRANCH   1   2
BRANCH   1   7
ATOM      7  C   UNL     1     187.059 183.464 190.719  1.00  0.00     0.000 C 
BRANCH   7   8
ATOM      8  C   UNL     1     188.584 183.299 190.605  1.00  0.00    -0.000 C 
BRANCH   8   9
ATOM      9  C   UNL     1     189.144 183.859 189.290  1.00  0.00    -0.003 C 
ATOM     10  C   UNL     1     190.662 183.710 189.232  1.00  0.00     0.004 C 
ENDBRANCH   8   9
ENDBRANCH   7   8
ENDBRANCH   1   7
TORSDOF 6
ENDMDL
MODEL 5
REMARK VINA RESULT:    -3.135     17.660     18.516
REMARK INTER + INTRA:          -4.774
REMARK INTER:                  -4.386
REMARK INTRA:                  -0.388
REMARK UNBOUND:                -0.539
REMARK SMILES CCCCCCCC(=O)[O-]
REMARK SMILES IDX 5 1 6 2 7 3 8 4 9 5 10 6 4 7 3 8 2 9 1 10
REMARK H PARENT
REMARK Flexibility Score: inf
ROOT
ATOM      1  C   UNL     1     194.669 198.064 201.951  1.00  0.00     0.000 C 
ENDROOT
BRANCH   1   2
ATOM      2  C   UNL     1     193.354 197.564 201.327  1.00  0.00     0.006 C 
BRANCH   2   3
ATOM      3  C   UNL     1     193.514 196.972 199.916  1.00  0.00     0.053 C 
BRANCH   3   4
ATOM      4  C   UNL     1     192.517 197.524 198.942  1.00  0.00     0.041 C 
ATOM      5  O   UNL     1     192.132 196.827 197.967  1.00  0.00    -0.550 OA
ATOM      6  O   UNL     1     192.037 198.820 199.092  1.00  0.00    -0.550 OA
ENDBRANCH   3   4
ENDBRANCH   2   3
ENDBRANCH   1   2
BRANCH   1   7
ATOM      7  C   UNL     1     195.916 197.432 201.311  1.00  0.00     0.000 C 
BRANCH   7   8
ATOM      8  C   UNL     1     196.459 196.245 202.125  1.00  0.00    -0.000 C 
BRANCH   8   9
ATOM      9  C   UNL     1     197.386 195.338 201.303  1.00  0.00    -0.003 C 
ATOM     10  C   UNL     1     196.792 195.047 199.928  1.00  0.00     0.004 C 
ENDBRANCH   8   9
ENDBRANCH   7   8
ENDBRANCH   1   7
TORSDOF 6
ENDMDL
MODEL 6
REMARK VINA RESULT:    -3.128     16.396     18.318
REMARK INTER + INTRA:          -4.765
REMARK INTER:                  -4.131
REMARK INTRA:                  -0.634
REMARK UNBOUND:                -0.539
REMARK SMILES CCCCCCCC(=O)[O-]
REMARK SMILES IDX 5 1 6 2 7 3 8 4 9 5 10 6 4 7 3 8 2 9 1 10
REMARK H PARENT
REMARK Flexibility Score: inf
ROOT
ATOM      1  C   UNL     1     196.991 197.032 201.745  1.00  0.00     0.000 C 
ENDROOT
BRANCH   1   2
ATOM      2  C   UNL     1     195.614 197.629 202.086  1.00  0.00     0.006 C 
BRANCH   2   3
ATOM      3  C   UNL     1     195.004 198.483 200.961  1.00  0.00     0.053 C 
BRANCH   3   4
ATOM      4  C   UNL     1     193.649 197.999 200.541  1.00  0.00     0.041 C 
ATOM      5  O   UNL     1     193.162 198.361 199.438  1.00  0.00    -0.550 OA
ATOM      6  O   UNL     1     192.909 197.176 201.382  1.00  0.00    -0.550 OA
ENDBRANCH   3   4
ENDBRANCH   2   3
ENDBRANCH   1   2
BRANCH   1   7
ATOM      7  C   UNL     1     196.907 195.588 201.223  1.00  0.00     0.000 C 
BRANCH   7   8
ATOM      8  C   UNL     1     195.634 194.865 201.692  1.00  0.00    -0.000 C 
BRANCH   8   9
ATOM      9  C   UNL     1     194.925 194.115 200.555  1.00  0.00    -0.003 C 
ATOM     10  C   UNL     1     195.008 194.897 199.247  1.00  0.00     0.004 C 
ENDBRANCH   8   9
ENDBRANCH   7   8
ENDBRANCH   1   7
TORSDOF 6
ENDMDL
MODEL 7
REMARK VINA RESULT:    -3.110     17.623     18.725
REMARK INTER + INTRA:          -4.740
REMARK INTER:                  -4.534
REMARK INTRA:                  -0.205
REMARK UNBOUND:                -0.539
REMARK SMILES CCCCCCCC(=O)[O-]
REMARK SMILES IDX 5 1 6 2 7 3 8 4 9 5 10 6 4 7 3 8 2 9 1 10
REMARK H PARENT
REMARK Flexibility Score: inf
ROOT
ATOM      1  C   UNL     1     195.267 197.485 201.053  1.00  0.00     0.000 C 
ENDROOT
BRANCH   1   2
ATOM      2  C   UNL     1     196.453 197.218 201.998  1.00  0.00     0.006 C 
BRANCH   2   3
ATOM      3  C   UNL     1     197.764 196.866 201.274  1.00  0.00     0.053 C 
BRANCH   3   4
ATOM      4  C   UNL     1     198.082 195.402 201.338  1.00  0.00     0.041 C 
ATOM      5  O   UNL     1     199.125 194.956 200.791  1.00  0.00    -0.550 OA
ATOM      6  O   UNL     1     197.209 194.525 201.971  1.00  0.00    -0.550 OA
ENDBRANCH   3   4
ENDBRANCH   2   3
ENDBRANCH   1   2
BRANCH   1   7
ATOM      7  C   UNL     1     193.947 197.739 201.801  1.00  0.00     0.000 C 
BRANCH   7   8
ATOM      8  C   UNL     1     192.713 197.490 200.920  1.00  0.00    -0.000 C 
BRANCH   8   9
ATOM      9  C   UNL     1     192.849 198.111 199.521  1.00  0.00    -0.003 C 
ATOM     10  C   UNL     1     192.012 197.348 198.498  1.00  0.00     0.004 C 
ENDBRANCH   8   9
ENDBRANCH   7   8
ENDBRANCH   1   7
TORSDOF 6
ENDMDL
