MODEL 1
REMARK VINA RESULT:    -5.415      0.000      0.000
REMARK INTER + INTRA:          -5.890
REMARK INTER:                  -5.890
REMARK INTRA:                   0.000
REMARK UNBOUND:                 0.000
REMARK SMILES Cc1cc(O)c2c(c1)C(=O)c1cc(O)cc(O)c1C2=O
REMARK SMILES IDX 1 1 2 2 8 3 7 4 6 5 4 6 3 7 19 8 20 9 18 10 11 11 9 12 10 13
REMARK SMILES IDX 12 14 13 15 15 16 16 17 5 18 17 20 14 22
REMARK H PARENT 5 19 17 21 14 23
REMARK Flexibility Score: inf
ROOT
ATOM      1  C   UNL     1      17.560  25.250   4.904  1.00  0.00     0.044 C 
ATOM      2  C   UNL     1      16.092  24.940   4.882  1.00  0.00    -0.047 A 
ATOM      3  C   UNL     1      15.170  25.864   5.385  1.00  0.00     0.016 A 
ATOM      4  C   UNL     1      13.790  25.596   5.342  1.00  0.00     0.038 A 
ATOM      5  C   UNL     1      13.327  24.382   4.787  1.00  0.00     0.076 A 
ATOM      6  C   UNL     1      14.261  23.488   4.202  1.00  0.00     0.127 A 
ATOM      7  C   UNL     1      15.629  23.767   4.275  1.00  0.00     0.050 A 
ATOM      8  C   UNL     1      11.880  24.068   4.894  1.00  0.00     0.201 C 
ATOM      9  O   UNL     1      11.502  22.868   4.963  1.00  0.00    -0.288 OA
ATOM     10  C   UNL     1      10.900  25.166   5.107  1.00  0.00     0.076 A 
ATOM     11  C   UNL     1      11.368  26.379   5.660  1.00  0.00     0.041 A 
ATOM     12  C   UNL     1      12.820  26.583   5.872  1.00  0.00     0.194 C 
ATOM     13  O   UNL     1      13.231  27.610   6.480  1.00  0.00    -0.289 OA
ATOM     14  C   UNL     1      10.453  27.389   6.004  1.00  0.00     0.059 A 
ATOM     15  C   UNL     1       9.084  27.208   5.788  1.00  0.00     0.120 A 
ATOM     16  C   UNL     1       8.622  26.029   5.204  1.00  0.00     0.093 A 
ATOM     17  C   UNL     1       9.515  25.017   4.835  1.00  0.00     0.131 A 
ENDROOT
BRANCH   6  18
ATOM     18  O   UNL     1      13.874  22.337   3.512  1.00  0.00    -0.507 OA
ATOM     19  H   UNL     1      14.133  21.403   3.795  1.00  0.00     0.293 HD
ENDBRANCH   6  18
BRANCH  17  20
ATOM     20  O   UNL     1       8.989  23.905   4.173  1.00  0.00    -0.507 OA
ATOM     21  H   UNL     1       8.359  23.244   4.605  1.00  0.00     0.293 HD
ENDBRANCH  17  20
BRANCH  15  22
ATOM     22  O   UNL     1       8.172  28.202   6.140  1.00  0.00    -0.508 OA
ATOM     23  H   UNL     1       7.172  28.042   6.099  1.00  0.00     0.293 HD
ENDBRANCH  15  22
TORSDOF 3
ENDMDL
MODEL 2
REMARK VINA RESULT:    -5.045      1.491      6.306
REMARK INTER + INTRA:          -5.487
REMARK INTER:                  -5.487
REMARK INTRA:                   0.000
REMARK UNBOUND:                 0.000
REMARK SMILES Cc1cc(O)c2c(c1)C(=O)c1cc(O)cc(O)c1C2=O
REMARK SMILES IDX 1 1 2 2 8 3 7 4 6 5 4 6 3 7 19 8 20 9 18 10 11 11 9 12 10 13
REMARK SMILES IDX 12 14 13 15 15 16 16 17 5 18 17 20 14 22
REMARK H PARENT 5 19 17 21 14 23
REMARK Flexibility Score: inf
ROOT
ATOM      1  C   UNL     1       7.875  26.105   5.707  1.00  0.00     0.044 C 
ATOM      2  C   UNL     1       9.374  26.063   5.762  1.00  0.00    -0.047 A 
ATOM      3  C   UNL     1      10.066  24.951   5.271  1.00  0.00     0.016 A 
ATOM      4  C   UNL     1      11.471  24.914   5.290  1.00  0.00     0.038 A 
ATOM      5  C   UNL     1      12.195  26.011   5.810  1.00  0.00     0.076 A 
ATOM      6  C   UNL     1      11.491  27.170   6.226  1.00  0.00     0.127 A 
ATOM      7  C   UNL     1      10.092  27.174   6.217  1.00  0.00     0.050 A 
ATOM      8  C   UNL     1      13.667  25.877   5.951  1.00  0.00     0.201 C 
ATOM      9  O   UNL     1      14.269  26.499   6.868  1.00  0.00    -0.288 OA
ATOM     10  C   UNL     1      14.399  24.870   5.137  1.00  0.00     0.076 A 
ATOM     11  C   UNL     1      13.670  23.777   4.617  1.00  0.00     0.041 A 
ATOM     12  C   UNL     1      12.196  23.734   4.763  1.00  0.00     0.194 C 
ATOM     13  O   UNL     1      11.556  22.704   4.414  1.00  0.00    -0.289 OA
ATOM     14  C   UNL     1      14.348  22.735   3.961  1.00  0.00     0.059 A 
ATOM     15  C   UNL     1      15.736  22.780   3.805  1.00  0.00     0.120 A 
ATOM     16  C   UNL     1      16.453  23.877   4.280  1.00  0.00     0.093 A 
ATOM     17  C   UNL     1      15.799  24.936   4.919  1.00  0.00     0.131 A 
ENDROOT
BRANCH   6  18
ATOM     18  O   UNL     1      12.136  28.344   6.621  1.00  0.00    -0.507 OA
ATOM     19  H   UNL     1      12.493  29.031   5.971  1.00  0.00     0.293 HD
ENDBRANCH   6  18
BRANCH  17  20
ATOM     20  O   UNL     1      16.571  26.041   5.286  1.00  0.00    -0.507 OA
ATOM     21  H   UNL     1      17.327  25.998   5.954  1.00  0.00     0.293 HD
ENDBRANCH  17  20
BRANCH  15  22
ATOM     22  O   UNL     1      16.412  21.743   3.166  1.00  0.00    -0.508 OA
ATOM     23  H   UNL     1      16.320  21.584   2.169  1.00  0.00     0.293 HD
ENDBRANCH  15  22
TORSDOF 3
ENDMDL
MODEL 3
REMARK VINA RESULT:    -4.763      1.388      3.491
REMARK INTER + INTRA:          -5.180
REMARK INTER:                  -5.180
REMARK INTRA:                   0.000
REMARK UNBOUND:                 0.000
REMARK SMILES Cc1cc(O)c2c(c1)C(=O)c1cc(O)cc(O)c1C2=O
REMARK SMILES IDX 1 1 2 2 8 3 7 4 6 5 4 6 3 7 19 8 20 9 18 10 11 11 9 12 10 13
REMARK SMILES IDX 12 14 13 15 15 16 16 17 5 18 17 20 14 22
REMARK H PARENT 5 19 17 21 14 23
REMARK Flexibility Score: inf
ROOT
ATOM      1  C   UNL     1      17.346  25.079   4.692  1.00  0.00     0.044 C 
ATOM      2  C   UNL     1      15.915  25.404   5.003  1.00  0.00    -0.047 A 
ATOM      3  C   UNL     1      14.905  24.478   4.720  1.00  0.00     0.016 A 
ATOM      4  C   UNL     1      13.564  24.761   5.034  1.00  0.00     0.038 A 
ATOM      5  C   UNL     1      13.230  25.991   5.643  1.00  0.00     0.076 A 
ATOM      6  C   UNL     1      14.267  26.888   6.006  1.00  0.00     0.127 A 
ATOM      7  C   UNL     1      15.591  26.594   5.664  1.00  0.00     0.050 A 
ATOM      8  C   UNL     1      11.792  26.317   5.825  1.00  0.00     0.201 C 
ATOM      9  O   UNL     1      11.415  27.519   5.805  1.00  0.00    -0.288 OA
ATOM     10  C   UNL     1      10.784  25.225   5.840  1.00  0.00     0.076 A 
ATOM     11  C   UNL     1      11.124  23.995   5.232  1.00  0.00     0.041 A 
ATOM     12  C   UNL     1      12.501  23.772   4.736  1.00  0.00     0.194 C 
ATOM     13  O   UNL     1      12.776  22.728   4.081  1.00  0.00    -0.289 OA
ATOM     14  C   UNL     1      10.152  22.987   5.105  1.00  0.00     0.059 A 
ATOM     15  C   UNL     1       8.856  23.186   5.588  1.00  0.00     0.120 A 
ATOM     16  C   UNL     1       8.529  24.382   6.226  1.00  0.00     0.093 A 
ATOM     17  C   UNL     1       9.484  25.393   6.383  1.00  0.00     0.131 A 
ENDROOT
BRANCH   6  18
ATOM     18  O   UNL     1      14.034  28.057   6.733  1.00  0.00    -0.507 OA
ATOM     19  H   UNL     1      13.194  28.612   6.645  1.00  0.00     0.293 HD
ENDBRANCH   6  18
BRANCH  17  20
ATOM     20  O   UNL     1       9.109  26.525   7.111  1.00  0.00    -0.507 OA
ATOM     21  H   UNL     1       9.039  27.449   6.711  1.00  0.00     0.293 HD
ENDBRANCH  17  20
BRANCH  15  22
ATOM     22  O   UNL     1       7.887  22.194   5.452  1.00  0.00    -0.508 OA
ATOM     23  H   UNL     1       6.985  22.268   5.909  1.00  0.00     0.293 HD
ENDBRANCH  15  22
TORSDOF 3
ENDMDL
MODEL 4
REMARK VINA RESULT:    -4.545      7.097     10.085
REMARK INTER + INTRA:          -4.943
REMARK INTER:                  -4.943
REMARK INTRA:                   0.000
REMARK UNBOUND:                 0.000
REMARK SMILES Cc1cc(O)c2c(c1)C(=O)c1cc(O)cc(O)c1C2=O
REMARK SMILES IDX 1 1 2 2 8 3 7 4 6 5 4 6 3 7 19 8 20 9 18 10 11 11 9 12 10 13
REMARK SMILES IDX 12 14 13 15 15 16 16 17 5 18 17 20 14 22
REMARK H PARENT 5 19 17 21 14 23
REMARK Flexibility Score: inf
ROOT
ATOM      1  C   UNL     1      26.522  26.026   7.124  1.00  0.00     0.044 C 
ATOM      2  C   UNL     1      25.071  25.848   6.788  1.00  0.00    -0.047 A 
ATOM      3  C   UNL     1      24.469  24.591   6.910  1.00  0.00     0.016 A 
ATOM      4  C   UNL     1      23.104  24.419   6.626  1.00  0.00     0.038 A 
ATOM      5  C   UNL     1      22.327  25.525   6.213  1.00  0.00     0.076 A 
ATOM      6  C   UNL     1      22.922  26.812   6.175  1.00  0.00     0.127 A 
ATOM      7  C   UNL     1      24.288  26.955   6.442  1.00  0.00     0.050 A 
ATOM      8  C   UNL     1      20.928  25.278   5.780  1.00  0.00     0.201 C 
ATOM      9  O   UNL     1      20.400  26.025   4.913  1.00  0.00    -0.288 OA
ATOM     10  C   UNL     1      20.222  24.049   6.226  1.00  0.00     0.076 A 
ATOM     11  C   UNL     1      21.003  22.946   6.641  1.00  0.00     0.041 A 
ATOM     12  C   UNL     1      22.473  23.084   6.763  1.00  0.00     0.194 C 
ATOM     13  O   UNL     1      23.185  22.072   7.009  1.00  0.00    -0.289 OA
ATOM     14  C   UNL     1      20.380  21.721   6.938  1.00  0.00     0.059 A 
ATOM     15  C   UNL     1      18.992  21.591   6.843  1.00  0.00     0.120 A 
ATOM     16  C   UNL     1      18.215  22.689   6.475  1.00  0.00     0.093 A 
ATOM     17  C   UNL     1      18.810  23.923   6.192  1.00  0.00     0.131 A 
ENDROOT
BRANCH   6  18
ATOM     18  O   UNL     1      22.192  27.974   5.913  1.00  0.00    -0.507 OA
ATOM     19  H   UNL     1      22.526  28.903   6.127  1.00  0.00     0.293 HD
ENDBRANCH   6  18
BRANCH  17  20
ATOM     20  O   UNL     1      17.961  24.999   5.920  1.00  0.00    -0.507 OA
ATOM     21  H   UNL     1      17.198  24.956   5.260  1.00  0.00     0.293 HD
ENDBRANCH  17  20
BRANCH  15  22
ATOM     22  O   UNL     1      18.371  20.376   7.125  1.00  0.00    -0.508 OA
ATOM     23  H   UNL     1      18.283  19.650   6.423  1.00  0.00     0.293 HD
ENDBRANCH  15  22
TORSDOF 3
ENDMDL
MODEL 5
REMARK VINA RESULT:    -4.421     10.202     12.496
REMARK INTER + INTRA:          -4.809
REMARK INTER:                  -4.809
REMARK INTRA:                   0.000
REMARK UNBOUND:                 0.000
REMARK SMILES Cc1cc(O)c2c(c1)C(=O)c1cc(O)cc(O)c1C2=O
REMARK SMILES IDX 1 1 2 2 8 3 7 4 6 5 4 6 3 7 19 8 20 9 18 10 11 11 9 12 10 13
REMARK SMILES IDX 12 14 13 15 15 16 16 17 5 18 17 20 14 22
REMARK H PARENT 5 19 17 21 14 23
REMARK Flexibility Score: inf
ROOT
ATOM      1  C   UNL     1      26.419  30.118   7.125  1.00  0.00     0.044 C 
ATOM      2  C   UNL     1      25.421  29.013   6.935  1.00  0.00    -0.047 A 
ATOM      3  C   UNL     1      25.844  27.680   6.913  1.00  0.00     0.016 A 
ATOM      4  C   UNL     1      24.915  26.635   6.765  1.00  0.00     0.038 A 
ATOM      5  C   UNL     1      23.539  26.932   6.637  1.00  0.00     0.076 A 
ATOM      6  C   UNL     1      23.109  28.279   6.746  1.00  0.00     0.127 A 
ATOM      7  C   UNL     1      24.054  29.303   6.873  1.00  0.00     0.050 A 
ATOM      8  C   UNL     1      22.606  25.817   6.334  1.00  0.00     0.201 C 
ATOM      9  O   UNL     1      21.557  26.040   5.671  1.00  0.00    -0.288 OA
ATOM     10  C   UNL     1      22.999  24.418   6.647  1.00  0.00     0.076 A 
ATOM     11  C   UNL     1      24.376  24.127   6.776  1.00  0.00     0.041 A 
ATOM     12  C   UNL     1      25.370  25.225   6.748  1.00  0.00     0.194 C 
ATOM     13  O   UNL     1      26.604  24.960   6.737  1.00  0.00    -0.289 OA
ATOM     14  C   UNL     1      24.796  22.795   6.935  1.00  0.00     0.059 A 
ATOM     15  C   UNL     1      23.861  21.758   6.981  1.00  0.00     0.120 A 
ATOM     16  C   UNL     1      22.499  22.046   6.895  1.00  0.00     0.093 A 
ATOM     17  C   UNL     1      22.055  23.365   6.756  1.00  0.00     0.131 A 
ENDROOT
BRANCH   6  18
ATOM     18  O   UNL     1      21.760  28.642   6.769  1.00  0.00    -0.507 OA
ATOM     19  H   UNL     1      21.146  28.560   5.971  1.00  0.00     0.293 HD
ENDBRANCH   6  18
BRANCH  17  20
ATOM     20  O   UNL     1      20.676  23.585   6.769  1.00  0.00    -0.507 OA
ATOM     21  H   UNL     1      20.001  22.885   7.043  1.00  0.00     0.293 HD
ENDBRANCH  17  20
BRANCH  15  22
ATOM     22  O   UNL     1      24.274  20.435   7.125  1.00  0.00    -0.508 OA
ATOM     23  H   UNL     1      24.673  19.916   6.351  1.00  0.00     0.293 HD
ENDBRANCH  15  22
TORSDOF 3
ENDMDL
MODEL 6
REMARK VINA RESULT:    -4.335     10.346     12.688
REMARK INTER + INTRA:          -4.715
REMARK INTER:                  -4.715
REMARK INTRA:                   0.000
REMARK UNBOUND:                 0.000
REMARK SMILES Cc1cc(O)c2c(c1)C(=O)c1cc(O)cc(O)c1C2=O
REMARK SMILES IDX 1 1 2 2 8 3 7 4 6 5 4 6 3 7 19 8 20 9 18 10 11 11 9 12 10 13
REMARK SMILES IDX 12 14 13 15 15 16 16 17 5 18 17 20 14 22
REMARK H PARENT 5 19 17 21 14 23
REMARK Flexibility Score: inf
ROOT
ATOM      1  C   UNL     1      28.112  20.313   5.859  1.00  0.00     0.044 C 
ATOM      2  C   UNL     1      26.900  21.185   6.016  1.00  0.00    -0.047 A 
ATOM      3  C   UNL     1      27.040  22.575   6.097  1.00  0.00     0.016 A 
ATOM      4  C   UNL     1      25.910  23.403   6.215  1.00  0.00     0.038 A 
ATOM      5  C   UNL     1      24.619  22.829   6.253  1.00  0.00     0.076 A 
ATOM      6  C   UNL     1      24.480  21.428   6.084  1.00  0.00     0.127 A 
ATOM      7  C   UNL     1      25.620  20.622   5.989  1.00  0.00     0.050 A 
ATOM      8  C   UNL     1      23.463  23.719   6.527  1.00  0.00     0.201 C 
ATOM      9  O   UNL     1      22.447  23.264   7.119  1.00  0.00    -0.288 OA
ATOM     10  C   UNL     1      23.578  25.180   6.274  1.00  0.00     0.076 A 
ATOM     11  C   UNL     1      24.871  25.749   6.234  1.00  0.00     0.041 A 
ATOM     12  C   UNL     1      26.066  24.875   6.294  1.00  0.00     0.194 C 
ATOM     13  O   UNL     1      27.217  25.384   6.387  1.00  0.00    -0.289 OA
ATOM     14  C   UNL     1      25.018  27.143   6.135  1.00  0.00     0.059 A 
ATOM     15  C   UNL     1      23.894  27.970   6.059  1.00  0.00     0.120 A 
ATOM     16  C   UNL     1      22.618  27.409   6.055  1.00  0.00     0.093 A 
ATOM     17  C   UNL     1      22.446  26.023   6.134  1.00  0.00     0.131 A 
ENDROOT
BRANCH   6  18
ATOM     18  O   UNL     1      23.237  20.800   5.971  1.00  0.00    -0.507 OA
ATOM     19  H   UNL     1      22.366  21.232   6.246  1.00  0.00     0.293 HD
ENDBRANCH   6  18
BRANCH  17  20
ATOM     20  O   UNL     1      21.143  25.529   6.033  1.00  0.00    -0.507 OA
ATOM     21  H   UNL     1      20.437  25.933   5.434  1.00  0.00     0.293 HD
ENDBRANCH  17  20
BRANCH  15  22
ATOM     22  O   UNL     1      24.035  29.354   5.973  1.00  0.00    -0.508 OA
ATOM     23  H   UNL     1      24.906  29.781   5.680  1.00  0.00     0.293 HD
ENDBRANCH  15  22
TORSDOF 3
ENDMDL
MODEL 7
REMARK VINA RESULT:    -4.104     11.070     13.847
REMARK INTER + INTRA:          -4.464
REMARK INTER:                  -4.464
REMARK INTRA:                   0.000
REMARK UNBOUND:                 0.000
REMARK SMILES Cc1cc(O)c2c(c1)C(=O)c1cc(O)cc(O)c1C2=O
REMARK SMILES IDX 1 1 2 2 8 3 7 4 6 5 4 6 3 7 19 8 20 9 18 10 11 11 9 12 10 13
REMARK SMILES IDX 12 14 13 15 15 16 16 17 5 18 17 20 14 22
REMARK H PARENT 5 19 17 21 14 23
REMARK Flexibility Score: inf
ROOT
ATOM      1  C   UNL     1      24.943  30.125   7.081  1.00  0.00     0.044 C 
ATOM      2  C   UNL     1      24.679  28.672   6.812  1.00  0.00    -0.047 A 
ATOM      3  C   UNL     1      25.724  27.744   6.872  1.00  0.00     0.016 A 
ATOM      4  C   UNL     1      25.482  26.377   6.650  1.00  0.00     0.038 A 
ATOM      5  C   UNL     1      24.171  25.932   6.365  1.00  0.00     0.076 A 
ATOM      6  C   UNL     1      23.104  26.866   6.390  1.00  0.00     0.127 A 
ATOM      7  C   UNL     1      23.372  28.224   6.593  1.00  0.00     0.050 A 
ATOM      8  C   UNL     1      23.979  24.508   5.991  1.00  0.00     0.201 C 
ATOM      9  O   UNL     1      23.042  24.186   5.212  1.00  0.00    -0.288 OA
ATOM     10  C   UNL     1      24.996  23.497   6.382  1.00  0.00     0.076 A 
ATOM     11  C   UNL     1      26.305  23.947   6.669  1.00  0.00     0.041 A 
ATOM     12  C   UNL     1      26.594  25.399   6.722  1.00  0.00     0.194 C 
ATOM     13  O   UNL     1      27.782  25.803   6.853  1.00  0.00    -0.289 OA
ATOM     14  C   UNL     1      27.328  23.012   6.908  1.00  0.00     0.059 A 
ATOM     15  C   UNL     1      27.056  21.642   6.879  1.00  0.00     0.120 A 
ATOM     16  C   UNL     1      25.758  21.196   6.636  1.00  0.00     0.093 A 
ATOM     17  C   UNL     1      24.719  22.107   6.415  1.00  0.00     0.131 A 
ENDROOT
BRANCH   6  18
ATOM     18  O   UNL     1      21.766  26.487   6.255  1.00  0.00    -0.507 OA
ATOM     19  H   UNL     1      21.196  26.724   5.455  1.00  0.00     0.293 HD
ENDBRANCH   6  18
BRANCH  17  20
ATOM     20  O   UNL     1      23.429  21.589   6.270  1.00  0.00    -0.507 OA
ATOM     21  H   UNL     1      23.237  20.646   5.966  1.00  0.00     0.293 HD
ENDBRANCH  17  20
BRANCH  15  22
ATOM     22  O   UNL     1      28.070  20.712   7.103  1.00  0.00    -0.508 OA
ATOM     23  H   UNL     1      27.862  19.746   7.331  1.00  0.00     0.293 HD
ENDBRANCH  15  22
TORSDOF 3
ENDMDL
MODEL 8
REMARK VINA RESULT:    -3.861     11.029     13.988
REMARK INTER + INTRA:          -4.200
REMARK INTER:                  -4.200
REMARK INTRA:                   0.000
REMARK UNBOUND:                 0.000
REMARK SMILES Cc1cc(O)c2c(c1)C(=O)c1cc(O)cc(O)c1C2=O
REMARK SMILES IDX 1 1 2 2 8 3 7 4 6 5 4 6 3 7 19 8 20 9 18 10 11 11 9 12 10 13
REMARK SMILES IDX 12 14 13 15 15 16 16 17 5 18 17 20 14 22
REMARK H PARENT 5 19 17 21 14 23
REMARK Flexibility Score: inf
ROOT
ATOM      1  C   UNL     1      22.574  28.129   6.902  1.00  0.00     0.044 C 
ATOM      2  C   UNL     1      23.551  26.994   6.804  1.00  0.00    -0.047 A 
ATOM      3  C   UNL     1      23.093  25.674   6.734  1.00  0.00     0.016 A 
ATOM      4  C   UNL     1      23.999  24.606   6.613  1.00  0.00     0.038 A 
ATOM      5  C   UNL     1      25.387  24.865   6.560  1.00  0.00     0.076 A 
ATOM      6  C   UNL     1      25.840  26.209   6.545  1.00  0.00     0.127 A 
ATOM      7  C   UNL     1      24.921  27.254   6.687  1.00  0.00     0.050 A 
ATOM      8  C   UNL     1      26.318  23.708   6.582  1.00  0.00     0.201 C 
ATOM      9  O   UNL     1      27.463  23.834   7.095  1.00  0.00    -0.288 OA
ATOM     10  C   UNL     1      25.836  22.363   6.172  1.00  0.00     0.076 A 
ATOM     11  C   UNL     1      24.446  22.110   6.224  1.00  0.00     0.041 A 
ATOM     12  C   UNL     1      23.505  23.211   6.534  1.00  0.00     0.194 C 
ATOM     13  O   UNL     1      22.279  22.965   6.706  1.00  0.00    -0.289 OA
ATOM     14  C   UNL     1      23.963  20.813   5.977  1.00  0.00     0.059 A 
ATOM     15  C   UNL     1      24.846  19.776   5.665  1.00  0.00     0.120 A 
ATOM     16  C   UNL     1      26.213  20.031   5.572  1.00  0.00     0.093 A 
ATOM     17  C   UNL     1      26.716  21.318   5.794  1.00  0.00     0.131 A 
ENDROOT
BRANCH   6  18
ATOM     18  O   UNL     1      27.181  26.552   6.355  1.00  0.00    -0.507 OA
ATOM     19  H   UNL     1      27.843  25.967   5.865  1.00  0.00     0.293 HD
ENDBRANCH   6  18
BRANCH  17  20
ATOM     20  O   UNL     1      28.085  21.517   5.594  1.00  0.00    -0.507 OA
ATOM     21  H   UNL     1      28.667  22.063   6.213  1.00  0.00     0.293 HD
ENDBRANCH  17  20
BRANCH  15  22
ATOM     22  O   UNL     1      24.372  18.486   5.432  1.00  0.00    -0.508 OA
ATOM     23  H   UNL     1      23.712  18.290   4.688  1.00  0.00     0.293 HD
ENDBRANCH  15  22
TORSDOF 3
ENDMDL
MODEL 9
REMARK VINA RESULT:    -3.859     10.661     12.889
REMARK INTER + INTRA:          -4.197
REMARK INTER:                  -4.197
REMARK INTRA:                   0.000
REMARK UNBOUND:                 0.000
REMARK SMILES Cc1cc(O)c2c(c1)C(=O)c1cc(O)cc(O)c1C2=O
REMARK SMILES IDX 1 1 2 2 8 3 7 4 6 5 4 6 3 7 19 8 20 9 18 10 11 11 9 12 10 13
REMARK SMILES IDX 12 14 13 15 15 16 16 17 5 18 17 20 14 22
REMARK H PARENT 5 19 17 21 14 23
REMARK Flexibility Score: inf
ROOT
ATOM      1  C   UNL     1      23.285  17.757   7.101  1.00  0.00     0.044 C 
ATOM      2  C   UNL     1      23.848  19.106   6.760  1.00  0.00    -0.047 A 
ATOM      3  C   UNL     1      23.055  20.252   6.886  1.00  0.00     0.016 A 
ATOM      4  C   UNL     1      23.581  21.523   6.597  1.00  0.00     0.038 A 
ATOM      5  C   UNL     1      24.924  21.649   6.176  1.00  0.00     0.076 A 
ATOM      6  C   UNL     1      25.747  20.493   6.134  1.00  0.00     0.127 A 
ATOM      7  C   UNL     1      25.195  19.237   6.406  1.00  0.00     0.050 A 
ATOM      8  C   UNL     1      25.401  22.985   5.739  1.00  0.00     0.201 C 
ATOM      9  O   UNL     1      26.306  23.073   4.866  1.00  0.00    -0.288 OA
ATOM     10  C   UNL     1      24.686  24.208   6.188  1.00  0.00     0.076 A 
ATOM     11  C   UNL     1      23.343  24.078   6.611  1.00  0.00     0.041 A 
ATOM     12  C   UNL     1      22.736  22.732   6.739  1.00  0.00     0.194 C 
ATOM     13  O   UNL     1      21.505  22.616   6.993  1.00  0.00    -0.289 OA
ATOM     14  C   UNL     1      22.591  25.226   6.912  1.00  0.00     0.059 A 
ATOM     15  C   UNL     1      23.166  26.496   6.812  1.00  0.00     0.120 A 
ATOM     16  C   UNL     1      24.502  26.626   6.435  1.00  0.00     0.093 A 
ATOM     17  C   UNL     1      25.277  25.497   6.149  1.00  0.00     0.131 A 
ENDROOT
BRANCH   6  18
ATOM     18  O   UNL     1      27.116  20.551   5.863  1.00  0.00    -0.507 OA
ATOM     19  H   UNL     1      27.729  19.749   5.914  1.00  0.00     0.293 HD
ENDBRANCH   6  18
BRANCH  17  20
ATOM     20  O   UNL     1      26.630  25.700   5.868  1.00  0.00    -0.507 OA
ATOM     21  H   UNL     1      27.049  25.510   4.969  1.00  0.00     0.293 HD
ENDBRANCH  17  20
BRANCH  15  22
ATOM     22  O   UNL     1      22.419  27.638   7.097  1.00  0.00    -0.508 OA
ATOM     23  H   UNL     1      21.455  27.729   6.800  1.00  0.00     0.293 HD
ENDBRANCH  15  22
TORSDOF 3
ENDMDL
