MODEL 1
REMARK VINA RESULT:    -3.837      0.000      0.000
REMARK INTER + INTRA:          -9.945
REMARK INTER:                  -7.201
REMARK INTRA:                  -2.744
REMARK UNBOUND:                -2.744
REMARK SMILES O=C([O-])CCCCCCCCCCCCCCC(=O)[O-]
REMARK SMILES IDX 10 1 9 2 8 3 7 4 6 5 5 6 4 7 2 8 1 9 3 10 11 11 12 12 13 13
REMARK SMILES IDX 14 14 15 15 16 16 17 17 18 18 19 19 20 20
REMARK H PARENT
REMARK Flexibility Score: inf
ROOT
ATOM      1  C   UNL     1      -3.986  -7.266 -18.470  1.00  0.00     0.000 C 
ENDROOT
BRANCH   1   2
ATOM      2  C   UNL     1      -4.796  -8.550 -18.225  1.00  0.00     0.000 C 
BRANCH   2   3
ATOM      3  C   UNL     1      -4.294  -9.734 -19.065  1.00  0.00     0.000 C 
BRANCH   3   4
ATOM      4  C   UNL     1      -3.250 -10.551 -18.293  1.00  0.00     0.000 C 
BRANCH   4   5
ATOM      5  C   UNL     1      -1.829 -10.232 -18.782  1.00  0.00     0.000 C 
BRANCH   5   6
ATOM      6  C   UNL     1      -1.757 -10.041 -20.305  1.00  0.00     0.006 C 
BRANCH   6   7
ATOM      7  C   UNL     1      -1.284  -8.638 -20.703  1.00  0.00     0.053 C 
BRANCH   7   8
ATOM      8  C   UNL     1      -2.145  -8.088 -21.796  1.00  0.00     0.041 C 
ATOM      9  O   UNL     1      -2.468  -8.814 -22.774  1.00  0.00    -0.550 OA
ATOM     10  O   UNL     1      -2.548  -6.759 -21.762  1.00  0.00    -0.550 OA
ENDBRANCH   7   8
ENDBRANCH   6   7
ENDBRANCH   5   6
ENDBRANCH   4   5
ENDBRANCH   3   4
ENDBRANCH   2   3
ENDBRANCH   1   2
BRANCH   1  11
ATOM     11  C   UNL     1      -3.368  -6.701 -17.178  1.00  0.00     0.000 C 
BRANCH  11  12
ATOM     12  C   UNL     1      -1.849  -6.920 -17.106  1.00  0.00     0.000 C 
BRANCH  12  13
ATOM     13  C   UNL     1      -1.440  -7.857 -15.959  1.00  0.00     0.000 C 
BRANCH  13  14
ATOM     14  C   UNL     1      -2.659  -8.272 -15.127  1.00  0.00     0.000 C 
BRANCH  14  15
ATOM     15  C   UNL     1      -2.539  -9.733 -14.665  1.00  0.00     0.000 C 
BRANCH  15  16
ATOM     16  C   UNL     1      -3.902 -10.436 -14.566  1.00  0.00     0.006 C 
BRANCH  16  17
ATOM     17  C   UNL     1      -5.079  -9.465 -14.717  1.00  0.00     0.053 C 
BRANCH  17  18
ATOM     18  C   UNL     1      -6.301 -10.195 -15.177  1.00  0.00     0.041 C 
ATOM     19  O   UNL     1      -6.229 -11.014 -16.131  1.00  0.00    -0.550 OA
ATOM     20  O   UNL     1      -7.530  -9.936 -14.584  1.00  0.00    -0.550 OA
ENDBRANCH  17  18
ENDBRANCH  16  17
ENDBRANCH  15  16
ENDBRANCH  14  15
ENDBRANCH  13  14
ENDBRANCH  12  13
ENDBRANCH  11  12
ENDBRANCH   1  11
TORSDOF 15
ENDMDL
MODEL 2
REMARK VINA RESULT:    -3.784      1.171      5.956
REMARK INTER + INTRA:          -9.847
REMARK INTER:                  -7.202
REMARK INTRA:                  -2.645
REMARK UNBOUND:                -2.744
REMARK SMILES O=C([O-])CCCCCCCCCCCCCCC(=O)[O-]
REMARK SMILES IDX 10 1 9 2 8 3 7 4 6 5 5 6 4 7 2 8 1 9 3 10 11 11 12 12 13 13
REMARK SMILES IDX 14 14 15 15 16 16 17 17 18 18 19 19 20 20
REMARK H PARENT
REMARK Flexibility Score: inf
ROOT
ATOM      1  C   UNL     1      -3.909  -6.968 -17.283  1.00  0.00     0.000 C 
ENDROOT
BRANCH   1   2
ATOM      2  C   UNL     1      -4.051  -7.544 -18.701  1.00  0.00     0.000 C 
BRANCH   2   3
ATOM      3  C   UNL     1      -4.940  -8.795 -18.744  1.00  0.00     0.000 C 
BRANCH   3   4
ATOM      4  C   UNL     1      -4.093 -10.066 -18.891  1.00  0.00     0.000 C 
BRANCH   4   5
ATOM      5  C   UNL     1      -4.347 -11.033 -17.725  1.00  0.00     0.000 C 
BRANCH   5   6
ATOM      6  C   UNL     1      -5.575 -10.642 -16.888  1.00  0.00     0.006 C 
BRANCH   6   7
ATOM      7  C   UNL     1      -5.229 -10.381 -15.417  1.00  0.00     0.053 C 
BRANCH   7   8
ATOM      8  C   UNL     1      -6.189  -9.400 -14.822  1.00  0.00     0.041 C 
ATOM      9  O   UNL     1      -5.800  -8.244 -14.508  1.00  0.00    -0.550 OA
ATOM     10  O   UNL     1      -7.501  -9.778 -14.567  1.00  0.00    -0.550 OA
ENDBRANCH   7   8
ENDBRANCH   6   7
ENDBRANCH   5   6
ENDBRANCH   4   5
ENDBRANCH   3   4
ENDBRANCH   2   3
ENDBRANCH   1   2
BRANCH   1  11
ATOM     11  C   UNL     1      -2.449  -6.953 -16.794  1.00  0.00     0.000 C 
BRANCH  11  12
ATOM     12  C   UNL     1      -2.114  -8.153 -15.896  1.00  0.00     0.000 C 
BRANCH  12  13
ATOM     13  C   UNL     1      -1.225  -9.189 -16.600  1.00  0.00     0.000 C 
BRANCH  13  14
ATOM     14  C   UNL     1      -0.373  -8.531 -17.692  1.00  0.00     0.000 C 
BRANCH  14  15
ATOM     15  C   UNL     1      -0.502  -9.288 -19.022  1.00  0.00     0.000 C 
BRANCH  15  16
ATOM     16  C   UNL     1      -0.832  -8.361 -20.202  1.00  0.00     0.006 C 
BRANCH  16  17
ATOM     17  C   UNL     1      -1.639  -9.067 -21.300  1.00  0.00     0.053 C 
BRANCH  17  18
ATOM     18  C   UNL     1      -2.160  -8.071 -22.286  1.00  0.00     0.041 C 
ATOM     19  O   UNL     1      -2.627  -6.970 -21.889  1.00  0.00    -0.550 OA
ATOM     20  O   UNL     1      -2.175  -8.376 -23.641  1.00  0.00    -0.550 OA
ENDBRANCH  17  18
ENDBRANCH  16  17
ENDBRANCH  15  16
ENDBRANCH  14  15
ENDBRANCH  13  14
ENDBRANCH  12  13
ENDBRANCH  11  12
ENDBRANCH   1  11
TORSDOF 15
ENDMDL
MODEL 3
REMARK VINA RESULT:    -3.780      2.712      4.539
REMARK INTER + INTRA:          -9.838
REMARK INTER:                  -7.403
REMARK INTRA:                  -2.436
REMARK UNBOUND:                -2.744
REMARK SMILES O=C([O-])CCCCCCCCCCCCCCC(=O)[O-]
REMARK SMILES IDX 10 1 9 2 8 3 7 4 6 5 5 6 4 7 2 8 1 9 3 10 11 11 12 12 13 13
REMARK SMILES IDX 14 14 15 15 16 16 17 17 18 18 19 19 20 20
REMARK H PARENT
REMARK Flexibility Score: inf
ROOT
ATOM      1  C   UNL     1      -6.283 -10.235 -15.575  1.00  0.00     0.000 C 
ENDROOT
BRANCH   1   2
ATOM      2  C   UNL     1      -6.111  -9.093 -14.560  1.00  0.00     0.000 C 
BRANCH   2   3
ATOM      3  C   UNL     1      -5.215  -7.963 -15.088  1.00  0.00     0.000 C 
BRANCH   3   4
ATOM      4  C   UNL     1      -5.167  -7.972 -16.622  1.00  0.00     0.000 C 
BRANCH   4   5
ATOM      5  C   UNL     1      -4.270  -6.842 -17.150  1.00  0.00     0.000 C 
BRANCH   5   6
ATOM      6  C   UNL     1      -3.068  -7.365 -17.951  1.00  0.00     0.006 C 
BRANCH   6   7
ATOM      7  C   UNL     1      -3.469  -8.395 -19.014  1.00  0.00     0.053 C 
BRANCH   7   8
ATOM      8  C   UNL     1      -2.338  -8.631 -19.964  1.00  0.00     0.041 C 
ATOM      9  O   UNL     1      -2.568  -8.814 -21.189  1.00  0.00    -0.550 OA
ATOM     10  O   UNL     1      -1.034  -8.700 -19.490  1.00  0.00    -0.550 OA
ENDBRANCH   7   8
ENDBRANCH   6   7
ENDBRANCH   5   6
ENDBRANCH   4   5
ENDBRANCH   3   4
ENDBRANCH   2   3
ENDBRANCH   1   2
BRANCH   1  11
ATOM     11  C   UNL     1      -5.922 -11.610 -14.984  1.00  0.00     0.000 C 
BRANCH  11  12
ATOM     12  C   UNL     1      -4.405 -11.853 -14.939  1.00  0.00     0.000 C 
BRANCH  12  13
ATOM     13  C   UNL     1      -3.704 -11.460 -16.248  1.00  0.00     0.000 C 
BRANCH  13  14
ATOM     14  C   UNL     1      -2.507 -10.542 -15.976  1.00  0.00     0.000 C 
BRANCH  14  15
ATOM     15  C   UNL     1      -2.505 -10.059 -14.517  1.00  0.00     0.000 C 
BRANCH  15  16
ATOM     16  C   UNL     1      -1.177  -9.398 -14.114  1.00  0.00     0.006 C 
BRANCH  16  17
ATOM     17  C   UNL     1      -1.272  -7.868 -14.062  1.00  0.00     0.053 C 
BRANCH  17  18
ATOM     18  C   UNL     1      -0.621  -7.264 -15.265  1.00  0.00     0.041 C 
ATOM     19  O   UNL     1      -0.783  -6.042 -15.528  1.00  0.00    -0.550 OA
ATOM     20  O   UNL     1       0.125  -8.059 -16.126  1.00  0.00    -0.550 OA
ENDBRANCH  17  18
ENDBRANCH  16  17
ENDBRANCH  15  16
ENDBRANCH  14  15
ENDBRANCH  13  14
ENDBRANCH  12  13
ENDBRANCH  11  12
ENDBRANCH   1  11
TORSDOF 15
ENDMDL
MODEL 4
REMARK VINA RESULT:    -3.744      1.778      5.767
REMARK INTER + INTRA:          -9.771
REMARK INTER:                  -7.257
REMARK INTRA:                  -2.514
REMARK UNBOUND:                -2.744
REMARK SMILES O=C([O-])CCCCCCCCCCCCCCC(=O)[O-]
REMARK SMILES IDX 10 1 9 2 8 3 7 4 6 5 5 6 4 7 2 8 1 9 3 10 11 11 12 12 13 13
REMARK SMILES IDX 14 14 15 15 16 16 17 17 18 18 19 19 20 20
REMARK H PARENT
REMARK Flexibility Score: inf
ROOT
ATOM      1  C   UNL     1      -1.751  -6.515 -16.550  1.00  0.00     0.000 C 
ENDROOT
BRANCH   1   2
ATOM      2  C   UNL     1      -2.121  -7.136 -17.907  1.00  0.00     0.000 C 
BRANCH   2   3
ATOM      3  C   UNL     1      -3.631  -7.367 -18.059  1.00  0.00     0.000 C 
BRANCH   3   4
ATOM      4  C   UNL     1      -4.390  -6.872 -16.821  1.00  0.00     0.000 C 
BRANCH   4   5
ATOM      5  C   UNL     1      -5.388  -7.931 -16.328  1.00  0.00     0.000 C 
BRANCH   5   6
ATOM      6  C   UNL     1      -5.220  -8.254 -14.835  1.00  0.00     0.006 C 
BRANCH   6   7
ATOM      7  C   UNL     1      -5.318  -9.756 -14.541  1.00  0.00     0.053 C 
BRANCH   7   8
ATOM      8  C   UNL     1      -6.664 -10.090 -13.979  1.00  0.00     0.041 C 
ATOM      9  O   UNL     1      -7.702  -9.902 -14.667  1.00  0.00    -0.550 OA
ATOM     10  O   UNL     1      -6.776 -10.561 -12.677  1.00  0.00    -0.550 OA
ENDBRANCH   7   8
ENDBRANCH   6   7
ENDBRANCH   5   6
ENDBRANCH   4   5
ENDBRANCH   3   4
ENDBRANCH   2   3
ENDBRANCH   1   2
BRANCH   1  11
ATOM     11  C   UNL     1      -0.813  -7.415 -15.724  1.00  0.00     0.000 C 
BRANCH  11  12
ATOM     12  C   UNL     1      -1.464  -7.912 -14.425  1.00  0.00     0.000 C 
BRANCH  12  13
ATOM     13  C   UNL     1      -1.711  -9.428 -14.429  1.00  0.00     0.000 C 
BRANCH  13  14
ATOM     14  C   UNL     1      -0.881 -10.117 -15.518  1.00  0.00     0.000 C 
BRANCH  14  15
ATOM     15  C   UNL     1      -1.690 -11.226 -16.208  1.00  0.00     0.000 C 
BRANCH  15  16
ATOM     16  C   UNL     1      -2.794 -10.671 -17.124  1.00  0.00     0.006 C 
BRANCH  16  17
ATOM     17  C   UNL     1      -2.859 -11.395 -18.474  1.00  0.00     0.053 C 
BRANCH  17  18
ATOM     18  C   UNL     1      -1.937 -10.748 -19.458  1.00  0.00     0.041 C 
ATOM     19  O   UNL     1      -0.718 -11.064 -19.487  1.00  0.00    -0.550 OA
ATOM     20  O   UNL     1      -2.412  -9.760 -20.311  1.00  0.00    -0.550 OA
ENDBRANCH  17  18
ENDBRANCH  16  17
ENDBRANCH  15  16
ENDBRANCH  14  15
ENDBRANCH  13  14
ENDBRANCH  12  13
ENDBRANCH  11  12
ENDBRANCH   1  11
TORSDOF 15
ENDMDL
MODEL 5
REMARK VINA RESULT:    -3.691      1.374      3.002
REMARK INTER + INTRA:          -9.672
REMARK INTER:                  -6.830
REMARK INTRA:                  -2.842
REMARK UNBOUND:                -2.744
REMARK SMILES O=C([O-])CCCCCCCCCCCCCCC(=O)[O-]
REMARK SMILES IDX 10 1 9 2 8 3 7 4 6 5 5 6 4 7 2 8 1 9 3 10 11 11 12 12 13 13
REMARK SMILES IDX 14 14 15 15 16 16 17 17 18 18 19 19 20 20
REMARK H PARENT
REMARK Flexibility Score: inf
ROOT
ATOM      1  C   UNL     1      -2.181  -8.348 -14.759  1.00  0.00     0.000 C 
ENDROOT
BRANCH   1   2
ATOM      2  C   UNL     1      -1.609  -7.697 -16.029  1.00  0.00     0.000 C 
BRANCH   2   3
ATOM      3  C   UNL     1      -2.692  -7.028 -16.888  1.00  0.00     0.000 C 
BRANCH   3   4
ATOM      4  C   UNL     1      -2.402  -7.220 -18.383  1.00  0.00     0.000 C 
BRANCH   4   5
ATOM      5  C   UNL     1      -1.162  -8.101 -18.594  1.00  0.00     0.000 C 
BRANCH   5   6
ATOM      6  C   UNL     1      -1.113  -8.730 -19.995  1.00  0.00     0.006 C 
BRANCH   6   7
ATOM      7  C   UNL     1      -2.466  -8.676 -20.715  1.00  0.00     0.053 C 
BRANCH   7   8
ATOM      8  C   UNL     1      -2.339  -7.936 -22.008  1.00  0.00     0.041 C 
ATOM      9  O   UNL     1      -2.177  -6.687 -22.011  1.00  0.00    -0.550 OA
ATOM     10  O   UNL     1      -2.449  -8.618 -23.213  1.00  0.00    -0.550 OA
ENDBRANCH   7   8
ENDBRANCH   6   7
ENDBRANCH   5   6
ENDBRANCH   4   5
ENDBRANCH   3   4
ENDBRANCH   2   3
ENDBRANCH   1   2
BRANCH   1  11
ATOM     11  C   UNL     1      -2.284  -9.880 -14.875  1.00  0.00     0.000 C 
BRANCH  11  12
ATOM     12  C   UNL     1      -1.190 -10.479 -15.772  1.00  0.00     0.000 C 
BRANCH  12  13
ATOM     13  C   UNL     1      -1.763 -11.324 -16.920  1.00  0.00     0.000 C 
BRANCH  13  14
ATOM     14  C   UNL     1      -3.289 -11.425 -16.819  1.00  0.00     0.000 C 
BRANCH  14  15
ATOM     15  C   UNL     1      -3.966 -10.733 -18.012  1.00  0.00     0.000 C 
BRANCH  15  16
ATOM     16  C   UNL     1      -5.097  -9.785 -17.583  1.00  0.00     0.006 C 
BRANCH  16  17
ATOM     17  C   UNL     1      -5.758 -10.214 -16.266  1.00  0.00     0.053 C 
BRANCH  17  18
ATOM     18  C   UNL     1      -5.962  -9.029 -15.376  1.00  0.00     0.041 C 
ATOM     19  O   UNL     1      -5.780  -7.864 -15.819  1.00  0.00    -0.550 OA
ATOM     20  O   UNL     1      -6.307  -9.212 -14.043  1.00  0.00    -0.550 OA
ENDBRANCH  17  18
ENDBRANCH  16  17
ENDBRANCH  15  16
ENDBRANCH  14  15
ENDBRANCH  13  14
ENDBRANCH  12  13
ENDBRANCH  11  12
ENDBRANCH   1  11
TORSDOF 15
ENDMDL
MODEL 6
REMARK VINA RESULT:    -3.671     14.242     15.941
REMARK INTER + INTRA:          -9.635
REMARK INTER:                  -7.346
REMARK INTRA:                  -2.289
REMARK UNBOUND:                -2.744
REMARK SMILES O=C([O-])CCCCCCCCCCCCCCC(=O)[O-]
REMARK SMILES IDX 10 1 9 2 8 3 7 4 6 5 5 6 4 7 2 8 1 9 3 10 11 11 12 12 13 13
REMARK SMILES IDX 14 14 15 15 16 16 17 17 18 18 19 19 20 20
REMARK H PARENT
REMARK Flexibility Score: inf
ROOT
ATOM      1  C   UNL     1     -15.092  -2.069 -16.766  1.00  0.00     0.000 C 
ENDROOT
BRANCH   1   2
ATOM      2  C   UNL     1     -15.624  -1.461 -18.074  1.00  0.00     0.000 C 
BRANCH   2   3
ATOM      3  C   UNL     1     -15.499  -2.422 -19.266  1.00  0.00     0.000 C 
BRANCH   3   4
ATOM      4  C   UNL     1     -16.540  -2.097 -20.345  1.00  0.00     0.000 C 
BRANCH   4   5
ATOM      5  C   UNL     1     -17.532  -1.034 -19.849  1.00  0.00     0.000 C 
BRANCH   5   6
ATOM      6  C   UNL     1     -18.352  -0.411 -20.989  1.00  0.00     0.006 C 
BRANCH   6   7
ATOM      7  C   UNL     1     -18.937  -1.463 -21.940  1.00  0.00     0.053 C 
BRANCH   7   8
ATOM      8  C   UNL     1     -18.459  -1.225 -23.337  1.00  0.00     0.041 C 
ATOM      9  O   UNL     1     -18.978  -1.852 -24.299  1.00  0.00    -0.550 OA
ATOM     10  O   UNL     1     -17.408  -0.349 -23.573  1.00  0.00    -0.550 OA
ENDBRANCH   7   8
ENDBRANCH   6   7
ENDBRANCH   5   6
ENDBRANCH   4   5
ENDBRANCH   3   4
ENDBRANCH   2   3
ENDBRANCH   1   2
BRANCH   1  11
ATOM     11  C   UNL     1     -15.866  -1.578 -15.529  1.00  0.00     0.000 C 
BRANCH  11  12
ATOM     12  C   UNL     1     -17.209  -0.927 -15.892  1.00  0.00     0.000 C 
BRANCH  12  13
ATOM     13  C   UNL     1     -18.315  -1.245 -14.875  1.00  0.00     0.000 C 
BRANCH  13  14
ATOM     14  C   UNL     1     -19.526  -1.887 -15.563  1.00  0.00     0.000 C 
BRANCH  14  15
ATOM     15  C   UNL     1     -19.165  -2.364 -16.979  1.00  0.00     0.000 C 
BRANCH  15  16
ATOM     16  C   UNL     1     -19.170  -3.895 -17.107  1.00  0.00     0.006 C 
BRANCH  16  17
ATOM     17  C   UNL     1     -17.765  -4.501 -16.989  1.00  0.00     0.053 C 
BRANCH  17  18
ATOM     18  C   UNL     1     -17.513  -4.965 -15.590  1.00  0.00     0.041 C 
ATOM     19  O   UNL     1     -18.479  -5.224 -14.824  1.00  0.00    -0.550 OA
ATOM     20  O   UNL     1     -16.212  -5.066 -15.114  1.00  0.00    -0.550 OA
ENDBRANCH  17  18
ENDBRANCH  16  17
ENDBRANCH  15  16
ENDBRANCH  14  15
ENDBRANCH  13  14
ENDBRANCH  12  13
ENDBRANCH  11  12
ENDBRANCH   1  11
TORSDOF 15
ENDMDL
MODEL 7
REMARK VINA RESULT:    -3.655      2.286      3.567
REMARK INTER + INTRA:          -9.605
REMARK INTER:                  -7.308
REMARK INTRA:                  -2.297
REMARK UNBOUND:                -2.744
REMARK SMILES O=C([O-])CCCCCCCCCCCCCCC(=O)[O-]
REMARK SMILES IDX 10 1 9 2 8 3 7 4 6 5 5 6 4 7 2 8 1 9 3 10 11 11 12 12 13 13
REMARK SMILES IDX 14 14 15 15 16 16 17 17 18 18 19 19 20 20
REMARK H PARENT
REMARK Flexibility Score: inf
ROOT
ATOM      1  C   UNL     1      -5.439  -7.634 -16.305  1.00  0.00     0.000 C 
ENDROOT
BRANCH   1   2
ATOM      2  C   UNL     1      -4.130  -7.022 -16.830  1.00  0.00     0.000 C 
BRANCH   2   3
ATOM      3  C   UNL     1      -3.922  -7.269 -18.331  1.00  0.00     0.000 C 
BRANCH   3   4
ATOM      4  C   UNL     1      -4.598  -8.574 -18.771  1.00  0.00     0.000 C 
BRANCH   4   5
ATOM      5  C   UNL     1      -3.574  -9.545 -19.380  1.00  0.00     0.000 C 
BRANCH   5   6
ATOM      6  C   UNL     1      -2.277  -8.843 -19.813  1.00  0.00     0.006 C 
BRANCH   6   7
ATOM      7  C   UNL     1      -1.835  -9.239 -21.227  1.00  0.00     0.053 C 
BRANCH   7   8
ATOM      8  C   UNL     1      -2.267  -8.205 -22.218  1.00  0.00     0.041 C 
ATOM      9  O   UNL     1      -2.569  -7.044 -21.831  1.00  0.00    -0.550 OA
ATOM     10  O   UNL     1      -2.387  -8.536 -23.561  1.00  0.00    -0.550 OA
ENDBRANCH   7   8
ENDBRANCH   6   7
ENDBRANCH   5   6
ENDBRANCH   4   5
ENDBRANCH   3   4
ENDBRANCH   2   3
ENDBRANCH   1   2
BRANCH   1  11
ATOM     11  C   UNL     1      -5.360  -8.009 -14.814  1.00  0.00     0.000 C 
BRANCH  11  12
ATOM     12  C   UNL     1      -6.240  -9.219 -14.463  1.00  0.00     0.000 C 
BRANCH  12  13
ATOM     13  C   UNL     1      -6.100 -10.366 -15.475  1.00  0.00     0.000 C 
BRANCH  13  14
ATOM     14  C   UNL     1      -4.920 -11.276 -15.114  1.00  0.00     0.000 C 
BRANCH  14  15
ATOM     15  C   UNL     1      -3.837 -11.231 -16.203  1.00  0.00     0.000 C 
BRANCH  15  16
ATOM     16  C   UNL     1      -2.664 -10.308 -15.833  1.00  0.00     0.006 C 
BRANCH  16  17
ATOM     17  C   UNL     1      -2.438 -10.219 -14.318  1.00  0.00     0.053 C 
BRANCH  17  18
ATOM     18  C   UNL     1      -1.469  -9.126 -13.999  1.00  0.00     0.041 C 
ATOM     19  O   UNL     1      -1.338  -8.147 -14.781  1.00  0.00    -0.550 OA
ATOM     20  O   UNL     1      -0.675  -9.210 -12.863  1.00  0.00    -0.550 OA
ENDBRANCH  17  18
ENDBRANCH  16  17
ENDBRANCH  15  16
ENDBRANCH  14  15
ENDBRANCH  13  14
ENDBRANCH  12  13
ENDBRANCH  11  12
ENDBRANCH   1  11
TORSDOF 15
ENDMDL
MODEL 8
REMARK VINA RESULT:    -3.652      2.585      3.988
REMARK INTER + INTRA:          -9.598
REMARK INTER:                  -7.379
REMARK INTRA:                  -2.218
REMARK UNBOUND:                -2.744
REMARK SMILES O=C([O-])CCCCCCCCCCCCCCC(=O)[O-]
REMARK SMILES IDX 10 1 9 2 8 3 7 4 6 5 5 6 4 7 2 8 1 9 3 10 11 11 12 12 13 13
REMARK SMILES IDX 14 14 15 15 16 16 17 17 18 18 19 19 20 20
REMARK H PARENT
REMARK Flexibility Score: inf
ROOT
ATOM      1  C   UNL     1      -5.438 -10.588 -17.870  1.00  0.00     0.000 C 
ENDROOT
BRANCH   1   2
ATOM      2  C   UNL     1      -3.998 -10.945 -18.272  1.00  0.00     0.000 C 
BRANCH   2   3
ATOM      3  C   UNL     1      -3.051  -9.737 -18.213  1.00  0.00     0.000 C 
BRANCH   3   4
ATOM      4  C   UNL     1      -3.839  -8.429 -18.069  1.00  0.00     0.000 C 
BRANCH   4   5
ATOM      5  C   UNL     1      -2.991  -7.225 -18.508  1.00  0.00     0.000 C 
BRANCH   5   6
ATOM      6  C   UNL     1      -1.962  -7.588 -19.590  1.00  0.00     0.006 C 
BRANCH   6   7
ATOM      7  C   UNL     1      -2.413  -7.178 -20.997  1.00  0.00     0.053 C 
BRANCH   7   8
ATOM      8  C   UNL     1      -1.786  -8.066 -22.025  1.00  0.00     0.041 C 
ATOM      9  O   UNL     1      -2.493  -8.587 -22.928  1.00  0.00    -0.550 OA
ATOM     10  O   UNL     1      -0.430  -8.360 -21.956  1.00  0.00    -0.550 OA
ENDBRANCH   7   8
ENDBRANCH   6   7
ENDBRANCH   5   6
ENDBRANCH   4   5
ENDBRANCH   3   4
ENDBRANCH   2   3
ENDBRANCH   1   2
BRANCH   1  11
ATOM     11  C   UNL     1      -5.818 -11.138 -16.482  1.00  0.00     0.000 C 
BRANCH  11  12
ATOM     12  C   UNL     1      -6.239 -10.031 -15.504  1.00  0.00     0.000 C 
BRANCH  12  13
ATOM     13  C   UNL     1      -5.126  -9.665 -14.510  1.00  0.00     0.000 C 
BRANCH  13  14
ATOM     14  C   UNL     1      -4.050 -10.757 -14.464  1.00  0.00     0.000 C 
BRANCH  14  15
ATOM     15  C   UNL     1      -2.643 -10.147 -14.549  1.00  0.00     0.000 C 
BRANCH  15  16
ATOM     16  C   UNL     1      -2.668  -8.615 -14.669  1.00  0.00     0.006 C 
BRANCH  16  17
ATOM     17  C   UNL     1      -1.333  -7.970 -14.275  1.00  0.00     0.053 C 
BRANCH  17  18
ATOM     18  C   UNL     1      -0.700  -7.315 -15.461  1.00  0.00     0.041 C 
ATOM     19  O   UNL     1      -0.656  -6.059 -15.543  1.00  0.00    -0.550 OA
ATOM     20  O   UNL     1      -0.201  -8.090 -16.500  1.00  0.00    -0.550 OA
ENDBRANCH  17  18
ENDBRANCH  16  17
ENDBRANCH  15  16
ENDBRANCH  14  15
ENDBRANCH  13  14
ENDBRANCH  12  13
ENDBRANCH  11  12
ENDBRANCH   1  11
TORSDOF 15
ENDMDL
MODEL 9
REMARK VINA RESULT:    -3.642     15.613     17.060
REMARK INTER + INTRA:          -9.580
REMARK INTER:                  -7.780
REMARK INTRA:                  -1.801
REMARK UNBOUND:                -2.744
REMARK SMILES O=C([O-])CCCCCCCCCCCCCCC(=O)[O-]
REMARK SMILES IDX 10 1 9 2 8 3 7 4 6 5 5 6 4 7 2 8 1 9 3 10 11 11 12 12 13 13
REMARK SMILES IDX 14 14 15 15 16 16 17 17 18 18 19 19 20 20
REMARK H PARENT
REMARK Flexibility Score: inf
ROOT
ATOM      1  C   UNL     1     -16.488  -1.965 -20.530  1.00  0.00     0.000 C 
ENDROOT
BRANCH   1   2
ATOM      2  C   UNL     1     -17.172  -0.673 -20.056  1.00  0.00     0.000 C 
BRANCH   2   3
ATOM      3  C   UNL     1     -18.634  -0.895 -19.643  1.00  0.00     0.000 C 
BRANCH   3   4
ATOM      4  C   UNL     1     -19.318  -1.909 -20.569  1.00  0.00     0.000 C 
BRANCH   4   5
ATOM      5  C   UNL     1     -19.933  -1.210 -21.791  1.00  0.00     0.000 C 
BRANCH   5   6
ATOM      6  C   UNL     1     -19.154  -1.485 -23.086  1.00  0.00     0.006 C 
BRANCH   6   7
ATOM      7  C   UNL     1     -19.142  -0.282 -24.036  1.00  0.00     0.053 C 
BRANCH   7   8
ATOM      8  C   UNL     1     -18.196   0.765 -23.541  1.00  0.00     0.041 C 
ATOM      9  O   UNL     1     -16.960   0.528 -23.489  1.00  0.00    -0.550 OA
ATOM     10  O   UNL     1     -18.683   1.985 -23.090  1.00  0.00    -0.550 OA
ENDBRANCH   7   8
ENDBRANCH   6   7
ENDBRANCH   5   6
ENDBRANCH   4   5
ENDBRANCH   3   4
ENDBRANCH   2   3
ENDBRANCH   1   2
BRANCH   1  11
ATOM     11  C   UNL     1     -15.273  -2.344 -19.662  1.00  0.00     0.000 C 
BRANCH  11  12
ATOM     12  C   UNL     1     -15.286  -1.647 -18.293  1.00  0.00     0.000 C 
BRANCH  12  13
ATOM     13  C   UNL     1     -15.447  -2.634 -17.128  1.00  0.00     0.000 C 
BRANCH  13  14
ATOM     14  C   UNL     1     -16.073  -1.947 -15.909  1.00  0.00     0.000 C 
BRANCH  14  15
ATOM     15  C   UNL     1     -17.057  -0.849 -16.341  1.00  0.00     0.000 C 
BRANCH  15  16
ATOM     16  C   UNL     1     -18.230  -0.685 -15.361  1.00  0.00     0.006 C 
BRANCH  16  17
ATOM     17  C   UNL     1     -19.408   0.083 -15.974  1.00  0.00     0.053 C 
BRANCH  17  18
ATOM     18  C   UNL     1     -18.987   1.468 -16.351  1.00  0.00     0.041 C 
ATOM     19  O   UNL     1     -19.214   1.906 -17.510  1.00  0.00    -0.550 OA
ATOM     20  O   UNL     1     -18.301   2.259 -15.438  1.00  0.00    -0.550 OA
ENDBRANCH  17  18
ENDBRANCH  16  17
ENDBRANCH  15  16
ENDBRANCH  14  15
ENDBRANCH  13  14
ENDBRANCH  12  13
ENDBRANCH  11  12
ENDBRANCH   1  11
TORSDOF 15
ENDMDL
