MODEL 1
REMARK VINA RESULT:     5.607      0.000      0.000
REMARK INTER + INTRA:           8.164
REMARK INTER:                   7.737
REMARK INTRA:                   0.426
REMARK UNBOUND:                 0.426
REMARK SMILES CC[C@@H](CC[C@H](C)[C@@H]1CC[C@H]2[C@H]3CC=C4C[C@@H](O)CC[C@]4(C)[C@H]3CC[C@]21C)C(C)C
REMARK SMILES IDX 5 1 4 2 3 3 2 4 1 5 28 6 29 7 30 8 6 9 7 10 8 11 9 12 26 13
REMARK SMILES IDX 10 14 11 15 25 16 27 17 12 18 24 19 23 20 13 21 21 22 14 23
REMARK SMILES IDX 15 24 20 25 22 26 16 27 19 28 17 29 18 30
REMARK H PARENT 18 31
REMARK Flexibility Score: inf
ROOT
ATOM      1  C   UNL     1      16.633 -11.832  11.880  1.00  0.00     0.004 C 
ENDROOT
BRANCH   1   2
ATOM      2  C   UNL     1      15.558 -12.159  12.944  1.00  0.00     0.004 C 
BRANCH   2   3
ATOM      3  C   UNL     1      14.093 -12.162  12.404  1.00  0.00    -0.009 C 
BRANCH   3   4
ATOM      4  C   UNL     1      13.307 -10.877  12.805  1.00  0.00     0.000 C 
ATOM      5  C   UNL     1      12.010 -10.659  12.021  1.00  0.00     0.004 C 
ENDBRANCH   3   4
BRANCH   3   6
ATOM      6  C   UNL     1      13.302 -13.465  12.782  1.00  0.00    -0.014 C 
ATOM      7  C   UNL     1      12.028 -13.645  11.932  1.00  0.00     0.007 C 
ATOM      8  C   UNL     1      14.169 -14.730  12.629  1.00  0.00     0.007 C 
ENDBRANCH   3   6
ENDBRANCH   2   3
ENDBRANCH   1   2
BRANCH   1   9
ATOM      9  C   UNL     1      17.356 -10.467  12.084  1.00  0.00    -0.011 C 
ATOM     10  C   UNL     1      18.694 -10.689  12.819  1.00  0.00     0.008 C 
BRANCH   9  11
ATOM     11  C   UNL     1      16.459  -9.384  12.786  1.00  0.00    -0.002 C 
ATOM     12  C   UNL     1      15.351  -8.861  11.876  1.00  0.00     0.005 C 
ATOM     13  C   UNL     1      17.146  -8.072  13.323  1.00  0.00    -0.026 C 
ATOM     14  C   UNL     1      14.803  -7.660  12.610  1.00  0.00     0.005 C 
ATOM     15  C   UNL     1      16.027  -6.972  13.244  1.00  0.00    -0.001 C 
ATOM     16  C   UNL     1      17.624  -8.270  14.777  1.00  0.00     0.007 C 
ATOM     17  C   UNL     1      18.334  -7.638  12.409  1.00  0.00     0.012 C 
ATOM     18  C   UNL     1      15.730  -6.093  14.531  1.00  0.00     0.000 C 
ATOM     19  C   UNL     1      18.066  -6.957  15.412  1.00  0.00     0.005 C 
ATOM     20  C   UNL     1      16.901  -5.952  15.593  1.00  0.00     0.003 C 
ATOM     21  C   UNL     1      14.354  -6.332  15.195  1.00  0.00     0.031 C 
ATOM     22  C   UNL     1      16.429  -5.811  17.108  1.00  0.00    -0.008 C 
ATOM     23  C   UNL     1      14.130  -5.332  16.289  1.00  0.00    -0.027 C 
ATOM     24  C   UNL     1      15.105  -5.050  17.167  1.00  0.00    -0.065 C 
ATOM     25  C   UNL     1      17.494  -5.001  17.913  1.00  0.00     0.014 C 
ATOM     26  C   UNL     1      16.226  -7.191  17.799  1.00  0.00     0.016 C 
ATOM     27  C   UNL     1      14.939  -3.876  18.111  1.00  0.00     0.063 C 
ATOM     28  C   UNL     1      17.052  -4.667  19.353  1.00  0.00     0.033 C 
ATOM     29  C   UNL     1      15.591  -4.162  19.475  1.00  0.00     0.118 C 
BRANCH  29  30
ATOM     30  O   UNL     1      14.825  -5.108  20.177  1.00  0.00    -0.393 OA
ATOM     31  H   UNL     1      15.157  -6.005  19.916  1.00  0.00     0.210 HD
ENDBRANCH  29  30
ENDBRANCH   9  11
ENDBRANCH   1   9
TORSDOF 7
ENDMDL
MODEL 2
REMARK VINA RESULT:     5.926      2.404      8.028
REMARK INTER + INTRA:           8.604
REMARK INTER:                   7.617
REMARK INTRA:                   0.987
REMARK UNBOUND:                 0.426
REMARK SMILES CC[C@@H](CC[C@H](C)[C@@H]1CC[C@H]2[C@H]3CC=C4C[C@@H](O)CC[C@]4(C)[C@H]3CC[C@]21C)C(C)C
REMARK SMILES IDX 5 1 4 2 3 3 2 4 1 5 28 6 29 7 30 8 6 9 7 10 8 11 9 12 26 13
REMARK SMILES IDX 10 14 11 15 25 16 27 17 12 18 24 19 23 20 13 21 21 22 14 23
REMARK SMILES IDX 15 24 20 25 22 26 16 27 19 28 17 29 18 30
REMARK H PARENT 18 31
REMARK Flexibility Score: inf
ROOT
ATOM      1  C   UNL     1      15.032  -4.233  16.097  1.00  0.00     0.004 C 
ENDROOT
BRANCH   1   2
ATOM      2  C   UNL     1      14.620  -5.475  16.922  1.00  0.00     0.004 C 
BRANCH   2   3
ATOM      3  C   UNL     1      15.256  -5.546  18.347  1.00  0.00    -0.009 C 
BRANCH   3   4
ATOM      4  C   UNL     1      15.332  -4.151  19.037  1.00  0.00     0.000 C 
ATOM      5  C   UNL     1      15.661  -4.201  20.531  1.00  0.00     0.004 C 
ENDBRANCH   3   4
BRANCH   3   6
ATOM      6  C   UNL     1      16.648  -6.274  18.361  1.00  0.00    -0.014 C 
ATOM      7  C   UNL     1      17.073  -6.751  16.957  1.00  0.00     0.007 C 
ATOM      8  C   UNL     1      17.763  -5.374  18.925  1.00  0.00     0.007 C 
ENDBRANCH   3   6
ENDBRANCH   2   3
ENDBRANCH   1   2
BRANCH   1   9
ATOM      9  C   UNL     1      15.114  -4.472  14.559  1.00  0.00    -0.011 C 
ATOM     10  C   UNL     1      13.757  -4.140  13.906  1.00  0.00     0.008 C 
BRANCH   9  11
ATOM     11  C   UNL     1      15.629  -5.906  14.175  1.00  0.00    -0.002 C 
ATOM     12  C   UNL     1      17.092  -5.907  13.737  1.00  0.00     0.005 C 
ATOM     13  C   UNL     1      14.897  -6.685  13.019  1.00  0.00    -0.026 C 
ATOM     14  C   UNL     1      17.303  -7.283  13.152  1.00  0.00     0.005 C 
ATOM     15  C   UNL     1      16.000  -7.615  12.398  1.00  0.00    -0.001 C 
ATOM     16  C   UNL     1      13.728  -7.519  13.586  1.00  0.00     0.007 C 
ATOM     17  C   UNL     1      14.388  -5.710  11.912  1.00  0.00     0.012 C 
ATOM     18  C   UNL     1      15.684  -9.159  12.219  1.00  0.00     0.000 C 
ATOM     19  C   UNL     1      13.154  -8.472  12.544  1.00  0.00     0.005 C 
ATOM     20  C   UNL     1      14.156  -9.575  12.120  1.00  0.00     0.003 C 
ATOM     21  C   UNL     1      16.500 -10.112  13.124  1.00  0.00     0.031 C 
ATOM     22  C   UNL     1      13.802 -11.006  12.724  1.00  0.00    -0.008 C 
ATOM     23  C   UNL     1      16.232 -11.536  12.744  1.00  0.00    -0.027 C 
ATOM     24  C   UNL     1      14.979 -11.959  12.515  1.00  0.00    -0.065 C 
ATOM     25  C   UNL     1      12.561 -11.593  11.980  1.00  0.00     0.014 C 
ATOM     26  C   UNL     1      13.490 -10.948  14.247  1.00  0.00     0.016 C 
ATOM     27  C   UNL     1      14.754 -13.329  11.908  1.00  0.00     0.063 C 
ATOM     28  C   UNL     1      12.238 -13.048  12.379  1.00  0.00     0.033 C 
ATOM     29  C   UNL     1      13.475 -13.980  12.462  1.00  0.00     0.118 C 
BRANCH  29  30
ATOM     30  O   UNL     1      13.680 -14.371  13.796  1.00  0.00    -0.393 OA
ATOM     31  H   UNL     1      13.497 -15.344  13.846  1.00  0.00     0.210 HD
ENDBRANCH  29  30
ENDBRANCH   9  11
ENDBRANCH   1   9
TORSDOF 7
ENDMDL
MODEL 3
REMARK VINA RESULT:     7.000      2.439      8.155
REMARK INTER + INTRA:          10.086
REMARK INTER:                   7.491
REMARK INTRA:                   2.595
REMARK UNBOUND:                 0.426
REMARK SMILES CC[C@@H](CC[C@H](C)[C@@H]1CC[C@H]2[C@H]3CC=C4C[C@@H](O)CC[C@]4(C)[C@H]3CC[C@]21C)C(C)C
REMARK SMILES IDX 5 1 4 2 3 3 2 4 1 5 28 6 29 7 30 8 6 9 7 10 8 11 9 12 26 13
REMARK SMILES IDX 10 14 11 15 25 16 27 17 12 18 24 19 23 20 13 21 21 22 14 23
REMARK SMILES IDX 15 24 20 25 22 26 16 27 19 28 17 29 18 30
REMARK H PARENT 18 31
REMARK Flexibility Score: inf
ROOT
ATOM      1  C   UNL     1      13.501  -4.653  16.047  1.00  0.00     0.004 C 
ENDROOT
BRANCH   1   2
ATOM      2  C   UNL     1      14.225  -5.189  17.304  1.00  0.00     0.004 C 
BRANCH   2   3
ATOM      3  C   UNL     1      15.765  -4.927  17.325  1.00  0.00    -0.009 C 
BRANCH   3   4
ATOM      4  C   UNL     1      16.579  -6.100  16.701  1.00  0.00     0.000 C 
ATOM      5  C   UNL     1      18.032  -5.754  16.367  1.00  0.00     0.004 C 
ENDBRANCH   3   4
BRANCH   3   6
ATOM      6  C   UNL     1      16.302  -4.545  18.751  1.00  0.00    -0.014 C 
ATOM      7  C   UNL     1      15.178  -4.065  19.691  1.00  0.00     0.007 C 
ATOM      8  C   UNL     1      17.028  -5.724  19.428  1.00  0.00     0.007 C 
ENDBRANCH   3   6
ENDBRANCH   2   3
ENDBRANCH   1   2
BRANCH   1   9
ATOM      9  C   UNL     1      14.386  -4.584  14.766  1.00  0.00    -0.011 C 
ATOM     10  C   UNL     1      13.607  -3.893  13.629  1.00  0.00     0.008 C 
BRANCH   9  11
ATOM     11  C   UNL     1      14.969  -5.979  14.333  1.00  0.00    -0.002 C 
ATOM     12  C   UNL     1      16.420  -5.890  13.869  1.00  0.00     0.005 C 
ATOM     13  C   UNL     1      14.255  -6.763  13.169  1.00  0.00    -0.026 C 
ATOM     14  C   UNL     1      16.691  -7.236  13.241  1.00  0.00     0.005 C 
ATOM     15  C   UNL     1      15.394  -7.616  12.503  1.00  0.00    -0.001 C 
ATOM     16  C   UNL     1      13.143  -7.672  13.734  1.00  0.00     0.007 C 
ATOM     17  C   UNL     1      13.675  -5.787  12.099  1.00  0.00     0.012 C 
ATOM     18  C   UNL     1      15.155  -9.170  12.286  1.00  0.00     0.000 C 
ATOM     19  C   UNL     1      12.600  -8.626  12.676  1.00  0.00     0.005 C 
ATOM     20  C   UNL     1      13.649  -9.663  12.203  1.00  0.00     0.003 C 
ATOM     21  C   UNL     1      16.037 -10.102  13.148  1.00  0.00     0.031 C 
ATOM     22  C   UNL     1      13.383 -11.126  12.773  1.00  0.00    -0.008 C 
ATOM     23  C   UNL     1      15.836 -11.528  12.734  1.00  0.00    -0.027 C 
ATOM     24  C   UNL     1      14.603 -12.010  12.516  1.00  0.00    -0.065 C 
ATOM     25  C   UNL     1      12.159 -11.758  12.036  1.00  0.00     0.014 C 
ATOM     26  C   UNL     1      13.097 -11.126  14.303  1.00  0.00     0.016 C 
ATOM     27  C   UNL     1      14.439 -13.373  11.875  1.00  0.00     0.063 C 
ATOM     28  C   UNL     1      11.921 -13.238  12.400  1.00  0.00     0.033 C 
ATOM     29  C   UNL     1      13.206 -14.105  12.434  1.00  0.00     0.118 C 
BRANCH  29  30
ATOM     30  O   UNL     1      13.457 -14.521  13.752  1.00  0.00    -0.393 OA
ATOM     31  H   UNL     1      12.594 -14.482  14.239  1.00  0.00     0.210 HD
ENDBRANCH  29  30
ENDBRANCH   9  11
ENDBRANCH   1   9
TORSDOF 7
ENDMDL
MODEL 4
REMARK VINA RESULT:     7.788      2.380      7.704
REMARK INTER + INTRA:          11.174
REMARK INTER:                  10.234
REMARK INTRA:                   0.940
REMARK UNBOUND:                 0.426
REMARK SMILES CC[C@@H](CC[C@H](C)[C@@H]1CC[C@H]2[C@H]3CC=C4C[C@@H](O)CC[C@]4(C)[C@H]3CC[C@]21C)C(C)C
REMARK SMILES IDX 5 1 4 2 3 3 2 4 1 5 28 6 29 7 30 8 6 9 7 10 8 11 9 12 26 13
REMARK SMILES IDX 10 14 11 15 25 16 27 17 12 18 24 19 23 20 13 21 21 22 14 23
REMARK SMILES IDX 15 24 20 25 22 26 16 27 19 28 17 29 18 30
REMARK H PARENT 18 31
REMARK Flexibility Score: inf
ROOT
ATOM      1  C   UNL     1      17.214  -5.195  15.756  1.00  0.00     0.004 C 
ENDROOT
BRANCH   1   2
ATOM      2  C   UNL     1      15.794  -5.788  15.906  1.00  0.00     0.004 C 
BRANCH   2   3
ATOM      3  C   UNL     1      14.900  -5.069  16.966  1.00  0.00    -0.009 C 
BRANCH   3   4
ATOM      4  C   UNL     1      14.102  -3.875  16.362  1.00  0.00     0.000 C 
ATOM      5  C   UNL     1      13.443  -4.172  15.013  1.00  0.00     0.004 C 
ENDBRANCH   3   4
BRANCH   3   6
ATOM      6  C   UNL     1      15.698  -4.640  18.250  1.00  0.00    -0.014 C 
ATOM      7  C   UNL     1      14.765  -4.270  19.422  1.00  0.00     0.007 C 
ATOM      8  C   UNL     1      16.659  -5.746  18.727  1.00  0.00     0.007 C 
ENDBRANCH   3   6
ENDBRANCH   2   3
ENDBRANCH   1   2
BRANCH   1   9
ATOM      9  C   UNL     1      17.899  -5.484  14.386  1.00  0.00    -0.011 C 
ATOM     10  C   UNL     1      17.352  -4.519  13.315  1.00  0.00     0.008 C 
BRANCH   9  11
ATOM     11  C   UNL     1      17.801  -6.989  13.944  1.00  0.00    -0.002 C 
ATOM     12  C   UNL     1      19.090  -7.498  13.303  1.00  0.00     0.005 C 
ATOM     13  C   UNL     1      16.687  -7.398  12.908  1.00  0.00    -0.026 C 
ATOM     14  C   UNL     1      18.705  -8.829  12.703  1.00  0.00     0.005 C 
ATOM     15  C   UNL     1      17.282  -8.634  12.144  1.00  0.00    -0.001 C 
ATOM     16  C   UNL     1      15.382  -7.778  13.642  1.00  0.00     0.007 C 
ATOM     17  C   UNL     1      16.423  -6.256  11.878  1.00  0.00     0.012 C 
ATOM     18  C   UNL     1      16.405  -9.950  12.023  1.00  0.00     0.000 C 
ATOM     19  C   UNL     1      14.367  -8.412  12.698  1.00  0.00     0.005 C 
ATOM     20  C   UNL     1      14.832  -9.782  12.144  1.00  0.00     0.003 C 
ATOM     21  C   UNL     1      16.932 -11.173  12.809  1.00  0.00     0.031 C 
ATOM     22  C   UNL     1      14.067 -11.014  12.802  1.00  0.00    -0.008 C 
ATOM     23  C   UNL     1      16.116 -12.386  12.482  1.00  0.00    -0.027 C 
ATOM     24  C   UNL     1      14.777 -12.317  12.436  1.00  0.00    -0.065 C 
ATOM     25  C   UNL     1      12.608 -11.080  12.247  1.00  0.00     0.014 C 
ATOM     26  C   UNL     1      14.005 -10.916  14.354  1.00  0.00     0.016 C 
ATOM     27  C   UNL     1      13.989 -13.486  11.877  1.00  0.00     0.063 C 
ATOM     28  C   UNL     1      11.836 -12.336  12.698  1.00  0.00     0.033 C 
ATOM     29  C   UNL     1      12.648 -13.655  12.611  1.00  0.00     0.118 C 
BRANCH  29  30
ATOM     30  O   UNL     1      12.874 -14.152  13.905  1.00  0.00    -0.393 OA
ATOM     31  H   UNL     1      13.136 -13.382  14.472  1.00  0.00     0.210 HD
ENDBRANCH  29  30
ENDBRANCH   9  11
ENDBRANCH   1   9
TORSDOF 7
ENDMDL
