MODEL 1
REMARK VINA RESULT:    -0.170      0.000      0.000
REMARK INTER + INTRA:           0.506
REMARK INTER:                  -0.185
REMARK INTRA:                   0.691
REMARK UNBOUND:                 0.691
REMARK SMILES C[C@H]1[C@H](C)CC[C@]2(C(=O)[O-])CC[C@]3(C)C(=CC[C@H]4[C@@]5(C)CC[C@H](O)C(C)(C)[C@H]5CC[C@]43C)[C@H]12
REMARK SMILES IDX 7 1 6 2 11 3 33 4 5 5 12 6 15 7 2 8 3 9 13 10 16 11 1 12
REMARK SMILES IDX 4 13 14 14 31 15 17 16 18 17 30 18 32 19 19 20 29 21 28 22
REMARK SMILES IDX 21 23 20 24 25 25 22 26 23 27 26 28 27 29 8 30 9 31 10 32
REMARK SMILES IDX 24 33
REMARK H PARENT 24 34
REMARK Flexibility Score: inf
ROOT
ATOM      1  C   UNL     1      -1.041   3.902  -1.196  1.00  0.00     0.017 C 
ATOM      2  C   UNL     1       0.214   4.294  -0.358  1.00  0.00     0.014 C 
ATOM      3  C   UNL     1      -0.580   3.081  -2.458  1.00  0.00     0.014 C 
ATOM      4  C   UNL     1      -1.888   5.176  -1.578  1.00  0.00     0.030 C 
ATOM      5  C   UNL     1       0.958   5.524  -0.890  1.00  0.00     0.004 C 
ATOM      6  C   UNL     1      -1.688   2.810  -3.516  1.00  0.00     0.013 C 
ATOM      7  C   UNL     1      -2.922   4.774  -2.642  1.00  0.00    -0.063 C 
ATOM      8  C   UNL     1      -1.131   6.508  -1.894  1.00  0.00    -0.003 C 
ATOM      9  C   UNL     1       0.036   6.750  -0.907  1.00  0.00    -0.011 C 
ATOM     10  C   UNL     1      -2.479   4.084  -3.949  1.00  0.00    -0.006 C 
ATOM     11  C   UNL     1      -4.170   4.552  -2.183  1.00  0.00    -0.027 C 
ATOM     12  C   UNL     1      -2.145   7.677  -1.878  1.00  0.00     0.008 C 
ATOM     13  C   UNL     1       0.857   8.001  -1.268  1.00  0.00     0.008 C 
ATOM     14  C   UNL     1      -1.468   4.986  -4.738  1.00  0.00     0.017 C 
ATOM     15  C   UNL     1      -3.777   3.793  -4.899  1.00  0.00    -0.020 C 
ATOM     16  C   UNL     1      -4.898   3.317  -2.591  1.00  0.00     0.032 C 
ATOM     17  C   UNL     1      -5.000   3.139  -4.131  1.00  0.00     0.006 C 
ATOM     18  C   UNL     1      -4.233   5.162  -5.484  1.00  0.00     0.008 C 
ATOM     19  C   UNL     1      -3.360   2.835  -6.068  1.00  0.00     0.012 C 
ATOM     20  C   UNL     1      -6.496   3.326  -4.747  1.00  0.00    -0.025 C 
ATOM     21  C   UNL     1      -5.605   5.275  -6.161  1.00  0.00     0.005 C 
ATOM     22  C   UNL     1      -6.500   4.008  -6.181  1.00  0.00     0.003 C 
ATOM     23  C   UNL     1      -7.435   4.168  -3.818  1.00  0.00     0.010 C 
ATOM     24  C   UNL     1      -7.073   1.883  -4.833  1.00  0.00     0.012 C 
ATOM     25  C   UNL     1      -7.942   4.364  -6.792  1.00  0.00    -0.006 C 
ATOM     26  C   UNL     1      -8.840   4.436  -4.387  1.00  0.00     0.033 C 
ATOM     27  C   UNL     1      -8.807   5.133  -5.748  1.00  0.00     0.120 C 
ATOM     28  C   UNL     1      -7.814   5.280  -8.049  1.00  0.00     0.014 C 
ATOM     29  C   UNL     1      -8.685   3.089  -7.296  1.00  0.00     0.014 C 
ENDROOT
BRANCH   1  30
ATOM     30  C   UNL     1      -1.894   3.000  -0.295  1.00  0.00     0.048 C 
ATOM     31  O   UNL     1      -1.487   1.875   0.099  1.00  0.00    -0.550 OA
ATOM     32  O   UNL     1      -3.154   3.428   0.122  1.00  0.00    -0.550 OA
ENDBRANCH   1  30
BRANCH  27  33
ATOM     33  O   UNL     1     -10.121   5.284  -6.226  1.00  0.00    -0.393 OA
ATOM     34  H   UNL     1     -10.355   6.248  -6.122  1.00  0.00     0.210 HD
ENDBRANCH  27  33
TORSDOF 2
ENDMDL
MODEL 2
REMARK VINA RESULT:     2.084      2.199      7.877
REMARK INTER + INTRA:           2.959
REMARK INTER:                   1.987
REMARK INTRA:                   0.972
REMARK UNBOUND:                 0.691
REMARK SMILES C[C@H]1[C@H](C)CC[C@]2(C(=O)[O-])CC[C@]3(C)C(=CC[C@H]4[C@@]5(C)CC[C@H](O)C(C)(C)[C@H]5CC[C@]43C)[C@H]12
REMARK SMILES IDX 7 1 6 2 11 3 33 4 5 5 12 6 15 7 2 8 3 9 13 10 16 11 1 12
REMARK SMILES IDX 4 13 14 14 31 15 17 16 18 17 30 18 32 19 19 20 29 21 28 22
REMARK SMILES IDX 21 23 20 24 25 25 22 26 23 27 26 28 27 29 8 30 9 31 10 32
REMARK SMILES IDX 24 33
REMARK H PARENT 24 34
REMARK Flexibility Score: inf
ROOT
ATOM      1  C   UNL     1      -6.911   2.845  -7.233  1.00  0.00     0.017 C 
ATOM      2  C   UNL     1      -8.162   2.800  -8.162  1.00  0.00     0.014 C 
ATOM      3  C   UNL     1      -7.143   1.876  -6.014  1.00  0.00     0.014 C 
ATOM      4  C   UNL     1      -6.593   4.322  -6.781  1.00  0.00     0.030 C 
ATOM      5  C   UNL     1      -9.325   3.677  -7.682  1.00  0.00     0.004 C 
ATOM      6  C   UNL     1      -6.086   1.974  -4.876  1.00  0.00     0.013 C 
ATOM      7  C   UNL     1      -5.560   4.272  -5.644  1.00  0.00    -0.063 C 
ATOM      8  C   UNL     1      -7.789   5.295  -6.517  1.00  0.00    -0.003 C 
ATOM      9  C   UNL     1      -8.894   5.145  -7.589  1.00  0.00    -0.011 C 
ATOM     10  C   UNL     1      -5.824   3.430  -4.378  1.00  0.00    -0.006 C 
ATOM     11  C   UNL     1      -4.285   4.514  -6.007  1.00  0.00    -0.027 C 
ATOM     12  C   UNL     1      -7.249   6.744  -6.450  1.00  0.00     0.008 C 
ATOM     13  C   UNL     1     -10.124   6.020  -7.286  1.00  0.00     0.008 C 
ATOM     14  C   UNL     1      -7.140   3.898  -3.664  1.00  0.00     0.017 C 
ATOM     15  C   UNL     1      -4.576   3.580  -3.332  1.00  0.00    -0.020 C 
ATOM     16  C   UNL     1      -3.201   3.599  -5.550  1.00  0.00     0.032 C 
ATOM     17  C   UNL     1      -3.151   3.419  -4.008  1.00  0.00     0.006 C 
ATOM     18  C   UNL     1      -4.670   5.004  -2.707  1.00  0.00     0.008 C 
ATOM     19  C   UNL     1      -4.712   2.501  -2.204  1.00  0.00     0.012 C 
ATOM     20  C   UNL     1      -1.862   4.096  -3.278  1.00  0.00    -0.025 C 
ATOM     21  C   UNL     1      -3.476   5.566  -1.926  1.00  0.00     0.005 C 
ATOM     22  C   UNL     1      -2.197   4.691  -1.845  1.00  0.00     0.003 C 
ATOM     23  C   UNL     1      -1.215   5.242  -4.128  1.00  0.00     0.010 C 
ATOM     24  C   UNL     1      -0.824   2.944  -3.156  1.00  0.00     0.012 C 
ATOM     25  C   UNL     1      -1.018   5.508  -1.124  1.00  0.00    -0.006 C 
ATOM     26  C   UNL     1      -0.036   5.965  -3.452  1.00  0.00     0.033 C 
ATOM     27  C   UNL     1      -0.407   6.563  -2.095  1.00  0.00     0.120 C 
ATOM     28  C   UNL     1      -1.546   6.282   0.125  1.00  0.00     0.014 C 
ATOM     29  C   UNL     1       0.088   4.557  -0.571  1.00  0.00     0.014 C 
ENDROOT
BRANCH   1  30
ATOM     30  C   UNL     1      -5.735   2.326  -8.071  1.00  0.00     0.048 C 
ATOM     31  O   UNL     1      -5.774   2.297  -9.329  1.00  0.00    -0.550 OA
ATOM     32  O   UNL     1      -4.576   1.881  -7.436  1.00  0.00    -0.550 OA
ENDBRANCH   1  30
BRANCH  27  33
ATOM     33  O   UNL     1       0.735   7.149  -1.516  1.00  0.00    -0.393 OA
ATOM     34  H   UNL     1       1.122   7.760  -2.202  1.00  0.00     0.210 HD
ENDBRANCH  27  33
TORSDOF 2
ENDMDL
