MODEL 1
REMARK VINA RESULT:    -4.176      0.000      0.000
REMARK INTER + INTRA:          -4.429
REMARK INTER:                  -4.420
REMARK INTRA:                  -0.009
REMARK UNBOUND:                -0.009
REMARK SMILES O=Cc1ccccc1
REMARK SMILES IDX 6 1 5 2 4 3 3 4 8 5 7 6 2 7 1 8
REMARK H PARENT
REMARK Flexibility Score: inf
ROOT
ATOM      1  C   UNL     1      15.020  43.463   3.656  1.00  0.00     0.000 A 
ATOM      2  C   UNL     1      13.663  43.138   3.592  1.00  0.00     0.001 A 
ATOM      3  C   UNL     1      12.695  44.139   3.727  1.00  0.00     0.011 A 
ATOM      4  C   UNL     1      13.083  45.477   3.926  1.00  0.00     0.014 A 
ATOM      5  C   UNL     1      14.449  45.794   3.989  1.00  0.00     0.011 A 
ATOM      6  C   UNL     1      15.413  44.790   3.855  1.00  0.00     0.001 A 
ENDROOT
BRANCH   4   7
ATOM      7  C   UNL     1      12.079  46.547   4.070  1.00  0.00     0.260 C 
ATOM      8  O   UNL     1      11.533  47.068   3.061  1.00  0.00    -0.298 OA
ENDBRANCH   4   7
TORSDOF 1
ENDMDL
MODEL 2
REMARK VINA RESULT:    -4.065      3.881      4.676
REMARK INTER + INTRA:          -4.311
REMARK INTER:                  -4.299
REMARK INTRA:                  -0.012
REMARK UNBOUND:                -0.009
REMARK SMILES O=Cc1ccccc1
REMARK SMILES IDX 6 1 5 2 4 3 3 4 8 5 7 6 2 7 1 8
REMARK H PARENT
REMARK Flexibility Score: inf
ROOT
ATOM      1  C   UNL     1      15.180  43.744   3.707  1.00  0.00     0.000 A 
ATOM      2  C   UNL     1      14.185  43.513   4.660  1.00  0.00     0.001 A 
ATOM      3  C   UNL     1      14.530  43.061   5.938  1.00  0.00     0.011 A 
ATOM      4  C   UNL     1      15.879  42.839   6.271  1.00  0.00     0.014 A 
ATOM      5  C   UNL     1      16.871  43.074   5.307  1.00  0.00     0.011 A 
ATOM      6  C   UNL     1      16.522  43.525   4.030  1.00  0.00     0.001 A 
ENDROOT
BRANCH   4   7
ATOM      7  C   UNL     1      16.264  42.363   7.612  1.00  0.00     0.260 C 
ATOM      8  O   UNL     1      17.324  42.761   8.165  1.00  0.00    -0.298 OA
ENDBRANCH   4   7
TORSDOF 1
ENDMDL
MODEL 3
REMARK VINA RESULT:    -4.053      3.340      4.224
REMARK INTER + INTRA:          -4.299
REMARK INTER:                  -4.287
REMARK INTRA:                  -0.012
REMARK UNBOUND:                -0.009
REMARK SMILES O=Cc1ccccc1
REMARK SMILES IDX 6 1 5 2 4 3 3 4 8 5 7 6 2 7 1 8
REMARK H PARENT
REMARK Flexibility Score: inf
ROOT
ATOM      1  C   UNL     1      15.255  43.791   3.654  1.00  0.00     0.000 A 
ATOM      2  C   UNL     1      14.620  44.715   4.488  1.00  0.00     0.001 A 
ATOM      3  C   UNL     1      15.218  45.099   5.693  1.00  0.00     0.011 A 
ATOM      4  C   UNL     1      16.460  44.557   6.071  1.00  0.00     0.014 A 
ATOM      5  C   UNL     1      17.090  43.629   5.228  1.00  0.00     0.011 A 
ATOM      6  C   UNL     1      16.489  43.247   4.024  1.00  0.00     0.001 A 
ENDROOT
BRANCH   4   7
ATOM      7  C   UNL     1      17.107  44.947   7.337  1.00  0.00     0.260 C 
ATOM      8  O   UNL     1      16.424  45.271   8.345  1.00  0.00    -0.298 OA
ENDBRANCH   4   7
TORSDOF 1
ENDMDL
MODEL 4
REMARK VINA RESULT:    -4.052      1.458      2.242
REMARK INTER + INTRA:          -4.298
REMARK INTER:                  -4.284
REMARK INTRA:                  -0.014
REMARK UNBOUND:                -0.009
REMARK SMILES O=Cc1ccccc1
REMARK SMILES IDX 6 1 5 2 4 3 3 4 8 5 7 6 2 7 1 8
REMARK H PARENT
REMARK Flexibility Score: inf
ROOT
ATOM      1  C   UNL     1      13.710  43.030   3.311  1.00  0.00     0.000 A 
ATOM      2  C   UNL     1      14.869  43.808   3.360  1.00  0.00     0.001 A 
ATOM      3  C   UNL     1      14.860  45.036   4.030  1.00  0.00     0.011 A 
ATOM      4  C   UNL     1      13.687  45.493   4.658  1.00  0.00     0.014 A 
ATOM      5  C   UNL     1      12.527  44.704   4.602  1.00  0.00     0.011 A 
ATOM      6  C   UNL     1      12.539  43.477   3.931  1.00  0.00     0.001 A 
ENDROOT
BRANCH   4   7
ATOM      7  C   UNL     1      13.656  46.784   5.369  1.00  0.00     0.260 C 
ATOM      8  O   UNL     1      12.659  47.124   6.059  1.00  0.00    -0.298 OA
ENDBRANCH   4   7
TORSDOF 1
ENDMDL
MODEL 5
REMARK VINA RESULT:    -4.040      1.911      2.576
REMARK INTER + INTRA:          -4.285
REMARK INTER:                  -4.276
REMARK INTRA:                  -0.009
REMARK UNBOUND:                -0.009
REMARK SMILES O=Cc1ccccc1
REMARK SMILES IDX 6 1 5 2 4 3 3 4 8 5 7 6 2 7 1 8
REMARK H PARENT
REMARK Flexibility Score: inf
ROOT
ATOM      1  C   UNL     1      16.814  43.000   5.400  1.00  0.00     0.000 A 
ATOM      2  C   UNL     1      15.732  42.842   6.269  1.00  0.00     0.001 A 
ATOM      3  C   UNL     1      14.435  43.133   5.833  1.00  0.00     0.011 A 
ATOM      4  C   UNL     1      14.214  43.584   4.518  1.00  0.00     0.014 A 
ATOM      5  C   UNL     1      15.308  43.739   3.653  1.00  0.00     0.011 A 
ATOM      6  C   UNL     1      16.603  43.449   4.093  1.00  0.00     0.001 A 
ENDROOT
BRANCH   4   7
ATOM      7  C   UNL     1      12.856  43.896   4.038  1.00  0.00     0.260 C 
ATOM      8  O   UNL     1      12.510  45.082   3.788  1.00  0.00    -0.298 OA
ENDBRANCH   4   7
TORSDOF 1
ENDMDL
MODEL 6
REMARK VINA RESULT:    -4.017      2.897      3.545
REMARK INTER + INTRA:          -4.261
REMARK INTER:                  -4.249
REMARK INTRA:                  -0.012
REMARK UNBOUND:                -0.009
REMARK SMILES O=Cc1ccccc1
REMARK SMILES IDX 6 1 5 2 4 3 3 4 8 5 7 6 2 7 1 8
REMARK H PARENT
REMARK Flexibility Score: inf
ROOT
ATOM      1  C   UNL     1      12.468  42.299   4.175  1.00  0.00     0.000 A 
ATOM      2  C   UNL     1      12.902  42.360   5.502  1.00  0.00     0.001 A 
ATOM      3  C   UNL     1      14.090  43.025   5.822  1.00  0.00     0.011 A 
ATOM      4  C   UNL     1      14.853  43.637   4.811  1.00  0.00     0.014 A 
ATOM      5  C   UNL     1      14.410  43.571   3.481  1.00  0.00     0.011 A 
ATOM      6  C   UNL     1      13.222  42.904   3.165  1.00  0.00     0.001 A 
ENDROOT
BRANCH   4   7
ATOM      7  C   UNL     1      16.108  44.344   5.126  1.00  0.00     0.260 C 
ATOM      8  O   UNL     1      16.244  44.979   6.206  1.00  0.00    -0.298 OA
ENDBRANCH   4   7
TORSDOF 1
ENDMDL
MODEL 7
REMARK VINA RESULT:    -4.011      2.621      3.623
REMARK INTER + INTRA:          -4.254
REMARK INTER:                  -4.244
REMARK INTRA:                  -0.010
REMARK UNBOUND:                -0.009
REMARK SMILES O=Cc1ccccc1
REMARK SMILES IDX 6 1 5 2 4 3 3 4 8 5 7 6 2 7 1 8
REMARK H PARENT
REMARK Flexibility Score: inf
ROOT
ATOM      1  C   UNL     1      12.666  45.161   3.972  1.00  0.00     0.000 A 
ATOM      2  C   UNL     1      12.777  43.815   3.614  1.00  0.00     0.001 A 
ATOM      3  C   UNL     1      14.031  43.196   3.594  1.00  0.00     0.011 A 
ATOM      4  C   UNL     1      15.186  43.924   3.935  1.00  0.00     0.014 A 
ATOM      5  C   UNL     1      15.065  45.276   4.293  1.00  0.00     0.011 A 
ATOM      6  C   UNL     1      13.809  45.892   4.311  1.00  0.00     0.001 A 
ENDROOT
BRANCH   4   7
ATOM      7  C   UNL     1      16.517  43.291   3.920  1.00  0.00     0.260 C 
ATOM      8  O   UNL     1      17.225  43.239   4.961  1.00  0.00    -0.298 OA
ENDBRANCH   4   7
TORSDOF 1
ENDMDL
MODEL 8
REMARK VINA RESULT:    -4.005      2.938      4.008
REMARK INTER + INTRA:          -4.247
REMARK INTER:                  -4.237
REMARK INTRA:                  -0.011
REMARK UNBOUND:                -0.009
REMARK SMILES O=Cc1ccccc1
REMARK SMILES IDX 6 1 5 2 4 3 3 4 8 5 7 6 2 7 1 8
REMARK H PARENT
REMARK Flexibility Score: inf
ROOT
ATOM      1  C   UNL     1      17.212  44.658   7.215  1.00  0.00     0.000 A 
ATOM      2  C   UNL     1      17.763  43.724   6.334  1.00  0.00     0.001 A 
ATOM      3  C   UNL     1      17.099  43.403   5.146  1.00  0.00     0.011 A 
ATOM      4  C   UNL     1      15.873  44.019   4.831  1.00  0.00     0.014 A 
ATOM      5  C   UNL     1      15.327  44.956   5.722  1.00  0.00     0.011 A 
ATOM      6  C   UNL     1      15.994  45.273   6.910  1.00  0.00     0.001 A 
ENDROOT
BRANCH   4   7
ATOM      7  C   UNL     1      15.157  43.695   3.584  1.00  0.00     0.260 C 
ATOM      8  O   UNL     1      13.948  43.339   3.602  1.00  0.00    -0.298 OA
ENDBRANCH   4   7
TORSDOF 1
ENDMDL
MODEL 9
REMARK VINA RESULT:    -3.991      2.921      3.975
REMARK INTER + INTRA:          -4.233
REMARK INTER:                  -4.222
REMARK INTRA:                  -0.011
REMARK UNBOUND:                -0.009
REMARK SMILES O=Cc1ccccc1
REMARK SMILES IDX 6 1 5 2 4 3 3 4 8 5 7 6 2 7 1 8
REMARK H PARENT
REMARK Flexibility Score: inf
ROOT
ATOM      1  C   UNL     1      17.265  44.648   7.224  1.00  0.00     0.000 A 
ATOM      2  C   UNL     1      16.044  45.270   6.951  1.00  0.00     0.001 A 
ATOM      3  C   UNL     1      15.349  44.966   5.776  1.00  0.00     0.011 A 
ATOM      4  C   UNL     1      15.874  44.032   4.864  1.00  0.00     0.014 A 
ATOM      5  C   UNL     1      17.101  43.412   5.147  1.00  0.00     0.011 A 
ATOM      6  C   UNL     1      17.794  43.720   6.323  1.00  0.00     0.001 A 
ENDROOT
BRANCH   4   7
ATOM      7  C   UNL     1      15.158  43.697   3.620  1.00  0.00     0.260 C 
ATOM      8  O   UNL     1      13.907  43.550   3.608  1.00  0.00    -0.298 OA
ENDBRANCH   4   7
TORSDOF 1
ENDMDL
