MODEL 1
REMARK VINA RESULT:    -4.053      0.000      0.000
REMARK INTER + INTRA:          -4.732
REMARK INTER:                  -4.527
REMARK INTRA:                  -0.205
REMARK UNBOUND:                -0.205
REMARK SMILES O=C([O-])c1ccccc1C(=O)[O-]
REMARK SMILES IDX 4 1 9 2 5 3 8 4 6 5 7 6 2 7 1 8 3 9 10 10 11 11 12 12
REMARK H PARENT
REMARK Flexibility Score: inf
ROOT
ATOM      1  C   UNL     1      56.525  26.030  50.574  1.00  0.00     0.006 A 
ATOM      2  C   UNL     1      56.315  27.400  50.896  1.00  0.00     0.006 A 
ATOM      3  C   UNL     1      55.466  25.286  50.022  1.00  0.00     0.010 A 
ATOM      4  C   UNL     1      55.073  27.990  50.594  1.00  0.00     0.010 A 
ATOM      5  C   UNL     1      54.236  25.886  49.752  1.00  0.00     0.001 A 
ATOM      6  C   UNL     1      54.044  27.238  50.025  1.00  0.00     0.001 A 
ENDROOT
BRANCH   1   7
ATOM      7  C   UNL     1      57.837  25.359  50.728  1.00  0.00     0.072 C 
ATOM      8  O   UNL     1      58.745  25.515  49.869  1.00  0.00    -0.545 OA
ATOM      9  O   UNL     1      58.055  24.492  51.791  1.00  0.00    -0.545 OA
ENDBRANCH   1   7
BRANCH   2  10
ATOM     10  C   UNL     1      57.324  28.220  51.604  1.00  0.00     0.072 C 
ATOM     11  O   UNL     1      57.288  28.322  52.861  1.00  0.00    -0.545 OA
ATOM     12  O   UNL     1      58.359  28.832  50.907  1.00  0.00    -0.545 OA
ENDBRANCH   2  10
TORSDOF 2
ENDMDL
MODEL 2
REMARK VINA RESULT:    -4.053      0.084      3.152
REMARK INTER + INTRA:          -4.732
REMARK INTER:                  -4.525
REMARK INTRA:                  -0.207
REMARK UNBOUND:                -0.205
REMARK SMILES O=C([O-])c1ccccc1C(=O)[O-]
REMARK SMILES IDX 4 1 9 2 5 3 8 4 6 5 7 6 2 7 1 8 3 9 10 10 11 11 12 12
REMARK H PARENT
REMARK Flexibility Score: inf
ROOT
ATOM      1  C   UNL     1      56.246  27.381  50.908  1.00  0.00     0.006 A 
ATOM      2  C   UNL     1      56.469  26.020  50.553  1.00  0.00     0.006 A 
ATOM      3  C   UNL     1      55.005  27.972  50.608  1.00  0.00     0.010 A 
ATOM      4  C   UNL     1      55.419  25.285  49.970  1.00  0.00     0.010 A 
ATOM      5  C   UNL     1      53.986  27.230  50.010  1.00  0.00     0.001 A 
ATOM      6  C   UNL     1      54.188  25.887  49.703  1.00  0.00     0.001 A 
ENDROOT
BRANCH   1   7
ATOM      7  C   UNL     1      57.241  28.194  51.646  1.00  0.00     0.072 C 
ATOM      8  O   UNL     1      57.154  28.341  52.894  1.00  0.00    -0.545 OA
ATOM      9  O   UNL     1      58.245  28.861  50.956  1.00  0.00    -0.545 OA
ENDBRANCH   1   7
BRANCH   2  10
ATOM     10  C   UNL     1      57.785  25.360  50.703  1.00  0.00     0.072 C 
ATOM     11  O   UNL     1      58.699  25.569  49.860  1.00  0.00    -0.545 OA
ATOM     12  O   UNL     1      58.055  24.555  51.803  1.00  0.00    -0.545 OA
ENDBRANCH   2  10
TORSDOF 2
ENDMDL
MODEL 3
REMARK VINA RESULT:    -4.020     11.642     13.704
REMARK INTER + INTRA:          -4.695
REMARK INTER:                  -4.500
REMARK INTRA:                  -0.196
REMARK UNBOUND:                -0.205
REMARK SMILES O=C([O-])c1ccccc1C(=O)[O-]
REMARK SMILES IDX 4 1 9 2 5 3 8 4 6 5 7 6 2 7 1 8 3 9 10 10 11 11 12 12
REMARK H PARENT
REMARK Flexibility Score: inf
ROOT
ATOM      1  C   UNL     1      63.935  32.963  60.774  1.00  0.00     0.006 A 
ATOM      2  C   UNL     1      62.575  33.235  60.458  1.00  0.00     0.006 A 
ATOM      3  C   UNL     1      64.738  33.996  61.292  1.00  0.00     0.010 A 
ATOM      4  C   UNL     1      62.052  34.513  60.731  1.00  0.00     0.010 A 
ATOM      5  C   UNL     1      64.204  35.261  61.535  1.00  0.00     0.001 A 
ATOM      6  C   UNL     1      62.862  35.517  61.267  1.00  0.00     0.001 A 
ENDROOT
BRANCH   1   7
ATOM      7  C   UNL     1      64.537  31.614  60.650  1.00  0.00     0.072 C 
ATOM      8  O   UNL     1      65.319  31.343  59.702  1.00  0.00    -0.545 OA
ATOM      9  O   UNL     1      64.186  30.611  61.545  1.00  0.00    -0.545 OA
ENDBRANCH   1   7
BRANCH   2  10
ATOM     10  C   UNL     1      61.698  32.252  59.782  1.00  0.00     0.072 C 
ATOM     11  O   UNL     1      61.574  32.271  58.528  1.00  0.00    -0.545 OA
ATOM     12  O   UNL     1      61.054  31.258  60.509  1.00  0.00    -0.545 OA
ENDBRANCH   2  10
TORSDOF 2
ENDMDL
MODEL 4
REMARK VINA RESULT:    -3.910     11.568     13.688
REMARK INTER + INTRA:          -4.572
REMARK INTER:                  -4.362
REMARK INTRA:                  -0.210
REMARK UNBOUND:                -0.205
REMARK SMILES O=C([O-])c1ccccc1C(=O)[O-]
REMARK SMILES IDX 4 1 9 2 5 3 8 4 6 5 7 6 2 7 1 8 3 9 10 10 11 11 12 12
REMARK H PARENT
REMARK Flexibility Score: inf
ROOT
ATOM      1  C   UNL     1      62.489  33.448  60.279  1.00  0.00     0.006 A 
ATOM      2  C   UNL     1      63.848  33.211  60.631  1.00  0.00     0.006 A 
ATOM      3  C   UNL     1      61.899  34.680  60.617  1.00  0.00     0.010 A 
ATOM      4  C   UNL     1      64.583  34.239  61.250  1.00  0.00     0.010 A 
ATOM      5  C   UNL     1      62.642  35.677  61.250  1.00  0.00     0.001 A 
ATOM      6  C   UNL     1      63.983  35.462  61.555  1.00  0.00     0.001 A 
ENDROOT
BRANCH   1   7
ATOM      7  C   UNL     1      61.677  32.480  59.506  1.00  0.00     0.072 C 
ATOM      8  O   UNL     1      61.497  32.633  58.269  1.00  0.00    -0.545 OA
ATOM      9  O   UNL     1      61.046  31.425  60.155  1.00  0.00    -0.545 OA
ENDBRANCH   1   7
BRANCH   2  10
ATOM     10  C   UNL     1      64.506  31.898  60.441  1.00  0.00     0.072 C 
ATOM     11  O   UNL     1      64.348  30.981  61.291  1.00  0.00    -0.545 OA
ATOM     12  O   UNL     1      65.250  31.636  59.296  1.00  0.00    -0.545 OA
ENDBRANCH   2  10
TORSDOF 2
ENDMDL
MODEL 5
REMARK VINA RESULT:    -3.632      1.977      3.246
REMARK INTER + INTRA:          -4.262
REMARK INTER:                  -4.093
REMARK INTRA:                  -0.169
REMARK UNBOUND:                -0.205
REMARK SMILES O=C([O-])c1ccccc1C(=O)[O-]
REMARK SMILES IDX 4 1 9 2 5 3 8 4 6 5 7 6 2 7 1 8 3 9 10 10 11 11 12 12
REMARK H PARENT
REMARK Flexibility Score: inf
ROOT
ATOM      1  C   UNL     1      57.783  26.362  50.672  1.00  0.00     0.006 A 
ATOM      2  C   UNL     1      57.547  27.763  50.759  1.00  0.00     0.006 A 
ATOM      3  C   UNL     1      58.967  25.903  50.067  1.00  0.00     0.010 A 
ATOM      4  C   UNL     1      58.534  28.652  50.295  1.00  0.00     0.010 A 
ATOM      5  C   UNL     1      59.922  26.803  49.595  1.00  0.00     0.001 A 
ATOM      6  C   UNL     1      59.712  28.174  49.719  1.00  0.00     0.001 A 
ENDROOT
BRANCH   1   7
ATOM      7  C   UNL     1      56.867  25.353  51.255  1.00  0.00     0.072 C 
ATOM      8  O   UNL     1      57.154  24.769  52.333  1.00  0.00    -0.545 OA
ATOM      9  O   UNL     1      55.709  24.991  50.578  1.00  0.00    -0.545 OA
ENDBRANCH   1   7
BRANCH   2  10
ATOM     10  C   UNL     1      56.271  28.330  51.252  1.00  0.00     0.072 C 
ATOM     11  O   UNL     1      56.233  28.941  52.354  1.00  0.00    -0.545 OA
ATOM     12  O   UNL     1      55.116  28.256  50.482  1.00  0.00    -0.545 OA
ENDBRANCH   2  10
TORSDOF 2
ENDMDL
MODEL 6
REMARK VINA RESULT:    -3.620      1.981      4.288
REMARK INTER + INTRA:          -4.249
REMARK INTER:                  -4.081
REMARK INTRA:                  -0.168
REMARK UNBOUND:                -0.205
REMARK SMILES O=C([O-])c1ccccc1C(=O)[O-]
REMARK SMILES IDX 4 1 9 2 5 3 8 4 6 5 7 6 2 7 1 8 3 9 10 10 11 11 12 12
REMARK H PARENT
REMARK Flexibility Score: inf
ROOT
ATOM      1  C   UNL     1      57.532  27.733  50.742  1.00  0.00     0.006 A 
ATOM      2  C   UNL     1      57.798  26.337  50.665  1.00  0.00     0.006 A 
ATOM      3  C   UNL     1      58.503  28.641  50.280  1.00  0.00     0.010 A 
ATOM      4  C   UNL     1      58.998  25.901  50.070  1.00  0.00     0.010 A 
ATOM      5  C   UNL     1      59.693  28.187  49.713  1.00  0.00     0.001 A 
ATOM      6  C   UNL     1      59.936  26.821  49.598  1.00  0.00     0.001 A 
ENDROOT
BRANCH   1   7
ATOM      7  C   UNL     1      56.243  28.281  51.225  1.00  0.00     0.072 C 
ATOM      8  O   UNL     1      56.148  28.786  52.374  1.00  0.00    -0.545 OA
ATOM      9  O   UNL     1      55.104  28.181  50.435  1.00  0.00    -0.545 OA
ENDBRANCH   1   7
BRANCH   2  10
ATOM     10  C   UNL     1      56.900  25.317  51.252  1.00  0.00     0.072 C 
ATOM     11  O   UNL     1      57.161  24.815  52.378  1.00  0.00    -0.545 OA
ATOM     12  O   UNL     1      55.726  24.948  50.605  1.00  0.00    -0.545 OA
ENDBRANCH   2  10
TORSDOF 2
ENDMDL
MODEL 7
REMARK VINA RESULT:    -3.588     11.609     13.207
REMARK INTER + INTRA:          -4.213
REMARK INTER:                  -4.034
REMARK INTRA:                  -0.180
REMARK UNBOUND:                -0.205
REMARK SMILES O=C([O-])c1ccccc1C(=O)[O-]
REMARK SMILES IDX 4 1 9 2 5 3 8 4 6 5 7 6 2 7 1 8 3 9 10 10 11 11 12 12
REMARK H PARENT
REMARK Flexibility Score: inf
ROOT
ATOM      1  C   UNL     1      62.312  32.011  60.735  1.00  0.00     0.006 A 
ATOM      2  C   UNL     1      63.660  31.575  60.598  1.00  0.00     0.006 A 
ATOM      3  C   UNL     1      62.041  33.391  60.792  1.00  0.00     0.010 A 
ATOM      4  C   UNL     1      64.678  32.536  60.459  1.00  0.00     0.010 A 
ATOM      5  C   UNL     1      63.070  34.326  60.674  1.00  0.00     0.001 A 
ATOM      6  C   UNL     1      64.384  33.900  60.495  1.00  0.00     0.001 A 
ENDROOT
BRANCH   1   7
ATOM      7  C   UNL     1      61.161  31.078  60.751  1.00  0.00     0.072 C 
ATOM      8  O   UNL     1      60.788  30.533  61.823  1.00  0.00    -0.545 OA
ATOM      9  O   UNL     1      60.521  30.741  59.564  1.00  0.00    -0.545 OA
ENDBRANCH   1   7
BRANCH   2  10
ATOM     10  C   UNL     1      64.050  30.149  60.669  1.00  0.00     0.072 C 
ATOM     11  O   UNL     1      64.061  29.549  61.778  1.00  0.00    -0.545 OA
ATOM     12  O   UNL     1      64.345  29.434  59.514  1.00  0.00    -0.545 OA
ENDBRANCH   2  10
TORSDOF 2
ENDMDL
MODEL 8
REMARK VINA RESULT:    -3.585      2.773      3.505
REMARK INTER + INTRA:          -4.210
REMARK INTER:                  -4.024
REMARK INTRA:                  -0.186
REMARK UNBOUND:                -0.205
REMARK SMILES O=C([O-])c1ccccc1C(=O)[O-]
REMARK SMILES IDX 4 1 9 2 5 3 8 4 6 5 7 6 2 7 1 8 3 9 10 10 11 11 12 12
REMARK H PARENT
REMARK Flexibility Score: inf
ROOT
ATOM      1  C   UNL     1      55.505  25.999  50.526  1.00  0.00     0.006 A 
ATOM      2  C   UNL     1      55.084  27.333  50.792  1.00  0.00     0.006 A 
ATOM      3  C   UNL     1      56.879  25.732  50.374  1.00  0.00     0.010 A 
ATOM      4  C   UNL     1      56.057  28.336  50.959  1.00  0.00     0.010 A 
ATOM      5  C   UNL     1      57.824  26.747  50.523  1.00  0.00     0.001 A 
ATOM      6  C   UNL     1      57.416  28.043  50.827  1.00  0.00     0.001 A 
ENDROOT
BRANCH   1   7
ATOM      7  C   UNL     1      54.566  24.854  50.470  1.00  0.00     0.072 C 
ATOM      8  O   UNL     1      54.031  24.514  49.382  1.00  0.00    -0.545 OA
ATOM      9  O   UNL     1      54.213  24.185  51.635  1.00  0.00    -0.545 OA
ENDBRANCH   1   7
BRANCH   2  10
ATOM     10  C   UNL     1      53.659  27.729  50.828  1.00  0.00     0.072 C 
ATOM     11  O   UNL     1      53.138  28.124  51.907  1.00  0.00    -0.545 OA
ATOM     12  O   UNL     1      52.893  27.735  49.668  1.00  0.00    -0.545 OA
ENDBRANCH   2  10
TORSDOF 2
ENDMDL
MODEL 9
REMARK VINA RESULT:    -3.562     12.208     13.989
REMARK INTER + INTRA:          -4.184
REMARK INTER:                  -4.008
REMARK INTRA:                  -0.176
REMARK UNBOUND:                -0.205
REMARK SMILES O=C([O-])c1ccccc1C(=O)[O-]
REMARK SMILES IDX 4 1 9 2 5 3 8 4 6 5 7 6 2 7 1 8 3 9 10 10 11 11 12 12
REMARK H PARENT
REMARK Flexibility Score: inf
ROOT
ATOM      1  C   UNL     1      63.059  33.648  60.552  1.00  0.00     0.006 A 
ATOM      2  C   UNL     1      62.527  34.966  60.473  1.00  0.00     0.006 A 
ATOM      3  C   UNL     1      64.301  33.447  61.184  1.00  0.00     0.010 A 
ATOM      4  C   UNL     1      63.227  36.023  61.086  1.00  0.00     0.010 A 
ATOM      5  C   UNL     1      64.986  34.514  61.766  1.00  0.00     0.001 A 
ATOM      6  C   UNL     1      64.445  35.796  61.728  1.00  0.00     0.001 A 
ENDROOT
BRANCH   1   7
ATOM      7  C   UNL     1      62.332  32.455  60.059  1.00  0.00     0.072 C 
ATOM      8  O   UNL     1      62.477  32.057  58.873  1.00  0.00    -0.545 OA
ATOM      9  O   UNL     1      61.426  31.801  60.884  1.00  0.00    -0.545 OA
ENDBRANCH   1   7
BRANCH   2  10
ATOM     10  C   UNL     1      61.302  35.289  59.709  1.00  0.00     0.072 C 
ATOM     11  O   UNL     1      60.277  35.717  60.306  1.00  0.00    -0.545 OA
ATOM     12  O   UNL     1      61.282  35.189  58.322  1.00  0.00    -0.545 OA
ENDBRANCH   2  10
TORSDOF 2
ENDMDL
