MODEL 1
REMARK VINA RESULT:    -5.973      0.000      0.000
REMARK INTER + INTRA:          -7.516
REMARK INTER:                  -7.195
REMARK INTRA:                  -0.321
REMARK UNBOUND:                -0.321
REMARK SMILES O=c1c(O)c(-c2ccc(O)c(O)c2)oc2cc(O)cc(O)c12
REMARK SMILES IDX 5 1 3 2 2 3 1 4 22 5 20 6 19 7 17 8 16 9 15 10 14 11 6 12
REMARK SMILES IDX 7 13 8 14 9 15 13 16 11 17 10 18 12 20 4 22 21 24 18 26
REMARK H PARENT 10 19 12 21 4 23 21 25 18 27
REMARK Flexibility Score: inf
ROOT
ATOM      1  C   UNL     1     141.459 108.331 138.956  1.00  0.00     0.180 A 
ATOM      2  C   UNL     1     141.190 109.709 138.862  1.00  0.00     0.208 A 
ATOM      3  C   UNL     1     142.265 110.611 138.843  1.00  0.00     0.238 A 
ATOM      4  O   UNL     1     142.035 111.849 138.769  1.00  0.00    -0.285 OA
ATOM      5  C   UNL     1     143.586 110.122 138.898  1.00  0.00     0.111 A 
ATOM      6  C   UNL     1     144.724 110.963 138.880  1.00  0.00     0.134 A 
ATOM      7  C   UNL     1     146.008 110.399 138.928  1.00  0.00     0.093 A 
ATOM      8  C   UNL     1     146.175 109.014 138.994  1.00  0.00     0.123 A 
ATOM      9  C   UNL     1     145.053 108.177 139.013  1.00  0.00     0.094 A 
ATOM     10  C   UNL     1     143.766 108.721 138.966  1.00  0.00     0.146 A 
ATOM     11  O   UNL     1     142.718 107.905 138.991  1.00  0.00    -0.452 OA
ENDROOT
BRANCH   1  12
ATOM     12  C   UNL     1     140.379 107.318 139.001  1.00  0.00     0.025 A 
ATOM     13  C   UNL     1     139.779 107.003 140.231  1.00  0.00     0.016 A 
ATOM     14  C   UNL     1     138.744 106.066 140.294  1.00  0.00     0.051 A 
ATOM     15  C   UNL     1     138.285 105.442 139.127  1.00  0.00     0.157 A 
ATOM     16  C   UNL     1     139.901 106.705 137.829  1.00  0.00     0.062 A 
ATOM     17  C   UNL     1     138.862 105.766 137.892  1.00  0.00     0.158 A 
BRANCH  15  18
ATOM     18  O   UNL     1     137.255 104.505 139.185  1.00  0.00    -0.504 OA
ATOM     19  H   UNL     1     136.313 104.770 139.447  1.00  0.00     0.293 HD
ENDBRANCH  15  18
BRANCH  17  20
ATOM     20  O   UNL     1     138.393 105.154 136.730  1.00  0.00    -0.504 OA
ATOM     21  H   UNL     1     137.600 105.521 136.220  1.00  0.00     0.293 HD
ENDBRANCH  17  20
ENDBRANCH   1  12
BRANCH   2  22
ATOM     22  O   UNL     1     139.872 110.165 138.758  1.00  0.00    -0.502 OA
ATOM     23  H   UNL     1     139.412 110.297 137.866  1.00  0.00     0.293 HD
ENDBRANCH   2  22
BRANCH   6  24
ATOM     24  O   UNL     1     144.591 112.351 138.814  1.00  0.00    -0.507 OA
ATOM     25  H   UNL     1     145.294 112.934 138.373  1.00  0.00     0.293 HD
ENDBRANCH   6  24
BRANCH   8  26
ATOM     26  O   UNL     1     147.460 108.478 139.041  1.00  0.00    -0.508 OA
ATOM     27  H   UNL     1     147.693 107.712 139.661  1.00  0.00     0.293 HD
ENDBRANCH   8  26
TORSDOF 6
ENDMDL
MODEL 2
REMARK VINA RESULT:    -5.942      1.579      3.229
REMARK INTER + INTRA:          -7.478
REMARK INTER:                  -7.147
REMARK INTRA:                  -0.331
REMARK UNBOUND:                -0.321
REMARK SMILES O=c1c(O)c(-c2ccc(O)c(O)c2)oc2cc(O)cc(O)c12
REMARK SMILES IDX 5 1 3 2 2 3 1 4 22 5 20 6 19 7 17 8 16 9 15 10 14 11 6 12
REMARK SMILES IDX 7 13 8 14 9 15 13 16 11 17 10 18 12 20 4 22 21 24 18 26
REMARK H PARENT 10 19 12 21 4 23 21 25 18 27
REMARK Flexibility Score: inf
ROOT
ATOM      1  C   UNL     1     140.674 107.753 139.174  1.00  0.00     0.180 A 
ATOM      2  C   UNL     1     142.046 107.454 139.271  1.00  0.00     0.208 A 
ATOM      3  C   UNL     1     142.978 108.498 139.172  1.00  0.00     0.238 A 
ATOM      4  O   UNL     1     144.210 108.240 139.247  1.00  0.00    -0.285 OA
ATOM      5  C   UNL     1     142.524 109.822 138.996  1.00  0.00     0.111 A 
ATOM      6  C   UNL     1     143.397 110.932 138.891  1.00  0.00     0.134 A 
ATOM      7  C   UNL     1     142.867 112.220 138.727  1.00  0.00     0.093 A 
ATOM      8  C   UNL     1     141.486 112.420 138.668  1.00  0.00     0.123 A 
ATOM      9  C   UNL     1     140.619 111.327 138.771  1.00  0.00     0.094 A 
ATOM     10  C   UNL     1     141.127 110.036 138.933  1.00  0.00     0.146 A 
ATOM     11  O   UNL     1     140.283 109.015 139.024  1.00  0.00    -0.452 OA
ENDROOT
BRANCH   1  12
ATOM     12  C   UNL     1     139.632 106.704 139.250  1.00  0.00     0.025 A 
ATOM     13  C   UNL     1     139.066 106.381 140.495  1.00  0.00     0.016 A 
ATOM     14  C   UNL     1     138.067 105.410 140.587  1.00  0.00     0.051 A 
ATOM     15  C   UNL     1     137.608 104.757 139.436  1.00  0.00     0.157 A 
ATOM     16  C   UNL     1     139.154 106.061 138.094  1.00  0.00     0.062 A 
ATOM     17  C   UNL     1     138.150 105.086 138.187  1.00  0.00     0.158 A 
BRANCH  15  18
ATOM     18  O   UNL     1     136.613 103.785 139.524  1.00  0.00    -0.504 OA
ATOM     19  H   UNL     1     135.896 103.824 140.239  1.00  0.00     0.293 HD
ENDBRANCH  15  18
BRANCH  17  20
ATOM     20  O   UNL     1     137.682 104.445 137.041  1.00  0.00    -0.504 OA
ATOM     21  H   UNL     1     136.696 104.419 136.813  1.00  0.00     0.293 HD
ENDBRANCH  17  20
ENDBRANCH   1  12
BRANCH   2  22
ATOM     22  O   UNL     1     142.468 106.140 139.495  1.00  0.00    -0.502 OA
ATOM     23  H   UNL     1     141.841 105.348 139.420  1.00  0.00     0.293 HD
ENDBRANCH   2  22
BRANCH   6  24
ATOM     24  O   UNL     1     144.781 110.765 138.947  1.00  0.00    -0.507 OA
ATOM     25  H   UNL     1     145.399 111.521 139.221  1.00  0.00     0.293 HD
ENDBRANCH   6  24
BRANCH   8  26
ATOM     26  O   UNL     1     140.985 113.711 138.505  1.00  0.00    -0.508 OA
ATOM     27  H   UNL     1     141.514 114.427 138.022  1.00  0.00     0.293 HD
ENDBRANCH   8  26
TORSDOF 6
ENDMDL
MODEL 3
REMARK VINA RESULT:    -5.939      3.476      5.137
REMARK INTER + INTRA:          -7.474
REMARK INTER:                  -7.210
REMARK INTRA:                  -0.264
REMARK UNBOUND:                -0.321
REMARK SMILES O=c1c(O)c(-c2ccc(O)c(O)c2)oc2cc(O)cc(O)c12
REMARK SMILES IDX 5 1 3 2 2 3 1 4 22 5 20 6 19 7 17 8 16 9 15 10 14 11 6 12
REMARK SMILES IDX 7 13 8 14 9 15 13 16 11 17 10 18 12 20 4 22 21 24 18 26
REMARK H PARENT 10 19 12 21 4 23 21 25 18 27
REMARK Flexibility Score: inf
ROOT
ATOM      1  C   UNL     1     142.438 112.827 139.071  1.00  0.00     0.180 A 
ATOM      2  C   UNL     1     141.883 113.746 139.982  1.00  0.00     0.208 A 
ATOM      3  C   UNL     1     142.605 114.906 140.302  1.00  0.00     0.238 A 
ATOM      4  O   UNL     1     142.122 115.730 141.125  1.00  0.00    -0.285 OA
ATOM      5  C   UNL     1     143.856 115.137 139.694  1.00  0.00     0.111 A 
ATOM      6  C   UNL     1     144.645 116.282 139.959  1.00  0.00     0.134 A 
ATOM      7  C   UNL     1     145.876 116.445 139.306  1.00  0.00     0.093 A 
ATOM      8  C   UNL     1     146.332 115.489 138.396  1.00  0.00     0.123 A 
ATOM      9  C   UNL     1     145.556 114.355 138.130  1.00  0.00     0.094 A 
ATOM     10  C   UNL     1     144.328 114.174 138.772  1.00  0.00     0.146 A 
ATOM     11  O   UNL     1     143.613 113.086 138.506  1.00  0.00    -0.452 OA
ENDROOT
BRANCH   1  12
ATOM     12  C   UNL     1     141.746 111.573 138.697  1.00  0.00     0.025 A 
ATOM     13  C   UNL     1     142.161 110.359 139.269  1.00  0.00     0.016 A 
ATOM     14  C   UNL     1     141.509 109.166 138.947  1.00  0.00     0.051 A 
ATOM     15  C   UNL     1     140.424 109.170 138.061  1.00  0.00     0.157 A 
ATOM     16  C   UNL     1     140.643 111.576 137.825  1.00  0.00     0.062 A 
ATOM     17  C   UNL     1     139.988 110.379 137.502  1.00  0.00     0.158 A 
BRANCH  15  18
ATOM     18  O   UNL     1     139.773 107.983 137.734  1.00  0.00    -0.504 OA
ATOM     19  H   UNL     1     138.792 107.970 137.479  1.00  0.00     0.293 HD
ENDBRANCH  15  18
BRANCH  17  20
ATOM     20  O   UNL     1     138.899 110.383 136.632  1.00  0.00    -0.504 OA
ATOM     21  H   UNL     1     138.132 109.732 136.739  1.00  0.00     0.293 HD
ENDBRANCH  17  20
ENDBRANCH   1  12
BRANCH   2  22
ATOM     22  O   UNL     1     140.618 113.517 140.532  1.00  0.00    -0.502 OA
ATOM     23  H   UNL     1     139.903 112.987 140.049  1.00  0.00     0.293 HD
ENDBRANCH   2  22
BRANCH   6  24
ATOM     24  O   UNL     1     144.218 117.256 140.863  1.00  0.00    -0.507 OA
ATOM     25  H   UNL     1     144.830 117.618 141.585  1.00  0.00     0.293 HD
ENDBRANCH   6  24
BRANCH   8  26
ATOM     26  O   UNL     1     147.558 115.675 137.760  1.00  0.00    -0.508 OA
ATOM     27  H   UNL     1     147.972 116.595 137.666  1.00  0.00     0.293 HD
ENDBRANCH   8  26
TORSDOF 6
ENDMDL
MODEL 4
REMARK VINA RESULT:    -5.903      1.596      1.780
REMARK INTER + INTRA:          -7.432
REMARK INTER:                  -7.240
REMARK INTRA:                  -0.192
REMARK UNBOUND:                -0.321
REMARK SMILES O=c1c(O)c(-c2ccc(O)c(O)c2)oc2cc(O)cc(O)c12
REMARK SMILES IDX 5 1 3 2 2 3 1 4 22 5 20 6 19 7 17 8 16 9 15 10 14 11 6 12
REMARK SMILES IDX 7 13 8 14 9 15 13 16 11 17 10 18 12 20 4 22 21 24 18 26
REMARK H PARENT 10 19 12 21 4 23 21 25 18 27
REMARK Flexibility Score: inf
ROOT
ATOM      1  C   UNL     1     141.289 109.361 139.000  1.00  0.00     0.180 A 
ATOM      2  C   UNL     1     140.755 110.527 138.419  1.00  0.00     0.208 A 
ATOM      3  C   UNL     1     141.505 111.712 138.465  1.00  0.00     0.238 A 
ATOM      4  O   UNL     1     141.032 112.765 137.957  1.00  0.00    -0.285 OA
ATOM      5  C   UNL     1     142.778 111.709 139.070  1.00  0.00     0.111 A 
ATOM      6  C   UNL     1     143.598 112.859 139.155  1.00  0.00     0.134 A 
ATOM      7  C   UNL     1     144.858 112.773 139.765  1.00  0.00     0.093 A 
ATOM      8  C   UNL     1     145.313 111.561 140.290  1.00  0.00     0.123 A 
ATOM      9  C   UNL     1     144.507 110.421 140.210  1.00  0.00     0.094 A 
ATOM     10  C   UNL     1     143.248 110.487 139.607  1.00  0.00     0.146 A 
ATOM     11  O   UNL     1     142.500 109.391 139.549  1.00  0.00    -0.452 OA
ENDROOT
BRANCH   1  12
ATOM     12  C   UNL     1     140.552 108.077 139.008  1.00  0.00     0.025 A 
ATOM     13  C   UNL     1     140.051 107.576 140.221  1.00  0.00     0.016 A 
ATOM     14  C   UNL     1     139.334 106.377 140.250  1.00  0.00     0.051 A 
ATOM     15  C   UNL     1     139.095 105.669 139.066  1.00  0.00     0.157 A 
ATOM     16  C   UNL     1     140.291 107.373 137.819  1.00  0.00     0.062 A 
ATOM     17  C   UNL     1     139.571 106.170 137.848  1.00  0.00     0.158 A 
BRANCH  15  18
ATOM     18  O   UNL     1     138.383 104.471 139.090  1.00  0.00    -0.504 OA
ATOM     19  H   UNL     1     137.847 104.158 138.289  1.00  0.00     0.293 HD
ENDBRANCH  15  18
BRANCH  17  20
ATOM     20  O   UNL     1     139.320 105.471 136.668  1.00  0.00    -0.504 OA
ATOM     21  H   UNL     1     138.377 105.249 136.373  1.00  0.00     0.293 HD
ENDBRANCH  17  20
ENDBRANCH   1  12
BRANCH   2  22
ATOM     22  O   UNL     1     139.512 110.492 137.780  1.00  0.00    -0.502 OA
ATOM     23  H   UNL     1     139.417 110.329 136.785  1.00  0.00     0.293 HD
ENDBRANCH   2  22
BRANCH   6  24
ATOM     24  O   UNL     1     143.173 114.085 138.639  1.00  0.00    -0.507 OA
ATOM     25  H   UNL     1     142.432 114.145 137.950  1.00  0.00     0.293 HD
ENDBRANCH   6  24
BRANCH   8  26
ATOM     26  O   UNL     1     146.569 111.501 140.891  1.00  0.00    -0.508 OA
ATOM     27  H   UNL     1     146.771 110.842 141.633  1.00  0.00     0.293 HD
ENDBRANCH   8  26
TORSDOF 6
ENDMDL
MODEL 5
REMARK VINA RESULT:    -5.828      4.644      9.612
REMARK INTER + INTRA:          -7.342
REMARK INTER:                  -7.183
REMARK INTRA:                  -0.159
REMARK UNBOUND:                -0.321
REMARK SMILES O=c1c(O)c(-c2ccc(O)c(O)c2)oc2cc(O)cc(O)c12
REMARK SMILES IDX 5 1 3 2 2 3 1 4 22 5 20 6 19 7 17 8 16 9 15 10 14 11 6 12
REMARK SMILES IDX 7 13 8 14 9 15 13 16 11 17 10 18 12 20 4 22 21 24 18 26
REMARK H PARENT 10 19 12 21 4 23 21 25 18 27
REMARK Flexibility Score: inf
ROOT
ATOM      1  C   UNL     1     145.154 114.995 139.176  1.00  0.00     0.180 A 
ATOM      2  C   UNL     1     144.320 115.849 139.922  1.00  0.00     0.208 A 
ATOM      3  C   UNL     1     143.036 115.405 140.275  1.00  0.00     0.238 A 
ATOM      4  O   UNL     1     142.276 116.166 140.934  1.00  0.00    -0.285 OA
ATOM      5  C   UNL     1     142.617 114.114 139.896  1.00  0.00     0.111 A 
ATOM      6  C   UNL     1     141.341 113.589 140.216  1.00  0.00     0.134 A 
ATOM      7  C   UNL     1     141.002 112.289 139.811  1.00  0.00     0.093 A 
ATOM      8  C   UNL     1     141.910 111.506 139.096  1.00  0.00     0.123 A 
ATOM      9  C   UNL     1     143.172 112.019 138.776  1.00  0.00     0.094 A 
ATOM     10  C   UNL     1     143.528 113.312 139.170  1.00  0.00     0.146 A 
ATOM     11  O   UNL     1     144.731 113.777 138.850  1.00  0.00    -0.452 OA
ENDROOT
BRANCH   1  12
ATOM     12  C   UNL     1     146.514 115.398 138.750  1.00  0.00     0.025 A 
ATOM     13  C   UNL     1     147.620 114.633 139.154  1.00  0.00     0.016 A 
ATOM     14  C   UNL     1     148.910 114.983 138.747  1.00  0.00     0.051 A 
ATOM     15  C   UNL     1     149.111 116.093 137.916  1.00  0.00     0.157 A 
ATOM     16  C   UNL     1     146.718 116.499 137.899  1.00  0.00     0.062 A 
ATOM     17  C   UNL     1     148.013 116.849 137.489  1.00  0.00     0.158 A 
BRANCH  15  18
ATOM     18  O   UNL     1     150.395 116.447 137.509  1.00  0.00    -0.504 OA
ATOM     19  H   UNL     1     150.823 116.034 136.688  1.00  0.00     0.293 HD
ENDBRANCH  15  18
BRANCH  17  20
ATOM     20  O   UNL     1     148.214 117.946 136.651  1.00  0.00    -0.504 OA
ATOM     21  H   UNL     1     148.685 118.781 136.975  1.00  0.00     0.293 HD
ENDBRANCH  17  20
ENDBRANCH   1  12
BRANCH   2  22
ATOM     22  O   UNL     1     144.778 117.106 140.328  1.00  0.00    -0.502 OA
ATOM     23  H   UNL     1     145.086 117.292 141.274  1.00  0.00     0.293 HD
ENDBRANCH   2  22
BRANCH   6  24
ATOM     24  O   UNL     1     140.411 114.345 140.930  1.00  0.00    -0.507 OA
ATOM     25  H   UNL     1     139.647 114.826 140.469  1.00  0.00     0.293 HD
ENDBRANCH   6  24
BRANCH   8  26
ATOM     26  O   UNL     1     141.549 110.218 138.705  1.00  0.00    -0.508 OA
ATOM     27  H   UNL     1     140.701 109.779 139.046  1.00  0.00     0.293 HD
ENDBRANCH   8  26
TORSDOF 6
ENDMDL
MODEL 6
REMARK VINA RESULT:    -5.814      2.659      6.975
REMARK INTER + INTRA:          -7.324
REMARK INTER:                  -7.018
REMARK INTRA:                  -0.306
REMARK UNBOUND:                -0.321
REMARK SMILES O=c1c(O)c(-c2ccc(O)c(O)c2)oc2cc(O)cc(O)c12
REMARK SMILES IDX 5 1 3 2 2 3 1 4 22 5 20 6 19 7 17 8 16 9 15 10 14 11 6 12
REMARK SMILES IDX 7 13 8 14 9 15 13 16 11 17 10 18 12 20 4 22 21 24 18 26
REMARK H PARENT 10 19 12 21 4 23 21 25 18 27
REMARK Flexibility Score: inf
ROOT
ATOM      1  C   UNL     1     142.261 111.714 138.915  1.00  0.00     0.180 A 
ATOM      2  C   UNL     1     141.065 111.547 138.192  1.00  0.00     0.208 A 
ATOM      3  C   UNL     1     140.568 110.250 137.991  1.00  0.00     0.238 A 
ATOM      4  O   UNL     1     139.503 110.088 137.336  1.00  0.00    -0.285 OA
ATOM      5  C   UNL     1     141.261 109.147 138.531  1.00  0.00     0.111 A 
ATOM      6  C   UNL     1     140.826 107.809 138.379  1.00  0.00     0.134 A 
ATOM      7  C   UNL     1     141.566 106.766 138.955  1.00  0.00     0.093 A 
ATOM      8  C   UNL     1     142.729 107.034 139.679  1.00  0.00     0.123 A 
ATOM      9  C   UNL     1     143.165 108.355 139.834  1.00  0.00     0.094 A 
ATOM     10  C   UNL     1     142.442 109.407 139.266  1.00  0.00     0.146 A 
ATOM     11  O   UNL     1     142.880 110.651 139.423  1.00  0.00    -0.452 OA
ENDROOT
BRANCH   1  12
ATOM     12  C   UNL     1     142.859 113.048 139.152  1.00  0.00     0.025 A 
ATOM     13  C   UNL     1     142.399 113.830 140.224  1.00  0.00     0.016 A 
ATOM     14  C   UNL     1     142.963 115.083 140.479  1.00  0.00     0.051 A 
ATOM     15  C   UNL     1     144.003 115.565 139.675  1.00  0.00     0.157 A 
ATOM     16  C   UNL     1     143.918 113.527 138.360  1.00  0.00     0.062 A 
ATOM     17  C   UNL     1     144.484 114.784 138.617  1.00  0.00     0.158 A 
BRANCH  15  18
ATOM     18  O   UNL     1     144.567 116.815 139.924  1.00  0.00    -0.504 OA
ATOM     19  H   UNL     1     144.291 117.635 139.395  1.00  0.00     0.293 HD
ENDBRANCH  15  18
BRANCH  17  20
ATOM     20  O   UNL     1     145.530 115.260 137.827  1.00  0.00    -0.504 OA
ATOM     21  H   UNL     1     146.148 115.994 138.150  1.00  0.00     0.293 HD
ENDBRANCH  17  20
ENDBRANCH   1  12
BRANCH   2  22
ATOM     22  O   UNL     1     140.371 112.660 137.709  1.00  0.00    -0.502 OA
ATOM     23  H   UNL     1     139.389 112.623 137.464  1.00  0.00     0.293 HD
ENDBRANCH   2  22
BRANCH   6  24
ATOM     24  O   UNL     1     139.667 107.507 137.661  1.00  0.00    -0.507 OA
ATOM     25  H   UNL     1     139.687 107.340 136.662  1.00  0.00     0.293 HD
ENDBRANCH   6  24
BRANCH   8  26
ATOM     26  O   UNL     1     143.446 105.980 140.242  1.00  0.00    -0.508 OA
ATOM     27  H   UNL     1     143.759 106.007 141.206  1.00  0.00     0.293 HD
ENDBRANCH   8  26
TORSDOF 6
ENDMDL
MODEL 7
REMARK VINA RESULT:    -5.670      2.428      7.058
REMARK INTER + INTRA:          -7.151
REMARK INTER:                  -6.873
REMARK INTRA:                  -0.278
REMARK UNBOUND:                -0.321
REMARK SMILES O=c1c(O)c(-c2ccc(O)c(O)c2)oc2cc(O)cc(O)c12
REMARK SMILES IDX 5 1 3 2 2 3 1 4 22 5 20 6 19 7 17 8 16 9 15 10 14 11 6 12
REMARK SMILES IDX 7 13 8 14 9 15 13 16 11 17 10 18 12 20 4 22 21 24 18 26
REMARK H PARENT 10 19 12 21 4 23 21 25 18 27
REMARK Flexibility Score: inf
ROOT
ATOM      1  C   UNL     1     142.879 110.837 139.392  1.00  0.00     0.180 A 
ATOM      2  C   UNL     1     143.841 110.034 140.034  1.00  0.00     0.208 A 
ATOM      3  C   UNL     1     143.663 108.642 140.049  1.00  0.00     0.238 A 
ATOM      4  O   UNL     1     144.514 107.914 140.630  1.00  0.00    -0.285 OA
ATOM      5  C   UNL     1     142.543 108.076 139.408  1.00  0.00     0.111 A 
ATOM      6  C   UNL     1     142.292 106.683 139.373  1.00  0.00     0.134 A 
ATOM      7  C   UNL     1     141.158 106.196 138.706  1.00  0.00     0.093 A 
ATOM      8  C   UNL     1     140.273 107.072 138.074  1.00  0.00     0.123 A 
ATOM      9  C   UNL     1     140.515 108.450 138.105  1.00  0.00     0.094 A 
ATOM     10  C   UNL     1     141.638 108.954 138.766  1.00  0.00     0.146 A 
ATOM     11  O   UNL     1     141.842 110.267 138.785  1.00  0.00    -0.452 OA
ENDROOT
BRANCH   1  12
ATOM     12  C   UNL     1     142.986 112.313 139.351  1.00  0.00     0.025 A 
ATOM     13  C   UNL     1     142.228 113.086 140.245  1.00  0.00     0.016 A 
ATOM     14  C   UNL     1     142.329 114.479 140.238  1.00  0.00     0.051 A 
ATOM     15  C   UNL     1     143.199 115.120 139.347  1.00  0.00     0.157 A 
ATOM     16  C   UNL     1     143.874 112.959 138.472  1.00  0.00     0.062 A 
ATOM     17  C   UNL     1     143.976 114.357 138.465  1.00  0.00     0.158 A 
BRANCH  15  18
ATOM     18  O   UNL     1     143.301 116.509 139.334  1.00  0.00    -0.504 OA
ATOM     19  H   UNL     1     143.620 117.009 138.512  1.00  0.00     0.293 HD
ENDBRANCH  15  18
BRANCH  17  20
ATOM     20  O   UNL     1     144.852 114.996 137.589  1.00  0.00    -0.504 OA
ATOM     21  H   UNL     1     145.618 114.500 137.148  1.00  0.00     0.293 HD
ENDBRANCH  17  20
ENDBRANCH   1  12
BRANCH   2  22
ATOM     22  O   UNL     1     144.969 110.616 140.619  1.00  0.00    -0.502 OA
ATOM     23  H   UNL     1     144.964 111.559 140.990  1.00  0.00     0.293 HD
ENDBRANCH   2  22
BRANCH   6  24
ATOM     24  O   UNL     1     143.158 105.781 139.994  1.00  0.00    -0.507 OA
ATOM     25  H   UNL     1     144.141 105.989 140.123  1.00  0.00     0.293 HD
ENDBRANCH   6  24
BRANCH   8  26
ATOM     26  O   UNL     1     139.154 106.563 137.417  1.00  0.00    -0.508 OA
ATOM     27  H   UNL     1     138.350 107.145 137.211  1.00  0.00     0.293 HD
ENDBRANCH   8  26
TORSDOF 6
ENDMDL
MODEL 8
REMARK VINA RESULT:    -5.428      2.997      4.493
REMARK INTER + INTRA:          -6.860
REMARK INTER:                  -6.659
REMARK INTRA:                  -0.201
REMARK UNBOUND:                -0.321
REMARK SMILES O=c1c(O)c(-c2ccc(O)c(O)c2)oc2cc(O)cc(O)c12
REMARK SMILES IDX 5 1 3 2 2 3 1 4 22 5 20 6 19 7 17 8 16 9 15 10 14 11 6 12
REMARK SMILES IDX 7 13 8 14 9 15 13 16 11 17 10 18 12 20 4 22 21 24 18 26
REMARK H PARENT 10 19 12 21 4 23 21 25 18 27
REMARK Flexibility Score: inf
ROOT
ATOM      1  C   UNL     1     142.563 111.664 139.370  1.00  0.00     0.180 A 
ATOM      2  C   UNL     1     141.706 112.485 140.127  1.00  0.00     0.208 A 
ATOM      3  C   UNL     1     142.050 113.832 140.318  1.00  0.00     0.238 A 
ATOM      4  O   UNL     1     141.295 114.574 141.004  1.00  0.00    -0.285 OA
ATOM      5  C   UNL     1     143.229 114.340 139.735  1.00  0.00     0.111 A 
ATOM      6  C   UNL     1     143.644 115.686 139.875  1.00  0.00     0.134 A 
ATOM      7  C   UNL     1     144.827 116.117 139.256  1.00  0.00     0.093 A 
ATOM      8  C   UNL     1     145.599 115.232 138.500  1.00  0.00     0.123 A 
ATOM      9  C   UNL     1     145.193 113.901 138.358  1.00  0.00     0.094 A 
ATOM     10  C   UNL     1     144.019 113.452 138.969  1.00  0.00     0.146 A 
ATOM     11  O   UNL     1     143.659 112.181 138.823  1.00  0.00    -0.452 OA
ENDROOT
BRANCH   1  12
ATOM     12  C   UNL     1     142.280 110.229 139.141  1.00  0.00     0.025 A 
ATOM     13  C   UNL     1     143.075 109.258 139.773  1.00  0.00     0.016 A 
ATOM     14  C   UNL     1     142.813 107.899 139.587  1.00  0.00     0.051 A 
ATOM     15  C   UNL     1     141.744 107.489 138.780  1.00  0.00     0.157 A 
ATOM     16  C   UNL     1     141.195 109.814 138.348  1.00  0.00     0.062 A 
ATOM     17  C   UNL     1     140.931 108.449 138.163  1.00  0.00     0.158 A 
BRANCH  15  18
ATOM     18  O   UNL     1     141.480 106.134 138.589  1.00  0.00    -0.504 OA
ATOM     19  H   UNL     1     141.498 105.716 137.667  1.00  0.00     0.293 HD
ENDBRANCH  15  18
BRANCH  17  20
ATOM     20  O   UNL     1     139.859 108.040 137.371  1.00  0.00    -0.504 OA
ATOM     21  H   UNL     1     138.962 108.508 137.408  1.00  0.00     0.293 HD
ENDBRANCH  17  20
ENDBRANCH   1  12
BRANCH   2  22
ATOM     22  O   UNL     1     140.518 111.969 140.653  1.00  0.00    -0.502 OA
ATOM     23  H   UNL     1     140.174 112.226 141.571  1.00  0.00     0.293 HD
ENDBRANCH   2  22
BRANCH   6  24
ATOM     24  O   UNL     1     142.895 116.595 140.623  1.00  0.00    -0.507 OA
ATOM     25  H   UNL     1     143.229 116.962 141.507  1.00  0.00     0.293 HD
ENDBRANCH   6  24
BRANCH   8  26
ATOM     26  O   UNL     1     146.769 115.686 137.894  1.00  0.00    -0.508 OA
ATOM     27  H   UNL     1     146.967 115.498 136.919  1.00  0.00     0.293 HD
ENDBRANCH   8  26
TORSDOF 6
ENDMDL
MODEL 9
REMARK VINA RESULT:    -5.374      1.815      3.734
REMARK INTER + INTRA:          -6.795
REMARK INTER:                  -6.610
REMARK INTRA:                  -0.184
REMARK UNBOUND:                -0.321
REMARK SMILES O=c1c(O)c(-c2ccc(O)c(O)c2)oc2cc(O)cc(O)c12
REMARK SMILES IDX 5 1 3 2 2 3 1 4 22 5 20 6 19 7 17 8 16 9 15 10 14 11 6 12
REMARK SMILES IDX 7 13 8 14 9 15 13 16 11 17 10 18 12 20 4 22 21 24 18 26
REMARK H PARENT 10 19 12 21 4 23 21 25 18 27
REMARK Flexibility Score: inf
ROOT
ATOM      1  C   UNL     1     141.725 109.163 138.965  1.00  0.00     0.180 A 
ATOM      2  C   UNL     1     143.128 109.103 139.070  1.00  0.00     0.208 A 
ATOM      3  C   UNL     1     143.846 110.295 139.250  1.00  0.00     0.238 A 
ATOM      4  O   UNL     1     145.104 110.255 139.335  1.00  0.00    -0.285 OA
ATOM      5  C   UNL     1     143.153 111.519 139.342  1.00  0.00     0.111 A 
ATOM      6  C   UNL     1     143.801 112.764 139.528  1.00  0.00     0.134 A 
ATOM      7  C   UNL     1     143.040 113.939 139.620  1.00  0.00     0.093 A 
ATOM      8  C   UNL     1     141.647 113.893 139.530  1.00  0.00     0.123 A 
ATOM      9  C   UNL     1     141.000 112.666 139.346  1.00  0.00     0.094 A 
ATOM     10  C   UNL     1     141.742 111.485 139.251  1.00  0.00     0.146 A 
ATOM     11  O   UNL     1     141.104 110.334 139.071  1.00  0.00    -0.452 OA
ENDROOT
BRANCH   1  12
ATOM     12  C   UNL     1     140.899 107.952 138.754  1.00  0.00     0.025 A 
ATOM     13  C   UNL     1     141.016 107.236 137.551  1.00  0.00     0.016 A 
ATOM     14  C   UNL     1     140.262 106.080 137.340  1.00  0.00     0.051 A 
ATOM     15  C   UNL     1     139.391 105.613 138.332  1.00  0.00     0.157 A 
ATOM     16  C   UNL     1     140.039 107.468 139.756  1.00  0.00     0.062 A 
ATOM     17  C   UNL     1     139.283 106.307 139.545  1.00  0.00     0.158 A 
BRANCH  15  18
ATOM     18  O   UNL     1     138.635 104.461 138.125  1.00  0.00    -0.504 OA
ATOM     19  H   UNL     1     138.339 104.182 137.197  1.00  0.00     0.293 HD
ENDBRANCH  15  18
BRANCH  17  20
ATOM     20  O   UNL     1     138.426 105.833 140.537  1.00  0.00    -0.504 OA
ATOM     21  H   UNL     1     137.454 106.112 140.576  1.00  0.00     0.293 HD
ENDBRANCH  17  20
ENDBRANCH   1  12
BRANCH   2  22
ATOM     22  O   UNL     1     143.787 107.872 139.025  1.00  0.00    -0.502 OA
ATOM     23  H   UNL     1     144.177 107.434 139.851  1.00  0.00     0.293 HD
ENDBRANCH   2  22
BRANCH   6  24
ATOM     24  O   UNL     1     145.191 112.844 139.622  1.00  0.00    -0.507 OA
ATOM     25  H   UNL     1     145.718 112.254 140.256  1.00  0.00     0.293 HD
ENDBRANCH   6  24
BRANCH   8  26
ATOM     26  O   UNL     1     140.913 115.074 139.625  1.00  0.00    -0.508 OA
ATOM     27  H   UNL     1     140.255 115.230 140.379  1.00  0.00     0.293 HD
ENDBRANCH   8  26
TORSDOF 6
ENDMDL
