MODEL 1
REMARK VINA RESULT:    -4.503      0.000      0.000
REMARK INTER + INTRA:          -7.283
REMARK INTER:                  -6.873
REMARK INTRA:                  -0.411
REMARK UNBOUND:                -0.411
REMARK SMILES CCCCCCCCCCC(=O)[O-]
REMARK SMILES IDX 7 1 8 2 9 3 10 4 11 5 12 6 13 7 6 8 5 9 4 10 3 11 2 12 1 13
REMARK H PARENT
REMARK Flexibility Score: inf
ROOT
ATOM      1  C   UNL     1      14.204 -32.899  20.628  1.00  0.00     0.000 C 
ENDROOT
BRANCH   1   2
ATOM      2  C   UNL     1      14.976 -33.581  21.763  1.00  0.00     0.000 C 
BRANCH   2   3
ATOM      3  C   UNL     1      16.313 -34.143  21.259  1.00  0.00     0.006 C 
BRANCH   3   4
ATOM      4  C   UNL     1      16.143 -35.018  20.010  1.00  0.00     0.053 C 
BRANCH   4   5
ATOM      5  C   UNL     1      16.991 -36.252  20.074  1.00  0.00     0.041 C 
ATOM      6  O   UNL     1      17.126 -36.980  19.057  1.00  0.00    -0.550 OA
ATOM      7  O   UNL     1      17.604 -36.614  21.267  1.00  0.00    -0.550 OA
ENDBRANCH   4   5
ENDBRANCH   3   4
ENDBRANCH   2   3
ENDBRANCH   1   2
BRANCH   1   8
ATOM      8  C   UNL     1      13.439 -31.673  21.141  1.00  0.00     0.000 C 
BRANCH   8   9
ATOM      9  C   UNL     1      13.674 -31.469  22.646  1.00  0.00    -0.000 C 
BRANCH   9  10
ATOM     10  C   UNL     1      13.478 -30.010  23.086  1.00  0.00    -0.000 C 
BRANCH  10  11
ATOM     11  C   UNL     1      12.013 -29.551  22.977  1.00  0.00    -0.000 C 
BRANCH  11  12
ATOM     12  C   UNL     1      11.702 -28.355  23.890  1.00  0.00    -0.003 C 
ATOM     13  C   UNL     1      12.955 -27.590  24.314  1.00  0.00     0.004 C 
ENDBRANCH  11  12
ENDBRANCH  10  11
ENDBRANCH   9  10
ENDBRANCH   8   9
ENDBRANCH   1   8
TORSDOF 9
ENDMDL
MODEL 2
REMARK VINA RESULT:    -4.461      4.346      7.557
REMARK INTER + INTRA:          -7.219
REMARK INTER:                  -6.761
REMARK INTRA:                  -0.458
REMARK UNBOUND:                -0.411
REMARK SMILES CCCCCCCCCCC(=O)[O-]
REMARK SMILES IDX 7 1 8 2 9 3 10 4 11 5 12 6 13 7 6 8 5 9 4 10 3 11 2 12 1 13
REMARK H PARENT
REMARK Flexibility Score: inf
ROOT
ATOM      1  C   UNL     1      14.680 -31.677  22.144  1.00  0.00     0.000 C 
ENDROOT
BRANCH   1   2
ATOM      2  C   UNL     1      15.125 -30.247  21.821  1.00  0.00     0.000 C 
BRANCH   2   3
ATOM      3  C   UNL     1      14.551 -29.249  22.837  1.00  0.00     0.006 C 
BRANCH   3   4
ATOM      4  C   UNL     1      13.308 -29.795  23.551  1.00  0.00     0.053 C 
BRANCH   4   5
ATOM      5  C   UNL     1      12.372 -28.698  23.959  1.00  0.00     0.041 C 
ATOM      6  O   UNL     1      12.733 -27.841  24.806  1.00  0.00    -0.550 OA
ATOM      7  O   UNL     1      11.089 -28.645  23.428  1.00  0.00    -0.550 OA
ENDBRANCH   4   5
ENDBRANCH   3   4
ENDBRANCH   2   3
ENDBRANCH   1   2
BRANCH   1   8
ATOM      8  C   UNL     1      13.989 -32.325  20.937  1.00  0.00     0.000 C 
BRANCH   8   9
ATOM      9  C   UNL     1      14.674 -33.647  20.557  1.00  0.00    -0.000 C 
BRANCH   9  10
ATOM     10  C   UNL     1      15.444 -34.276  21.729  1.00  0.00    -0.000 C 
BRANCH  10  11
ATOM     11  C   UNL     1      16.653 -35.107  21.264  1.00  0.00    -0.000 C 
BRANCH  11  12
ATOM     12  C   UNL     1      16.526 -35.563  19.801  1.00  0.00    -0.003 C 
ATOM     13  C   UNL     1      17.231 -36.892  19.530  1.00  0.00     0.004 C 
ENDBRANCH  11  12
ENDBRANCH  10  11
ENDBRANCH   9  10
ENDBRANCH   8   9
ENDBRANCH   1   8
TORSDOF 9
ENDMDL
MODEL 3
REMARK VINA RESULT:    -4.450      3.997      6.244
REMARK INTER + INTRA:          -7.202
REMARK INTER:                  -5.983
REMARK INTRA:                  -1.219
REMARK UNBOUND:                -0.411
REMARK SMILES CCCCCCCCCCC(=O)[O-]
REMARK SMILES IDX 7 1 8 2 9 3 10 4 11 5 12 6 13 7 6 8 5 9 4 10 3 11 2 12 1 13
REMARK H PARENT
REMARK Flexibility Score: inf
ROOT
ATOM      1  C   UNL     1      14.244 -32.553  23.931  1.00  0.00     0.000 C 
ENDROOT
BRANCH   1   2
ATOM      2  C   UNL     1      15.052 -31.302  23.570  1.00  0.00     0.000 C 
BRANCH   2   3
ATOM      3  C   UNL     1      14.441 -30.583  22.358  1.00  0.00     0.006 C 
BRANCH   3   4
ATOM      4  C   UNL     1      13.177 -31.282  21.843  1.00  0.00     0.053 C 
BRANCH   4   5
ATOM      5  C   UNL     1      11.945 -30.468  22.100  1.00  0.00     0.041 C 
ATOM      6  O   UNL     1      10.915 -30.640  21.399  1.00  0.00    -0.550 OA
ATOM      7  O   UNL     1      11.949 -29.495  23.093  1.00  0.00    -0.550 OA
ENDBRANCH   4   5
ENDBRANCH   3   4
ENDBRANCH   2   3
ENDBRANCH   1   2
BRANCH   1   8
ATOM      8  C   UNL     1      15.169 -33.727  24.274  1.00  0.00     0.000 C 
BRANCH   8   9
ATOM      9  C   UNL     1      16.167 -33.990  23.135  1.00  0.00    -0.000 C 
BRANCH   9  10
ATOM     10  C   UNL     1      15.475 -34.291  21.796  1.00  0.00    -0.000 C 
BRANCH  10  11
ATOM     11  C   UNL     1      16.191 -33.638  20.600  1.00  0.00    -0.000 C 
BRANCH  11  12
ATOM     12  C   UNL     1      17.587 -33.109  20.968  1.00  0.00    -0.003 C 
ATOM     13  C   UNL     1      17.715 -31.596  20.787  1.00  0.00     0.004 C 
ENDBRANCH  11  12
ENDBRANCH  10  11
ENDBRANCH   9  10
ENDBRANCH   8   9
ENDBRANCH   1   8
TORSDOF 9
ENDMDL
MODEL 4
REMARK VINA RESULT:    -4.428      3.931      7.410
REMARK INTER + INTRA:          -7.168
REMARK INTER:                  -6.675
REMARK INTRA:                  -0.493
REMARK UNBOUND:                -0.411
REMARK SMILES CCCCCCCCCCC(=O)[O-]
REMARK SMILES IDX 7 1 8 2 9 3 10 4 11 5 12 6 13 7 6 8 5 9 4 10 3 11 2 12 1 13
REMARK H PARENT
REMARK Flexibility Score: inf
ROOT
ATOM      1  C   UNL     1      15.250 -33.212  23.690  1.00  0.00     0.000 C 
ENDROOT
BRANCH   1   2
ATOM      2  C   UNL     1      14.875 -31.852  23.091  1.00  0.00     0.000 C 
BRANCH   2   3
ATOM      3  C   UNL     1      13.528 -31.361  23.639  1.00  0.00     0.006 C 
BRANCH   3   4
ATOM      4  C   UNL     1      13.332 -29.853  23.436  1.00  0.00     0.053 C 
BRANCH   4   5
ATOM      5  C   UNL     1      11.950 -29.530  22.953  1.00  0.00     0.041 C 
ATOM      6  O   UNL     1      11.308 -28.576  23.463  1.00  0.00    -0.550 OA
ATOM      7  O   UNL     1      11.361 -30.306  21.962  1.00  0.00    -0.550 OA
ENDBRANCH   4   5
ENDBRANCH   3   4
ENDBRANCH   2   3
ENDBRANCH   1   2
BRANCH   1   8
ATOM      8  C   UNL     1      15.523 -34.243  22.589  1.00  0.00     0.000 C 
BRANCH   8   9
ATOM      9  C   UNL     1      15.129 -33.692  21.210  1.00  0.00    -0.000 C 
BRANCH   9  10
ATOM     10  C   UNL     1      15.380 -34.697  20.074  1.00  0.00    -0.000 C 
BRANCH  10  11
ATOM     11  C   UNL     1      16.692 -34.420  19.318  1.00  0.00    -0.000 C 
BRANCH  11  12
ATOM     12  C   UNL     1      17.737 -35.527  19.529  1.00  0.00    -0.003 C 
ATOM     13  C   UNL     1      17.114 -36.919  19.635  1.00  0.00     0.004 C 
ENDBRANCH  11  12
ENDBRANCH  10  11
ENDBRANCH   9  10
ENDBRANCH   8   9
ENDBRANCH   1   8
TORSDOF 9
ENDMDL
MODEL 5
REMARK VINA RESULT:    -4.413      1.587      2.808
REMARK INTER + INTRA:          -7.145
REMARK INTER:                  -6.011
REMARK INTRA:                  -1.134
REMARK UNBOUND:                -0.411
REMARK SMILES CCCCCCCCCCC(=O)[O-]
REMARK SMILES IDX 7 1 8 2 9 3 10 4 11 5 12 6 13 7 6 8 5 9 4 10 3 11 2 12 1 13
REMARK H PARENT
REMARK Flexibility Score: inf
ROOT
ATOM      1  C   UNL     1      15.659 -34.053  22.995  1.00  0.00     0.000 C 
ENDROOT
BRANCH   1   2
ATOM      2  C   UNL     1      16.731 -33.282  22.218  1.00  0.00     0.000 C 
BRANCH   2   3
ATOM      3  C   UNL     1      16.782 -33.734  20.752  1.00  0.00     0.006 C 
BRANCH   3   4
ATOM      4  C   UNL     1      16.081 -35.082  20.534  1.00  0.00     0.053 C 
BRANCH   4   5
ATOM      5  C   UNL     1      17.064 -36.201  20.367  1.00  0.00     0.041 C 
ATOM      6  O   UNL     1      17.739 -36.602  21.350  1.00  0.00    -0.550 OA
ATOM      7  O   UNL     1      17.257 -36.776  19.117  1.00  0.00    -0.550 OA
ENDBRANCH   4   5
ENDBRANCH   3   4
ENDBRANCH   2   3
ENDBRANCH   1   2
BRANCH   1   8
ATOM      8  C   UNL     1      15.298 -33.333  24.300  1.00  0.00     0.000 C 
BRANCH   8   9
ATOM      9  C   UNL     1      13.873 -32.762  24.236  1.00  0.00    -0.000 C 
BRANCH   9  10
ATOM     10  C   UNL     1      13.851 -31.248  23.973  1.00  0.00    -0.000 C 
BRANCH  10  11
ATOM     11  C   UNL     1      13.051 -30.878  22.711  1.00  0.00    -0.000 C 
BRANCH  11  12
ATOM     12  C   UNL     1      13.901 -30.953  21.433  1.00  0.00    -0.003 C 
ATOM     13  C   UNL     1      13.491 -32.103  20.513  1.00  0.00     0.004 C 
ENDBRANCH  11  12
ENDBRANCH  10  11
ENDBRANCH   9  10
ENDBRANCH   8   9
ENDBRANCH   1   8
TORSDOF 9
ENDMDL
MODEL 6
REMARK VINA RESULT:    -4.397      3.502      6.158
REMARK INTER + INTRA:          -7.121
REMARK INTER:                  -6.028
REMARK INTRA:                  -1.093
REMARK UNBOUND:                -0.411
REMARK SMILES CCCCCCCCCCC(=O)[O-]
REMARK SMILES IDX 7 1 8 2 9 3 10 4 11 5 12 6 13 7 6 8 5 9 4 10 3 11 2 12 1 13
REMARK H PARENT
REMARK Flexibility Score: inf
ROOT
ATOM      1  C   UNL     1      15.540 -34.434  22.034  1.00  0.00     0.000 C 
ENDROOT
BRANCH   1   2
ATOM      2  C   UNL     1      14.767 -33.175  22.442  1.00  0.00     0.000 C 
BRANCH   2   3
ATOM      3  C   UNL     1      14.215 -32.444  21.210  1.00  0.00     0.006 C 
BRANCH   3   4
ATOM      4  C   UNL     1      13.225 -31.334  21.587  1.00  0.00     0.053 C 
BRANCH   4   5
ATOM      5  C   UNL     1      13.822 -30.362  22.559  1.00  0.00     0.041 C 
ATOM      6  O   UNL     1      14.776 -29.621  22.207  1.00  0.00    -0.550 OA
ATOM      7  O   UNL     1      13.346 -30.301  23.863  1.00  0.00    -0.550 OA
ENDBRANCH   4   5
ENDBRANCH   3   4
ENDBRANCH   2   3
ENDBRANCH   1   2
BRANCH   1   8
ATOM      8  C   UNL     1      15.336 -34.748  20.547  1.00  0.00     0.000 C 
BRANCH   8   9
ATOM      9  C   UNL     1      16.643 -35.243  19.906  1.00  0.00    -0.000 C 
BRANCH   9  10
ATOM     10  C   UNL     1      17.451 -34.109  19.255  1.00  0.00    -0.000 C 
BRANCH  10  11
ATOM     11  C   UNL     1      18.439 -33.449  20.235  1.00  0.00    -0.000 C 
BRANCH  11  12
ATOM     12  C   UNL     1      18.033 -32.012  20.599  1.00  0.00    -0.003 C 
ATOM     13  C   UNL     1      18.210 -31.705  22.086  1.00  0.00     0.004 C 
ENDBRANCH  11  12
ENDBRANCH  10  11
ENDBRANCH   9  10
ENDBRANCH   8   9
ENDBRANCH   1   8
TORSDOF 9
ENDMDL
MODEL 7
REMARK VINA RESULT:    -4.359      2.217      2.791
REMARK INTER + INTRA:          -7.063
REMARK INTER:                  -6.063
REMARK INTRA:                  -1.000
REMARK UNBOUND:                -0.411
REMARK SMILES CCCCCCCCCCC(=O)[O-]
REMARK SMILES IDX 7 1 8 2 9 3 10 4 11 5 12 6 13 7 6 8 5 9 4 10 3 11 2 12 1 13
REMARK H PARENT
REMARK Flexibility Score: inf
ROOT
ATOM      1  C   UNL     1      16.746 -30.408  22.023  1.00  0.00     0.000 C 
ENDROOT
BRANCH   1   2
ATOM      2  C   UNL     1      17.066 -30.752  23.481  1.00  0.00     0.000 C 
BRANCH   2   3
ATOM      3  C   UNL     1      16.800 -32.237  23.768  1.00  0.00     0.006 C 
BRANCH   3   4
ATOM      4  C   UNL     1      17.400 -33.153  22.694  1.00  0.00     0.053 C 
BRANCH   4   5
ATOM      5  C   UNL     1      16.409 -34.167  22.209  1.00  0.00     0.041 C 
ATOM      6  O   UNL     1      16.756 -35.044  21.376  1.00  0.00    -0.550 OA
ATOM      7  O   UNL     1      15.092 -34.120  22.652  1.00  0.00    -0.550 OA
ENDBRANCH   4   5
ENDBRANCH   3   4
ENDBRANCH   2   3
ENDBRANCH   1   2
BRANCH   1   8
ATOM      8  C   UNL     1      15.366 -29.750  21.901  1.00  0.00     0.000 C 
BRANCH   8   9
ATOM      9  C   UNL     1      14.310 -30.769  21.443  1.00  0.00    -0.000 C 
BRANCH   9  10
ATOM     10  C   UNL     1      13.333 -31.158  22.563  1.00  0.00    -0.000 C 
BRANCH  10  11
ATOM     11  C   UNL     1      13.400 -30.199  23.765  1.00  0.00    -0.000 C 
BRANCH  11  12
ATOM     12  C   UNL     1      12.309 -29.118  23.717  1.00  0.00    -0.003 C 
ATOM     13  C   UNL     1      12.814 -27.744  24.160  1.00  0.00     0.004 C 
ENDBRANCH  11  12
ENDBRANCH  10  11
ENDBRANCH   9  10
ENDBRANCH   8   9
ENDBRANCH   1   8
TORSDOF 9
ENDMDL
MODEL 8
REMARK VINA RESULT:    -4.347      2.388      3.865
REMARK INTER + INTRA:          -7.044
REMARK INTER:                  -5.890
REMARK INTRA:                  -1.155
REMARK UNBOUND:                -0.411
REMARK SMILES CCCCCCCCCCC(=O)[O-]
REMARK SMILES IDX 7 1 8 2 9 3 10 4 11 5 12 6 13 7 6 8 5 9 4 10 3 11 2 12 1 13
REMARK H PARENT
REMARK Flexibility Score: inf
ROOT
ATOM      1  C   UNL     1      16.510 -30.223  23.041  1.00  0.00     0.000 C 
ENDROOT
BRANCH   1   2
ATOM      2  C   UNL     1      17.705 -30.136  22.085  1.00  0.00     0.000 C 
BRANCH   2   3
ATOM      3  C   UNL     1      17.623 -31.220  21.000  1.00  0.00     0.006 C 
BRANCH   3   4
ATOM      4  C   UNL     1      18.767 -32.237  21.107  1.00  0.00     0.053 C 
BRANCH   4   5
ATOM      5  C   UNL     1      18.388 -33.564  20.522  1.00  0.00     0.041 C 
ATOM      6  O   UNL     1      17.650 -33.619  19.504  1.00  0.00    -0.550 OA
ATOM      7  O   UNL     1      18.823 -34.739  21.123  1.00  0.00    -0.550 OA
ENDBRANCH   4   5
ENDBRANCH   3   4
ENDBRANCH   2   3
ENDBRANCH   1   2
BRANCH   1   8
ATOM      8  C   UNL     1      15.278 -29.530  22.448  1.00  0.00     0.000 C 
BRANCH   8   9
ATOM      9  C   UNL     1      14.002 -29.942  23.199  1.00  0.00    -0.000 C 
BRANCH   9  10
ATOM     10  C   UNL     1      13.552 -31.373  22.866  1.00  0.00    -0.000 C 
BRANCH  10  11
ATOM     11  C   UNL     1      13.514 -31.643  21.351  1.00  0.00    -0.000 C 
BRANCH  11  12
ATOM     12  C   UNL     1      14.333 -32.882  20.954  1.00  0.00    -0.003 C 
ATOM     13  C   UNL     1      15.004 -33.558  22.150  1.00  0.00     0.004 C 
ENDBRANCH  11  12
ENDBRANCH  10  11
ENDBRANCH   9  10
ENDBRANCH   8   9
ENDBRANCH   1   8
TORSDOF 9
ENDMDL
MODEL 9
REMARK VINA RESULT:    -4.321      2.117      2.877
REMARK INTER + INTRA:          -7.005
REMARK INTER:                  -6.076
REMARK INTRA:                  -0.929
REMARK UNBOUND:                -0.411
REMARK SMILES CCCCCCCCCCC(=O)[O-]
REMARK SMILES IDX 7 1 8 2 9 3 10 4 11 5 12 6 13 7 6 8 5 9 4 10 3 11 2 12 1 13
REMARK H PARENT
REMARK Flexibility Score: inf
ROOT
ATOM      1  C   UNL     1      14.998 -33.504  23.947  1.00  0.00     0.000 C 
ENDROOT
BRANCH   1   2
ATOM      2  C   UNL     1      15.034 -33.680  22.425  1.00  0.00     0.000 C 
BRANCH   2   3
ATOM      3  C   UNL     1      16.408 -34.183  21.961  1.00  0.00     0.006 C 
BRANCH   3   4
ATOM      4  C   UNL     1      16.453 -34.441  20.449  1.00  0.00     0.053 C 
BRANCH   4   5
ATOM      5  C   UNL     1      17.638 -33.784  19.807  1.00  0.00     0.041 C 
ATOM      6  O   UNL     1      18.197 -34.319  18.815  1.00  0.00    -0.550 OA
ATOM      7  O   UNL     1      18.143 -32.598  20.327  1.00  0.00    -0.550 OA
ENDBRANCH   4   5
ENDBRANCH   3   4
ENDBRANCH   2   3
ENDBRANCH   1   2
BRANCH   1   8
ATOM      8  C   UNL     1      13.909 -32.508  24.361  1.00  0.00     0.000 C 
BRANCH   8   9
ATOM      9  C   UNL     1      13.509 -31.609  23.181  1.00  0.00    -0.000 C 
BRANCH   9  10
ATOM     10  C   UNL     1      13.372 -30.131  23.578  1.00  0.00    -0.000 C 
BRANCH  10  11
ATOM     11  C   UNL     1      14.410 -29.233  22.881  1.00  0.00    -0.000 C 
BRANCH  11  12
ATOM     12  C   UNL     1      15.255 -30.000  21.852  1.00  0.00    -0.003 C 
ATOM     13  C   UNL     1      16.755 -29.923  22.138  1.00  0.00     0.004 C 
ENDBRANCH  11  12
ENDBRANCH  10  11
ENDBRANCH   9  10
ENDBRANCH   8   9
ENDBRANCH   1   8
TORSDOF 9
ENDMDL
