MODEL 1
REMARK VINA RESULT:    -0.208      0.000      0.000
REMARK INTER + INTRA:           0.612
REMARK INTER:                  -0.305
REMARK INTRA:                   0.917
REMARK UNBOUND:                 0.917
REMARK SMILES C=C1CC=CC(C)(C)CC=C(C)CCC1
REMARK SMILES IDX 2 1 1 2 15 3 14 4 13 5 11 6 12 7 10 8 3 10 4 11 5 12 6 13
REMARK SMILES IDX 7 14 8 15 9 16
REMARK H PARENT
REMARK Flexibility Score: 60.00
ROOT
ATOM      1  C   UNL     1       4.562   5.335  12.729  1.00  0.00    -0.074 C 
ATOM      2  C   UNL     1       3.352   4.875  13.090  1.00  0.00     0.008 C 
ENDROOT
BRANCH   1   3
ATOM      3  C   UNL     1       4.675   6.259  11.525  1.00  0.00     0.031 C 
BRANCH   3   4
ATOM      4  C   UNL     1       3.809   7.530  11.648  1.00  0.00     0.009 C 
BRANCH   4   5
ATOM      5  C   UNL     1       4.394   8.761  10.940  1.00  0.00     0.030 C 
BRANCH   5   6
ATOM      6  C   UNL     1       5.054   9.735  11.898  1.00  0.00    -0.077 C 
ATOM      7  C   UNL     1       4.247  10.918  12.369  1.00  0.00     0.039 C 
ATOM      8  C   UNL     1       6.320   9.606  12.365  1.00  0.00    -0.027 CG0
ATOM      9  G   UNL     1       7.295   8.499  12.019  1.00  0.00     0.000 G0
ENDBRANCH   5   6
ENDBRANCH   4   5
ENDBRANCH   3   4
ENDBRANCH   1   3
BRANCH   1  10
ATOM     10  C   UNL     1       5.776   4.902  13.532  1.00  0.00     0.057 C 
BRANCH  10  11
ATOM     11  C   UNL     1       7.054   4.987  12.740  1.00  0.00    -0.026 C 
ATOM     12  C   UNL     1       7.859   6.058  12.560  1.00  0.00    -0.024 C 
BRANCH  12  13
ATOM     13  C   UNL     1       7.732   7.488  13.108  1.00  0.00    -0.014 C 
ATOM     14  C   UNL     1       9.145   7.902  13.597  1.00  0.00     0.016 C 
ATOM     15  C   UNL     1       6.818   7.526  14.358  1.00  0.00     0.016 C 
BRANCH  13  16
ATOM     16  C   UNL     1       7.334   8.513  11.989  1.00  0.00     0.038 CG0
ATOM     17  G   UNL     1       6.339   9.584  12.389  1.00  0.00     0.000 G0
ENDBRANCH  13  16
ENDBRANCH  12  13
ENDBRANCH  10  11
ENDBRANCH   1  10
TORSDOF 0
ENDMDL
MODEL 2
REMARK VINA RESULT:    -0.180      1.103      3.487
REMARK INTER + INTRA:           0.653
REMARK INTER:                  -0.442
REMARK INTRA:                   1.095
REMARK UNBOUND:                 0.917
REMARK SMILES C=C1CC=CC(C)(C)CC=C(C)CCC1
REMARK SMILES IDX 2 1 1 2 15 3 14 4 13 5 11 6 12 7 10 8 3 10 4 11 5 12 6 13
REMARK SMILES IDX 7 14 8 15 9 16
REMARK H PARENT
REMARK Flexibility Score: 60.00
ROOT
ATOM      1  C   UNL     1       5.986   4.985  13.417  1.00  0.00    -0.074 C 
ATOM      2  C   UNL     1       6.576   4.904  14.622  1.00  0.00     0.008 C 
ENDROOT
BRANCH   1   3
ATOM      3  C   UNL     1       6.846   4.912  12.164  1.00  0.00     0.031 C 
BRANCH   3   4
ATOM      4  C   UNL     1       8.282   5.436  12.378  1.00  0.00     0.009 C 
BRANCH   4   5
ATOM      5  C   UNL     1       8.494   6.891  11.931  1.00  0.00     0.030 C 
BRANCH   5   6
ATOM      6  C   UNL     1       8.039   7.899  12.971  1.00  0.00    -0.077 C 
ATOM      7  C   UNL     1       8.915   8.108  14.181  1.00  0.00     0.039 C 
ATOM      8  C   UNL     1       6.902   8.630  12.879  1.00  0.00    -0.027 CG0
ATOM      9  G   UNL     1       5.888   8.572  11.754  1.00  0.00     0.000 G0
ENDBRANCH   5   6
ENDBRANCH   4   5
ENDBRANCH   3   4
ENDBRANCH   1   3
BRANCH   1  10
ATOM     10  C   UNL     1       4.478   5.158  13.354  1.00  0.00     0.057 C 
BRANCH  10  11
ATOM     11  C   UNL     1       4.005   5.619  12.000  1.00  0.00    -0.026 C 
ATOM     12  C   UNL     1       3.977   6.877  11.505  1.00  0.00    -0.024 C 
BRANCH  12  13
ATOM     13  C   UNL     1       4.423   8.199  12.149  1.00  0.00    -0.014 C 
ATOM     14  C   UNL     1       4.426   7.965  13.683  1.00  0.00     0.016 C 
ATOM     15  C   UNL     1       3.390   9.322  11.889  1.00  0.00     0.016 C 
BRANCH  13  16
ATOM     16  C   UNL     1       5.894   8.576  11.756  1.00  0.00     0.038 CG0
ATOM     17  G   UNL     1       6.898   8.621  12.891  1.00  0.00     0.000 G0
ENDBRANCH  13  16
ENDBRANCH  12  13
ENDBRANCH  10  11
ENDBRANCH   1  10
TORSDOF 0
ENDMDL
MODEL 3
REMARK VINA RESULT:     0.320      2.483      5.293
REMARK INTER + INTRA:           1.387
REMARK INTER:                   0.635
REMARK INTRA:                   0.752
REMARK UNBOUND:                 0.917
REMARK SMILES C=C1CC=CC(C)(C)CC=C(C)CCC1
REMARK SMILES IDX 2 1 1 2 15 3 14 4 13 5 11 6 12 7 10 8 3 10 4 11 5 12 6 13
REMARK SMILES IDX 7 14 8 15 9 16
REMARK H PARENT
REMARK Flexibility Score: 60.00
ROOT
ATOM      1  C   UNL     1       3.958  12.486  12.071  1.00  0.00    -0.074 C 
ATOM      2  C   UNL     1       3.401  12.941  10.936  1.00  0.00     0.008 C 
ENDROOT
BRANCH   1   3
ATOM      3  C   UNL     1       3.687  13.220  13.376  1.00  0.00     0.031 C 
BRANCH   3   4
ATOM      4  C   UNL     1       2.422  12.723  14.105  1.00  0.00     0.009 C 
BRANCH   4   5
ATOM      5  C   UNL     1       2.455  11.233  14.478  1.00  0.00     0.030 C 
BRANCH   5   6
ATOM      6  C   UNL     1       1.687  10.363  13.500  1.00  0.00    -0.077 C 
ATOM      7  C   UNL     1       0.382  10.892  12.960  1.00  0.00     0.039 C 
ATOM      8  C   UNL     1       2.101   9.145  13.074  1.00  0.00    -0.027 CG0
ATOM      9  G   UNL     1       3.372   8.434  13.491  1.00  0.00     0.000 G0
ENDBRANCH   5   6
ENDBRANCH   4   5
ENDBRANCH   3   4
ENDBRANCH   1   3
BRANCH   1  10
ATOM     10  C   UNL     1       4.851  11.259  12.005  1.00  0.00     0.057 C 
BRANCH  10  11
ATOM     11  C   UNL     1       4.393  10.266  10.970  1.00  0.00    -0.026 C 
ATOM     12  C   UNL     1       4.203   8.934  11.112  1.00  0.00    -0.024 C 
BRANCH  12  13
ATOM     13  C   UNL     1       4.377   8.041  12.350  1.00  0.00    -0.014 C 
ATOM     14  C   UNL     1       5.801   8.318  12.899  1.00  0.00     0.016 C 
ATOM     15  C   UNL     1       4.350   6.542  11.964  1.00  0.00     0.016 C 
BRANCH  13  16
ATOM     16  C   UNL     1       3.377   8.427  13.496  1.00  0.00     0.038 CG0
ATOM     17  G   UNL     1       2.103   9.123  13.064  1.00  0.00     0.000 G0
ENDBRANCH  13  16
ENDBRANCH  12  13
ENDBRANCH  10  11
ENDBRANCH   1  10
TORSDOF 0
ENDMDL
MODEL 4
REMARK VINA RESULT:     0.408      1.371      3.566
REMARK INTER + INTRA:           1.516
REMARK INTER:                  -0.257
REMARK INTRA:                   1.773
REMARK UNBOUND:                 0.917
REMARK SMILES C=C1CC=CC(C)(C)CC=C(C)CCC1
REMARK SMILES IDX 2 1 1 2 15 3 14 4 13 5 11 6 12 7 10 8 3 10 4 11 5 12 6 13
REMARK SMILES IDX 7 14 8 15 9 16
REMARK H PARENT
REMARK Flexibility Score: 60.00
ROOT
ATOM      1  C   UNL     1       8.345   7.915  13.188  1.00  0.00    -0.074 C 
ATOM      2  C   UNL     1       9.580   7.943  13.718  1.00  0.00     0.008 C 
ENDROOT
BRANCH   1   3
ATOM      3  C   UNL     1       7.418   9.102  13.409  1.00  0.00     0.031 C 
BRANCH   3   4
ATOM      4  C   UNL     1       6.591   9.471  12.159  1.00  0.00     0.009 C 
BRANCH   4   5
ATOM      5  C   UNL     1       5.166   9.954  12.469  1.00  0.00     0.030 C 
BRANCH   5   6
ATOM      6  C   UNL     1       4.122   9.333  11.559  1.00  0.00    -0.077 C 
ATOM      7  C   UNL     1       3.006  10.216  11.060  1.00  0.00     0.039 C 
ATOM      8  C   UNL     1       4.131   8.038  11.160  1.00  0.00    -0.027 CG0
ATOM      9  G   UNL     1       5.155   6.988  11.545  1.00  0.00     0.000 G0
ENDBRANCH   5   6
ENDBRANCH   4   5
ENDBRANCH   3   4
ENDBRANCH   1   3
BRANCH   1  10
ATOM     10  C   UNL     1       7.918   6.691  12.398  1.00  0.00     0.057 C 
BRANCH  10  11
ATOM     11  C   UNL     1       7.270   5.642  13.261  1.00  0.00    -0.026 C 
ATOM     12  C   UNL     1       5.955   5.358  13.393  1.00  0.00    -0.024 C 
BRANCH  12  13
ATOM     13  C   UNL     1       4.737   5.994  12.704  1.00  0.00    -0.014 C 
ATOM     14  C   UNL     1       4.023   6.858  13.778  1.00  0.00     0.016 C 
ATOM     15  C   UNL     1       3.714   4.914  12.274  1.00  0.00     0.016 C 
BRANCH  13  16
ATOM     16  C   UNL     1       5.159   6.975  11.555  1.00  0.00     0.038 CG0
ATOM     17  G   UNL     1       4.127   8.008  11.147  1.00  0.00     0.000 G0
ENDBRANCH  13  16
ENDBRANCH  12  13
ENDBRANCH  10  11
ENDBRANCH   1  10
TORSDOF 0
ENDMDL
MODEL 5
REMARK VINA RESULT:     0.475      1.670      3.818
REMARK INTER + INTRA:           1.614
REMARK INTER:                   0.585
REMARK INTRA:                   1.029
REMARK UNBOUND:                 0.917
REMARK SMILES C=C1CC=CC(C)(C)CC=C(C)CCC1
REMARK SMILES IDX 2 1 1 2 15 3 14 4 13 5 11 6 12 7 10 8 3 10 4 11 5 12 6 13
REMARK SMILES IDX 7 14 8 15 9 16
REMARK H PARENT
REMARK Flexibility Score: 60.00
ROOT
ATOM      1  C   UNL     1       3.698   9.851  11.975  1.00  0.00    -0.074 C 
ATOM      2  C   UNL     1       3.209  10.489  10.898  1.00  0.00     0.008 C 
ENDROOT
BRANCH   1   3
ATOM      3  C   UNL     1       2.731   9.287  13.006  1.00  0.00     0.031 C 
BRANCH   3   4
ATOM      4  C   UNL     1       2.681   7.745  13.017  1.00  0.00     0.009 C 
BRANCH   4   5
ATOM      5  C   UNL     1       3.804   7.085  13.831  1.00  0.00     0.030 C 
BRANCH   5   6
ATOM      6  C   UNL     1       4.443   5.912  13.111  1.00  0.00    -0.077 C 
ATOM      7  C   UNL     1       3.536   4.947  12.391  1.00  0.00     0.039 C 
ATOM      8  C   UNL     1       5.778   5.680  13.065  1.00  0.00    -0.027 CG0
ATOM      9  G   UNL     1       6.857   6.521  13.718  1.00  0.00     0.000 G0
ENDBRANCH   5   6
ENDBRANCH   4   5
ENDBRANCH   3   4
ENDBRANCH   1   3
BRANCH   1  10
ATOM     10  C   UNL     1       5.204   9.729  12.128  1.00  0.00     0.057 C 
BRANCH  10  11
ATOM     11  C   UNL     1       5.799   8.703  11.200  1.00  0.00    -0.026 C 
ATOM     12  C   UNL     1       6.782   7.810  11.456  1.00  0.00    -0.024 C 
BRANCH  12  13
ATOM     13  C   UNL     1       7.571   7.559  12.750  1.00  0.00    -0.014 C 
ATOM     14  C   UNL     1       7.613   8.909  13.512  1.00  0.00     0.016 C 
ATOM     15  C   UNL     1       9.044   7.195  12.441  1.00  0.00     0.016 C 
BRANCH  13  16
ATOM     16  C   UNL     1       6.842   6.540  13.694  1.00  0.00     0.038 CG0
ATOM     17  G   UNL     1       5.774   5.679  13.049  1.00  0.00     0.000 G0
ENDBRANCH  13  16
ENDBRANCH  12  13
ENDBRANCH  10  11
ENDBRANCH   1  10
TORSDOF 0
ENDMDL
MODEL 6
REMARK VINA RESULT:     1.738      4.131      6.419
REMARK INTER + INTRA:           3.468
REMARK INTER:                   1.516
REMARK INTRA:                   1.952
REMARK UNBOUND:                 0.917
REMARK SMILES C=C1CC=CC(C)(C)CC=C(C)CCC1
REMARK SMILES IDX 2 1 1 2 15 3 14 4 13 5 11 6 12 7 10 8 3 10 4 11 5 12 6 13
REMARK SMILES IDX 7 14 8 15 9 16
REMARK H PARENT
REMARK Flexibility Score: 60.00
ROOT
ATOM      1  C   UNL     1       1.940  12.546  15.403  1.00  0.00    -0.074 C 
ATOM      2  C   UNL     1       1.082  12.579  16.437  1.00  0.00     0.008 C 
ENDROOT
BRANCH   1   3
ATOM      3  C   UNL     1       3.329  13.144  15.573  1.00  0.00     0.031 C 
BRANCH   3   4
ATOM      4  C   UNL     1       4.019  13.477  14.234  1.00  0.00     0.009 C 
BRANCH   4   5
ATOM      5  C   UNL     1       3.204  14.404  13.319  1.00  0.00     0.030 C 
BRANCH   5   6
ATOM      6  C   UNL     1       3.479  14.168  11.845  1.00  0.00    -0.077 C 
ATOM      7  C   UNL     1       3.255  15.317  10.894  1.00  0.00     0.039 C 
ATOM      8  C   UNL     1       3.921  12.995  11.329  1.00  0.00    -0.027 CG0
ATOM      9  G   UNL     1       4.207  11.726  12.105  1.00  0.00     0.000 G0
ENDBRANCH   5   6
ENDBRANCH   4   5
ENDBRANCH   3   4
ENDBRANCH   1   3
BRANCH   1  10
ATOM     10  C   UNL     1       1.484  11.921  14.096  1.00  0.00     0.057 C 
BRANCH  10  11
ATOM     11  C   UNL     1       1.883  10.474  13.977  1.00  0.00    -0.026 C 
ATOM     12  C   UNL     1       2.611   9.882  13.003  1.00  0.00    -0.024 C 
BRANCH  12  13
ATOM     13  C   UNL     1       3.258  10.491  11.749  1.00  0.00    -0.014 C 
ATOM     14  C   UNL     1       2.100  11.045  10.878  1.00  0.00     0.016 C 
ATOM     15  C   UNL     1       3.953   9.401  10.896  1.00  0.00     0.016 C 
BRANCH  13  16
ATOM     16  C   UNL     1       4.174  11.716  12.098  1.00  0.00     0.038 CG0
ATOM     17  G   UNL     1       3.901  12.993  11.331  1.00  0.00     0.000 G0
ENDBRANCH  13  16
ENDBRANCH  12  13
ENDBRANCH  10  11
ENDBRANCH   1  10
TORSDOF 0
ENDMDL
MODEL 7
REMARK VINA RESULT:     1.752      3.449      6.123
REMARK INTER + INTRA:           3.488
REMARK INTER:                   2.667
REMARK INTRA:                   0.820
REMARK UNBOUND:                 0.917
REMARK SMILES C=C1CC=CC(C)(C)CC=C(C)CCC1
REMARK SMILES IDX 2 1 1 2 15 3 14 4 13 5 11 6 12 7 10 8 3 10 4 11 5 12 6 13
REMARK SMILES IDX 7 14 8 15 9 16
REMARK H PARENT
REMARK Flexibility Score: 60.00
ROOT
ATOM      1  C   UNL     1       4.680   9.314  12.038  1.00  0.00    -0.074 C 
ATOM      2  C   UNL     1       5.552   8.587  11.319  1.00  0.00     0.008 C 
ENDROOT
BRANCH   1   3
ATOM      3  C   UNL     1       5.202  10.447  12.910  1.00  0.00     0.031 C 
BRANCH   3   4
ATOM      4  C   UNL     1       5.156  11.824  12.214  1.00  0.00     0.009 C 
BRANCH   4   5
ATOM      5  C   UNL     1       4.285  12.864  12.935  1.00  0.00     0.030 C 
BRANCH   5   6
ATOM      6  C   UNL     1       3.525  13.763  11.976  1.00  0.00    -0.077 C 
ATOM      7  C   UNL     1       3.816  15.242  12.016  1.00  0.00     0.039 C 
ATOM      8  C   UNL     1       2.608  13.322  11.081  1.00  0.00    -0.027 CG0
ATOM      9  G   UNL     1       2.171  11.885  10.880  1.00  0.00     0.000 G0
ENDBRANCH   5   6
ENDBRANCH   4   5
ENDBRANCH   3   4
ENDBRANCH   1   3
BRANCH   1  10
ATOM     10  C   UNL     1       3.204   8.967  11.963  1.00  0.00     0.057 C 
BRANCH  10  11
ATOM     11  C   UNL     1       2.406   9.581  13.082  1.00  0.00    -0.026 C 
ATOM     12  C   UNL     1       1.490  10.574  13.013  1.00  0.00    -0.024 C 
BRANCH  12  13
ATOM     13  C   UNL     1       0.976  11.355  11.794  1.00  0.00    -0.014 C 
ATOM     14  C   UNL     1       0.259  12.616  12.347  1.00  0.00     0.016 C 
ATOM     15  C   UNL     1      -0.103  10.549  11.031  1.00  0.00     0.016 C 
BRANCH  13  16
ATOM     16  C   UNL     1       2.149  11.873  10.891  1.00  0.00     0.038 CG0
ATOM     17  G   UNL     1       2.548  13.323  11.082  1.00  0.00     0.000 G0
ENDBRANCH  13  16
ENDBRANCH  12  13
ENDBRANCH  10  11
ENDBRANCH   1  10
TORSDOF 0
ENDMDL
