MODEL 1
REMARK VINA RESULT:    -4.893      0.000      0.000
REMARK INTER + INTRA:          -5.554
REMARK INTER:                  -5.322
REMARK INTRA:                  -0.232
REMARK UNBOUND:                -0.232
REMARK SMILES CC1=CC[C@](O)(C(C)C)CC1
REMARK SMILES IDX 1 1 2 2 3 3 4 4 5 5 10 6 11 7 7 8 8 9 9 10 6 11
REMARK H PARENT 6 12
REMARK Flexibility Score: inf
ROOT
ATOM      1  C   UNL     1       0.174  15.892  44.683  1.00  0.00     0.039 C 
ATOM      2  C   UNL     1      -0.524  16.700  45.742  1.00  0.00    -0.077 C 
ATOM      3  C   UNL     1      -1.610  16.212  46.361  1.00  0.00    -0.025 C 
ATOM      4  C   UNL     1      -2.276  17.032  47.432  1.00  0.00     0.062 C 
ATOM      5  C   UNL     1      -1.230  17.596  48.447  1.00  0.00     0.071 C 
ATOM      6  C   UNL     1       0.089  18.074  47.723  1.00  0.00     0.040 C 
ATOM      7  C   UNL     1       0.010  18.040  46.187  1.00  0.00     0.033 C 
ENDROOT
BRANCH   5   8
ATOM      8  C   UNL     1      -1.848  18.761  49.310  1.00  0.00     0.015 C 
ATOM      9  C   UNL     1      -0.845  19.871  49.689  1.00  0.00     0.010 C 
ATOM     10  C   UNL     1      -3.084  19.394  48.648  1.00  0.00     0.010 C 
ENDBRANCH   5   8
BRANCH   5  11
ATOM     11  O   UNL     1      -0.890  16.528  49.304  1.00  0.00    -0.389 OA
ATOM     12  H   UNL     1      -1.662  15.903  49.340  1.00  0.00     0.211 HD
ENDBRANCH   5  11
TORSDOF 2
ENDMDL
MODEL 2
REMARK VINA RESULT:    -4.821      1.747      4.273
REMARK INTER + INTRA:          -5.476
REMARK INTER:                  -5.283
REMARK INTRA:                  -0.193
REMARK UNBOUND:                -0.232
REMARK SMILES CC1=CC[C@](O)(C(C)C)CC1
REMARK SMILES IDX 1 1 2 2 3 3 4 4 5 5 10 6 11 7 7 8 8 9 9 10 6 11
REMARK H PARENT 6 12
REMARK Flexibility Score: inf
ROOT
ATOM      1  C   UNL     1      -2.375  21.670  49.977  1.00  0.00     0.039 C 
ATOM      2  C   UNL     1      -2.160  20.309  49.377  1.00  0.00    -0.077 C 
ATOM      3  C   UNL     1      -3.040  19.811  48.493  1.00  0.00    -0.025 C 
ATOM      4  C   UNL     1      -2.788  18.456  47.890  1.00  0.00     0.062 C 
ATOM      5  C   UNL     1      -1.316  18.323  47.385  1.00  0.00     0.071 C 
ATOM      6  C   UNL     1      -0.293  19.002  48.378  1.00  0.00     0.040 C 
ATOM      7  C   UNL     1      -0.926  19.498  49.689  1.00  0.00     0.033 C 
ENDROOT
BRANCH   5   8
ATOM      8  C   UNL     1      -0.935  16.815  47.135  1.00  0.00     0.015 C 
ATOM      9  C   UNL     1      -1.255  15.875  48.317  1.00  0.00     0.010 C 
ATOM     10  C   UNL     1      -1.564  16.252  45.849  1.00  0.00     0.010 C 
ENDBRANCH   5   8
BRANCH   5  11
ATOM     11  O   UNL     1      -1.252  19.017  46.158  1.00  0.00    -0.389 OA
ATOM     12  H   UNL     1      -1.851  19.807  46.218  1.00  0.00     0.211 HD
ENDBRANCH   5  11
TORSDOF 2
ENDMDL
MODEL 3
REMARK VINA RESULT:    -4.802      1.348      4.343
REMARK INTER + INTRA:          -5.455
REMARK INTER:                  -5.266
REMARK INTRA:                  -0.189
REMARK UNBOUND:                -0.232
REMARK SMILES CC1=CC[C@](O)(C(C)C)CC1
REMARK SMILES IDX 1 1 2 2 3 3 4 4 5 5 10 6 11 7 7 8 8 9 9 10 6 11
REMARK H PARENT 6 12
REMARK Flexibility Score: inf
ROOT
ATOM      1  C   UNL     1      -2.445  19.866  49.245  1.00  0.00     0.039 C 
ATOM      2  C   UNL     1      -1.840  18.969  48.201  1.00  0.00    -0.077 C 
ATOM      3  C   UNL     1      -0.758  19.365  47.513  1.00  0.00    -0.025 C 
ATOM      4  C   UNL     1      -0.159  18.438  46.490  1.00  0.00     0.062 C 
ATOM      5  C   UNL     1       0.010  16.994  47.062  1.00  0.00     0.071 C 
ATOM      6  C   UNL     1      -1.220  16.572  47.958  1.00  0.00     0.040 C 
ATOM      7  C   UNL     1      -2.380  17.583  47.948  1.00  0.00     0.033 C 
ENDROOT
BRANCH   5   8
ATOM      8  C   UNL     1       0.244  15.949  45.906  1.00  0.00     0.015 C 
ATOM      9  C   UNL     1      -0.652  16.161  44.668  1.00  0.00     0.010 C 
ATOM     10  C   UNL     1       1.716  15.876  45.465  1.00  0.00     0.010 C 
ENDBRANCH   5   8
BRANCH   5  11
ATOM     11  O   UNL     1       1.155  17.023  47.886  1.00  0.00    -0.389 OA
ATOM     12  H   UNL     1       1.929  17.304  47.331  1.00  0.00     0.211 HD
ENDBRANCH   5  11
TORSDOF 2
ENDMDL
MODEL 4
REMARK VINA RESULT:    -4.710      1.865      2.552
REMARK INTER + INTRA:          -5.355
REMARK INTER:                  -5.217
REMARK INTRA:                  -0.138
REMARK UNBOUND:                -0.232
REMARK SMILES CC1=CC[C@](O)(C(C)C)CC1
REMARK SMILES IDX 1 1 2 2 3 3 4 4 5 5 10 6 11 7 7 8 8 9 9 10 6 11
REMARK H PARENT 6 12
REMARK Flexibility Score: inf
ROOT
ATOM      1  C   UNL     1      -1.623  16.198  45.431  1.00  0.00     0.039 C 
ATOM      2  C   UNL     1      -1.394  17.205  46.524  1.00  0.00    -0.077 C 
ATOM      3  C   UNL     1      -0.764  18.360  46.259  1.00  0.00    -0.025 C 
ATOM      4  C   UNL     1      -0.568  19.360  47.366  1.00  0.00     0.062 C 
ATOM      5  C   UNL     1      -1.889  19.587  48.168  1.00  0.00     0.071 C 
ATOM      6  C   UNL     1      -2.679  18.237  48.387  1.00  0.00     0.040 C 
ATOM      7  C   UNL     1      -1.920  16.983  47.921  1.00  0.00     0.033 C 
ENDROOT
BRANCH   5   8
ATOM      8  C   UNL     1      -1.603  20.297  49.545  1.00  0.00     0.015 C 
ATOM      9  C   UNL     1      -0.142  20.757  49.730  1.00  0.00     0.010 C 
ATOM     10  C   UNL     1      -2.548  21.482  49.806  1.00  0.00     0.010 C 
ENDBRANCH   5   8
BRANCH   5  11
ATOM     11  O   UNL     1      -2.694  20.435  47.378  1.00  0.00    -0.389 OA
ATOM     12  H   UNL     1      -3.511  19.933  47.120  1.00  0.00     0.211 HD
ENDBRANCH   5  11
TORSDOF 2
ENDMDL
MODEL 5
REMARK VINA RESULT:    -4.583      1.834      2.530
REMARK INTER + INTRA:          -5.217
REMARK INTER:                  -5.023
REMARK INTRA:                  -0.194
REMARK UNBOUND:                -0.232
REMARK SMILES CC1=CC[C@](O)(C(C)C)CC1
REMARK SMILES IDX 1 1 2 2 3 3 4 4 5 5 10 6 11 7 7 8 8 9 9 10 6 11
REMARK H PARENT 6 12
REMARK Flexibility Score: inf
ROOT
ATOM      1  C   UNL     1       2.353  16.202  45.825  1.00  0.00     0.039 C 
ATOM      2  C   UNL     1       1.168  16.689  46.612  1.00  0.00    -0.077 C 
ATOM      3  C   UNL     1       1.216  17.870  47.248  1.00  0.00    -0.025 C 
ATOM      4  C   UNL     1       0.008  18.344  48.009  1.00  0.00     0.062 C 
ATOM      5  C   UNL     1      -1.294  18.192  47.158  1.00  0.00     0.071 C 
ATOM      6  C   UNL     1      -1.299  16.848  46.330  1.00  0.00     0.040 C 
ATOM      7  C   UNL     1      -0.124  15.909  46.651  1.00  0.00     0.033 C 
ENDROOT
BRANCH   5   8
ATOM      8  C   UNL     1      -2.579  18.295  48.065  1.00  0.00     0.015 C 
ATOM      9  C   UNL     1      -2.627  17.269  49.216  1.00  0.00     0.010 C 
ATOM     10  C   UNL     1      -2.791  19.710  48.631  1.00  0.00     0.010 C 
ENDBRANCH   5   8
BRANCH   5  11
ATOM     11  O   UNL     1      -1.298  19.265  46.241  1.00  0.00    -0.389 OA
ATOM     12  H   UNL     1      -1.663  18.933  45.379  1.00  0.00     0.211 HD
ENDBRANCH   5  11
TORSDOF 2
ENDMDL
MODEL 6
REMARK VINA RESULT:    -4.423     10.178     11.184
REMARK INTER + INTRA:          -5.043
REMARK INTER:                  -4.811
REMARK INTRA:                  -0.232
REMARK UNBOUND:                -0.232
REMARK SMILES CC1=CC[C@](O)(C(C)C)CC1
REMARK SMILES IDX 1 1 2 2 3 3 4 4 5 5 10 6 11 7 7 8 8 9 9 10 6 11
REMARK H PARENT 6 12
REMARK Flexibility Score: inf
ROOT
ATOM      1  C   UNL     1       5.910  21.126  39.089  1.00  0.00     0.039 C 
ATOM      2  C   UNL     1       4.679  21.946  39.362  1.00  0.00    -0.077 C 
ATOM      3  C   UNL     1       4.483  22.489  40.574  1.00  0.00    -0.025 C 
ATOM      4  C   UNL     1       3.254  23.324  40.813  1.00  0.00     0.062 C 
ATOM      5  C   UNL     1       3.041  24.363  39.666  1.00  0.00     0.071 C 
ATOM      6  C   UNL     1       3.374  23.749  38.251  1.00  0.00     0.040 C 
ATOM      7  C   UNL     1       3.673  22.240  38.276  1.00  0.00     0.033 C 
ENDROOT
BRANCH   5   8
ATOM      8  C   UNL     1       1.577  24.945  39.693  1.00  0.00     0.015 C 
ATOM      9  C   UNL     1       0.995  25.265  38.300  1.00  0.00     0.010 C 
ATOM     10  C   UNL     1       0.596  24.042  40.461  1.00  0.00     0.010 C 
ENDBRANCH   5   8
BRANCH   5  11
ATOM     11  O   UNL     1       3.951  25.414  39.907  1.00  0.00    -0.389 OA
ATOM     12  H   UNL     1       3.671  25.882  40.736  1.00  0.00     0.211 HD
ENDBRANCH   5  11
TORSDOF 2
ENDMDL
MODEL 7
REMARK VINA RESULT:    -4.362      2.264      4.870
REMARK INTER + INTRA:          -4.976
REMARK INTER:                  -4.746
REMARK INTRA:                  -0.230
REMARK UNBOUND:                -0.232
REMARK SMILES CC1=CC[C@](O)(C(C)C)CC1
REMARK SMILES IDX 1 1 2 2 3 3 4 4 5 5 10 6 11 7 7 8 8 9 9 10 6 11
REMARK H PARENT 6 12
REMARK Flexibility Score: inf
ROOT
ATOM      1  C   UNL     1      -0.739  23.199  50.617  1.00  0.00     0.039 C 
ATOM      2  C   UNL     1      -1.114  21.846  50.078  1.00  0.00    -0.077 C 
ATOM      3  C   UNL     1      -2.400  21.549  49.833  1.00  0.00    -0.025 C 
ATOM      4  C   UNL     1      -2.746  20.196  49.273  1.00  0.00     0.062 C 
ATOM      5  C   UNL     1      -1.822  19.827  48.068  1.00  0.00     0.071 C 
ATOM      6  C   UNL     1      -0.329  20.274  48.318  1.00  0.00     0.040 C 
ATOM      7  C   UNL     1      -0.065  20.819  49.732  1.00  0.00     0.033 C 
ENDROOT
BRANCH   5   8
ATOM      8  C   UNL     1      -1.898  18.286  47.745  1.00  0.00     0.015 C 
ATOM      9  C   UNL     1      -0.525  17.612  47.544  1.00  0.00     0.010 C 
ATOM     10  C   UNL     1      -2.704  17.502  48.795  1.00  0.00     0.010 C 
ENDBRANCH   5   8
BRANCH   5  11
ATOM     11  O   UNL     1      -2.309  20.548  46.957  1.00  0.00    -0.389 OA
ATOM     12  H   UNL     1      -1.955  21.474  47.011  1.00  0.00     0.211 HD
ENDBRANCH   5  11
TORSDOF 2
ENDMDL
MODEL 8
REMARK VINA RESULT:    -3.836      1.606      4.231
REMARK INTER + INTRA:          -4.405
REMARK INTER:                  -4.258
REMARK INTRA:                  -0.146
REMARK UNBOUND:                -0.232
REMARK SMILES CC1=CC[C@](O)(C(C)C)CC1
REMARK SMILES IDX 1 1 2 2 3 3 4 4 5 5 10 6 11 7 7 8 8 9 9 10 6 11
REMARK H PARENT 6 12
REMARK Flexibility Score: inf
ROOT
ATOM      1  C   UNL     1      -2.590  20.004  49.156  1.00  0.00     0.039 C 
ATOM      2  C   UNL     1      -1.813  18.886  48.517  1.00  0.00    -0.077 C 
ATOM      3  C   UNL     1      -2.341  17.655  48.435  1.00  0.00    -0.025 C 
ATOM      4  C   UNL     1      -1.552  16.560  47.770  1.00  0.00     0.062 C 
ATOM      5  C   UNL     1      -0.962  17.034  46.404  1.00  0.00     0.071 C 
ATOM      6  C   UNL     1      -0.436  18.521  46.477  1.00  0.00     0.040 C 
ATOM      7  C   UNL     1      -0.461  19.126  47.892  1.00  0.00     0.033 C 
ENDROOT
BRANCH   5   8
ATOM      8  C   UNL     1       0.176  16.063  45.909  1.00  0.00     0.015 C 
ATOM      9  C   UNL     1       0.229  15.875  44.378  1.00  0.00     0.010 C 
ATOM     10  C   UNL     1       1.567  16.472  46.422  1.00  0.00     0.010 C 
ENDBRANCH   5   8
BRANCH   5  11
ATOM     11  O   UNL     1      -2.026  16.997  45.477  1.00  0.00    -0.389 OA
ATOM     12  H   UNL     1      -2.793  16.535  45.906  1.00  0.00     0.211 HD
ENDBRANCH   5  11
TORSDOF 2
ENDMDL
