MODEL 1
REMARK VINA RESULT:    -3.199      0.000      0.000
REMARK INTER + INTRA:          -4.945
REMARK INTER:                  -4.882
REMARK INTRA:                  -0.063
REMARK UNBOUND:                -0.063
REMARK SMILES CC1=CCC[C@@H](C)C(=O)C[C@@H](C(C)C)C(=O)C1
REMARK SMILES IDX 8 1 9 2 6 3 7 4 5 5 4 6 3 7 2 8 1 9 10 11 11 12 15 13 16 14
REMARK SMILES IDX 17 15 12 17 13 18 14 19
REMARK H PARENT
REMARK Flexibility Score: 70.00
ROOT
ATOM      1  C   UNL     1      81.033  -6.069  27.874  1.00  0.00     0.136 C 
ATOM      2  O   UNL     1      81.714  -5.309  27.202  1.00  0.00    -0.299 OA
ENDROOT
BRANCH   1   3
ATOM      3  C   UNL     1      79.834  -5.474  28.656  1.00  0.00     0.053 C 
ATOM      4  C   UNL     1      79.496  -6.322  29.890  1.00  0.00     0.016 C 
BRANCH   3   5
ATOM      5  C   UNL     1      78.553  -5.205  27.782  1.00  0.00     0.015 C 
BRANCH   5   6
ATOM      6  C   UNL     1      78.183  -6.496  27.093  1.00  0.00     0.028 C 
BRANCH   6   7
ATOM      7  C   UNL     1      78.153  -6.714  25.630  1.00  0.00    -0.028 C 
ATOM      8  C   UNL     1      78.566  -7.927  25.168  1.00  0.00    -0.070 CG0
ATOM      9  C   UNL     1      78.398  -8.217  23.701  1.00  0.00     0.039 C 
ATOM     10  G   UNL     1      79.315  -8.952  26.059  1.00  0.00     0.000 G0
ENDBRANCH   6   7
ENDBRANCH   5   6
ENDBRANCH   3   5
ENDBRANCH   1   3
BRANCH   1  11
ATOM     11  C   UNL     1      81.402  -7.564  27.865  1.00  0.00     0.087 C 
BRANCH  11  12
ATOM     12  C   UNL     1      81.851  -8.131  26.455  1.00  0.00     0.066 C 
BRANCH  12  13
ATOM     13  C   UNL     1      80.825  -9.100  25.820  1.00  0.00     0.140 C 
ATOM     14  O   UNL     1      81.218 -10.011  25.107  1.00  0.00    -0.299 OA
BRANCH  13  15
ATOM     15  C   UNL     1      79.318  -8.968  26.065  1.00  0.00     0.106 CG0
ATOM     16  G   UNL     1      78.572  -7.946  25.167  1.00  0.00     0.000 G0
ENDBRANCH  13  15
ENDBRANCH  12  13
BRANCH  12  17
ATOM     17  C   UNL     1      83.266  -8.791  26.470  1.00  0.00    -0.006 C 
ATOM     18  C   UNL     1      83.671  -9.380  27.834  1.00  0.00     0.008 C 
ATOM     19  C   UNL     1      84.351  -7.826  25.963  1.00  0.00     0.008 C 
ENDBRANCH  12  17
ENDBRANCH  11  12
ENDBRANCH   1  11
TORSDOF 1
ENDMDL
MODEL 2
REMARK VINA RESULT:    -3.087     10.943     13.195
REMARK INTER + INTRA:          -4.774
REMARK INTER:                  -5.719
REMARK INTRA:                   0.944
REMARK UNBOUND:                -0.063
REMARK SMILES CC1=CCC[C@@H](C)C(=O)C[C@@H](C(C)C)C(=O)C1
REMARK SMILES IDX 8 1 9 2 6 3 7 4 5 5 4 6 3 7 2 8 1 9 10 11 11 12 15 13 16 14
REMARK SMILES IDX 17 15 12 17 13 18 14 19
REMARK H PARENT
REMARK Flexibility Score: 70.00
ROOT
ATOM      1  C   UNL     1      84.837   4.496  27.266  1.00  0.00     0.136 C 
ATOM      2  O   UNL     1      85.125   4.300  26.095  1.00  0.00    -0.299 OA
ENDROOT
BRANCH   1   3
ATOM      3  C   UNL     1      84.831   3.279  28.227  1.00  0.00     0.053 C 
ATOM      4  C   UNL     1      86.258   2.813  28.546  1.00  0.00     0.016 C 
BRANCH   3   5
ATOM      5  C   UNL     1      83.932   2.077  27.753  1.00  0.00     0.015 C 
BRANCH   5   6
ATOM      6  C   UNL     1      82.672   2.086  28.584  1.00  0.00     0.028 C 
BRANCH   6   7
ATOM      7  C   UNL     1      82.611   2.217  30.056  1.00  0.00    -0.028 C 
ATOM      8  C   UNL     1      81.987   3.316  30.564  1.00  0.00    -0.070 CG0
ATOM      9  C   UNL     1      81.783   3.387  32.053  1.00  0.00     0.039 C 
ATOM     10  G   UNL     1      81.604   4.540  29.690  1.00  0.00     0.000 G0
ENDBRANCH   6   7
ENDBRANCH   5   6
ENDBRANCH   3   5
ENDBRANCH   1   3
BRANCH   1  11
ATOM     11  C   UNL     1      84.531   5.941  27.700  1.00  0.00     0.087 C 
BRANCH  11  12
ATOM     12  C   UNL     1      83.027   6.207  28.123  1.00  0.00     0.066 C 
BRANCH  12  13
ATOM     13  C   UNL     1      82.662   5.632  29.512  1.00  0.00     0.140 C 
ATOM     14  O   UNL     1      83.234   6.053  30.507  1.00  0.00    -0.299 OA
BRANCH  13  15
ATOM     15  C   UNL     1      81.590   4.553  29.693  1.00  0.00     0.106 CG0
ATOM     16  G   UNL     1      81.999   3.327  30.551  1.00  0.00     0.000 G0
ENDBRANCH  13  15
ENDBRANCH  12  13
BRANCH  12  17
ATOM     17  C   UNL     1      81.987   5.731  27.060  1.00  0.00    -0.006 C 
ATOM     18  C   UNL     1      82.552   5.625  25.631  1.00  0.00     0.008 C 
ATOM     19  C   UNL     1      80.721   6.602  27.070  1.00  0.00     0.008 C 
ENDBRANCH  12  17
ENDBRANCH  11  12
ENDBRANCH   1  11
TORSDOF 1
ENDMDL
MODEL 3
REMARK VINA RESULT:    -3.051     11.245     13.277
REMARK INTER + INTRA:          -4.719
REMARK INTER:                  -5.858
REMARK INTRA:                   1.139
REMARK UNBOUND:                -0.063
REMARK SMILES CC1=CCC[C@@H](C)C(=O)C[C@@H](C(C)C)C(=O)C1
REMARK SMILES IDX 8 1 9 2 6 3 7 4 5 5 4 6 3 7 2 8 1 9 10 11 11 12 15 13 16 14
REMARK SMILES IDX 17 15 12 17 13 18 14 19
REMARK H PARENT
REMARK Flexibility Score: 70.00
ROOT
ATOM      1  C   UNL     1      83.734   2.640  27.988  1.00  0.00     0.136 C 
ATOM      2  O   UNL     1      82.835   2.104  27.359  1.00  0.00    -0.299 OA
ENDROOT
BRANCH   1   3
ATOM      3  C   UNL     1      85.018   3.050  27.220  1.00  0.00     0.053 C 
ATOM      4  C   UNL     1      85.944   3.905  28.096  1.00  0.00     0.016 C 
BRANCH   3   5
ATOM      5  C   UNL     1      84.753   3.738  25.830  1.00  0.00     0.015 C 
BRANCH   5   6
ATOM      6  C   UNL     1      84.316   5.159  26.092  1.00  0.00     0.028 C 
BRANCH   6   7
ATOM      7  C   UNL     1      82.915   5.624  26.192  1.00  0.00    -0.028 C 
ATOM      8  C   UNL     1      82.516   6.163  27.377  1.00  0.00    -0.070 CG0
ATOM      9  C   UNL     1      81.144   6.779  27.445  1.00  0.00     0.039 C 
ATOM     10  G   UNL     1      83.357   6.048  28.675  1.00  0.00     0.000 G0
ENDBRANCH   6   7
ENDBRANCH   5   6
ENDBRANCH   3   5
ENDBRANCH   1   3
BRANCH   1  11
ATOM     11  C   UNL     1      83.508   2.895  29.490  1.00  0.00     0.087 C 
BRANCH  11  12
ATOM     12  C   UNL     1      82.294   3.855  29.828  1.00  0.00     0.066 C 
BRANCH  12  13
ATOM     13  C   UNL     1      82.678   5.353  29.865  1.00  0.00     0.140 C 
ATOM     14  O   UNL     1      82.447   6.010  30.869  1.00  0.00    -0.299 OA
BRANCH  13  15
ATOM     15  C   UNL     1      83.359   6.051  28.682  1.00  0.00     0.106 CG0
ATOM     16  G   UNL     1      82.510   6.177  27.389  1.00  0.00     0.000 G0
ENDBRANCH  13  15
ENDBRANCH  12  13
BRANCH  12  17
ATOM     17  C   UNL     1      81.538   3.468  31.139  1.00  0.00    -0.006 C 
ATOM     18  C   UNL     1      82.114   4.117  32.411  1.00  0.00     0.008 C 
ATOM     19  C   UNL     1      81.443   1.943  31.314  1.00  0.00     0.008 C 
ENDBRANCH  12  17
ENDBRANCH  11  12
ENDBRANCH   1  11
TORSDOF 1
ENDMDL
MODEL 4
REMARK VINA RESULT:    -3.045      1.560      2.276
REMARK INTER + INTRA:          -4.711
REMARK INTER:                  -5.040
REMARK INTRA:                   0.329
REMARK UNBOUND:                -0.063
REMARK SMILES CC1=CCC[C@@H](C)C(=O)C[C@@H](C(C)C)C(=O)C1
REMARK SMILES IDX 8 1 9 2 6 3 7 4 5 5 4 6 3 7 2 8 1 9 10 11 11 12 15 13 16 14
REMARK SMILES IDX 17 15 12 17 13 18 14 19
REMARK H PARENT
REMARK Flexibility Score: 70.00
ROOT
ATOM      1  C   UNL     1      81.133  -5.624  27.630  1.00  0.00     0.136 C 
ATOM      2  O   UNL     1      81.639  -5.057  26.674  1.00  0.00    -0.299 OA
ENDROOT
BRANCH   1   3
ATOM      3  C   UNL     1      80.267  -4.781  28.602  1.00  0.00     0.053 C 
ATOM      4  C   UNL     1      81.050  -3.577  29.145  1.00  0.00     0.016 C 
BRANCH   3   5
ATOM      5  C   UNL     1      79.607  -5.605  29.770  1.00  0.00     0.015 C 
BRANCH   5   6
ATOM      6  C   UNL     1      78.235  -6.035  29.314  1.00  0.00     0.028 C 
BRANCH   6   7
ATOM      7  C   UNL     1      77.761  -7.433  29.209  1.00  0.00    -0.028 C 
ATOM      8  C   UNL     1      78.036  -8.104  28.056  1.00  0.00    -0.070 CG0
ATOM      9  C   UNL     1      77.697  -9.569  27.994  1.00  0.00     0.039 C 
ATOM     10  G   UNL     1      78.554  -7.395  26.777  1.00  0.00     0.000 G0
ENDBRANCH   6   7
ENDBRANCH   5   6
ENDBRANCH   3   5
ENDBRANCH   1   3
BRANCH   1  11
ATOM     11  C   UNL     1      81.370  -7.138  27.777  1.00  0.00     0.087 C 
BRANCH  11  12
ATOM     12  C   UNL     1      81.163  -7.977  26.449  1.00  0.00     0.066 C 
BRANCH  12  13
ATOM     13  C   UNL     1      79.684  -8.087  26.007  1.00  0.00     0.140 C 
ATOM     14  O   UNL     1      79.397  -8.757  25.026  1.00  0.00    -0.299 OA
BRANCH  13  15
ATOM     15  C   UNL     1      78.551  -7.392  26.770  1.00  0.00     0.106 CG0
ATOM     16  G   UNL     1      78.064  -8.103  28.059  1.00  0.00     0.000 G0
ENDBRANCH  13  15
ENDBRANCH  12  13
BRANCH  12  17
ATOM     17  C   UNL     1      81.809  -9.398  26.501  1.00  0.00    -0.006 C 
ATOM     18  C   UNL     1      82.131  -9.890  27.924  1.00  0.00     0.008 C 
ATOM     19  C   UNL     1      83.059  -9.490  25.609  1.00  0.00     0.008 C 
ENDBRANCH  12  17
ENDBRANCH  11  12
ENDBRANCH   1  11
TORSDOF 1
ENDMDL
MODEL 5
REMARK VINA RESULT:    -2.930      2.487      5.036
REMARK INTER + INTRA:          -4.534
REMARK INTER:                  -4.792
REMARK INTRA:                   0.258
REMARK UNBOUND:                -0.063
REMARK SMILES CC1=CCC[C@@H](C)C(=O)C[C@@H](C(C)C)C(=O)C1
REMARK SMILES IDX 8 1 9 2 6 3 7 4 5 5 4 6 3 7 2 8 1 9 10 11 11 12 15 13 16 14
REMARK SMILES IDX 17 15 12 17 13 18 14 19
REMARK H PARENT
REMARK Flexibility Score: 70.00
ROOT
ATOM      1  C   UNL     1      81.004  -8.659  28.136  1.00  0.00     0.136 C 
ATOM      2  O   UNL     1      81.617  -8.657  29.192  1.00  0.00    -0.299 OA
ENDROOT
BRANCH   1   3
ATOM      3  C   UNL     1      81.788  -8.329  26.839  1.00  0.00     0.053 C 
ATOM      4  C   UNL     1      82.920  -9.337  26.599  1.00  0.00     0.016 C 
BRANCH   3   5
ATOM      5  C   UNL     1      82.315  -6.849  26.754  1.00  0.00     0.015 C 
BRANCH   5   6
ATOM      6  C   UNL     1      81.148  -5.927  27.010  1.00  0.00     0.028 C 
BRANCH   6   7
ATOM      7  C   UNL     1      81.113  -4.840  28.013  1.00  0.00    -0.028 C 
ATOM      8  C   UNL     1      79.936  -4.625  28.665  1.00  0.00    -0.070 CG0
ATOM      9  C   UNL     1      79.926  -3.630  29.793  1.00  0.00     0.039 C 
ATOM     10  G   UNL     1      78.597  -5.260  28.206  1.00  0.00     0.000 G0
ENDBRANCH   6   7
ENDBRANCH   5   6
ENDBRANCH   3   5
ENDBRANCH   1   3
BRANCH   1  11
ATOM     11  C   UNL     1      79.507  -9.019  28.173  1.00  0.00     0.087 C 
BRANCH  11  12
ATOM     12  C   UNL     1      78.536  -7.888  27.636  1.00  0.00     0.066 C 
BRANCH  12  13
ATOM     13  C   UNL     1      78.340  -6.716  28.627  1.00  0.00     0.140 C 
ATOM     14  O   UNL     1      77.993  -6.950  29.775  1.00  0.00    -0.299 OA
BRANCH  13  15
ATOM     15  C   UNL     1      78.580  -5.257  28.223  1.00  0.00     0.106 CG0
ATOM     16  G   UNL     1      79.922  -4.636  28.690  1.00  0.00     0.000 G0
ENDBRANCH  13  15
ENDBRANCH  12  13
BRANCH  12  17
ATOM     17  C   UNL     1      77.147  -8.428  27.170  1.00  0.00    -0.006 C 
ATOM     18  C   UNL     1      76.965  -9.945  27.364  1.00  0.00     0.008 C 
ATOM     19  C   UNL     1      76.841  -8.037  25.715  1.00  0.00     0.008 C 
ENDBRANCH  12  17
ENDBRANCH  11  12
ENDBRANCH   1  11
TORSDOF 1
ENDMDL
MODEL 6
REMARK VINA RESULT:    -2.833      1.970      4.025
REMARK INTER + INTRA:          -4.387
REMARK INTER:                  -4.727
REMARK INTRA:                   0.340
REMARK UNBOUND:                -0.063
REMARK SMILES CC1=CCC[C@@H](C)C(=O)C[C@@H](C(C)C)C(=O)C1
REMARK SMILES IDX 8 1 9 2 6 3 7 4 5 5 4 6 3 7 2 8 1 9 10 11 11 12 15 13 16 14
REMARK SMILES IDX 17 15 12 17 13 18 14 19
REMARK H PARENT
REMARK Flexibility Score: 70.00
ROOT
ATOM      1  C   UNL     1      79.562  -5.128  28.549  1.00  0.00     0.136 C 
ATOM      2  O   UNL     1      79.488  -4.308  29.451  1.00  0.00    -0.299 OA
ENDROOT
BRANCH   1   3
ATOM      3  C   UNL     1      80.971  -5.605  28.111  1.00  0.00     0.053 C 
ATOM      4  C   UNL     1      81.366  -5.006  26.754  1.00  0.00     0.016 C 
BRANCH   3   5
ATOM      5  C   UNL     1      81.164  -7.167  28.121  1.00  0.00     0.015 C 
BRANCH   5   6
ATOM      6  C   UNL     1      81.520  -7.599  26.720  1.00  0.00     0.028 C 
BRANCH   6   7
ATOM      7  C   UNL     1      81.107  -8.867  26.079  1.00  0.00    -0.028 C 
ATOM      8  C   UNL     1      79.991  -8.843  25.299  1.00  0.00    -0.070 CG0
ATOM      9  C   UNL     1      79.647 -10.083  24.520  1.00  0.00     0.039 C 
ATOM     10  G   UNL     1      79.003  -7.647  25.289  1.00  0.00     0.000 G0
ENDBRANCH   6   7
ENDBRANCH   5   6
ENDBRANCH   3   5
ENDBRANCH   1   3
BRANCH   1  11
ATOM     11  C   UNL     1      78.247  -5.646  27.939  1.00  0.00     0.087 C 
BRANCH  11  12
ATOM     12  C   UNL     1      78.153  -7.222  27.795  1.00  0.00     0.066 C 
BRANCH  12  13
ATOM     13  C   UNL     1      77.886  -7.699  26.348  1.00  0.00     0.140 C 
ATOM     14  O   UNL     1      76.775  -8.107  26.043  1.00  0.00    -0.299 OA
BRANCH  13  15
ATOM     15  C   UNL     1      78.970  -7.668  25.265  1.00  0.00     0.106 CG0
ATOM     16  G   UNL     1      79.983  -8.843  25.284  1.00  0.00     0.000 G0
ENDBRANCH  13  15
ENDBRANCH  12  13
BRANCH  12  17
ATOM     17  C   UNL     1      77.123  -7.876  28.770  1.00  0.00    -0.006 C 
ATOM     18  C   UNL     1      76.973  -7.140  30.114  1.00  0.00     0.008 C 
ATOM     19  C   UNL     1      77.429  -9.364  29.008  1.00  0.00     0.008 C 
ENDBRANCH  12  17
ENDBRANCH  11  12
ENDBRANCH   1  11
TORSDOF 1
ENDMDL
MODEL 7
REMARK VINA RESULT:    -2.597      2.299      4.042
REMARK INTER + INTRA:          -4.026
REMARK INTER:                  -4.222
REMARK INTRA:                   0.196
REMARK UNBOUND:                -0.063
REMARK SMILES CC1=CCC[C@@H](C)C(=O)C[C@@H](C(C)C)C(=O)C1
REMARK SMILES IDX 8 1 9 2 6 3 7 4 5 5 4 6 3 7 2 8 1 9 10 11 11 12 15 13 16 14
REMARK SMILES IDX 17 15 12 17 13 18 14 19
REMARK H PARENT
REMARK Flexibility Score: 70.00
ROOT
ATOM      1  C   UNL     1      78.846  -5.606  28.389  1.00  0.00     0.136 C 
ATOM      2  O   UNL     1      78.178  -4.976  27.584  1.00  0.00    -0.299 OA
ENDROOT
BRANCH   1   3
ATOM      3  C   UNL     1      80.276  -5.096  28.706  1.00  0.00     0.053 C 
ATOM      4  C   UNL     1      80.250  -3.976  29.756  1.00  0.00     0.016 C 
BRANCH   3   5
ATOM      5  C   UNL     1      81.112  -4.671  27.442  1.00  0.00     0.015 C 
BRANCH   5   6
ATOM      6  C   UNL     1      81.578  -5.930  26.751  1.00  0.00     0.028 C 
BRANCH   6   7
ATOM      7  C   UNL     1      82.062  -7.154  27.426  1.00  0.00    -0.028 C 
ATOM      8  C   UNL     1      81.474  -8.334  27.084  1.00  0.00    -0.070 CG0
ATOM      9  C   UNL     1      82.058  -9.602  27.646  1.00  0.00     0.039 C 
ATOM     10  G   UNL     1      80.163  -8.407  26.258  1.00  0.00     0.000 G0
ENDBRANCH   6   7
ENDBRANCH   5   6
ENDBRANCH   3   5
ENDBRANCH   1   3
BRANCH   1  11
ATOM     11  C   UNL     1      78.204  -6.840  29.048  1.00  0.00     0.087 C 
BRANCH  11  12
ATOM     12  C   UNL     1      78.794  -8.232  28.575  1.00  0.00     0.066 C 
BRANCH  12  13
ATOM     13  C   UNL     1      78.836  -8.398  27.037  1.00  0.00     0.140 C 
ATOM     14  O   UNL     1      77.790  -8.510  26.414  1.00  0.00    -0.299 OA
BRANCH  13  15
ATOM     15  C   UNL     1      80.153  -8.415  26.254  1.00  0.00     0.106 CG0
ATOM     16  G   UNL     1      81.449  -8.325  27.102  1.00  0.00     0.000 G0
ENDBRANCH  13  15
ENDBRANCH  12  13
BRANCH  12  17
ATOM     17  C   UNL     1      78.086  -9.463  29.223  1.00  0.00    -0.006 C 
ATOM     18  C   UNL     1      76.596  -9.236  29.540  1.00  0.00     0.008 C 
ATOM     19  C   UNL     1      78.829  -9.955  30.476  1.00  0.00     0.008 C 
ENDBRANCH  12  17
ENDBRANCH  11  12
ENDBRANCH   1  11
TORSDOF 1
ENDMDL
MODEL 8
REMARK VINA RESULT:    -2.578      1.832      4.882
REMARK INTER + INTRA:          -3.997
REMARK INTER:                  -4.564
REMARK INTRA:                   0.567
REMARK UNBOUND:                -0.063
REMARK SMILES CC1=CCC[C@@H](C)C(=O)C[C@@H](C(C)C)C(=O)C1
REMARK SMILES IDX 8 1 9 2 6 3 7 4 5 5 4 6 3 7 2 8 1 9 10 11 11 12 15 13 16 14
REMARK SMILES IDX 17 15 12 17 13 18 14 19
REMARK H PARENT
REMARK Flexibility Score: 70.00
ROOT
ATOM      1  C   UNL     1      78.318  -7.717  25.606  1.00  0.00     0.136 C 
ATOM      2  O   UNL     1      78.472  -6.966  24.655  1.00  0.00    -0.299 OA
ENDROOT
BRANCH   1   3
ATOM      3  C   UNL     1      78.574  -9.231  25.387  1.00  0.00     0.053 C 
ATOM      4  C   UNL     1      77.475  -9.864  24.523  1.00  0.00     0.016 C 
BRANCH   3   5
ATOM      5  C   UNL     1      78.802 -10.052  26.710  1.00  0.00     0.015 C 
BRANCH   5   6
ATOM      6  C   UNL     1      80.068  -9.544  27.358  1.00  0.00     0.028 C 
BRANCH   6   7
ATOM      7  C   UNL     1      81.288  -9.110  26.642  1.00  0.00    -0.028 C 
ATOM      8  C   UNL     1      81.821  -7.905  26.983  1.00  0.00    -0.070 CG0
ATOM      9  C   UNL     1      83.143  -7.520  26.375  1.00  0.00     0.039 C 
ATOM     10  G   UNL     1      81.063  -6.872  27.858  1.00  0.00     0.000 G0
ENDBRANCH   6   7
ENDBRANCH   5   6
ENDBRANCH   3   5
ENDBRANCH   1   3
BRANCH   1  11
ATOM     11  C   UNL     1      77.910  -7.096  26.954  1.00  0.00     0.087 C 
BRANCH  11  12
ATOM     12  C   UNL     1      78.673  -5.759  27.331  1.00  0.00     0.066 C 
BRANCH  12  13
ATOM     13  C   UNL     1      80.205  -5.840  27.126  1.00  0.00     0.140 C 
ATOM     14  O   UNL     1      80.751  -5.062  26.357  1.00  0.00    -0.299 OA
BRANCH  13  15
ATOM     15  C   UNL     1      81.075  -6.860  27.867  1.00  0.00     0.106 CG0
ATOM     16  G   UNL     1      81.821  -7.889  26.978  1.00  0.00     0.000 G0
ENDBRANCH  13  15
ENDBRANCH  12  13
BRANCH  12  17
ATOM     17  C   UNL     1      78.355  -5.244  28.770  1.00  0.00    -0.006 C 
ATOM     18  C   UNL     1      79.404  -4.266  29.332  1.00  0.00     0.008 C 
ATOM     19  C   UNL     1      78.124  -6.402  29.754  1.00  0.00     0.008 C 
ENDBRANCH  12  17
ENDBRANCH  11  12
ENDBRANCH   1  11
TORSDOF 1
ENDMDL
MODEL 9
REMARK VINA RESULT:    -2.502      1.886      4.509
REMARK INTER + INTRA:          -3.881
REMARK INTER:                  -4.171
REMARK INTRA:                   0.289
REMARK UNBOUND:                -0.063
REMARK SMILES CC1=CCC[C@@H](C)C(=O)C[C@@H](C(C)C)C(=O)C1
REMARK SMILES IDX 8 1 9 2 6 3 7 4 5 5 4 6 3 7 2 8 1 9 10 11 11 12 15 13 16 14
REMARK SMILES IDX 17 15 12 17 13 18 14 19
REMARK H PARENT
REMARK Flexibility Score: 70.00
ROOT
ATOM      1  C   UNL     1      81.375  -8.409  26.982  1.00  0.00     0.136 C 
ATOM      2  O   UNL     1      82.224  -7.645  26.548  1.00  0.00    -0.299 OA
ENDROOT
BRANCH   1   3
ATOM      3  C   UNL     1      81.457  -8.817  28.476  1.00  0.00     0.053 C 
ATOM      4  C   UNL     1      82.639  -9.762  28.732  1.00  0.00     0.016 C 
BRANCH   3   5
ATOM      5  C   UNL     1      80.121  -9.404  29.066  1.00  0.00     0.015 C 
BRANCH   5   6
ATOM      6  C   UNL     1      79.317  -8.254  29.622  1.00  0.00     0.028 C 
BRANCH   6   7
ATOM      7  C   UNL     1      79.821  -6.882  29.854  1.00  0.00    -0.028 C 
ATOM      8  C   UNL     1      79.328  -5.890  29.061  1.00  0.00    -0.070 CG0
ATOM      9  C   UNL     1      79.714  -4.472  29.385  1.00  0.00     0.039 C 
ATOM     10  G   UNL     1      78.504  -6.175  27.778  1.00  0.00     0.000 G0
ENDBRANCH   6   7
ENDBRANCH   5   6
ENDBRANCH   3   5
ENDBRANCH   1   3
BRANCH   1  11
ATOM     11  C   UNL     1      80.273  -8.883  26.016  1.00  0.00     0.087 C 
BRANCH  11  12
ATOM     12  C   UNL     1      79.136  -7.817  25.728  1.00  0.00     0.066 C 
BRANCH  12  13
ATOM     13  C   UNL     1      79.312  -6.494  26.511  1.00  0.00     0.140 C 
ATOM     14  O   UNL     1      80.118  -5.664  26.117  1.00  0.00    -0.299 OA
BRANCH  13  15
ATOM     15  C   UNL     1      78.496  -6.175  27.768  1.00  0.00     0.106 CG0
ATOM     16  G   UNL     1      79.315  -5.896  29.056  1.00  0.00     0.000 G0
ENDBRANCH  13  15
ENDBRANCH  12  13
BRANCH  12  17
ATOM     17  C   UNL     1      77.693  -8.372  25.940  1.00  0.00    -0.006 C 
ATOM     18  C   UNL     1      77.647  -9.813  26.482  1.00  0.00     0.008 C 
ATOM     19  C   UNL     1      76.843  -8.255  24.664  1.00  0.00     0.008 C 
ENDBRANCH  12  17
ENDBRANCH  11  12
ENDBRANCH   1  11
TORSDOF 1
ENDMDL
