MODEL 1
REMARK VINA RESULT:    -4.862      0.000      0.000
REMARK INTER + INTRA:          -9.626
REMARK INTER:                  -8.273
REMARK INTRA:                  -1.353
REMARK UNBOUND:                -1.353
REMARK SMILES CCCCCCCCCCCCCC(=O)[O-]
REMARK SMILES IDX 8 1 9 2 10 3 11 4 12 5 13 6 14 7 15 8 16 9 7 10 6 11 5 12
REMARK SMILES IDX 4 13 3 14 2 15 1 16
REMARK H PARENT
REMARK Flexibility Score: inf
ROOT
ATOM      1  C   UNL     1     -28.235  65.270  81.894  1.00  0.00     0.000 C 
ENDROOT
BRANCH   1   2
ATOM      2  C   UNL     1     -28.304  66.794  82.047  1.00  0.00     0.000 C 
BRANCH   2   3
ATOM      3  C   UNL     1     -28.491  67.190  83.520  1.00  0.00     0.000 C 
BRANCH   3   4
ATOM      4  C   UNL     1     -27.206  67.020  84.347  1.00  0.00     0.000 C 
BRANCH   4   5
ATOM      5  C   UNL     1     -27.160  67.952  85.567  1.00  0.00     0.006 C 
BRANCH   5   6
ATOM      6  C   UNL     1     -28.181  67.521  86.623  1.00  0.00     0.053 C 
BRANCH   6   7
ATOM      7  C   UNL     1     -28.778  68.718  87.295  1.00  0.00     0.041 C 
ATOM      8  O   UNL     1     -29.736  69.333  86.759  1.00  0.00    -0.550 OA
ATOM      9  O   UNL     1     -28.243  69.183  88.489  1.00  0.00    -0.550 OA
ENDBRANCH   6   7
ENDBRANCH   5   6
ENDBRANCH   4   5
ENDBRANCH   3   4
ENDBRANCH   2   3
ENDBRANCH   1   2
BRANCH   1  10
ATOM     10  C   UNL     1     -29.444  64.595  82.553  1.00  0.00     0.000 C 
BRANCH  10  11
ATOM     11  C   UNL     1     -29.010  63.400  83.408  1.00  0.00    -0.000 C 
BRANCH  11  12
ATOM     12  C   UNL     1     -28.903  63.791  84.890  1.00  0.00    -0.000 C 
BRANCH  12  13
ATOM     13  C   UNL     1     -30.283  64.081  85.518  1.00  0.00    -0.000 C 
BRANCH  13  14
ATOM     14  C   UNL     1     -30.388  65.475  86.159  1.00  0.00    -0.000 C 
BRANCH  14  15
ATOM     15  C   UNL     1     -31.420  66.375  85.467  1.00  0.00    -0.003 C 
ATOM     16  C   UNL     1     -32.285  67.108  86.487  1.00  0.00     0.004 C 
ENDBRANCH  14  15
ENDBRANCH  13  14
ENDBRANCH  12  13
ENDBRANCH  11  12
ENDBRANCH  10  11
ENDBRANCH   1  10
TORSDOF 12
ENDMDL
MODEL 2
REMARK VINA RESULT:    -4.809      2.557      5.341
REMARK INTER + INTRA:          -9.536
REMARK INTER:                  -8.114
REMARK INTRA:                  -1.422
REMARK UNBOUND:                -1.353
REMARK SMILES CCCCCCCCCCCCCC(=O)[O-]
REMARK SMILES IDX 8 1 9 2 10 3 11 4 12 5 13 6 14 7 15 8 16 9 7 10 6 11 5 12
REMARK SMILES IDX 4 13 3 14 2 15 1 16
REMARK H PARENT
REMARK Flexibility Score: inf
ROOT
ATOM      1  C   UNL     1     -29.346  69.147  86.764  1.00  0.00     0.000 C 
ENDROOT
BRANCH   1   2
ATOM      2  C   UNL     1     -30.580  68.687  85.978  1.00  0.00     0.000 C 
BRANCH   2   3
ATOM      3  C   UNL     1     -31.557  67.926  86.888  1.00  0.00     0.000 C 
BRANCH   3   4
ATOM      4  C   UNL     1     -32.210  66.726  86.183  1.00  0.00     0.000 C 
BRANCH   4   5
ATOM      5  C   UNL     1     -31.215  65.931  85.324  1.00  0.00     0.006 C 
BRANCH   5   6
ATOM      6  C   UNL     1     -30.419  64.944  86.183  1.00  0.00     0.053 C 
BRANCH   6   7
ATOM      7  C   UNL     1     -30.165  63.677  85.428  1.00  0.00     0.041 C 
ATOM      8  O   UNL     1     -30.184  62.570  86.024  1.00  0.00    -0.550 OA
ATOM      9  O   UNL     1     -29.857  63.725  84.074  1.00  0.00    -0.550 OA
ENDBRANCH   6   7
ENDBRANCH   5   6
ENDBRANCH   4   5
ENDBRANCH   3   4
ENDBRANCH   2   3
ENDBRANCH   1   2
BRANCH   1  10
ATOM     10  C   UNL     1     -28.242  68.083  86.727  1.00  0.00     0.000 C 
BRANCH  10  11
ATOM     11  C   UNL     1     -27.091  68.514  85.811  1.00  0.00    -0.000 C 
BRANCH  11  12
ATOM     12  C   UNL     1     -26.599  67.339  84.953  1.00  0.00    -0.000 C 
BRANCH  12  13
ATOM     13  C   UNL     1     -27.760  66.448  84.461  1.00  0.00    -0.000 C 
BRANCH  13  14
ATOM     14  C   UNL     1     -28.567  67.069  83.307  1.00  0.00    -0.000 C 
BRANCH  14  15
ATOM     15  C   UNL     1     -27.958  66.780  81.929  1.00  0.00    -0.003 C 
ATOM     16  C   UNL     1     -28.196  65.331  81.514  1.00  0.00     0.004 C 
ENDBRANCH  14  15
ENDBRANCH  13  14
ENDBRANCH  12  13
ENDBRANCH  11  12
ENDBRANCH  10  11
ENDBRANCH   1  10
TORSDOF 12
ENDMDL
MODEL 3
REMARK VINA RESULT:    -4.808      1.016      3.731
REMARK INTER + INTRA:          -9.533
REMARK INTER:                  -8.120
REMARK INTRA:                  -1.413
REMARK UNBOUND:                -1.353
REMARK SMILES CCCCCCCCCCCCCC(=O)[O-]
REMARK SMILES IDX 8 1 9 2 10 3 11 4 12 5 13 6 14 7 15 8 16 9 7 10 6 11 5 12
REMARK SMILES IDX 4 13 3 14 2 15 1 16
REMARK H PARENT
REMARK Flexibility Score: inf
ROOT
ATOM      1  C   UNL     1     -28.949  63.538  84.642  1.00  0.00     0.000 C 
ENDROOT
BRANCH   1   2
ATOM      2  C   UNL     1     -30.138  63.111  85.510  1.00  0.00     0.000 C 
BRANCH   2   3
ATOM      3  C   UNL     1     -30.356  64.097  86.669  1.00  0.00     0.000 C 
BRANCH   3   4
ATOM      4  C   UNL     1     -29.930  65.530  86.314  1.00  0.00     0.000 C 
BRANCH   4   5
ATOM      5  C   UNL     1     -31.087  66.368  85.749  1.00  0.00     0.006 C 
BRANCH   5   6
ATOM      6  C   UNL     1     -31.478  67.486  86.719  1.00  0.00     0.053 C 
BRANCH   6   7
ATOM      7  C   UNL     1     -30.555  68.656  86.571  1.00  0.00     0.041 C 
ATOM      8  O   UNL     1     -30.920  69.672  85.925  1.00  0.00    -0.550 OA
ATOM      9  O   UNL     1     -29.274  68.601  87.104  1.00  0.00    -0.550 OA
ENDBRANCH   6   7
ENDBRANCH   5   6
ENDBRANCH   4   5
ENDBRANCH   3   4
ENDBRANCH   2   3
ENDBRANCH   1   2
BRANCH   1  10
ATOM     10  C   UNL     1     -29.310  63.493  83.152  1.00  0.00     0.000 C 
BRANCH  10  11
ATOM     11  C   UNL     1     -29.589  64.899  82.609  1.00  0.00    -0.000 C 
BRANCH  11  12
ATOM     12  C   UNL     1     -28.305  65.547  82.069  1.00  0.00    -0.000 C 
BRANCH  12  13
ATOM     13  C   UNL     1     -28.268  67.069  82.324  1.00  0.00    -0.000 C 
BRANCH  13  14
ATOM     14  C   UNL     1     -28.340  67.446  83.813  1.00  0.00    -0.000 C 
BRANCH  14  15
ATOM     15  C   UNL     1     -27.187  66.857  84.636  1.00  0.00    -0.003 C 
ATOM     16  C   UNL     1     -26.420  67.951  85.372  1.00  0.00     0.004 C 
ENDBRANCH  14  15
ENDBRANCH  13  14
ENDBRANCH  12  13
ENDBRANCH  11  12
ENDBRANCH  10  11
ENDBRANCH   1  10
TORSDOF 12
ENDMDL
MODEL 4
REMARK VINA RESULT:    -4.768      1.056      2.258
REMARK INTER + INTRA:          -9.467
REMARK INTER:                  -8.082
REMARK INTRA:                  -1.385
REMARK UNBOUND:                -1.353
REMARK SMILES CCCCCCCCCCCCCC(=O)[O-]
REMARK SMILES IDX 8 1 9 2 10 3 11 4 12 5 13 6 14 7 15 8 16 9 7 10 6 11 5 12
REMARK SMILES IDX 4 13 3 14 2 15 1 16
REMARK H PARENT
REMARK Flexibility Score: inf
ROOT
ATOM      1  C   UNL     1     -29.088  63.467  83.130  1.00  0.00     0.000 C 
ENDROOT
BRANCH   1   2
ATOM      2  C   UNL     1     -29.460  64.778  82.427  1.00  0.00     0.000 C 
BRANCH   2   3
ATOM      3  C   UNL     1     -28.207  65.485  81.887  1.00  0.00     0.000 C 
BRANCH   3   4
ATOM      4  C   UNL     1     -28.221  66.999  82.151  1.00  0.00     0.000 C 
BRANCH   4   5
ATOM      5  C   UNL     1     -28.639  67.345  83.589  1.00  0.00     0.006 C 
BRANCH   5   6
ATOM      6  C   UNL     1     -27.489  67.094  84.568  1.00  0.00     0.053 C 
BRANCH   6   7
ATOM      7  C   UNL     1     -27.411  68.195  85.579  1.00  0.00     0.041 C 
ATOM      8  O   UNL     1     -26.304  68.728  85.851  1.00  0.00    -0.550 OA
ATOM      9  O   UNL     1     -28.555  68.597  86.257  1.00  0.00    -0.550 OA
ENDBRANCH   6   7
ENDBRANCH   5   6
ENDBRANCH   4   5
ENDBRANCH   3   4
ENDBRANCH   2   3
ENDBRANCH   1   2
BRANCH   1  10
ATOM     10  C   UNL     1     -28.890  63.685  84.635  1.00  0.00     0.000 C 
BRANCH  10  11
ATOM     11  C   UNL     1     -30.080  63.140  85.433  1.00  0.00    -0.000 C 
BRANCH  11  12
ATOM     12  C   UNL     1     -30.382  64.027  86.650  1.00  0.00    -0.000 C 
BRANCH  12  13
ATOM     13  C   UNL     1     -30.110  65.520  86.365  1.00  0.00    -0.000 C 
BRANCH  13  14
ATOM     14  C   UNL     1     -31.237  66.213  85.580  1.00  0.00    -0.000 C 
BRANCH  14  15
ATOM     15  C   UNL     1     -32.306  66.833  86.490  1.00  0.00    -0.003 C 
ATOM     16  C   UNL     1     -31.950  68.270  86.859  1.00  0.00     0.004 C 
ENDBRANCH  14  15
ENDBRANCH  13  14
ENDBRANCH  12  13
ENDBRANCH  11  12
ENDBRANCH  10  11
ENDBRANCH   1  10
TORSDOF 12
ENDMDL
MODEL 5
REMARK VINA RESULT:    -4.751      2.783      5.637
REMARK INTER + INTRA:          -9.437
REMARK INTER:                  -7.886
REMARK INTRA:                  -1.551
REMARK UNBOUND:                -1.353
REMARK SMILES CCCCCCCCCCCCCC(=O)[O-]
REMARK SMILES IDX 8 1 9 2 10 3 11 4 12 5 13 6 14 7 15 8 16 9 7 10 6 11 5 12
REMARK SMILES IDX 4 13 3 14 2 15 1 16
REMARK H PARENT
REMARK Flexibility Score: inf
ROOT
ATOM      1  C   UNL     1     -31.646  67.974  86.905  1.00  0.00     0.000 C 
ENDROOT
BRANCH   1   2
ATOM      2  C   UNL     1     -32.301  66.854  86.088  1.00  0.00     0.000 C 
BRANCH   2   3
ATOM      3  C   UNL     1     -31.239  65.975  85.410  1.00  0.00     0.000 C 
BRANCH   3   4
ATOM      4  C   UNL     1     -30.476  65.090  86.409  1.00  0.00     0.000 C 
BRANCH   4   5
ATOM      5  C   UNL     1     -30.103  63.721  85.821  1.00  0.00     0.006 C 
BRANCH   5   6
ATOM      6  C   UNL     1     -28.752  63.784  85.103  1.00  0.00     0.053 C 
BRANCH   6   7
ATOM      7  C   UNL     1     -28.817  63.054  83.798  1.00  0.00     0.041 C 
ATOM      8  O   UNL     1     -28.206  61.963  83.652  1.00  0.00    -0.550 OA
ATOM      9  O   UNL     1     -29.510  63.604  82.728  1.00  0.00    -0.550 OA
ENDBRANCH   6   7
ENDBRANCH   5   6
ENDBRANCH   4   5
ENDBRANCH   3   4
ENDBRANCH   2   3
ENDBRANCH   1   2
BRANCH   1  10
ATOM     10  C   UNL     1     -30.549  68.677  86.095  1.00  0.00     0.000 C 
BRANCH  10  11
ATOM     11  C   UNL     1     -29.318  68.958  86.963  1.00  0.00    -0.000 C 
BRANCH  11  12
ATOM     12  C   UNL     1     -28.240  67.882  86.759  1.00  0.00    -0.000 C 
BRANCH  12  13
ATOM     13  C   UNL     1     -27.468  68.073  85.435  1.00  0.00    -0.000 C 
BRANCH  13  14
ATOM     14  C   UNL     1     -27.598  66.883  84.469  1.00  0.00    -0.000 C 
BRANCH  14  15
ATOM     15  C   UNL     1     -28.674  67.098  83.397  1.00  0.00    -0.003 C 
ATOM     16  C   UNL     1     -28.138  66.773  82.006  1.00  0.00     0.004 C 
ENDBRANCH  14  15
ENDBRANCH  13  14
ENDBRANCH  12  13
ENDBRANCH  11  12
ENDBRANCH  10  11
ENDBRANCH   1  10
TORSDOF 12
ENDMDL
MODEL 6
REMARK VINA RESULT:    -4.724      1.457      2.999
REMARK INTER + INTRA:          -9.391
REMARK INTER:                  -7.965
REMARK INTRA:                  -1.426
REMARK UNBOUND:                -1.353
REMARK SMILES CCCCCCCCCCCCCC(=O)[O-]
REMARK SMILES IDX 8 1 9 2 10 3 11 4 12 5 13 6 14 7 15 8 16 9 7 10 6 11 5 12
REMARK SMILES IDX 4 13 3 14 2 15 1 16
REMARK H PARENT
REMARK Flexibility Score: inf
ROOT
ATOM      1  C   UNL     1     -28.533  67.102  83.400  1.00  0.00     0.000 C 
ENDROOT
BRANCH   1   2
ATOM      2  C   UNL     1     -27.455  66.899  84.472  1.00  0.00     0.000 C 
BRANCH   2   3
ATOM      3  C   UNL     1     -27.471  68.049  85.491  1.00  0.00     0.000 C 
BRANCH   3   4
ATOM      4  C   UNL     1     -28.307  67.723  86.739  1.00  0.00     0.000 C 
BRANCH   4   5
ATOM      5  C   UNL     1     -29.298  68.841  87.096  1.00  0.00     0.006 C 
BRANCH   5   6
ATOM      6  C   UNL     1     -30.423  68.924  86.061  1.00  0.00     0.053 C 
BRANCH   6   7
ATOM      7  C   UNL     1     -31.343  67.750  86.192  1.00  0.00     0.041 C 
ATOM      8  O   UNL     1     -32.019  67.588  87.241  1.00  0.00    -0.550 OA
ATOM      9  O   UNL     1     -31.416  66.809  85.174  1.00  0.00    -0.550 OA
ENDBRANCH   6   7
ENDBRANCH   5   6
ENDBRANCH   4   5
ENDBRANCH   3   4
ENDBRANCH   2   3
ENDBRANCH   1   2
BRANCH   1  10
ATOM     10  C   UNL     1     -28.003  66.734  82.009  1.00  0.00     0.000 C 
BRANCH  10  11
ATOM     11  C   UNL     1     -28.339  65.280  81.658  1.00  0.00    -0.000 C 
BRANCH  11  12
ATOM     12  C   UNL     1     -29.585  64.802  82.419  1.00  0.00    -0.000 C 
BRANCH  12  13
ATOM     13  C   UNL     1     -29.358  63.444  83.116  1.00  0.00    -0.000 C 
BRANCH  13  14
ATOM     14  C   UNL     1     -28.944  63.570  84.592  1.00  0.00    -0.000 C 
BRANCH  14  15
ATOM     15  C   UNL     1     -30.140  63.552  85.553  1.00  0.00    -0.003 C 
ATOM     16  C   UNL     1     -29.871  64.412  86.784  1.00  0.00     0.004 C 
ENDBRANCH  14  15
ENDBRANCH  13  14
ENDBRANCH  12  13
ENDBRANCH  11  12
ENDBRANCH  10  11
ENDBRANCH   1  10
TORSDOF 12
ENDMDL
MODEL 7
REMARK VINA RESULT:    -4.670      2.708      4.778
REMARK INTER + INTRA:          -9.299
REMARK INTER:                  -7.710
REMARK INTRA:                  -1.589
REMARK UNBOUND:                -1.353
REMARK SMILES CCCCCCCCCCCCCC(=O)[O-]
REMARK SMILES IDX 8 1 9 2 10 3 11 4 12 5 13 6 14 7 15 8 16 9 7 10 6 11 5 12
REMARK SMILES IDX 4 13 3 14 2 15 1 16
REMARK H PARENT
REMARK Flexibility Score: inf
ROOT
ATOM      1  C   UNL     1     -28.191  68.014  86.780  1.00  0.00     0.000 C 
ENDROOT
BRANCH   1   2
ATOM      2  C   UNL     1     -27.102  68.562  85.851  1.00  0.00     0.000 C 
BRANCH   2   3
ATOM      3  C   UNL     1     -26.489  67.439  85.000  1.00  0.00     0.000 C 
BRANCH   3   4
ATOM      4  C   UNL     1     -27.523  66.382  84.580  1.00  0.00     0.000 C 
BRANCH   4   5
ATOM      5  C   UNL     1     -28.274  66.768  83.297  1.00  0.00     0.006 C 
BRANCH   5   6
ATOM      6  C   UNL     1     -28.122  65.683  82.227  1.00  0.00     0.053 C 
BRANCH   6   7
ATOM      7  C   UNL     1     -29.050  64.541  82.502  1.00  0.00     0.041 C 
ATOM      8  O   UNL     1     -30.217  64.546  82.030  1.00  0.00    -0.550 OA
ATOM      9  O   UNL     1     -28.642  63.496  83.321  1.00  0.00    -0.550 OA
ENDBRANCH   6   7
ENDBRANCH   5   6
ENDBRANCH   4   5
ENDBRANCH   3   4
ENDBRANCH   2   3
ENDBRANCH   1   2
BRANCH   1  10
ATOM     10  C   UNL     1     -29.343  69.015  86.929  1.00  0.00     0.000 C 
BRANCH  10  11
ATOM     11  C   UNL     1     -30.521  68.638  86.024  1.00  0.00    -0.000 C 
BRANCH  11  12
ATOM     12  C   UNL     1     -31.664  68.011  86.837  1.00  0.00    -0.000 C 
BRANCH  12  13
ATOM     13  C   UNL     1     -32.199  66.715  86.189  1.00  0.00    -0.000 C 
BRANCH  13  14
ATOM     14  C   UNL     1     -31.243  66.106  85.149  1.00  0.00    -0.000 C 
BRANCH  14  15
ATOM     15  C   UNL     1     -30.692  64.739  85.572  1.00  0.00    -0.003 C 
ATOM     16  C   UNL     1     -29.775  64.865  86.785  1.00  0.00     0.004 C 
ENDBRANCH  14  15
ENDBRANCH  13  14
ENDBRANCH  12  13
ENDBRANCH  11  12
ENDBRANCH  10  11
ENDBRANCH   1  10
TORSDOF 12
ENDMDL
MODEL 8
REMARK VINA RESULT:    -4.662      2.324      5.274
REMARK INTER + INTRA:          -9.286
REMARK INTER:                  -7.808
REMARK INTRA:                  -1.478
REMARK UNBOUND:                -1.353
REMARK SMILES CCCCCCCCCCCCCC(=O)[O-]
REMARK SMILES IDX 8 1 9 2 10 3 11 4 12 5 13 6 14 7 15 8 16 9 7 10 6 11 5 12
REMARK SMILES IDX 4 13 3 14 2 15 1 16
REMARK H PARENT
REMARK Flexibility Score: inf
ROOT
ATOM      1  C   UNL     1     -30.911  66.096  85.265  1.00  0.00     0.000 C 
ENDROOT
BRANCH   1   2
ATOM      2  C   UNL     1     -30.189  65.113  86.195  1.00  0.00     0.000 C 
BRANCH   2   3
ATOM      3  C   UNL     1     -29.990  63.753  85.508  1.00  0.00     0.000 C 
BRANCH   3   4
ATOM      4  C   UNL     1     -28.733  63.714  84.625  1.00  0.00     0.000 C 
BRANCH   4   5
ATOM      5  C   UNL     1     -29.044  63.327  83.171  1.00  0.00     0.006 C 
BRANCH   5   6
ATOM      6  C   UNL     1     -29.691  64.495  82.421  1.00  0.00     0.053 C 
BRANCH   6   7
ATOM      7  C   UNL     1     -28.657  65.503  82.028  1.00  0.00     0.041 C 
ATOM      8  O   UNL     1     -27.705  65.173  81.273  1.00  0.00    -0.550 OA
ATOM      9  O   UNL     1     -28.717  66.794  82.536  1.00  0.00    -0.550 OA
ENDBRANCH   6   7
ENDBRANCH   5   6
ENDBRANCH   4   5
ENDBRANCH   3   4
ENDBRANCH   2   3
ENDBRANCH   1   2
BRANCH   1  10
ATOM     10  C   UNL     1     -32.102  66.751  85.973  1.00  0.00     0.000 C 
BRANCH  10  11
ATOM     11  C   UNL     1     -31.643  67.903  86.874  1.00  0.00    -0.000 C 
BRANCH  11  12
ATOM     12  C   UNL     1     -30.559  68.746  86.185  1.00  0.00    -0.000 C 
BRANCH  12  13
ATOM     13  C   UNL     1     -29.390  69.084  87.135  1.00  0.00    -0.000 C 
BRANCH  13  14
ATOM     14  C   UNL     1     -28.172  68.160  86.966  1.00  0.00    -0.000 C 
BRANCH  14  15
ATOM     15  C   UNL     1     -27.670  68.091  85.518  1.00  0.00    -0.003 C 
ATOM     16  C   UNL     1     -26.932  66.782  85.252  1.00  0.00     0.004 C 
ENDBRANCH  14  15
ENDBRANCH  13  14
ENDBRANCH  12  13
ENDBRANCH  11  12
ENDBRANCH  10  11
ENDBRANCH   1  10
TORSDOF 12
ENDMDL
MODEL 9
REMARK VINA RESULT:    -4.637      2.182      4.438
REMARK INTER + INTRA:          -9.243
REMARK INTER:                  -7.924
REMARK INTRA:                  -1.319
REMARK UNBOUND:                -1.353
REMARK SMILES CCCCCCCCCCCCCC(=O)[O-]
REMARK SMILES IDX 8 1 9 2 10 3 11 4 12 5 13 6 14 7 15 8 16 9 7 10 6 11 5 12
REMARK SMILES IDX 4 13 3 14 2 15 1 16
REMARK H PARENT
REMARK Flexibility Score: inf
ROOT
ATOM      1  C   UNL     1     -27.379  67.134  84.597  1.00  0.00     0.000 C 
ENDROOT
BRANCH   1   2
ATOM      2  C   UNL     1     -28.577  67.318  83.658  1.00  0.00     0.000 C 
BRANCH   2   3
ATOM      3  C   UNL     1     -28.238  66.843  82.236  1.00  0.00     0.000 C 
BRANCH   3   4
ATOM      4  C   UNL     1     -28.287  65.314  82.094  1.00  0.00     0.000 C 
BRANCH   4   5
ATOM      5  C   UNL     1     -29.515  64.695  82.780  1.00  0.00     0.006 C 
BRANCH   5   6
ATOM      6  C   UNL     1     -29.118  63.468  83.606  1.00  0.00     0.053 C 
BRANCH   6   7
ATOM      7  C   UNL     1     -29.435  63.685  85.053  1.00  0.00     0.041 C 
ATOM      8  O   UNL     1     -28.723  64.455  85.748  1.00  0.00    -0.550 OA
ATOM      9  O   UNL     1     -30.486  62.996  85.645  1.00  0.00    -0.550 OA
ENDBRANCH   6   7
ENDBRANCH   5   6
ENDBRANCH   4   5
ENDBRANCH   3   4
ENDBRANCH   2   3
ENDBRANCH   1   2
BRANCH   1  10
ATOM     10  C   UNL     1     -27.393  68.179  85.719  1.00  0.00     0.000 C 
BRANCH  10  11
ATOM     11  C   UNL     1     -28.394  67.799  86.814  1.00  0.00    -0.000 C 
BRANCH  11  12
ATOM     12  C   UNL     1     -29.351  68.963  87.117  1.00  0.00    -0.000 C 
BRANCH  12  13
ATOM     13  C   UNL     1     -30.539  69.013  86.132  1.00  0.00    -0.000 C 
BRANCH  13  14
ATOM     14  C   UNL     1     -31.864  68.526  86.741  1.00  0.00    -0.000 C 
BRANCH  14  15
ATOM     15  C   UNL     1     -32.040  67.004  86.653  1.00  0.00    -0.003 C 
ATOM     16  C   UNL     1     -31.648  66.483  85.273  1.00  0.00     0.004 C 
ENDBRANCH  14  15
ENDBRANCH  13  14
ENDBRANCH  12  13
ENDBRANCH  11  12
ENDBRANCH  10  11
ENDBRANCH   1  10
TORSDOF 12
ENDMDL
