MODEL 1
REMARK VINA RESULT:    -5.073      0.000      0.000
REMARK INTER + INTRA:          -8.353
REMARK INTER:                  -7.742
REMARK INTRA:                  -0.611
REMARK UNBOUND:                -0.611
REMARK SMILES CCCCCCCCCCC(=O)[O-]
REMARK SMILES IDX 7 1 8 2 9 3 10 4 11 5 12 6 13 7 6 8 5 9 4 10 3 11 2 12 1 13
REMARK H PARENT
REMARK Flexibility Score: inf
ROOT
ATOM      1  C   UNL     1      35.904  42.786  46.921  1.00  0.00     0.000 C 
ENDROOT
BRANCH   1   2
ATOM      2  C   UNL     1      35.889  43.895  45.858  1.00  0.00     0.000 C 
BRANCH   2   3
ATOM      3  C   UNL     1      34.491  44.508  45.722  1.00  0.00     0.006 C 
BRANCH   3   4
ATOM      4  C   UNL     1      34.172  44.833  44.260  1.00  0.00     0.053 C 
BRANCH   4   5
ATOM      5  C   UNL     1      32.756  44.473  43.939  1.00  0.00     0.041 C 
ATOM      6  O   UNL     1      32.010  43.985  44.829  1.00  0.00    -0.550 OA
ATOM      7  O   UNL     1      32.275  44.630  42.645  1.00  0.00    -0.550 OA
ENDBRANCH   4   5
ENDBRANCH   3   4
ENDBRANCH   2   3
ENDBRANCH   1   2
BRANCH   1   8
ATOM      8  C   UNL     1      34.520  42.552  47.548  1.00  0.00     0.000 C 
BRANCH   8   9
ATOM      9  C   UNL     1      34.532  42.702  49.080  1.00  0.00    -0.000 C 
BRANCH   9  10
ATOM     10  C   UNL     1      35.798  43.406  49.602  1.00  0.00    -0.000 C 
BRANCH  10  11
ATOM     11  C   UNL     1      36.613  42.598  50.628  1.00  0.00    -0.000 C 
BRANCH  11  12
ATOM     12  C   UNL     1      38.129  42.795  50.478  1.00  0.00    -0.003 C 
ATOM     13  C   UNL     1      38.854  41.454  50.416  1.00  0.00     0.004 C 
ENDBRANCH  11  12
ENDBRANCH  10  11
ENDBRANCH   9  10
ENDBRANCH   8   9
ENDBRANCH   1   8
TORSDOF 9
ENDMDL
MODEL 2
REMARK VINA RESULT:    -4.997      1.115      1.745
REMARK INTER + INTRA:          -8.238
REMARK INTER:                  -7.785
REMARK INTRA:                  -0.452
REMARK UNBOUND:                -0.611
REMARK SMILES CCCCCCCCCCC(=O)[O-]
REMARK SMILES IDX 7 1 8 2 9 3 10 4 11 5 12 6 13 7 6 8 5 9 4 10 3 11 2 12 1 13
REMARK H PARENT
REMARK Flexibility Score: inf
ROOT
ATOM      1  C   UNL     1      36.381  43.055  46.395  1.00  0.00     0.000 C 
ENDROOT
BRANCH   1   2
ATOM      2  C   UNL     1      35.621  44.381  46.544  1.00  0.00     0.000 C 
BRANCH   2   3
ATOM      3  C   UNL     1      34.467  44.469  45.538  1.00  0.00     0.006 C 
BRANCH   3   4
ATOM      4  C   UNL     1      33.144  44.043  46.181  1.00  0.00     0.053 C 
BRANCH   4   5
ATOM      5  C   UNL     1      32.097  43.833  45.133  1.00  0.00     0.041 C 
ATOM      6  O   UNL     1      32.232  44.346  43.991  1.00  0.00    -0.550 OA
ATOM      7  O   UNL     1      30.948  43.112  45.434  1.00  0.00    -0.550 OA
ENDBRANCH   4   5
ENDBRANCH   3   4
ENDBRANCH   2   3
ENDBRANCH   1   2
BRANCH   1   8
ATOM      8  C   UNL     1      36.967  42.558  47.726  1.00  0.00     0.000 C 
BRANCH   8   9
ATOM      9  C   UNL     1      36.027  42.810  48.917  1.00  0.00    -0.000 C 
BRANCH   9  10
ATOM     10  C   UNL     1      36.781  42.987  50.248  1.00  0.00    -0.000 C 
BRANCH  10  11
ATOM     11  C   UNL     1      38.300  42.746  50.168  1.00  0.00    -0.000 C 
BRANCH  11  12
ATOM     12  C   UNL     1      38.703  41.323  50.578  1.00  0.00    -0.003 C 
ATOM     13  C   UNL     1      39.802  41.346  51.637  1.00  0.00     0.004 C 
ENDBRANCH  11  12
ENDBRANCH  10  11
ENDBRANCH   9  10
ENDBRANCH   8   9
ENDBRANCH   1   8
TORSDOF 9
ENDMDL
MODEL 3
REMARK VINA RESULT:    -4.994      4.194      6.309
REMARK INTER + INTRA:          -8.232
REMARK INTER:                  -7.362
REMARK INTRA:                  -0.870
REMARK UNBOUND:                -0.611
REMARK SMILES CCCCCCCCCCC(=O)[O-]
REMARK SMILES IDX 7 1 8 2 9 3 10 4 11 5 12 6 13 7 6 8 5 9 4 10 3 11 2 12 1 13
REMARK H PARENT
REMARK Flexibility Score: inf
ROOT
ATOM      1  C   UNL     1      36.229  43.488  46.206  1.00  0.00     0.000 C 
ENDROOT
BRANCH   1   2
ATOM      2  C   UNL     1      36.136  42.382  47.267  1.00  0.00     0.000 C 
BRANCH   2   3
ATOM      3  C   UNL     1      37.458  42.241  48.031  1.00  0.00     0.006 C 
BRANCH   3   4
ATOM      4  C   UNL     1      37.287  42.622  49.504  1.00  0.00     0.053 C 
BRANCH   4   5
ATOM      5  C   UNL     1      38.515  42.270  50.283  1.00  0.00     0.041 C 
ATOM      6  O   UNL     1      38.936  43.044  51.183  1.00  0.00    -0.550 OA
ATOM      7  O   UNL     1      39.222  41.113  49.981  1.00  0.00    -0.550 OA
ENDBRANCH   4   5
ENDBRANCH   3   4
ENDBRANCH   2   3
ENDBRANCH   1   2
BRANCH   1   8
ATOM      8  C   UNL     1      35.273  44.659  46.488  1.00  0.00     0.000 C 
BRANCH   8   9
ATOM      9  C   UNL     1      34.529  44.505  47.827  1.00  0.00    -0.000 C 
BRANCH   9  10
ATOM     10  C   UNL     1      33.006  44.365  47.651  1.00  0.00    -0.000 C 
BRANCH  10  11
ATOM     11  C   UNL     1      32.557  43.855  46.269  1.00  0.00    -0.000 C 
BRANCH  11  12
ATOM     12  C   UNL     1      31.774  42.536  46.344  1.00  0.00    -0.003 C 
ATOM     13  C   UNL     1      32.583  41.455  47.055  1.00  0.00     0.004 C 
ENDBRANCH  11  12
ENDBRANCH  10  11
ENDBRANCH   9  10
ENDBRANCH   8   9
ENDBRANCH   1   8
TORSDOF 9
ENDMDL
MODEL 4
REMARK VINA RESULT:    -4.935      3.460      6.759
REMARK INTER + INTRA:          -8.142
REMARK INTER:                  -7.439
REMARK INTRA:                  -0.703
REMARK UNBOUND:                -0.611
REMARK SMILES CCCCCCCCCCC(=O)[O-]
REMARK SMILES IDX 7 1 8 2 9 3 10 4 11 5 12 6 13 7 6 8 5 9 4 10 3 11 2 12 1 13
REMARK H PARENT
REMARK Flexibility Score: inf
ROOT
ATOM      1  C   UNL     1      34.352  43.028  48.001  1.00  0.00     0.000 C 
ENDROOT
BRANCH   1   2
ATOM      2  C   UNL     1      34.675  42.727  49.472  1.00  0.00     0.000 C 
BRANCH   2   3
ATOM      3  C   UNL     1      35.918  43.499  49.932  1.00  0.00     0.006 C 
BRANCH   3   4
ATOM      4  C   UNL     1      36.804  42.630  50.829  1.00  0.00     0.053 C 
BRANCH   4   5
ATOM      5  C   UNL     1      38.130  42.388  50.180  1.00  0.00     0.041 C 
ATOM      6  O   UNL     1      38.227  42.373  48.924  1.00  0.00    -0.550 OA
ATOM      7  O   UNL     1      39.250  42.130  50.961  1.00  0.00    -0.550 OA
ENDBRANCH   4   5
ENDBRANCH   3   4
ENDBRANCH   2   3
ENDBRANCH   1   2
BRANCH   1   8
ATOM      8  C   UNL     1      35.347  42.370  47.032  1.00  0.00     0.000 C 
BRANCH   8   9
ATOM      9  C   UNL     1      36.086  43.397  46.156  1.00  0.00    -0.000 C 
BRANCH   9  10
ATOM     10  C   UNL     1      35.243  44.652  45.865  1.00  0.00    -0.000 C 
BRANCH  10  11
ATOM     11  C   UNL     1      34.609  44.696  44.462  1.00  0.00    -0.000 C 
BRANCH  11  12
ATOM     12  C   UNL     1      33.088  44.490  44.485  1.00  0.00    -0.003 C 
ATOM     13  C   UNL     1      32.452  44.943  43.174  1.00  0.00     0.004 C 
ENDBRANCH  11  12
ENDBRANCH  10  11
ENDBRANCH   9  10
ENDBRANCH   8   9
ENDBRANCH   1   8
TORSDOF 9
ENDMDL
MODEL 5
REMARK VINA RESULT:    -4.919      1.383      2.605
REMARK INTER + INTRA:          -8.119
REMARK INTER:                  -7.175
REMARK INTRA:                  -0.944
REMARK UNBOUND:                -0.611
REMARK SMILES CCCCCCCCCCC(=O)[O-]
REMARK SMILES IDX 7 1 8 2 9 3 10 4 11 5 12 6 13 7 6 8 5 9 4 10 3 11 2 12 1 13
REMARK H PARENT
REMARK Flexibility Score: inf
ROOT
ATOM      1  C   UNL     1      36.353  42.528  47.858  1.00  0.00     0.000 C 
ENDROOT
BRANCH   1   2
ATOM      2  C   UNL     1      36.439  43.247  46.504  1.00  0.00     0.000 C 
BRANCH   2   3
ATOM      3  C   UNL     1      35.559  44.502  46.491  1.00  0.00     0.006 C 
BRANCH   3   4
ATOM      4  C   UNL     1      34.699  44.557  45.225  1.00  0.00     0.053 C 
BRANCH   4   5
ATOM      5  C   UNL     1      33.276  44.218  45.542  1.00  0.00     0.041 C 
ATOM      6  O   UNL     1      32.972  43.760  46.675  1.00  0.00    -0.550 OA
ATOM      7  O   UNL     1      32.294  44.360  44.570  1.00  0.00    -0.550 OA
ENDBRANCH   4   5
ENDBRANCH   3   4
ENDBRANCH   2   3
ENDBRANCH   1   2
BRANCH   1   8
ATOM      8  C   UNL     1      37.736  42.227  48.457  1.00  0.00     0.000 C 
BRANCH   8   9
ATOM      9  C   UNL     1      37.814  42.552  49.959  1.00  0.00    -0.000 C 
BRANCH   9  10
ATOM     10  C   UNL     1      36.427  42.709  50.609  1.00  0.00    -0.000 C 
BRANCH  10  11
ATOM     11  C   UNL     1      36.199  44.050  51.330  1.00  0.00    -0.000 C 
BRANCH  11  12
ATOM     12  C   UNL     1      35.416  45.062  50.480  1.00  0.00    -0.003 C 
ATOM     13  C   UNL     1      34.099  44.466  49.991  1.00  0.00     0.004 C 
ENDBRANCH  11  12
ENDBRANCH  10  11
ENDBRANCH   9  10
ENDBRANCH   8   9
ENDBRANCH   1   8
TORSDOF 9
ENDMDL
MODEL 6
REMARK VINA RESULT:    -4.904      2.956      5.987
REMARK INTER + INTRA:          -8.096
REMARK INTER:                  -7.139
REMARK INTRA:                  -0.957
REMARK UNBOUND:                -0.611
REMARK SMILES CCCCCCCCCCC(=O)[O-]
REMARK SMILES IDX 7 1 8 2 9 3 10 4 11 5 12 6 13 7 6 8 5 9 4 10 3 11 2 12 1 13
REMARK H PARENT
REMARK Flexibility Score: inf
ROOT
ATOM      1  C   UNL     1      32.412  44.498  47.633  1.00  0.00     0.000 C 
ENDROOT
BRANCH   1   2
ATOM      2  C   UNL     1      33.820  44.426  48.243  1.00  0.00     0.000 C 
BRANCH   2   3
ATOM      3  C   UNL     1      34.408  43.017  48.103  1.00  0.00     0.006 C 
BRANCH   3   4
ATOM      4  C   UNL     1      35.726  42.892  48.872  1.00  0.00     0.053 C 
BRANCH   4   5
ATOM      5  C   UNL     1      36.843  42.534  47.943  1.00  0.00     0.041 C 
ATOM      6  O   UNL     1      36.670  42.582  46.696  1.00  0.00    -0.550 OA
ATOM      7  O   UNL     1      38.060  42.099  48.454  1.00  0.00    -0.550 OA
ENDBRANCH   4   5
ENDBRANCH   3   4
ENDBRANCH   2   3
ENDBRANCH   1   2
BRANCH   1   8
ATOM      8  C   UNL     1      31.873  43.117  47.226  1.00  0.00     0.000 C 
BRANCH   8   9
ATOM      9  C   UNL     1      31.630  43.000  45.711  1.00  0.00    -0.000 C 
BRANCH   9  10
ATOM     10  C   UNL     1      31.717  44.356  44.986  1.00  0.00    -0.000 C 
BRANCH  10  11
ATOM     11  C   UNL     1      32.475  44.325  43.645  1.00  0.00    -0.000 C 
BRANCH  11  12
ATOM     12  C   UNL     1      33.728  45.213  43.646  1.00  0.00    -0.003 C 
ATOM     13  C   UNL     1      34.742  44.732  44.680  1.00  0.00     0.004 C 
ENDBRANCH  11  12
ENDBRANCH  10  11
ENDBRANCH   9  10
ENDBRANCH   8   9
ENDBRANCH   1   8
TORSDOF 9
ENDMDL
MODEL 7
REMARK VINA RESULT:    -4.894      3.980      6.401
REMARK INTER + INTRA:          -8.081
REMARK INTER:                  -7.073
REMARK INTRA:                  -1.008
REMARK UNBOUND:                -0.611
REMARK SMILES CCCCCCCCCCC(=O)[O-]
REMARK SMILES IDX 7 1 8 2 9 3 10 4 11 5 12 6 13 7 6 8 5 9 4 10 3 11 2 12 1 13
REMARK H PARENT
REMARK Flexibility Score: inf
ROOT
ATOM      1  C   UNL     1      34.529  43.961  50.307  1.00  0.00     0.000 C 
ENDROOT
BRANCH   1   2
ATOM      2  C   UNL     1      35.967  44.030  50.843  1.00  0.00     0.000 C 
BRANCH   2   3
ATOM      3  C   UNL     1      36.783  42.816  50.386  1.00  0.00     0.006 C 
BRANCH   3   4
ATOM      4  C   UNL     1      38.271  43.005  50.697  1.00  0.00     0.053 C 
BRANCH   4   5
ATOM      5  C   UNL     1      38.998  41.702  50.591  1.00  0.00     0.041 C 
ATOM      6  O   UNL     1      38.918  41.016  49.537  1.00  0.00    -0.550 OA
ATOM      7  O   UNL     1      39.723  41.220  51.673  1.00  0.00    -0.550 OA
ENDBRANCH   4   5
ENDBRANCH   3   4
ENDBRANCH   2   3
ENDBRANCH   1   2
BRANCH   1   8
ATOM      8  C   UNL     1      34.169  42.570  49.762  1.00  0.00     0.000 C 
BRANCH   8   9
ATOM      9  C   UNL     1      33.152  42.631  48.609  1.00  0.00    -0.000 C 
BRANCH   9  10
ATOM     10  C   UNL     1      33.817  42.577  47.221  1.00  0.00    -0.000 C 
BRANCH  10  11
ATOM     11  C   UNL     1      34.301  43.936  46.682  1.00  0.00    -0.000 C 
BRANCH  11  12
ATOM     12  C   UNL     1      35.824  44.000  46.502  1.00  0.00    -0.003 C 
ATOM     13  C   UNL     1      36.463  42.634  46.732  1.00  0.00     0.004 C 
ENDBRANCH  11  12
ENDBRANCH  10  11
ENDBRANCH   9  10
ENDBRANCH   8   9
ENDBRANCH   1   8
TORSDOF 9
ENDMDL
MODEL 8
REMARK VINA RESULT:    -4.835      1.732      2.731
REMARK INTER + INTRA:          -7.990
REMARK INTER:                  -7.108
REMARK INTRA:                  -0.883
REMARK UNBOUND:                -0.611
REMARK SMILES CCCCCCCCCCC(=O)[O-]
REMARK SMILES IDX 7 1 8 2 9 3 10 4 11 5 12 6 13 7 6 8 5 9 4 10 3 11 2 12 1 13
REMARK H PARENT
REMARK Flexibility Score: inf
ROOT
ATOM      1  C   UNL     1      34.068  42.695  49.963  1.00  0.00     0.000 C 
ENDROOT
BRANCH   1   2
ATOM      2  C   UNL     1      33.802  42.630  48.452  1.00  0.00     0.000 C 
BRANCH   2   3
ATOM      3  C   UNL     1      34.496  43.786  47.722  1.00  0.00     0.006 C 
BRANCH   3   4
ATOM      4  C   UNL     1      33.757  44.143  46.429  1.00  0.00     0.053 C 
BRANCH   4   5
ATOM      5  C   UNL     1      34.731  44.483  45.345  1.00  0.00     0.041 C 
ATOM      6  O   UNL     1      35.967  44.327  45.533  1.00  0.00    -0.550 OA
ATOM      7  O   UNL     1      34.279  45.020  44.146  1.00  0.00    -0.550 OA
ENDBRANCH   4   5
ENDBRANCH   3   4
ENDBRANCH   2   3
ENDBRANCH   1   2
BRANCH   1   8
ATOM      8  C   UNL     1      34.528  44.088  50.423  1.00  0.00     0.000 C 
BRANCH   8   9
ATOM      9  C   UNL     1      35.953  44.078  51.004  1.00  0.00    -0.000 C 
BRANCH   9  10
ATOM     10  C   UNL     1      36.621  42.693  50.924  1.00  0.00    -0.000 C 
BRANCH  10  11
ATOM     11  C   UNL     1      38.109  42.714  50.528  1.00  0.00    -0.000 C 
BRANCH  11  12
ATOM     12  C   UNL     1      38.426  41.795  49.340  1.00  0.00    -0.003 C 
ATOM     13  C   UNL     1      37.602  42.179  48.114  1.00  0.00     0.004 C 
ENDBRANCH  11  12
ENDBRANCH  10  11
ENDBRANCH   9  10
ENDBRANCH   8   9
ENDBRANCH   1   8
TORSDOF 9
ENDMDL
MODEL 9
REMARK VINA RESULT:    -4.806      1.555      2.401
REMARK INTER + INTRA:          -7.946
REMARK INTER:                  -7.360
REMARK INTRA:                  -0.586
REMARK UNBOUND:                -0.611
REMARK SMILES CCCCCCCCCCC(=O)[O-]
REMARK SMILES IDX 7 1 8 2 9 3 10 4 11 5 12 6 13 7 6 8 5 9 4 10 3 11 2 12 1 13
REMARK H PARENT
REMARK Flexibility Score: inf
ROOT
ATOM      1  C   UNL     1      33.244  44.171  47.882  1.00  0.00     0.000 C 
ENDROOT
BRANCH   1   2
ATOM      2  C   UNL     1      32.805  43.453  46.597  1.00  0.00     0.000 C 
BRANCH   2   3
ATOM      3  C   UNL     1      31.923  44.362  45.734  1.00  0.00     0.006 C 
BRANCH   3   4
ATOM      4  C   UNL     1      31.971  43.939  44.263  1.00  0.00     0.053 C 
BRANCH   4   5
ATOM      5  C   UNL     1      32.731  44.941  43.453  1.00  0.00     0.041 C 
ATOM      6  O   UNL     1      32.202  45.468  42.439  1.00  0.00    -0.550 OA
ATOM      7  O   UNL     1      34.041  45.258  43.789  1.00  0.00    -0.550 OA
ENDBRANCH   4   5
ENDBRANCH   3   4
ENDBRANCH   2   3
ENDBRANCH   1   2
BRANCH   1   8
ATOM      8  C   UNL     1      34.739  44.526  47.878  1.00  0.00     0.000 C 
BRANCH   8   9
ATOM      9  C   UNL     1      35.474  43.980  46.641  1.00  0.00    -0.000 C 
BRANCH   9  10
ATOM     10  C   UNL     1      36.623  43.020  47.002  1.00  0.00    -0.000 C 
BRANCH  10  11
ATOM     11  C   UNL     1      36.655  42.576  48.476  1.00  0.00    -0.000 C 
BRANCH  11  12
ATOM     12  C   UNL     1      38.018  42.010  48.901  1.00  0.00    -0.003 C 
ATOM     13  C   UNL     1      38.453  42.577  50.249  1.00  0.00     0.004 C 
ENDBRANCH  11  12
ENDBRANCH  10  11
ENDBRANCH   9  10
ENDBRANCH   8   9
ENDBRANCH   1   8
TORSDOF 9
ENDMDL
