MODEL 1
REMARK VINA RESULT:    -4.704      0.000      0.000
REMARK INTER + INTRA:          -4.842
REMARK INTER:                  -4.842
REMARK INTRA:                   0.000
REMARK UNBOUND:                 0.000
REMARK SMILES Cc1ccccc1O
REMARK SMILES IDX 1 1 2 2 3 3 4 4 5 5 6 6 7 7 8 8
REMARK H PARENT 8 9
REMARK Flexibility Score: inf
ROOT
ATOM      1  C   UNL     1      12.017 -10.224  50.625  1.00  0.00     0.048 C 
ATOM      2  C   UNL     1      12.347 -10.747  49.256  1.00  0.00    -0.009 A 
ATOM      3  C   UNL     1      11.754 -10.176  48.117  1.00  0.00     0.007 A 
ATOM      4  C   UNL     1      12.062 -10.662  46.842  1.00  0.00     0.001 A 
ATOM      5  C   UNL     1      12.960 -11.721  46.695  1.00  0.00     0.004 A 
ATOM      6  C   UNL     1      13.555 -12.296  47.821  1.00  0.00     0.046 A 
ATOM      7  C   UNL     1      13.253 -11.814  49.104  1.00  0.00     0.118 A 
ENDROOT
BRANCH   7   8
ATOM      8  O   UNL     1      13.850 -12.392  50.225  1.00  0.00    -0.508 OA
ATOM      9  H   UNL     1      13.567 -12.142  51.165  1.00  0.00     0.293 HD
ENDBRANCH   7   8
TORSDOF 1
ENDMDL
MODEL 2
REMARK VINA RESULT:    -4.671      1.923      3.474
REMARK INTER + INTRA:          -4.808
REMARK INTER:                  -4.808
REMARK INTRA:                   0.000
REMARK UNBOUND:                 0.000
REMARK SMILES Cc1ccccc1O
REMARK SMILES IDX 1 1 2 2 3 3 4 4 5 5 6 6 7 7 8 8
REMARK H PARENT 8 9
REMARK Flexibility Score: inf
ROOT
ATOM      1  C   UNL     1      13.957 -12.989  46.815  1.00  0.00     0.048 C 
ATOM      2  C   UNL     1      13.265 -11.932  47.627  1.00  0.00    -0.009 A 
ATOM      3  C   UNL     1      13.412 -11.902  49.024  1.00  0.00     0.007 A 
ATOM      4  C   UNL     1      12.767 -10.917  49.780  1.00  0.00     0.001 A 
ATOM      5  C   UNL     1      11.972  -9.958  49.149  1.00  0.00     0.004 A 
ATOM      6  C   UNL     1      11.820  -9.980  47.760  1.00  0.00     0.046 A 
ATOM      7  C   UNL     1      12.463 -10.963  46.993  1.00  0.00     0.118 A 
ENDROOT
BRANCH   7   8
ATOM      8  O   UNL     1      12.308 -10.981  45.607  1.00  0.00    -0.508 OA
ATOM      9  H   UNL     1      12.106 -11.837  45.106  1.00  0.00     0.293 HD
ENDBRANCH   7   8
TORSDOF 1
ENDMDL
MODEL 3
REMARK VINA RESULT:    -4.647      2.107      2.931
REMARK INTER + INTRA:          -4.783
REMARK INTER:                  -4.783
REMARK INTRA:                   0.000
REMARK UNBOUND:                 0.000
REMARK SMILES Cc1ccccc1O
REMARK SMILES IDX 1 1 2 2 3 3 4 4 5 5 6 6 7 7 8 8
REMARK H PARENT 8 9
REMARK Flexibility Score: inf
ROOT
ATOM      1  C   UNL     1      10.251 -10.142  47.070  1.00  0.00     0.048 C 
ATOM      2  C   UNL     1      11.407 -10.928  47.621  1.00  0.00    -0.009 A 
ATOM      3  C   UNL     1      11.397 -11.358  48.959  1.00  0.00     0.007 A 
ATOM      4  C   UNL     1      12.473 -12.090  49.472  1.00  0.00     0.001 A 
ATOM      5  C   UNL     1      13.564 -12.396  48.657  1.00  0.00     0.004 A 
ATOM      6  C   UNL     1      13.583 -11.972  47.326  1.00  0.00     0.046 A 
ATOM      7  C   UNL     1      12.509 -11.238  46.801  1.00  0.00     0.118 A 
ENDROOT
BRANCH   7   8
ATOM      8  O   UNL     1      12.533 -10.817  45.471  1.00  0.00    -0.508 OA
ATOM      9  H   UNL     1      12.597  -9.837  45.226  1.00  0.00     0.293 HD
ENDBRANCH   7   8
TORSDOF 1
ENDMDL
MODEL 4
REMARK VINA RESULT:    -4.560     18.183     18.534
REMARK INTER + INTRA:          -4.693
REMARK INTER:                  -4.693
REMARK INTRA:                   0.000
REMARK UNBOUND:                 0.000
REMARK SMILES Cc1ccccc1O
REMARK SMILES IDX 1 1 2 2 3 3 4 4 5 5 6 6 7 7 8 8
REMARK H PARENT 8 9
REMARK Flexibility Score: inf
ROOT
ATOM      1  C   UNL     1      13.087   1.696  35.931  1.00  0.00     0.048 C 
ATOM      2  C   UNL     1      11.803   1.288  35.267  1.00  0.00    -0.009 A 
ATOM      3  C   UNL     1      10.617   1.999  35.518  1.00  0.00     0.007 A 
ATOM      4  C   UNL     1       9.422   1.619  34.899  1.00  0.00     0.001 A 
ATOM      5  C   UNL     1       9.401   0.529  34.029  1.00  0.00     0.004 A 
ATOM      6  C   UNL     1      10.574  -0.186  33.772  1.00  0.00     0.046 A 
ATOM      7  C   UNL     1      11.778   0.189  34.388  1.00  0.00     0.118 A 
ENDROOT
BRANCH   7   8
ATOM      8  O   UNL     1      12.947  -0.528  34.129  1.00  0.00    -0.508 OA
ATOM      9  H   UNL     1      13.769  -0.432  34.713  1.00  0.00     0.293 HD
ENDBRANCH   7   8
TORSDOF 1
ENDMDL
MODEL 5
REMARK VINA RESULT:    -4.535     17.884     18.383
REMARK INTER + INTRA:          -4.668
REMARK INTER:                  -4.668
REMARK INTRA:                   0.000
REMARK UNBOUND:                 0.000
REMARK SMILES Cc1ccccc1O
REMARK SMILES IDX 1 1 2 2 3 3 4 4 5 5 6 6 7 7 8 8
REMARK H PARENT 8 9
REMARK Flexibility Score: inf
ROOT
ATOM      1  C   UNL     1       9.356   1.878  37.271  1.00  0.00     0.048 C 
ATOM      2  C   UNL     1       9.671   1.187  35.975  1.00  0.00    -0.009 A 
ATOM      3  C   UNL     1      11.004   1.054  35.548  1.00  0.00     0.007 A 
ATOM      4  C   UNL     1      11.297   0.411  34.342  1.00  0.00     0.001 A 
ATOM      5  C   UNL     1      10.266  -0.104  33.554  1.00  0.00     0.004 A 
ATOM      6  C   UNL     1       8.938   0.023  33.969  1.00  0.00     0.046 A 
ATOM      7  C   UNL     1       8.634   0.666  35.179  1.00  0.00     0.118 A 
ENDROOT
BRANCH   7   8
ATOM      8  O   UNL     1       7.306   0.790  35.589  1.00  0.00    -0.508 OA
ATOM      9  H   UNL     1       6.767   1.626  35.397  1.00  0.00     0.293 HD
ENDBRANCH   7   8
TORSDOF 1
ENDMDL
MODEL 6
REMARK VINA RESULT:    -4.445      0.688      2.507
REMARK INTER + INTRA:          -4.575
REMARK INTER:                  -4.575
REMARK INTRA:                   0.000
REMARK UNBOUND:                 0.000
REMARK SMILES Cc1ccccc1O
REMARK SMILES IDX 1 1 2 2 3 3 4 4 5 5 6 6 7 7 8 8
REMARK H PARENT 8 9
REMARK Flexibility Score: inf
ROOT
ATOM      1  C   UNL     1      13.876 -12.846  47.014  1.00  0.00     0.048 C 
ATOM      2  C   UNL     1      13.127 -11.793  47.780  1.00  0.00    -0.009 A 
ATOM      3  C   UNL     1      12.353 -10.837  47.100  1.00  0.00     0.007 A 
ATOM      4  C   UNL     1      11.656  -9.857  47.814  1.00  0.00     0.001 A 
ATOM      5  C   UNL     1      11.727  -9.822  49.207  1.00  0.00     0.004 A 
ATOM      6  C   UNL     1      12.494 -10.767  49.893  1.00  0.00     0.046 A 
ATOM      7  C   UNL     1      13.196 -11.755  49.186  1.00  0.00     0.118 A 
ENDROOT
BRANCH   7   8
ATOM      8  O   UNL     1      13.961 -12.697  49.875  1.00  0.00    -0.508 OA
ATOM      9  H   UNL     1      14.847 -12.453  50.301  1.00  0.00     0.293 HD
ENDBRANCH   7   8
TORSDOF 1
ENDMDL
MODEL 7
REMARK VINA RESULT:    -4.444     17.980     18.181
REMARK INTER + INTRA:          -4.574
REMARK INTER:                  -4.574
REMARK INTRA:                   0.000
REMARK UNBOUND:                 0.000
REMARK SMILES Cc1ccccc1O
REMARK SMILES IDX 1 1 2 2 3 3 4 4 5 5 6 6 7 7 8 8
REMARK H PARENT 8 9
REMARK Flexibility Score: inf
ROOT
ATOM      1  C   UNL     1       7.448   0.675  35.986  1.00  0.00     0.048 C 
ATOM      2  C   UNL     1       8.896   0.725  35.588  1.00  0.00    -0.009 A 
ATOM      3  C   UNL     1       9.348   0.010  34.466  1.00  0.00     0.007 A 
ATOM      4  C   UNL     1      10.695   0.057  34.096  1.00  0.00     0.001 A 
ATOM      5  C   UNL     1      11.601   0.814  34.841  1.00  0.00     0.004 A 
ATOM      6  C   UNL     1      11.161   1.529  35.959  1.00  0.00     0.046 A 
ATOM      7  C   UNL     1       9.811   1.488  36.338  1.00  0.00     0.118 A 
ENDROOT
BRANCH   7   8
ATOM      8  O   UNL     1       9.377   2.203  37.454  1.00  0.00    -0.508 OA
ATOM      9  H   UNL     1       9.414   1.807  38.386  1.00  0.00     0.293 HD
ENDBRANCH   7   8
TORSDOF 1
ENDMDL
MODEL 8
REMARK VINA RESULT:    -4.412     18.523     18.923
REMARK INTER + INTRA:          -4.541
REMARK INTER:                  -4.541
REMARK INTRA:                   0.000
REMARK UNBOUND:                 0.000
REMARK SMILES Cc1ccccc1O
REMARK SMILES IDX 1 1 2 2 3 3 4 4 5 5 6 6 7 7 8 8
REMARK H PARENT 8 9
REMARK Flexibility Score: inf
ROOT
ATOM      1  C   UNL     1      12.909   0.477  34.498  1.00  0.00     0.048 C 
ATOM      2  C   UNL     1      11.416   0.629  34.440  1.00  0.00    -0.009 A 
ATOM      3  C   UNL     1      10.630  -0.338  33.791  1.00  0.00     0.007 A 
ATOM      4  C   UNL     1       9.240  -0.197  33.737  1.00  0.00     0.001 A 
ATOM      5  C   UNL     1       8.625   0.909  34.327  1.00  0.00     0.004 A 
ATOM      6  C   UNL     1       9.397   1.877  34.974  1.00  0.00     0.046 A 
ATOM      7  C   UNL     1      10.793   1.743  35.034  1.00  0.00     0.118 A 
ENDROOT
BRANCH   7   8
ATOM      8  O   UNL     1      11.560   2.712  35.682  1.00  0.00    -0.508 OA
ATOM      9  H   UNL     1      11.881   2.586  36.634  1.00  0.00     0.293 HD
ENDBRANCH   7   8
TORSDOF 1
ENDMDL
MODEL 9
REMARK VINA RESULT:    -4.319     16.622     17.471
REMARK INTER + INTRA:          -4.445
REMARK INTER:                  -4.445
REMARK INTRA:                   0.000
REMARK UNBOUND:                 0.000
REMARK SMILES Cc1ccccc1O
REMARK SMILES IDX 1 1 2 2 3 3 4 4 5 5 6 6 7 7 8 8
REMARK H PARENT 8 9
REMARK Flexibility Score: inf
ROOT
ATOM      1  C   UNL     1       2.906   0.400  37.947  1.00  0.00     0.048 C 
ATOM      2  C   UNL     1       3.759  -0.761  37.523  1.00  0.00    -0.009 A 
ATOM      3  C   UNL     1       3.416  -2.069  37.906  1.00  0.00     0.007 A 
ATOM      4  C   UNL     1       4.210  -3.151  37.511  1.00  0.00     0.001 A 
ATOM      5  C   UNL     1       5.350  -2.936  36.734  1.00  0.00     0.004 A 
ATOM      6  C   UNL     1       5.700  -1.639  36.349  1.00  0.00     0.046 A 
ATOM      7  C   UNL     1       4.909  -0.548  36.739  1.00  0.00     0.118 A 
ENDROOT
BRANCH   7   8
ATOM      8  O   UNL     1       5.262   0.745  36.352  1.00  0.00    -0.508 OA
ATOM      9  H   UNL     1       5.837   0.916  35.536  1.00  0.00     0.293 HD
ENDBRANCH   7   8
TORSDOF 1
ENDMDL
