MODEL 1
REMARK VINA RESULT:    -4.431      0.000      0.000
REMARK INTER + INTRA:          -6.175
REMARK INTER:                  -5.985
REMARK INTRA:                  -0.189
REMARK UNBOUND:                -0.189
REMARK SMILES CCCCCCCC(=O)[O-]
REMARK SMILES IDX 5 1 6 2 7 3 8 4 9 5 10 6 4 7 3 8 2 9 1 10
REMARK H PARENT
REMARK Flexibility Score: inf
ROOT
ATOM      1  C   UNL     1     116.331 164.739 118.593  1.00  0.00     0.000 C 
ENDROOT
BRANCH   1   2
ATOM      2  C   UNL     1     115.626 163.985 119.730  1.00  0.00     0.006 C 
BRANCH   2   3
ATOM      3  C   UNL     1     116.011 164.565 121.094  1.00  0.00     0.053 C 
BRANCH   3   4
ATOM      4  C   UNL     1     114.823 165.198 121.748  1.00  0.00     0.041 C 
ATOM      5  O   UNL     1     114.806 165.379 122.993  1.00  0.00    -0.550 OA
ATOM      6  O   UNL     1     113.754 165.632 120.974  1.00  0.00    -0.550 OA
ENDBRANCH   3   4
ENDBRANCH   2   3
ENDBRANCH   1   2
BRANCH   1   7
ATOM      7  C   UNL     1     115.349 165.464 117.657  1.00  0.00     0.000 C 
BRANCH   7   8
ATOM      8  C   UNL     1     116.038 166.196 116.486  1.00  0.00    -0.000 C 
BRANCH   8   9
ATOM      9  C   UNL     1     115.507 167.626 116.302  1.00  0.00    -0.003 C 
ATOM     10  C   UNL     1     115.244 167.931 114.831  1.00  0.00     0.004 C 
ENDBRANCH   8   9
ENDBRANCH   7   8
ENDBRANCH   1   7
TORSDOF 6
ENDMDL
MODEL 2
REMARK VINA RESULT:    -4.367     13.660     14.416
REMARK INTER + INTRA:          -6.089
REMARK INTER:                  -5.542
REMARK INTRA:                  -0.546
REMARK UNBOUND:                -0.189
REMARK SMILES CCCCCCCC(=O)[O-]
REMARK SMILES IDX 5 1 6 2 7 3 8 4 9 5 10 6 4 7 3 8 2 9 1 10
REMARK H PARENT
REMARK Flexibility Score: inf
ROOT
ATOM      1  C   UNL     1     118.148 179.356 125.838  1.00  0.00     0.000 C 
ENDROOT
BRANCH   1   2
ATOM      2  C   UNL     1     116.997 179.013 126.794  1.00  0.00     0.006 C 
BRANCH   2   3
ATOM      3  C   UNL     1     115.639 179.241 126.123  1.00  0.00     0.053 C 
BRANCH   3   4
ATOM      4  C   UNL     1     115.289 178.082 125.244  1.00  0.00     0.041 C 
ATOM      5  O   UNL     1     114.850 178.279 124.081  1.00  0.00    -0.550 OA
ATOM      6  O   UNL     1     115.494 176.783 125.692  1.00  0.00    -0.550 OA
ENDBRANCH   3   4
ENDBRANCH   2   3
ENDBRANCH   1   2
BRANCH   1   7
ATOM      7  C   UNL     1     119.177 178.220 125.706  1.00  0.00     0.000 C 
BRANCH   7   8
ATOM      8  C   UNL     1     118.910 177.280 124.512  1.00  0.00    -0.000 C 
BRANCH   8   9
ATOM      9  C   UNL     1     118.371 178.035 123.288  1.00  0.00    -0.003 C 
ATOM     10  C   UNL     1     119.505 178.657 122.479  1.00  0.00     0.004 C 
ENDBRANCH   8   9
ENDBRANCH   7   8
ENDBRANCH   1   7
TORSDOF 6
ENDMDL
MODEL 3
REMARK VINA RESULT:    -4.281     14.006     15.321
REMARK INTER + INTRA:          -5.972
REMARK INTER:                  -5.598
REMARK INTRA:                  -0.374
REMARK UNBOUND:                -0.189
REMARK SMILES CCCCCCCC(=O)[O-]
REMARK SMILES IDX 5 1 6 2 7 3 8 4 9 5 10 6 4 7 3 8 2 9 1 10
REMARK H PARENT
REMARK Flexibility Score: inf
ROOT
ATOM      1  C   UNL     1     122.414 176.445 119.229  1.00  0.00     0.000 C 
ENDROOT
BRANCH   1   2
ATOM      2  C   UNL     1     123.164 176.500 117.891  1.00  0.00     0.006 C 
BRANCH   2   3
ATOM      3  C   UNL     1     122.222 176.891 116.749  1.00  0.00     0.053 C 
BRANCH   3   4
ATOM      4  C   UNL     1     122.641 178.196 116.148  1.00  0.00     0.041 C 
ATOM      5  O   UNL     1     123.832 178.588 116.252  1.00  0.00    -0.550 OA
ATOM      6  O   UNL     1     121.726 178.955 115.429  1.00  0.00    -0.550 OA
ENDBRANCH   3   4
ENDBRANCH   2   3
ENDBRANCH   1   2
BRANCH   1   7
ATOM      7  C   UNL     1     123.045 177.342 120.307  1.00  0.00     0.000 C 
BRANCH   7   8
ATOM      8  C   UNL     1     124.012 178.402 119.741  1.00  0.00    -0.000 C 
BRANCH   8   9
ATOM      9  C   UNL     1     125.396 178.340 120.405  1.00  0.00    -0.003 C 
ATOM     10  C   UNL     1     125.281 178.003 121.889  1.00  0.00     0.004 C 
ENDBRANCH   8   9
ENDBRANCH   7   8
ENDBRANCH   1   7
TORSDOF 6
ENDMDL
MODEL 4
REMARK VINA RESULT:    -4.257     13.170     13.874
REMARK INTER + INTRA:          -5.940
REMARK INTER:                  -5.570
REMARK INTRA:                  -0.370
REMARK UNBOUND:                -0.189
REMARK SMILES CCCCCCCC(=O)[O-]
REMARK SMILES IDX 5 1 6 2 7 3 8 4 9 5 10 6 4 7 3 8 2 9 1 10
REMARK H PARENT
REMARK Flexibility Score: inf
ROOT
ATOM      1  C   UNL     1     123.984 177.107 118.367  1.00  0.00     0.000 C 
ENDROOT
BRANCH   1   2
ATOM      2  C   UNL     1     123.651 177.789 119.701  1.00  0.00     0.006 C 
BRANCH   2   3
ATOM      3  C   UNL     1     122.484 177.087 120.401  1.00  0.00     0.053 C 
BRANCH   3   4
ATOM      4  C   UNL     1     122.950 176.427 121.661  1.00  0.00     0.041 C 
ATOM      5  O   UNL     1     122.284 176.546 122.722  1.00  0.00    -0.550 OA
ATOM      6  O   UNL     1     124.093 175.638 121.650  1.00  0.00    -0.550 OA
ENDBRANCH   3   4
ENDBRANCH   2   3
ENDBRANCH   1   2
BRANCH   1   7
ATOM      7  C   UNL     1     122.779 176.374 117.752  1.00  0.00     0.000 C 
BRANCH   7   8
ATOM      8  C   UNL     1     122.179 177.092 116.526  1.00  0.00    -0.000 C 
BRANCH   8   9
ATOM      9  C   UNL     1     123.036 178.284 116.073  1.00  0.00    -0.003 C 
ATOM     10  C   UNL     1     122.203 179.299 115.297  1.00  0.00     0.004 C 
ENDBRANCH   8   9
ENDBRANCH   7   8
ENDBRANCH   1   7
TORSDOF 6
ENDMDL
MODEL 5
REMARK VINA RESULT:    -4.253      1.512      1.873
REMARK INTER + INTRA:          -5.934
REMARK INTER:                  -5.781
REMARK INTRA:                  -0.153
REMARK UNBOUND:                -0.189
REMARK SMILES CCCCCCCC(=O)[O-]
REMARK SMILES IDX 5 1 6 2 7 3 8 4 9 5 10 6 4 7 3 8 2 9 1 10
REMARK H PARENT
REMARK Flexibility Score: inf
ROOT
ATOM      1  C   UNL     1     115.909 163.749 119.643  1.00  0.00     0.000 C 
ENDROOT
BRANCH   1   2
ATOM      2  C   UNL     1     116.054 164.374 121.038  1.00  0.00     0.006 C 
BRANCH   2   3
ATOM      3  C   UNL     1     114.795 165.158 121.421  1.00  0.00     0.053 C 
BRANCH   3   4
ATOM      4  C   UNL     1     114.863 165.591 122.852  1.00  0.00     0.041 C 
ATOM      5  O   UNL     1     115.797 166.336 123.244  1.00  0.00    -0.550 OA
ATOM      6  O   UNL     1     113.865 165.211 123.740  1.00  0.00    -0.550 OA
ENDBRANCH   3   4
ENDBRANCH   2   3
ENDBRANCH   1   2
BRANCH   1   7
ATOM      7  C   UNL     1     115.516 164.775 118.565  1.00  0.00     0.000 C 
BRANCH   7   8
ATOM      8  C   UNL     1     116.691 165.198 117.658  1.00  0.00    -0.000 C 
BRANCH   8   9
ATOM      9  C   UNL     1     116.211 165.870 116.362  1.00  0.00    -0.003 C 
ATOM     10  C   UNL     1     116.880 165.250 115.139  1.00  0.00     0.004 C 
ENDBRANCH   8   9
ENDBRANCH   7   8
ENDBRANCH   1   7
TORSDOF 6
ENDMDL
MODEL 6
REMARK VINA RESULT:    -4.216     13.920     14.905
REMARK INTER + INTRA:          -5.884
REMARK INTER:                  -5.279
REMARK INTRA:                  -0.605
REMARK UNBOUND:                -0.189
REMARK SMILES CCCCCCCC(=O)[O-]
REMARK SMILES IDX 5 1 6 2 7 3 8 4 9 5 10 6 4 7 3 8 2 9 1 10
REMARK H PARENT
REMARK Flexibility Score: inf
ROOT
ATOM      1  C   UNL     1     117.862 178.276 127.478  1.00  0.00     0.000 C 
ENDROOT
BRANCH   1   2
ATOM      2  C   UNL     1     119.131 178.615 126.683  1.00  0.00     0.006 C 
BRANCH   2   3
ATOM      3  C   UNL     1     118.779 179.248 125.333  1.00  0.00     0.053 C 
BRANCH   3   4
ATOM      4  C   UNL     1     119.033 178.282 124.220  1.00  0.00     0.041 C 
ATOM      5  O   UNL     1     119.206 178.699 123.045  1.00  0.00    -0.550 OA
ATOM      6  O   UNL     1     119.129 176.922 124.489  1.00  0.00    -0.550 OA
ENDBRANCH   3   4
ENDBRANCH   2   3
ENDBRANCH   1   2
BRANCH   1   7
ATOM      7  C   UNL     1     116.616 179.017 126.963  1.00  0.00     0.000 C 
BRANCH   7   8
ATOM      8  C   UNL     1     115.400 178.095 126.732  1.00  0.00    -0.000 C 
BRANCH   8   9
ATOM      9  C   UNL     1     115.620 177.126 125.560  1.00  0.00    -0.003 C 
ATOM     10  C   UNL     1     115.367 177.813 124.222  1.00  0.00     0.004 C 
ENDBRANCH   8   9
ENDBRANCH   7   8
ENDBRANCH   1   7
TORSDOF 6
ENDMDL
MODEL 7
REMARK VINA RESULT:    -4.179     13.715     14.648
REMARK INTER + INTRA:          -5.834
REMARK INTER:                  -5.200
REMARK INTRA:                  -0.634
REMARK UNBOUND:                -0.189
REMARK SMILES CCCCCCCC(=O)[O-]
REMARK SMILES IDX 5 1 6 2 7 3 8 4 9 5 10 6 4 7 3 8 2 9 1 10
REMARK H PARENT
REMARK Flexibility Score: inf
ROOT
ATOM      1  C   UNL     1     117.326 176.965 127.747  1.00  0.00     0.000 C 
ENDROOT
BRANCH   1   2
ATOM      2  C   UNL     1     115.847 177.117 127.365  1.00  0.00     0.006 C 
BRANCH   2   3
ATOM      3  C   UNL     1     115.617 176.733 125.900  1.00  0.00     0.053 C 
BRANCH   3   4
ATOM      4  C   UNL     1     115.302 177.948 125.084  1.00  0.00     0.041 C 
ATOM      5  O   UNL     1     115.037 177.837 123.859  1.00  0.00    -0.550 OA
ATOM      6  O   UNL     1     115.253 179.197 125.689  1.00  0.00    -0.550 OA
ENDBRANCH   3   4
ENDBRANCH   2   3
ENDBRANCH   1   2
BRANCH   1   7
ATOM      7  C   UNL     1     118.089 178.300 127.732  1.00  0.00     0.000 C 
BRANCH   7   8
ATOM      8  C   UNL     1     119.218 178.356 126.682  1.00  0.00    -0.000 C 
BRANCH   8   9
ATOM      9  C   UNL     1     118.809 179.150 125.432  1.00  0.00    -0.003 C 
ATOM     10  C   UNL     1     118.898 178.287 124.177  1.00  0.00     0.004 C 
ENDBRANCH   8   9
ENDBRANCH   7   8
ENDBRANCH   1   7
TORSDOF 6
ENDMDL
MODEL 8
REMARK VINA RESULT:    -4.139     13.901     15.324
REMARK INTER + INTRA:          -5.780
REMARK INTER:                  -5.529
REMARK INTRA:                  -0.252
REMARK UNBOUND:                -0.189
REMARK SMILES CCCCCCCC(=O)[O-]
REMARK SMILES IDX 5 1 6 2 7 3 8 4 9 5 10 6 4 7 3 8 2 9 1 10
REMARK H PARENT
REMARK Flexibility Score: inf
ROOT
ATOM      1  C   UNL     1     124.021 178.662 119.139  1.00  0.00     0.000 C 
ENDROOT
BRANCH   1   2
ATOM      2  C   UNL     1     124.236 177.810 117.881  1.00  0.00     0.006 C 
BRANCH   2   3
ATOM      3  C   UNL     1     123.823 178.576 116.621  1.00  0.00     0.053 C 
BRANCH   3   4
ATOM      4  C   UNL     1     122.474 178.129 116.155  1.00  0.00     0.041 C 
ATOM      5  O   UNL     1     122.046 176.985 116.456  1.00  0.00    -0.550 OA
ATOM      6  O   UNL     1     121.667 178.997 115.429  1.00  0.00    -0.550 OA
ENDBRANCH   3   4
ENDBRANCH   2   3
ENDBRANCH   1   2
BRANCH   1   7
ATOM      7  C   UNL     1     124.689 178.065 120.390  1.00  0.00     0.000 C 
BRANCH   7   8
ATOM      8  C   UNL     1     124.069 176.727 120.843  1.00  0.00    -0.000 C 
BRANCH   8   9
ATOM      9  C   UNL     1     122.546 176.824 121.022  1.00  0.00    -0.003 C 
ATOM     10  C   UNL     1     122.163 176.823 122.499  1.00  0.00     0.004 C 
ENDBRANCH   8   9
ENDBRANCH   7   8
ENDBRANCH   1   7
TORSDOF 6
ENDMDL
MODEL 9
REMARK VINA RESULT:    -4.101     14.330     15.238
REMARK INTER + INTRA:          -5.729
REMARK INTER:                  -5.511
REMARK INTRA:                  -0.218
REMARK UNBOUND:                -0.189
REMARK SMILES CCCCCCCC(=O)[O-]
REMARK SMILES IDX 5 1 6 2 7 3 8 4 9 5 10 6 4 7 3 8 2 9 1 10
REMARK H PARENT
REMARK Flexibility Score: inf
ROOT
ATOM      1  C   UNL     1     118.212 179.062 125.845  1.00  0.00     0.000 C 
ENDROOT
BRANCH   1   2
ATOM      2  C   UNL     1     116.965 179.026 126.740  1.00  0.00     0.006 C 
BRANCH   2   3
ATOM      3  C   UNL     1     115.685 179.058 125.898  1.00  0.00     0.053 C 
BRANCH   3   4
ATOM      4  C   UNL     1     115.520 177.774 125.147  1.00  0.00     0.041 C 
ATOM      5  O   UNL     1     115.596 176.673 125.750  1.00  0.00    -0.550 OA
ATOM      6  O   UNL     1     115.231 177.797 123.788  1.00  0.00    -0.550 OA
ENDBRANCH   3   4
ENDBRANCH   2   3
ENDBRANCH   1   2
BRANCH   1   7
ATOM      7  C   UNL     1     119.497 178.664 126.593  1.00  0.00     0.000 C 
BRANCH   7   8
ATOM      8  C   UNL     1     120.512 177.903 125.715  1.00  0.00    -0.000 C 
BRANCH   8   9
ATOM      9  C   UNL     1     121.911 177.862 126.348  1.00  0.00    -0.003 C 
ATOM     10  C   UNL     1     122.062 178.936 127.422  1.00  0.00     0.004 C 
ENDBRANCH   8   9
ENDBRANCH   7   8
ENDBRANCH   1   7
TORSDOF 6
ENDMDL
