MODEL 1
REMARK VINA RESULT:    -2.163      0.000      0.000
REMARK INTER + INTRA:          -2.901
REMARK INTER:                  -2.795
REMARK INTRA:                  -0.106
REMARK UNBOUND:                -0.106
REMARK SMILES CCCCCCC(=O)[O-]
REMARK SMILES IDX 5 1 6 2 7 3 8 4 9 5 4 6 3 7 2 8 1 9
REMARK H PARENT
REMARK Flexibility Score: inf
ROOT
ATOM      1  C   UNL     1      57.902  -1.383  -5.718  1.00  0.00     0.006 C 
ENDROOT
BRANCH   1   2
ATOM      2  C   UNL     1      57.683  -0.783  -7.113  1.00  0.00     0.053 C 
BRANCH   2   3
ATOM      3  C   UNL     1      57.846   0.706  -7.108  1.00  0.00     0.041 C 
ATOM      4  O   UNL     1      58.997   1.219  -7.118  1.00  0.00    -0.550 OA
ATOM      5  O   UNL     1      56.727   1.528  -7.123  1.00  0.00    -0.550 OA
ENDBRANCH   2   3
ENDBRANCH   1   2
BRANCH   1   6
ATOM      6  C   UNL     1      59.099  -2.344  -5.679  1.00  0.00     0.000 C 
BRANCH   6   7
ATOM      7  C   UNL     1      58.664  -3.744  -5.230  1.00  0.00    -0.000 C 
BRANCH   7   8
ATOM      8  C   UNL     1      59.125  -4.028  -3.795  1.00  0.00    -0.003 C 
ATOM      9  C   UNL     1      59.005  -5.513  -3.461  1.00  0.00     0.004 C 
ENDBRANCH   7   8
ENDBRANCH   6   7
ENDBRANCH   1   6
TORSDOF 5
ENDMDL
MODEL 2
REMARK VINA RESULT:    -1.753      4.003      5.977
REMARK INTER + INTRA:          -2.371
REMARK INTER:                  -2.285
REMARK INTRA:                  -0.086
REMARK UNBOUND:                -0.106
REMARK SMILES CCCCCCC(=O)[O-]
REMARK SMILES IDX 5 1 6 2 7 3 8 4 9 5 4 6 3 7 2 8 1 9
REMARK H PARENT
REMARK Flexibility Score: inf
ROOT
ATOM      1  C   UNL     1      58.834  -3.311  -4.532  1.00  0.00     0.006 C 
ENDROOT
BRANCH   1   2
ATOM      2  C   UNL     1      59.123  -4.815  -4.632  1.00  0.00     0.053 C 
BRANCH   2   3
ATOM      3  C   UNL     1      59.125  -5.470  -3.285  1.00  0.00     0.041 C 
ATOM      4  O   UNL     1      59.123  -4.768  -2.239  1.00  0.00    -0.550 OA
ATOM      5  O   UNL     1      59.097  -6.855  -3.185  1.00  0.00    -0.550 OA
ENDBRANCH   2   3
ENDBRANCH   1   2
BRANCH   1   6
ATOM      6  C   UNL     1      57.915  -2.819  -5.660  1.00  0.00     0.000 C 
BRANCH   6   7
ATOM      7  C   UNL     1      57.735  -1.298  -5.597  1.00  0.00    -0.000 C 
BRANCH   7   8
ATOM      8  C   UNL     1      57.907  -0.666  -6.983  1.00  0.00    -0.003 C 
ATOM      9  C   UNL     1      57.765   0.852  -6.919  1.00  0.00     0.004 C 
ENDBRANCH   7   8
ENDBRANCH   6   7
ENDBRANCH   1   6
TORSDOF 5
ENDMDL
MODEL 3
REMARK VINA RESULT:    -1.413     27.122     27.943
REMARK INTER + INTRA:          -1.932
REMARK INTER:                  -1.782
REMARK INTRA:                  -0.149
REMARK UNBOUND:                -0.106
REMARK SMILES CCCCCCC(=O)[O-]
REMARK SMILES IDX 5 1 6 2 7 3 8 4 9 5 4 6 3 7 2 8 1 9
REMARK H PARENT
REMARK Flexibility Score: inf
ROOT
ATOM      1  C   UNL     1      40.218   7.037  11.289  1.00  0.00     0.006 C 
ENDROOT
BRANCH   1   2
ATOM      2  C   UNL     1      39.156   6.203  12.017  1.00  0.00     0.053 C 
BRANCH   2   3
ATOM      3  C   UNL     1      39.771   5.079  12.793  1.00  0.00     0.041 C 
ATOM      4  O   UNL     1      39.076   4.082  13.124  1.00  0.00    -0.550 OA
ATOM      5  O   UNL     1      41.119   5.118  13.125  1.00  0.00    -0.550 OA
ENDBRANCH   2   3
ENDBRANCH   1   2
BRANCH   1   6
ATOM      6  C   UNL     1      40.635   8.278  12.094  1.00  0.00     0.000 C 
BRANCH   6   7
ATOM      7  C   UNL     1      39.562   8.649  13.125  1.00  0.00    -0.000 C 
BRANCH   7   8
ATOM      8  C   UNL     1      38.964  10.028  12.823  1.00  0.00    -0.003 C 
ATOM      9  C   UNL     1      39.090  10.371  11.341  1.00  0.00     0.004 C 
ENDBRANCH   7   8
ENDBRANCH   6   7
ENDBRANCH   1   6
TORSDOF 5
ENDMDL
MODEL 4
REMARK VINA RESULT:    -1.411      5.869      7.932
REMARK INTER + INTRA:          -1.930
REMARK INTER:                  -1.767
REMARK INTRA:                  -0.162
REMARK UNBOUND:                -0.106
REMARK SMILES CCCCCCC(=O)[O-]
REMARK SMILES IDX 5 1 6 2 7 3 8 4 9 5 4 6 3 7 2 8 1 9
REMARK H PARENT
REMARK Flexibility Score: inf
ROOT
ATOM      1  C   UNL     1      58.986  -5.999  -1.221  1.00  0.00     0.006 C 
ENDROOT
BRANCH   1   2
ATOM      2  C   UNL     1      59.059  -6.886   0.029  1.00  0.00     0.053 C 
BRANCH   2   3
ATOM      3  C   UNL     1      58.609  -6.154   1.255  1.00  0.00     0.041 C 
ATOM      4  O   UNL     1      58.078  -5.016   1.156  1.00  0.00    -0.550 OA
ATOM      5  O   UNL     1      58.746  -6.742   2.506  1.00  0.00    -0.550 OA
ENDBRANCH   2   3
ENDBRANCH   1   2
BRANCH   1   6
ATOM      6  C   UNL     1      59.124  -6.809  -2.518  1.00  0.00     0.000 C 
BRANCH   6   7
ATOM      7  C   UNL     1      58.965  -5.907  -3.748  1.00  0.00    -0.000 C 
BRANCH   7   8
ATOM      8  C   UNL     1      59.125  -4.430  -3.370  1.00  0.00    -0.003 C 
ATOM      9  C   UNL     1      58.735  -3.518  -4.531  1.00  0.00     0.004 C 
ENDBRANCH   7   8
ENDBRANCH   6   7
ENDBRANCH   1   6
TORSDOF 5
ENDMDL
MODEL 5
REMARK VINA RESULT:    -1.246      2.705      5.086
REMARK INTER + INTRA:          -1.716
REMARK INTER:                  -1.690
REMARK INTRA:                  -0.026
REMARK UNBOUND:                -0.106
REMARK SMILES CCCCCCC(=O)[O-]
REMARK SMILES IDX 5 1 6 2 7 3 8 4 9 5 4 6 3 7 2 8 1 9
REMARK H PARENT
REMARK Flexibility Score: inf
ROOT
ATOM      1  C   UNL     1      57.020  -1.291  -5.823  1.00  0.00     0.006 C 
ENDROOT
BRANCH   1   2
ATOM      2  C   UNL     1      58.182  -1.739  -4.927  1.00  0.00     0.053 C 
BRANCH   2   3
ATOM      3  C   UNL     1      58.754  -3.049  -5.374  1.00  0.00     0.041 C 
ATOM      4  O   UNL     1      59.120  -3.905  -4.526  1.00  0.00    -0.550 OA
ATOM      5  O   UNL     1      58.854  -3.338  -6.729  1.00  0.00    -0.550 OA
ENDBRANCH   2   3
ENDBRANCH   1   2
BRANCH   1   6
ATOM      6  C   UNL     1      57.506  -0.544  -7.074  1.00  0.00     0.000 C 
BRANCH   6   7
ATOM      7  C   UNL     1      58.741   0.309  -6.760  1.00  0.00    -0.000 C 
BRANCH   7   8
ATOM      8  C   UNL     1      58.500   1.779  -7.124  1.00  0.00    -0.003 C 
ATOM      9  C   UNL     1      57.021   2.140  -7.010  1.00  0.00     0.004 C 
ENDBRANCH   7   8
ENDBRANCH   6   7
ENDBRANCH   1   6
TORSDOF 5
ENDMDL
MODEL 6
REMARK VINA RESULT:    -0.570      4.948      6.778
REMARK INTER + INTRA:          -0.843
REMARK INTER:                  -0.766
REMARK INTRA:                  -0.076
REMARK UNBOUND:                -0.106
REMARK SMILES CCCCCCC(=O)[O-]
REMARK SMILES IDX 5 1 6 2 7 3 8 4 9 5 4 6 3 7 2 8 1 9
REMARK H PARENT
REMARK Flexibility Score: inf
ROOT
ATOM      1  C   UNL     1      58.518  -4.732  -2.761  1.00  0.00     0.006 C 
ENDROOT
BRANCH   1   2
ATOM      2  C   UNL     1      59.125  -5.886  -1.952  1.00  0.00     0.053 C 
BRANCH   2   3
ATOM      3  C   UNL     1      58.943  -5.686  -0.479  1.00  0.00     0.041 C 
ATOM      4  O   UNL     1      58.970  -4.526   0.012  1.00  0.00    -0.550 OA
ATOM      5  O   UNL     1      58.714  -6.777   0.349  1.00  0.00    -0.550 OA
ENDBRANCH   2   3
ENDBRANCH   1   2
BRANCH   1   6
ATOM      6  C   UNL     1      59.096  -4.652  -4.182  1.00  0.00     0.000 C 
BRANCH   6   7
ATOM      7  C   UNL     1      59.018  -3.221  -4.726  1.00  0.00    -0.000 C 
BRANCH   7   8
ATOM      8  C   UNL     1      58.789  -3.221  -6.242  1.00  0.00    -0.003 C 
ATOM      9  C   UNL     1      58.510  -1.812  -6.758  1.00  0.00     0.004 C 
ENDBRANCH   7   8
ENDBRANCH   6   7
ENDBRANCH   1   6
TORSDOF 5
ENDMDL
MODEL 7
REMARK VINA RESULT:    -0.495      6.201      8.277
REMARK INTER + INTRA:          -0.746
REMARK INTER:                  -0.664
REMARK INTRA:                  -0.082
REMARK UNBOUND:                -0.106
REMARK SMILES CCCCCCC(=O)[O-]
REMARK SMILES IDX 5 1 6 2 7 3 8 4 9 5 4 6 3 7 2 8 1 9
REMARK H PARENT
REMARK Flexibility Score: inf
ROOT
ATOM      1  C   UNL     1      58.856  -5.788   0.118  1.00  0.00     0.006 C 
ENDROOT
BRANCH   1   2
ATOM      2  C   UNL     1      59.124  -6.749  -1.047  1.00  0.00     0.053 C 
BRANCH   2   3
ATOM      3  C   UNL     1      58.972  -6.068  -2.373  1.00  0.00     0.041 C 
ATOM      4  O   UNL     1      59.123  -4.821  -2.467  1.00  0.00    -0.550 OA
ATOM      5  O   UNL     1      58.694  -6.815  -3.510  1.00  0.00    -0.550 OA
ENDBRANCH   2   3
ENDBRANCH   1   2
BRANCH   1   6
ATOM      6  C   UNL     1      57.996  -6.432   1.216  1.00  0.00     0.000 C 
BRANCH   6   7
ATOM      7  C   UNL     1      58.791  -6.580   2.519  1.00  0.00    -0.000 C 
BRANCH   7   8
ATOM      8  C   UNL     1      57.900  -7.109   3.649  1.00  0.00    -0.003 C 
ATOM      9  C   UNL     1      58.417  -6.662   5.014  1.00  0.00     0.004 C 
ENDBRANCH   7   8
ENDBRANCH   6   7
ENDBRANCH   1   6
TORSDOF 5
ENDMDL
MODEL 8
REMARK VINA RESULT:    -0.363      7.433      8.793
REMARK INTER + INTRA:          -0.576
REMARK INTER:                  -1.036
REMARK INTRA:                   0.461
REMARK UNBOUND:                -0.106
REMARK SMILES CCCCCCC(=O)[O-]
REMARK SMILES IDX 5 1 6 2 7 3 8 4 9 5 4 6 3 7 2 8 1 9
REMARK H PARENT
REMARK Flexibility Score: inf
ROOT
ATOM      1  C   UNL     1      57.258  -4.720   0.834  1.00  0.00     0.006 C 
ENDROOT
BRANCH   1   2
ATOM      2  C   UNL     1      57.065  -6.217   1.107  1.00  0.00     0.053 C 
BRANCH   2   3
ATOM      3  C   UNL     1      57.952  -6.697   2.214  1.00  0.00     0.041 C 
ATOM      4  O   UNL     1      59.120  -7.097   1.962  1.00  0.00    -0.550 OA
ATOM      5  O   UNL     1      57.501  -6.675   3.527  1.00  0.00    -0.550 OA
ENDBRANCH   2   3
ENDBRANCH   1   2
BRANCH   1   6
ATOM      6  C   UNL     1      58.573  -4.429   0.094  1.00  0.00     0.000 C 
BRANCH   6   7
ATOM      7  C   UNL     1      59.071  -5.674  -0.649  1.00  0.00    -0.000 C 
BRANCH   7   8
ATOM      8  C   UNL     1      59.125  -5.426  -2.162  1.00  0.00    -0.003 C 
ATOM      9  C   UNL     1      59.044  -6.738  -2.938  1.00  0.00     0.004 C 
ENDBRANCH   7   8
ENDBRANCH   6   7
ENDBRANCH   1   6
TORSDOF 5
ENDMDL
