MODEL 1
REMARK VINA RESULT:    -6.142      0.000      0.000
REMARK INTER + INTRA:         -12.734
REMARK INTER:                 -11.887
REMARK INTRA:                  -0.847
REMARK UNBOUND:                -0.847
REMARK SMILES CCCCCCCCCCCCCCCCCC(=O)[O-]
REMARK SMILES IDX 10 1 11 2 12 3 13 4 14 5 15 6 16 7 17 8 18 9 19 10 20 11
REMARK SMILES IDX 9 12 8 13 7 14 6 15 5 16 4 17 3 18 2 19 1 20
REMARK H PARENT
REMARK Flexibility Score: inf
ROOT
ATOM      1  C   UNL     1     104.035 312.976 196.194  1.00  0.00     0.000 C 
ENDROOT
BRANCH   1   2
ATOM      2  C   UNL     1     103.942 313.161 197.714  1.00  0.00     0.000 C 
BRANCH   2   3
ATOM      3  C   UNL     1     103.658 311.826 198.413  1.00  0.00     0.000 C 
BRANCH   3   4
ATOM      4  C   UNL     1     103.551 312.011 199.934  1.00  0.00     0.000 C 
BRANCH   4   5
ATOM      5  C   UNL     1     102.396 311.206 200.551  1.00  0.00     0.000 C 
BRANCH   5   6
ATOM      6  C   UNL     1     102.486 311.120 202.085  1.00  0.00     0.000 C 
BRANCH   6   7
ATOM      7  C   UNL     1     103.855 311.568 202.620  1.00  0.00     0.006 C 
BRANCH   7   8
ATOM      8  C   UNL     1     104.480 310.543 203.576  1.00  0.00     0.053 C 
BRANCH   8   9
ATOM      9  C   UNL     1     104.200 310.920 204.998  1.00  0.00     0.041 C 
ATOM     10  O   UNL     1     103.088 310.642 205.520  1.00  0.00    -0.550 OA
ATOM     11  O   UNL     1     105.148 311.624 205.729  1.00  0.00    -0.550 OA
ENDBRANCH   8   9
ENDBRANCH   7   8
ENDBRANCH   6   7
ENDBRANCH   5   6
ENDBRANCH   4   5
ENDBRANCH   3   4
ENDBRANCH   2   3
ENDBRANCH   1   2
BRANCH   1  12
ATOM     12  C   UNL     1     104.993 311.834 195.834  1.00  0.00     0.000 C 
BRANCH  12  13
ATOM     13  C   UNL     1     105.578 312.034 194.428  1.00  0.00    -0.000 C 
BRANCH  13  14
ATOM     14  C   UNL     1     104.657 311.501 193.318  1.00  0.00    -0.000 C 
BRANCH  14  15
ATOM     15  C   UNL     1     104.554 312.463 192.123  1.00  0.00    -0.000 C 
BRANCH  15  16
ATOM     16  C   UNL     1     104.096 313.871 192.539  1.00  0.00    -0.000 C 
BRANCH  16  17
ATOM     17  C   UNL     1     103.819 314.783 191.333  1.00  0.00    -0.000 C 
BRANCH  17  18
ATOM     18  C   UNL     1     103.552 313.952 190.069  1.00  0.00    -0.000 C 
BRANCH  18  19
ATOM     19  C   UNL     1     103.530 314.809 188.793  1.00  0.00    -0.003 C 
ATOM     20  C   UNL     1     102.210 314.702 188.032  1.00  0.00     0.004 C 
ENDBRANCH  18  19
ENDBRANCH  17  18
ENDBRANCH  16  17
ENDBRANCH  15  16
ENDBRANCH  14  15
ENDBRANCH  13  14
ENDBRANCH  12  13
ENDBRANCH   1  12
TORSDOF 16
ENDMDL
MODEL 2
REMARK VINA RESULT:    -6.055     19.588     20.623
REMARK INTER + INTRA:         -12.565
REMARK INTER:                 -11.597
REMARK INTRA:                  -0.968
REMARK UNBOUND:                -0.847
REMARK SMILES CCCCCCCCCCCCCCCCCC(=O)[O-]
REMARK SMILES IDX 10 1 11 2 12 3 13 4 14 5 15 6 16 7 17 8 18 9 19 10 20 11
REMARK SMILES IDX 9 12 8 13 7 14 6 15 5 16 4 17 3 18 2 19 1 20
REMARK H PARENT
REMARK Flexibility Score: inf
ROOT
ATOM      1  C   UNL     1      88.627 325.041 196.624  1.00  0.00     0.000 C 
ENDROOT
BRANCH   1   2
ATOM      2  C   UNL     1      89.055 324.704 198.058  1.00  0.00     0.000 C 
BRANCH   2   3
ATOM      3  C   UNL     1      89.099 325.966 198.928  1.00  0.00     0.000 C 
BRANCH   3   4
ATOM      4  C   UNL     1      89.500 325.627 200.371  1.00  0.00     0.000 C 
BRANCH   4   5
ATOM      5  C   UNL     1      88.894 326.595 201.400  1.00  0.00     0.000 C 
BRANCH   5   6
ATOM      6  C   UNL     1      89.882 326.967 202.519  1.00  0.00     0.000 C 
BRANCH   6   7
ATOM      7  C   UNL     1      89.191 327.131 203.883  1.00  0.00     0.006 C 
BRANCH   7   8
ATOM      8  C   UNL     1      89.222 325.844 204.719  1.00  0.00     0.053 C 
BRANCH   8   9
ATOM      9  C   UNL     1      88.217 325.920 205.826  1.00  0.00     0.041 C 
ATOM     10  O   UNL     1      87.115 325.319 205.723  1.00  0.00    -0.550 OA
ATOM     11  O   UNL     1      88.475 326.697 206.947  1.00  0.00    -0.550 OA
ENDBRANCH   8   9
ENDBRANCH   7   8
ENDBRANCH   6   7
ENDBRANCH   5   6
ENDBRANCH   4   5
ENDBRANCH   3   4
ENDBRANCH   2   3
ENDBRANCH   1   2
BRANCH   1  12
ATOM     12  C   UNL     1      88.157 326.497 196.515  1.00  0.00     0.000 C 
BRANCH  12  13
ATOM     13  C   UNL     1      86.810 326.584 195.784  1.00  0.00    -0.000 C 
BRANCH  13  14
ATOM     14  C   UNL     1      86.962 326.600 194.254  1.00  0.00    -0.000 C 
BRANCH  14  15
ATOM     15  C   UNL     1      86.082 325.545 193.561  1.00  0.00    -0.000 C 
BRANCH  15  16
ATOM     16  C   UNL     1      86.808 324.203 193.377  1.00  0.00    -0.000 C 
BRANCH  16  17
ATOM     17  C   UNL     1      88.263 324.377 192.912  1.00  0.00    -0.000 C 
BRANCH  17  18
ATOM     18  C   UNL     1      88.323 324.699 191.411  1.00  0.00    -0.000 C 
BRANCH  18  19
ATOM     19  C   UNL     1      88.856 323.525 190.576  1.00  0.00    -0.003 C 
ATOM     20  C   UNL     1      89.462 323.971 189.246  1.00  0.00     0.004 C 
ENDBRANCH  18  19
ENDBRANCH  17  18
ENDBRANCH  16  17
ENDBRANCH  15  16
ENDBRANCH  14  15
ENDBRANCH  13  14
ENDBRANCH  12  13
ENDBRANCH   1  12
TORSDOF 16
ENDMDL
MODEL 3
REMARK VINA RESULT:    -6.012     19.358     20.409
REMARK INTER + INTRA:         -12.482
REMARK INTER:                 -10.992
REMARK INTRA:                  -1.491
REMARK UNBOUND:                -0.847
REMARK SMILES CCCCCCCCCCCCCCCCCC(=O)[O-]
REMARK SMILES IDX 10 1 11 2 12 3 13 4 14 5 15 6 16 7 17 8 18 9 19 10 20 11
REMARK SMILES IDX 9 12 8 13 7 14 6 15 5 16 4 17 3 18 2 19 1 20
REMARK H PARENT
REMARK Flexibility Score: inf
ROOT
ATOM      1  C   UNL     1      88.093 326.827 194.140  1.00  0.00     0.000 C 
ENDROOT
BRANCH   1   2
ATOM      2  C   UNL     1      88.793 326.853 195.504  1.00  0.00     0.000 C 
BRANCH   2   3
ATOM      3  C   UNL     1      88.056 325.968 196.516  1.00  0.00     0.000 C 
BRANCH   3   4
ATOM      4  C   UNL     1      88.953 324.819 197.000  1.00  0.00     0.000 C 
BRANCH   4   5
ATOM      5  C   UNL     1      89.202 324.857 198.517  1.00  0.00     0.000 C 
BRANCH   5   6
ATOM      6  C   UNL     1      89.116 326.279 199.097  1.00  0.00     0.000 C 
BRANCH   6   7
ATOM      7  C   UNL     1      89.803 326.398 200.467  1.00  0.00     0.006 C 
BRANCH   7   8
ATOM      8  C   UNL     1      88.806 326.629 201.610  1.00  0.00     0.053 C 
BRANCH   8   9
ATOM      9  C   UNL     1      89.525 326.698 202.921  1.00  0.00     0.041 C 
ATOM     10  O   UNL     1      89.225 325.902 203.851  1.00  0.00    -0.550 OA
ATOM     11  O   UNL     1      90.488 327.675 203.135  1.00  0.00    -0.550 OA
ENDBRANCH   8   9
ENDBRANCH   7   8
ENDBRANCH   6   7
ENDBRANCH   5   6
ENDBRANCH   4   5
ENDBRANCH   3   4
ENDBRANCH   2   3
ENDBRANCH   1   2
BRANCH   1  12
ATOM     12  C   UNL     1      86.697 326.200 194.246  1.00  0.00     0.000 C 
BRANCH  12  13
ATOM     13  C   UNL     1      86.488 325.142 193.153  1.00  0.00    -0.000 C 
BRANCH  13  14
ATOM     14  C   UNL     1      87.250 323.836 193.434  1.00  0.00    -0.000 C 
BRANCH  14  15
ATOM     15  C   UNL     1      88.458 323.644 192.501  1.00  0.00    -0.000 C 
BRANCH  15  16
ATOM     16  C   UNL     1      88.440 324.615 191.308  1.00  0.00    -0.000 C 
BRANCH  16  17
ATOM     17  C   UNL     1      88.899 323.951 190.000  1.00  0.00    -0.000 C 
BRANCH  17  18
ATOM     18  C   UNL     1      88.483 322.473 189.961  1.00  0.00    -0.000 C 
BRANCH  18  19
ATOM     19  C   UNL     1      87.244 322.231 189.085  1.00  0.00    -0.003 C 
ATOM     20  C   UNL     1      85.938 322.294 189.877  1.00  0.00     0.004 C 
ENDBRANCH  18  19
ENDBRANCH  17  18
ENDBRANCH  16  17
ENDBRANCH  15  16
ENDBRANCH  14  15
ENDBRANCH  13  14
ENDBRANCH  12  13
ENDBRANCH   1  12
TORSDOF 16
ENDMDL
MODEL 4
REMARK VINA RESULT:    -5.982     19.432     20.413
REMARK INTER + INTRA:         -12.424
REMARK INTER:                 -11.647
REMARK INTRA:                  -0.777
REMARK UNBOUND:                -0.847
REMARK SMILES CCCCCCCCCCCCCCCCCC(=O)[O-]
REMARK SMILES IDX 10 1 11 2 12 3 13 4 14 5 15 6 16 7 17 8 18 9 19 10 20 11
REMARK SMILES IDX 9 12 8 13 7 14 6 15 5 16 4 17 3 18 2 19 1 20
REMARK H PARENT
REMARK Flexibility Score: inf
ROOT
ATOM      1  C   UNL     1      88.801 324.991 197.206  1.00  0.00     0.000 C 
ENDROOT
BRANCH   1   2
ATOM      2  C   UNL     1      89.149 324.974 198.699  1.00  0.00     0.000 C 
BRANCH   2   3
ATOM      3  C   UNL     1      89.293 326.399 199.245  1.00  0.00     0.000 C 
BRANCH   3   4
ATOM      4  C   UNL     1      89.941 326.394 200.638  1.00  0.00     0.000 C 
BRANCH   4   5
ATOM      5  C   UNL     1      88.917 326.570 201.771  1.00  0.00     0.000 C 
BRANCH   5   6
ATOM      6  C   UNL     1      89.553 326.465 203.168  1.00  0.00     0.000 C 
BRANCH   6   7
ATOM      7  C   UNL     1      89.228 327.676 204.055  1.00  0.00     0.006 C 
BRANCH   7   8
ATOM      8  C   UNL     1      89.322 327.354 205.553  1.00  0.00     0.053 C 
BRANCH   8   9
ATOM      9  C   UNL     1      90.752 327.327 205.991  1.00  0.00     0.041 C 
ATOM     10  O   UNL     1      91.573 328.162 205.526  1.00  0.00    -0.550 OA
ATOM     11  O   UNL     1      91.191 326.347 206.872  1.00  0.00    -0.550 OA
ENDBRANCH   8   9
ENDBRANCH   7   8
ENDBRANCH   6   7
ENDBRANCH   5   6
ENDBRANCH   4   5
ENDBRANCH   3   4
ENDBRANCH   2   3
ENDBRANCH   1   2
BRANCH   1  12
ATOM     12  C   UNL     1      88.337 326.384 196.761  1.00  0.00     0.000 C 
BRANCH  12  13
ATOM     13  C   UNL     1      87.359 326.285 195.582  1.00  0.00    -0.000 C 
BRANCH  13  14
ATOM     14  C   UNL     1      87.923 326.895 194.288  1.00  0.00    -0.000 C 
BRANCH  14  15
ATOM     15  C   UNL     1      88.113 325.850 193.175  1.00  0.00    -0.000 C 
BRANCH  15  16
ATOM     16  C   UNL     1      86.866 324.973 192.973  1.00  0.00    -0.000 C 
BRANCH  16  17
ATOM     17  C   UNL     1      87.035 323.961 191.828  1.00  0.00    -0.000 C 
BRANCH  17  18
ATOM     18  C   UNL     1      88.521 323.736 191.512  1.00  0.00    -0.000 C 
BRANCH  18  19
ATOM     19  C   UNL     1      88.861 324.017 190.040  1.00  0.00    -0.003 C 
ATOM     20  C   UNL     1      88.376 322.915 189.099  1.00  0.00     0.004 C 
ENDBRANCH  18  19
ENDBRANCH  17  18
ENDBRANCH  16  17
ENDBRANCH  15  16
ENDBRANCH  14  15
ENDBRANCH  13  14
ENDBRANCH  12  13
ENDBRANCH   1  12
TORSDOF 16
ENDMDL
MODEL 5
REMARK VINA RESULT:    -5.936     20.544     23.352
REMARK INTER + INTRA:         -12.335
REMARK INTER:                 -11.437
REMARK INTRA:                  -0.898
REMARK UNBOUND:                -0.847
REMARK SMILES CCCCCCCCCCCCCCCCCC(=O)[O-]
REMARK SMILES IDX 10 1 11 2 12 3 13 4 14 5 15 6 16 7 17 8 18 9 19 10 20 11
REMARK SMILES IDX 9 12 8 13 7 14 6 15 5 16 4 17 3 18 2 19 1 20
REMARK H PARENT
REMARK Flexibility Score: inf
ROOT
ATOM      1  C   UNL     1      89.245 326.216 199.151  1.00  0.00     0.000 C 
ENDROOT
BRANCH   1   2
ATOM      2  C   UNL     1      89.075 324.847 198.480  1.00  0.00     0.000 C 
BRANCH   2   3
ATOM      3  C   UNL     1      88.718 325.003 196.997  1.00  0.00     0.000 C 
BRANCH   3   4
ATOM      4  C   UNL     1      88.532 326.482 196.627  1.00  0.00     0.000 C 
BRANCH   4   5
ATOM      5  C   UNL     1      88.189 326.685 195.142  1.00  0.00     0.000 C 
BRANCH   5   6
ATOM      6  C   UNL     1      86.730 326.321 194.815  1.00  0.00     0.000 C 
BRANCH   6   7
ATOM      7  C   UNL     1      86.607 325.480 193.535  1.00  0.00     0.006 C 
BRANCH   7   8
ATOM      8  C   UNL     1      87.969 325.170 192.898  1.00  0.00     0.053 C 
BRANCH   8   9
ATOM      9  C   UNL     1      87.784 324.434 191.608  1.00  0.00     0.041 C 
ATOM     10  O   UNL     1      88.687 324.455 190.730  1.00  0.00    -0.550 OA
ATOM     11  O   UNL     1      86.592 323.768 191.353  1.00  0.00    -0.550 OA
ENDBRANCH   8   9
ENDBRANCH   7   8
ENDBRANCH   6   7
ENDBRANCH   5   6
ENDBRANCH   4   5
ENDBRANCH   3   4
ENDBRANCH   2   3
ENDBRANCH   1   2
BRANCH   1  12
ATOM     12  C   UNL     1      90.081 326.104 200.432  1.00  0.00     0.000 C 
BRANCH  12  13
ATOM     13  C   UNL     1      89.260 326.527 201.659  1.00  0.00    -0.000 C 
BRANCH  13  14
ATOM     14  C   UNL     1      90.112 327.217 202.737  1.00  0.00    -0.000 C 
BRANCH  14  15
ATOM     15  C   UNL     1      89.286 327.633 203.967  1.00  0.00    -0.000 C 
BRANCH  15  16
ATOM     16  C   UNL     1      89.975 327.260 205.290  1.00  0.00    -0.000 C 
BRANCH  16  17
ATOM     17  C   UNL     1      88.973 326.853 206.383  1.00  0.00    -0.000 C 
BRANCH  17  18
ATOM     18  C   UNL     1      88.503 325.404 206.182  1.00  0.00    -0.000 C 
BRANCH  18  19
ATOM     19  C   UNL     1      86.988 325.303 205.943  1.00  0.00    -0.003 C 
ATOM     20  C   UNL     1      86.608 324.126 205.045  1.00  0.00     0.004 C 
ENDBRANCH  18  19
ENDBRANCH  17  18
ENDBRANCH  16  17
ENDBRANCH  15  16
ENDBRANCH  14  15
ENDBRANCH  13  14
ENDBRANCH  12  13
ENDBRANCH   1  12
TORSDOF 16
ENDMDL
MODEL 6
REMARK VINA RESULT:    -5.917      1.106      2.087
REMARK INTER + INTRA:         -12.298
REMARK INTER:                 -11.493
REMARK INTRA:                  -0.805
REMARK UNBOUND:                -0.847
REMARK SMILES CCCCCCCCCCCCCCCCCC(=O)[O-]
REMARK SMILES IDX 10 1 11 2 12 3 13 4 14 5 15 6 16 7 17 8 18 9 19 10 20 11
REMARK SMILES IDX 9 12 8 13 7 14 6 15 5 16 4 17 3 18 2 19 1 20
REMARK H PARENT
REMARK Flexibility Score: inf
ROOT
ATOM      1  C   UNL     1     106.078 311.787 194.818  1.00  0.00     0.000 C 
ENDROOT
BRANCH   1   2
ATOM      2  C   UNL     1     104.864 312.450 195.480  1.00  0.00     0.000 C 
BRANCH   2   3
ATOM      3  C   UNL     1     104.282 311.556 196.581  1.00  0.00     0.000 C 
BRANCH   3   4
ATOM      4  C   UNL     1     103.941 312.375 197.835  1.00  0.00     0.000 C 
BRANCH   4   5
ATOM      5  C   UNL     1     103.606 311.493 199.048  1.00  0.00     0.000 C 
BRANCH   5   6
ATOM      6  C   UNL     1     103.454 312.304 200.347  1.00  0.00     0.000 C 
BRANCH   6   7
ATOM      7  C   UNL     1     104.580 312.018 201.354  1.00  0.00     0.006 C 
BRANCH   7   8
ATOM      8  C   UNL     1     104.157 311.026 202.447  1.00  0.00     0.053 C 
BRANCH   8   9
ATOM      9  C   UNL     1     104.423 311.601 203.802  1.00  0.00     0.041 C 
ATOM     10  O   UNL     1     105.277 312.515 203.947  1.00  0.00    -0.550 OA
ATOM     11  O   UNL     1     103.766 311.091 204.914  1.00  0.00    -0.550 OA
ENDBRANCH   8   9
ENDBRANCH   7   8
ENDBRANCH   6   7
ENDBRANCH   5   6
ENDBRANCH   4   5
ENDBRANCH   3   4
ENDBRANCH   2   3
ENDBRANCH   1   2
BRANCH   1  12
ATOM     12  C   UNL     1     105.994 311.879 193.290  1.00  0.00     0.000 C 
BRANCH  12  13
ATOM     13  C   UNL     1     104.532 311.908 192.823  1.00  0.00    -0.000 C 
BRANCH  13  14
ATOM     14  C   UNL     1     104.257 313.020 191.797  1.00  0.00    -0.000 C 
BRANCH  14  15
ATOM     15  C   UNL     1     105.524 313.810 191.426  1.00  0.00    -0.000 C 
BRANCH  15  16
ATOM     16  C   UNL     1     105.277 314.818 190.291  1.00  0.00    -0.000 C 
BRANCH  16  17
ATOM     17  C   UNL     1     103.786 314.983 189.961  1.00  0.00    -0.000 C 
BRANCH  17  18
ATOM     18  C   UNL     1     103.525 314.733 188.468  1.00  0.00    -0.000 C 
BRANCH  18  19
ATOM     19  C   UNL     1     102.081 314.289 188.187  1.00  0.00    -0.003 C 
ATOM     20  C   UNL     1     101.189 315.437 187.716  1.00  0.00     0.004 C 
ENDBRANCH  18  19
ENDBRANCH  17  18
ENDBRANCH  16  17
ENDBRANCH  15  16
ENDBRANCH  14  15
ENDBRANCH  13  14
ENDBRANCH  12  13
ENDBRANCH   1  12
TORSDOF 16
ENDMDL
MODEL 7
REMARK VINA RESULT:    -5.872      6.696     10.296
REMARK INTER + INTRA:         -12.212
REMARK INTER:                 -10.036
REMARK INTRA:                  -2.176
REMARK UNBOUND:                -0.847
REMARK SMILES CCCCCCCCCCCCCCCCCC(=O)[O-]
REMARK SMILES IDX 10 1 11 2 12 3 13 4 14 5 15 6 16 7 17 8 18 9 19 10 20 11
REMARK SMILES IDX 9 12 8 13 7 14 6 15 5 16 4 17 3 18 2 19 1 20
REMARK H PARENT
REMARK Flexibility Score: inf
ROOT
ATOM      1  C   UNL     1     104.589 311.744 192.916  1.00  0.00     0.000 C 
ENDROOT
BRANCH   1   2
ATOM      2  C   UNL     1     104.592 312.906 191.915  1.00  0.00     0.000 C 
BRANCH   2   3
ATOM      3  C   UNL     1     105.996 313.505 191.774  1.00  0.00     0.000 C 
BRANCH   3   4
ATOM      4  C   UNL     1     106.019 314.610 190.707  1.00  0.00     0.000 C 
BRANCH   4   5
ATOM      5  C   UNL     1     104.679 314.753 189.969  1.00  0.00     0.000 C 
BRANCH   5   6
ATOM      6  C   UNL     1     104.761 315.712 188.769  1.00  0.00     0.000 C 
BRANCH   6   7
ATOM      7  C   UNL     1     103.634 315.478 187.751  1.00  0.00     0.006 C 
BRANCH   7   8
ATOM      8  C   UNL     1     102.496 314.617 188.316  1.00  0.00     0.053 C 
BRANCH   8   9
ATOM      9  C   UNL     1     101.198 315.359 188.248  1.00  0.00     0.041 C 
ATOM     10  O   UNL     1     100.345 315.064 187.370  1.00  0.00    -0.550 OA
ATOM     11  O   UNL     1     100.954 316.412 189.119  1.00  0.00    -0.550 OA
ENDBRANCH   8   9
ENDBRANCH   7   8
ENDBRANCH   6   7
ENDBRANCH   5   6
ENDBRANCH   4   5
ENDBRANCH   3   4
ENDBRANCH   2   3
ENDBRANCH   1   2
BRANCH   1  12
ATOM     12  C   UNL     1     105.951 311.607 193.608  1.00  0.00     0.000 C 
BRANCH  12  13
ATOM     13  C   UNL     1     105.801 311.697 195.134  1.00  0.00    -0.000 C 
BRANCH  13  14
ATOM     14  C   UNL     1     104.368 312.038 195.573  1.00  0.00    -0.000 C 
BRANCH  14  15
ATOM     15  C   UNL     1     104.304 313.289 196.466  1.00  0.00    -0.000 C 
BRANCH  15  16
ATOM     16  C   UNL     1     103.532 314.444 195.807  1.00  0.00    -0.000 C 
BRANCH  16  17
ATOM     17  C   UNL     1     104.399 315.252 194.829  1.00  0.00    -0.000 C 
BRANCH  17  18
ATOM     18  C   UNL     1     103.626 315.561 193.538  1.00  0.00    -0.000 C 
BRANCH  18  19
ATOM     19  C   UNL     1     103.568 317.066 193.230  1.00  0.00    -0.003 C 
ATOM     20  C   UNL     1     102.837 317.375 191.924  1.00  0.00     0.004 C 
ENDBRANCH  18  19
ENDBRANCH  17  18
ENDBRANCH  16  17
ENDBRANCH  15  16
ENDBRANCH  14  15
ENDBRANCH  13  14
ENDBRANCH  12  13
ENDBRANCH   1  12
TORSDOF 16
ENDMDL
MODEL 8
REMARK VINA RESULT:    -5.859      5.759     11.618
REMARK INTER + INTRA:         -12.187
REMARK INTER:                 -11.413
REMARK INTRA:                  -0.774
REMARK UNBOUND:                -0.847
REMARK SMILES CCCCCCCCCCCCCCCCCC(=O)[O-]
REMARK SMILES IDX 10 1 11 2 12 3 13 4 14 5 15 6 16 7 17 8 18 9 19 10 20 11
REMARK SMILES IDX 9 12 8 13 7 14 6 15 5 16 4 17 3 18 2 19 1 20
REMARK H PARENT
REMARK Flexibility Score: inf
ROOT
ATOM      1  C   UNL     1     103.815 313.171 196.130  1.00  0.00     0.000 C 
ENDROOT
BRANCH   1   2
ATOM      2  C   UNL     1     104.194 311.865 195.421  1.00  0.00     0.000 C 
BRANCH   2   3
ATOM      3  C   UNL     1     105.652 311.902 194.948  1.00  0.00     0.000 C 
BRANCH   3   4
ATOM      4  C   UNL     1     105.743 311.734 193.424  1.00  0.00     0.000 C 
BRANCH   4   5
ATOM      5  C   UNL     1     104.467 312.190 192.698  1.00  0.00     0.000 C 
BRANCH   5   6
ATOM      6  C   UNL     1     104.633 313.554 192.006  1.00  0.00     0.000 C 
BRANCH   6   7
ATOM      7  C   UNL     1     103.908 313.619 190.653  1.00  0.00     0.006 C 
BRANCH   7   8
ATOM      8  C   UNL     1     104.307 314.850 189.827  1.00  0.00     0.053 C 
BRANCH   8   9
ATOM      9  C   UNL     1     103.538 314.887 188.544  1.00  0.00     0.041 C 
ATOM     10  O   UNL     1     103.929 315.612 187.591  1.00  0.00    -0.550 OA
ATOM     11  O   UNL     1     102.360 314.162 188.419  1.00  0.00    -0.550 OA
ENDBRANCH   8   9
ENDBRANCH   7   8
ENDBRANCH   6   7
ENDBRANCH   5   6
ENDBRANCH   4   5
ENDBRANCH   3   4
ENDBRANCH   2   3
ENDBRANCH   1   2
BRANCH   1  12
ATOM     12  C   UNL     1     104.190 313.122 197.617  1.00  0.00     0.000 C 
BRANCH  12  13
ATOM     13  C   UNL     1     103.765 311.787 198.245  1.00  0.00    -0.000 C 
BRANCH  13  14
ATOM     14  C   UNL     1     103.747 311.831 199.782  1.00  0.00    -0.000 C 
BRANCH  14  15
ATOM     15  C   UNL     1     102.350 311.560 200.366  1.00  0.00    -0.000 C 
BRANCH  15  16
ATOM     16  C   UNL     1     102.326 311.649 201.901  1.00  0.00    -0.000 C 
BRANCH  16  17
ATOM     17  C   UNL     1     103.527 310.944 202.551  1.00  0.00    -0.000 C 
BRANCH  17  18
ATOM     18  C   UNL     1     103.280 310.713 204.050  1.00  0.00    -0.000 C 
BRANCH  18  19
ATOM     19  C   UNL     1     104.530 310.979 204.902  1.00  0.00    -0.003 C 
ATOM     20  C   UNL     1     105.132 312.361 204.654  1.00  0.00     0.004 C 
ENDBRANCH  18  19
ENDBRANCH  17  18
ENDBRANCH  16  17
ENDBRANCH  15  16
ENDBRANCH  14  15
ENDBRANCH  13  14
ENDBRANCH  12  13
ENDBRANCH   1  12
TORSDOF 16
ENDMDL
MODEL 9
REMARK VINA RESULT:    -5.843     19.450     20.375
REMARK INTER + INTRA:         -12.155
REMARK INTER:                 -11.178
REMARK INTRA:                  -0.977
REMARK UNBOUND:                -0.847
REMARK SMILES CCCCCCCCCCCCCCCCCC(=O)[O-]
REMARK SMILES IDX 10 1 11 2 12 3 13 4 14 5 15 6 16 7 17 8 18 9 19 10 20 11
REMARK SMILES IDX 9 12 8 13 7 14 6 15 5 16 4 17 3 18 2 19 1 20
REMARK H PARENT
REMARK Flexibility Score: inf
ROOT
ATOM      1  C   UNL     1      89.274 324.992 198.546  1.00  0.00     0.000 C 
ENDROOT
BRANCH   1   2
ATOM      2  C   UNL     1      89.248 326.392 199.172  1.00  0.00     0.000 C 
BRANCH   2   3
ATOM      3  C   UNL     1      89.355 326.312 200.700  1.00  0.00     0.000 C 
BRANCH   3   4
ATOM      4  C   UNL     1      90.693 326.886 201.189  1.00  0.00     0.000 C 
BRANCH   4   5
ATOM      5  C   UNL     1      90.750 327.040 202.718  1.00  0.00     0.000 C 
BRANCH   5   6
ATOM      6  C   UNL     1      89.358 327.212 203.350  1.00  0.00     0.000 C 
BRANCH   6   7
ATOM      7  C   UNL     1      89.430 327.555 204.846  1.00  0.00     0.006 C 
BRANCH   7   8
ATOM      8  C   UNL     1      88.685 326.538 205.722  1.00  0.00     0.053 C 
BRANCH   8   9
ATOM      9  C   UNL     1      89.549 325.346 205.986  1.00  0.00     0.041 C 
ATOM     10  O   UNL     1      89.031 324.208 206.136  1.00  0.00    -0.550 OA
ATOM     11  O   UNL     1      90.923 325.500 206.119  1.00  0.00    -0.550 OA
ENDBRANCH   8   9
ENDBRANCH   7   8
ENDBRANCH   6   7
ENDBRANCH   5   6
ENDBRANCH   4   5
ENDBRANCH   3   4
ENDBRANCH   2   3
ENDBRANCH   1   2
BRANCH   1  12
ATOM     12  C   UNL     1      88.745 325.019 197.107  1.00  0.00     0.000 C 
BRANCH  12  13
ATOM     13  C   UNL     1      88.313 326.438 196.710  1.00  0.00    -0.000 C 
BRANCH  13  14
ATOM     14  C   UNL     1      87.055 326.453 195.825  1.00  0.00    -0.000 C 
BRANCH  14  15
ATOM     15  C   UNL     1      87.358 326.859 194.373  1.00  0.00    -0.000 C 
BRANCH  15  16
ATOM     16  C   UNL     1      87.008 325.750 193.367  1.00  0.00    -0.000 C 
BRANCH  16  17
ATOM     17  C   UNL     1      87.560 324.378 193.784  1.00  0.00    -0.000 C 
BRANCH  17  18
ATOM     18  C   UNL     1      88.293 323.704 192.615  1.00  0.00    -0.000 C 
BRANCH  18  19
ATOM     19  C   UNL     1      88.389 324.610 191.377  1.00  0.00    -0.003 C 
ATOM     20  C   UNL     1      88.706 323.834 190.099  1.00  0.00     0.004 C 
ENDBRANCH  18  19
ENDBRANCH  17  18
ENDBRANCH  16  17
ENDBRANCH  15  16
ENDBRANCH  14  15
ENDBRANCH  13  14
ENDBRANCH  12  13
ENDBRANCH   1  12
TORSDOF 16
ENDMDL
