MODEL 1
REMARK VINA RESULT:    -3.014      0.000      0.000
REMARK INTER + INTRA:         -10.107
REMARK INTER:                  -6.537
REMARK INTRA:                  -3.569
REMARK UNBOUND:                -3.569
REMARK SMILES CCCCCCCCCCCCCCCCCCCCCC(=O)[O-]
REMARK SMILES IDX 12 1 11 2 10 3 9 4 8 5 7 6 6 7 5 8 4 9 3 10 2 11 1 12 13 13
REMARK SMILES IDX 14 14 15 15 16 16 17 17 18 18 19 19 20 20 21 21 22 22 23 23
REMARK SMILES IDX 24 24
REMARK H PARENT
REMARK Flexibility Score: inf
ROOT
ATOM      1  C   UNL     1      50.641  45.411  17.901  1.00  0.00     0.000 C 
ENDROOT
BRANCH   1   2
ATOM      2  C   UNL     1      50.027  44.394  16.920  1.00  0.00     0.000 C 
BRANCH   2   3
ATOM      3  C   UNL     1      50.451  44.558  15.448  1.00  0.00     0.000 C 
BRANCH   3   4
ATOM      4  C   UNL     1      49.259  44.555  14.477  1.00  0.00    -0.000 C 
BRANCH   4   5
ATOM      5  C   UNL     1      47.918  44.852  15.174  1.00  0.00    -0.000 C 
BRANCH   5   6
ATOM      6  C   UNL     1      46.728  43.991  14.702  1.00  0.00    -0.000 C 
BRANCH   6   7
ATOM      7  C   UNL     1      47.108  42.656  14.030  1.00  0.00    -0.000 C 
BRANCH   7   8
ATOM      8  C   UNL     1      46.523  41.402  14.702  1.00  0.00    -0.000 C 
BRANCH   8   9
ATOM      9  C   UNL     1      45.242  41.694  15.497  1.00  0.00    -0.000 C 
BRANCH   9  10
ATOM     10  C   UNL     1      45.414  41.318  16.974  1.00  0.00    -0.000 C 
BRANCH  10  11
ATOM     11  C   UNL     1      45.397  42.565  17.865  1.00  0.00    -0.003 C 
ATOM     12  C   UNL     1      46.809  42.963  18.284  1.00  0.00     0.004 C 
ENDBRANCH  10  11
ENDBRANCH   9  10
ENDBRANCH   8   9
ENDBRANCH   7   8
ENDBRANCH   6   7
ENDBRANCH   5   6
ENDBRANCH   4   5
ENDBRANCH   3   4
ENDBRANCH   2   3
ENDBRANCH   1   2
BRANCH   1  13
ATOM     13  C   UNL     1      50.017  46.811  17.783  1.00  0.00     0.000 C 
BRANCH  13  14
ATOM     14  C   UNL     1      51.003  47.854  17.230  1.00  0.00     0.000 C 
BRANCH  14  15
ATOM     15  C   UNL     1      50.337  48.854  16.272  1.00  0.00     0.000 C 
BRANCH  15  16
ATOM     16  C   UNL     1      49.065  48.253  15.655  1.00  0.00     0.000 C 
BRANCH  16  17
ATOM     17  C   UNL     1      49.083  48.272  14.117  1.00  0.00     0.000 C 
BRANCH  17  18
ATOM     18  C   UNL     1      50.447  48.619  13.490  1.00  0.00     0.000 C 
BRANCH  18  19
ATOM     19  C   UNL     1      51.299  47.382  13.133  1.00  0.00     0.000 C 
BRANCH  19  20
ATOM     20  C   UNL     1      52.805  47.696  13.121  1.00  0.00     0.006 C 
BRANCH  20  21
ATOM     21  C   UNL     1      53.469  47.406  14.473  1.00  0.00     0.053 C 
BRANCH  21  22
ATOM     22  C   UNL     1      54.029  48.649  15.093  1.00  0.00     0.041 C 
ATOM     23  O   UNL     1      53.491  49.766  14.869  1.00  0.00    -0.550 OA
ATOM     24  O   UNL     1      55.126  48.571  15.942  1.00  0.00    -0.550 OA
ENDBRANCH  21  22
ENDBRANCH  20  21
ENDBRANCH  19  20
ENDBRANCH  18  19
ENDBRANCH  17  18
ENDBRANCH  16  17
ENDBRANCH  15  16
ENDBRANCH  14  15
ENDBRANCH  13  14
ENDBRANCH   1  13
TORSDOF 20
ENDMDL
MODEL 2
REMARK VINA RESULT:    -2.962      3.494      7.497
REMARK INTER + INTRA:          -9.994
REMARK INTER:                  -6.751
REMARK INTRA:                  -3.243
REMARK UNBOUND:                -3.569
REMARK SMILES CCCCCCCCCCCCCCCCCCCCCC(=O)[O-]
REMARK SMILES IDX 12 1 11 2 10 3 9 4 8 5 7 6 6 7 5 8 4 9 3 10 2 11 1 12 13 13
REMARK SMILES IDX 14 14 15 15 16 16 17 17 18 18 19 19 20 20 21 21 22 22 23 23
REMARK SMILES IDX 24 24
REMARK H PARENT
REMARK Flexibility Score: inf
ROOT
ATOM      1  C   UNL     1      52.153  47.860  12.621  1.00  0.00     0.000 C 
ENDROOT
BRANCH   1   2
ATOM      2  C   UNL     1      53.267  47.847  13.685  1.00  0.00     0.000 C 
BRANCH   2   3
ATOM      3  C   UNL     1      52.966  48.649  14.966  1.00  0.00     0.000 C 
BRANCH   3   4
ATOM      4  C   UNL     1      54.236  49.053  15.732  1.00  0.00    -0.000 C 
BRANCH   4   5
ATOM      5  C   UNL     1      55.530  48.660  14.998  1.00  0.00    -0.000 C 
BRANCH   5   6
ATOM      6  C   UNL     1      56.631  48.047  15.889  1.00  0.00    -0.000 C 
BRANCH   6   7
ATOM      7  C   UNL     1      57.173  46.683  15.419  1.00  0.00    -0.000 C 
BRANCH   7   8
ATOM      8  C   UNL     1      56.129  45.762  14.762  1.00  0.00    -0.000 C 
BRANCH   8   9
ATOM      9  C   UNL     1      56.052  44.379  15.425  1.00  0.00    -0.000 C 
BRANCH   9  10
ATOM     10  C   UNL     1      55.119  44.404  16.641  1.00  0.00    -0.000 C 
BRANCH  10  11
ATOM     11  C   UNL     1      53.861  45.231  16.352  1.00  0.00    -0.003 C 
ATOM     12  C   UNL     1      52.665  44.711  17.143  1.00  0.00     0.004 C 
ENDBRANCH  10  11
ENDBRANCH   9  10
ENDBRANCH   8   9
ENDBRANCH   7   8
ENDBRANCH   6   7
ENDBRANCH   5   6
ENDBRANCH   4   5
ENDBRANCH   3   4
ENDBRANCH   2   3
ENDBRANCH   1   2
BRANCH   1  13
ATOM     13  C   UNL     1      51.770  49.279  12.171  1.00  0.00     0.000 C 
BRANCH  13  14
ATOM     14  C   UNL     1      50.248  49.499  12.140  1.00  0.00     0.000 C 
BRANCH  14  15
ATOM     15  C   UNL     1      49.646  49.696  13.540  1.00  0.00     0.000 C 
BRANCH  15  16
ATOM     16  C   UNL     1      48.954  48.412  14.021  1.00  0.00     0.000 C 
BRANCH  16  17
ATOM     17  C   UNL     1      49.297  48.060  15.479  1.00  0.00     0.000 C 
BRANCH  17  18
ATOM     18  C   UNL     1      49.989  46.696  15.669  1.00  0.00     0.000 C 
BRANCH  18  19
ATOM     19  C   UNL     1      49.786  45.726  14.485  1.00  0.00     0.000 C 
BRANCH  19  20
ATOM     20  C   UNL     1      49.634  44.267  14.948  1.00  0.00     0.006 C 
BRANCH  20  21
ATOM     21  C   UNL     1      48.263  43.999  15.581  1.00  0.00     0.053 C 
BRANCH  21  22
ATOM     22  C   UNL     1      47.693  42.687  15.137  1.00  0.00     0.041 C 
ATOM     23  O   UNL     1      47.616  41.724  15.946  1.00  0.00    -0.550 OA
ATOM     24  O   UNL     1      47.219  42.536  13.840  1.00  0.00    -0.550 OA
ENDBRANCH  21  22
ENDBRANCH  20  21
ENDBRANCH  19  20
ENDBRANCH  18  19
ENDBRANCH  17  18
ENDBRANCH  16  17
ENDBRANCH  15  16
ENDBRANCH  14  15
ENDBRANCH  13  14
ENDBRANCH   1  13
TORSDOF 20
ENDMDL
MODEL 3
REMARK VINA RESULT:    -2.947      3.162      5.998
REMARK INTER + INTRA:          -9.963
REMARK INTER:                  -6.223
REMARK INTRA:                  -3.740
REMARK UNBOUND:                -3.569
REMARK SMILES CCCCCCCCCCCCCCCCCCCCCC(=O)[O-]
REMARK SMILES IDX 12 1 11 2 10 3 9 4 8 5 7 6 6 7 5 8 4 9 3 10 2 11 1 12 13 13
REMARK SMILES IDX 14 14 15 15 16 16 17 17 18 18 19 19 20 20 21 21 22 22 23 23
REMARK SMILES IDX 24 24
REMARK H PARENT
REMARK Flexibility Score: inf
ROOT
ATOM      1  C   UNL     1      52.331  44.821  16.984  1.00  0.00     0.000 C 
ENDROOT
BRANCH   1   2
ATOM      2  C   UNL     1      50.800  44.799  16.810  1.00  0.00     0.000 C 
BRANCH   2   3
ATOM      3  C   UNL     1      50.287  44.049  15.567  1.00  0.00     0.000 C 
BRANCH   3   4
ATOM      4  C   UNL     1      49.682  44.986  14.508  1.00  0.00    -0.000 C 
BRANCH   4   5
ATOM      5  C   UNL     1      48.389  45.672  14.985  1.00  0.00    -0.000 C 
BRANCH   5   6
ATOM      6  C   UNL     1      48.514  47.183  15.271  1.00  0.00    -0.000 C 
BRANCH   6   7
ATOM      7  C   UNL     1      49.819  47.839  14.777  1.00  0.00    -0.000 C 
BRANCH   7   8
ATOM      8  C   UNL     1      49.674  48.692  13.505  1.00  0.00    -0.000 C 
BRANCH   8   9
ATOM      9  C   UNL     1      50.963  48.745  12.671  1.00  0.00    -0.000 C 
BRANCH   9  10
ATOM     10  C   UNL     1      51.839  47.516  12.938  1.00  0.00    -0.000 C 
BRANCH  10  11
ATOM     11  C   UNL     1      53.325  47.894  12.956  1.00  0.00    -0.003 C 
ATOM     12  C   UNL     1      53.521  49.340  13.401  1.00  0.00     0.004 C 
ENDBRANCH  10  11
ENDBRANCH   9  10
ENDBRANCH   8   9
ENDBRANCH   7   8
ENDBRANCH   6   7
ENDBRANCH   5   6
ENDBRANCH   4   5
ENDBRANCH   3   4
ENDBRANCH   2   3
ENDBRANCH   1   2
BRANCH   1  13
ATOM     13  C   UNL     1      53.027  45.816  16.042  1.00  0.00     0.000 C 
BRANCH  13  14
ATOM     14  C   UNL     1      53.203  47.207  16.675  1.00  0.00     0.000 C 
BRANCH  14  15
ATOM     15  C   UNL     1      54.457  47.305  17.557  1.00  0.00     0.000 C 
BRANCH  15  16
ATOM     16  C   UNL     1      54.985  48.747  17.595  1.00  0.00     0.000 C 
BRANCH  16  17
ATOM     17  C   UNL     1      55.683  49.161  16.289  1.00  0.00     0.000 C 
BRANCH  17  18
ATOM     18  C   UNL     1      56.874  48.271  15.881  1.00  0.00     0.000 C 
BRANCH  18  19
ATOM     19  C   UNL     1      56.789  47.747  14.431  1.00  0.00     0.000 C 
BRANCH  19  20
ATOM     20  C   UNL     1      56.327  46.281  14.368  1.00  0.00     0.006 C 
BRANCH  20  21
ATOM     21  C   UNL     1      57.090  45.390  15.357  1.00  0.00     0.053 C 
BRANCH  21  22
ATOM     22  C   UNL     1      56.246  44.252  15.842  1.00  0.00     0.041 C 
ATOM     23  O   UNL     1      55.559  43.581  15.027  1.00  0.00    -0.550 OA
ATOM     24  O   UNL     1      56.241  43.912  17.189  1.00  0.00    -0.550 OA
ENDBRANCH  21  22
ENDBRANCH  20  21
ENDBRANCH  19  20
ENDBRANCH  18  19
ENDBRANCH  17  18
ENDBRANCH  16  17
ENDBRANCH  15  16
ENDBRANCH  14  15
ENDBRANCH  13  14
ENDBRANCH   1  13
TORSDOF 20
ENDMDL
MODEL 4
REMARK VINA RESULT:    -2.928      1.698      3.827
REMARK INTER + INTRA:          -9.921
REMARK INTER:                  -6.590
REMARK INTRA:                  -3.331
REMARK UNBOUND:                -3.569
REMARK SMILES CCCCCCCCCCCCCCCCCCCCCC(=O)[O-]
REMARK SMILES IDX 12 1 11 2 10 3 9 4 8 5 7 6 6 7 5 8 4 9 3 10 2 11 1 12 13 13
REMARK SMILES IDX 14 14 15 15 16 16 17 17 18 18 19 19 20 20 21 21 22 22 23 23
REMARK SMILES IDX 24 24
REMARK H PARENT
REMARK Flexibility Score: inf
ROOT
ATOM      1  C   UNL     1      47.213  45.645  17.860  1.00  0.00     0.000 C 
ENDROOT
BRANCH   1   2
ATOM      2  C   UNL     1      45.995  46.366  17.251  1.00  0.00     0.000 C 
BRANCH   2   3
ATOM      3  C   UNL     1      45.238  45.581  16.163  1.00  0.00     0.000 C 
BRANCH   3   4
ATOM      4  C   UNL     1      45.762  44.146  15.985  1.00  0.00    -0.000 C 
BRANCH   4   5
ATOM      5  C   UNL     1      46.365  43.897  14.591  1.00  0.00    -0.000 C 
BRANCH   5   6
ATOM      6  C   UNL     1      47.682  43.092  14.580  1.00  0.00    -0.000 C 
BRANCH   6   7
ATOM      7  C   UNL     1      48.951  43.906  14.900  1.00  0.00    -0.000 C 
BRANCH   7   8
ATOM      8  C   UNL     1      49.827  43.326  16.025  1.00  0.00    -0.000 C 
BRANCH   8   9
ATOM      9  C   UNL     1      51.021  44.225  16.377  1.00  0.00    -0.000 C 
BRANCH   9  10
ATOM     10  C   UNL     1      51.260  45.273  15.284  1.00  0.00    -0.000 C 
BRANCH  10  11
ATOM     11  C   UNL     1      52.397  46.225  15.674  1.00  0.00    -0.003 C 
ATOM     12  C   UNL     1      52.119  46.894  17.017  1.00  0.00     0.004 C 
ENDBRANCH  10  11
ENDBRANCH   9  10
ENDBRANCH   8   9
ENDBRANCH   7   8
ENDBRANCH   6   7
ENDBRANCH   5   6
ENDBRANCH   4   5
ENDBRANCH   3   4
ENDBRANCH   2   3
ENDBRANCH   1   2
BRANCH   1  13
ATOM     13  C   UNL     1      48.530  46.408  17.648  1.00  0.00     0.000 C 
BRANCH  13  14
ATOM     14  C   UNL     1      48.336  47.717  16.864  1.00  0.00     0.000 C 
BRANCH  14  15
ATOM     15  C   UNL     1      48.824  47.619  15.410  1.00  0.00     0.000 C 
BRANCH  15  16
ATOM     16  C   UNL     1      49.437  48.950  14.949  1.00  0.00     0.000 C 
BRANCH  16  17
ATOM     17  C   UNL     1      49.242  49.207  13.446  1.00  0.00     0.000 C 
BRANCH  17  18
ATOM     18  C   UNL     1      50.418  49.925  12.754  1.00  0.00     0.000 C 
BRANCH  18  19
ATOM     19  C   UNL     1      51.250  49.007  11.832  1.00  0.00     0.000 C 
BRANCH  19  20
ATOM     20  C   UNL     1      52.374  48.282  12.592  1.00  0.00     0.006 C 
BRANCH  20  21
ATOM     21  C   UNL     1      53.273  49.256  13.364  1.00  0.00     0.053 C 
BRANCH  21  22
ATOM     22  C   UNL     1      54.552  48.607  13.795  1.00  0.00     0.041 C 
ATOM     23  O   UNL     1      55.307  49.183  14.623  1.00  0.00    -0.550 OA
ATOM     24  O   UNL     1      54.895  47.352  13.308  1.00  0.00    -0.550 OA
ENDBRANCH  21  22
ENDBRANCH  20  21
ENDBRANCH  19  20
ENDBRANCH  18  19
ENDBRANCH  17  18
ENDBRANCH  16  17
ENDBRANCH  15  16
ENDBRANCH  14  15
ENDBRANCH  13  14
ENDBRANCH   1  13
TORSDOF 20
ENDMDL
MODEL 5
REMARK VINA RESULT:    -2.902      3.407      7.813
REMARK INTER + INTRA:          -9.865
REMARK INTER:                  -6.541
REMARK INTRA:                  -3.324
REMARK UNBOUND:                -3.569
REMARK SMILES CCCCCCCCCCCCCCCCCCCCCC(=O)[O-]
REMARK SMILES IDX 12 1 11 2 10 3 9 4 8 5 7 6 6 7 5 8 4 9 3 10 2 11 1 12 13 13
REMARK SMILES IDX 14 14 15 15 16 16 17 17 18 18 19 19 20 20 21 21 22 22 23 23
REMARK SMILES IDX 24 24
REMARK H PARENT
REMARK Flexibility Score: inf
ROOT
ATOM      1  C   UNL     1      49.177  48.511  15.829  1.00  0.00     0.000 C 
ENDROOT
BRANCH   1   2
ATOM      2  C   UNL     1      50.502  49.203  16.202  1.00  0.00     0.000 C 
BRANCH   2   3
ATOM      3  C   UNL     1      51.440  48.387  17.111  1.00  0.00     0.000 C 
BRANCH   3   4
ATOM      4  C   UNL     1      52.891  48.355  16.600  1.00  0.00    -0.000 C 
BRANCH   4   5
ATOM      5  C   UNL     1      53.205  49.497  15.617  1.00  0.00    -0.000 C 
BRANCH   5   6
ATOM      6  C   UNL     1      54.611  49.449  14.982  1.00  0.00    -0.000 C 
BRANCH   6   7
ATOM      7  C   UNL     1      54.686  48.763  13.603  1.00  0.00    -0.000 C 
BRANCH   7   8
ATOM      8  C   UNL     1      54.963  47.250  13.646  1.00  0.00    -0.000 C 
BRANCH   8   9
ATOM      9  C   UNL     1      56.463  46.918  13.649  1.00  0.00    -0.000 C 
BRANCH   9  10
ATOM     10  C   UNL     1      56.828  46.043  14.853  1.00  0.00    -0.000 C 
BRANCH  10  11
ATOM     11  C   UNL     1      55.573  45.610  15.620  1.00  0.00    -0.003 C 
ATOM     12  C   UNL     1      55.437  44.091  15.641  1.00  0.00     0.004 C 
ENDBRANCH  10  11
ENDBRANCH   9  10
ENDBRANCH   8   9
ENDBRANCH   7   8
ENDBRANCH   6   7
ENDBRANCH   5   6
ENDBRANCH   4   5
ENDBRANCH   3   4
ENDBRANCH   2   3
ENDBRANCH   1   2
BRANCH   1  13
ATOM     13  C   UNL     1      49.084  48.160  14.334  1.00  0.00     0.000 C 
BRANCH  13  14
ATOM     14  C   UNL     1      50.408  48.397  13.587  1.00  0.00     0.000 C 
BRANCH  14  15
ATOM     15  C   UNL     1      51.235  47.113  13.421  1.00  0.00     0.000 C 
BRANCH  15  16
ATOM     16  C   UNL     1      50.487  45.903  14.001  1.00  0.00     0.000 C 
BRANCH  16  17
ATOM     17  C   UNL     1      51.215  45.270  15.199  1.00  0.00     0.000 C 
BRANCH  17  18
ATOM     18  C   UNL     1      50.346  44.335  16.064  1.00  0.00     0.000 C 
BRANCH  18  19
ATOM     19  C   UNL     1      49.195  45.059  16.796  1.00  0.00     0.000 C 
BRANCH  19  20
ATOM     20  C   UNL     1      47.833  44.391  16.543  1.00  0.00     0.006 C 
BRANCH  20  21
ATOM     21  C   UNL     1      47.371  44.549  15.089  1.00  0.00     0.053 C 
BRANCH  21  22
ATOM     22  C   UNL     1      46.394  43.483  14.698  1.00  0.00     0.041 C 
ATOM     23  O   UNL     1      46.758  42.532  13.956  1.00  0.00    -0.550 OA
ATOM     24  O   UNL     1      45.091  43.521  15.179  1.00  0.00    -0.550 OA
ENDBRANCH  21  22
ENDBRANCH  20  21
ENDBRANCH  19  20
ENDBRANCH  18  19
ENDBRANCH  17  18
ENDBRANCH  16  17
ENDBRANCH  15  16
ENDBRANCH  14  15
ENDBRANCH  13  14
ENDBRANCH   1  13
TORSDOF 20
ENDMDL
MODEL 6
REMARK VINA RESULT:    -2.899      9.393     13.287
REMARK INTER + INTRA:          -9.857
REMARK INTER:                  -6.274
REMARK INTRA:                  -3.583
REMARK UNBOUND:                -3.569
REMARK SMILES CCCCCCCCCCCCCCCCCCCCCC(=O)[O-]
REMARK SMILES IDX 12 1 11 2 10 3 9 4 8 5 7 6 6 7 5 8 4 9 3 10 2 11 1 12 13 13
REMARK SMILES IDX 14 14 15 15 16 16 17 17 18 18 19 19 20 20 21 21 22 22 23 23
REMARK SMILES IDX 24 24
REMARK H PARENT
REMARK Flexibility Score: inf
ROOT
ATOM      1  C   UNL     1      63.601  41.124  17.318  1.00  0.00     0.000 C 
ENDROOT
BRANCH   1   2
ATOM      2  C   UNL     1      64.407  40.813  16.042  1.00  0.00     0.000 C 
BRANCH   2   3
ATOM      3  C   UNL     1      65.045  42.032  15.350  1.00  0.00     0.000 C 
BRANCH   3   4
ATOM      4  C   UNL     1      64.007  43.062  14.873  1.00  0.00    -0.000 C 
BRANCH   4   5
ATOM      5  C   UNL     1      64.328  44.494  15.336  1.00  0.00    -0.000 C 
BRANCH   5   6
ATOM      6  C   UNL     1      63.576  44.960  16.601  1.00  0.00    -0.000 C 
BRANCH   6   7
ATOM      7  C   UNL     1      62.112  44.486  16.707  1.00  0.00    -0.000 C 
BRANCH   7   8
ATOM      8  C   UNL     1      61.107  45.574  17.123  1.00  0.00    -0.000 C 
BRANCH   8   9
ATOM      9  C   UNL     1      61.632  46.470  18.255  1.00  0.00    -0.000 C 
BRANCH   9  10
ATOM     10  C   UNL     1      60.731  47.696  18.447  1.00  0.00    -0.000 C 
BRANCH  10  11
ATOM     11  C   UNL     1      59.250  47.307  18.371  1.00  0.00    -0.003 C 
ATOM     12  C   UNL     1      58.751  46.770  19.709  1.00  0.00     0.004 C 
ENDBRANCH  10  11
ENDBRANCH   9  10
ENDBRANCH   8   9
ENDBRANCH   7   8
ENDBRANCH   6   7
ENDBRANCH   5   6
ENDBRANCH   4   5
ENDBRANCH   3   4
ENDBRANCH   2   3
ENDBRANCH   1   2
BRANCH   1  13
ATOM     13  C   UNL     1      64.452  41.778  18.420  1.00  0.00     0.000 C 
BRANCH  13  14
ATOM     14  C   UNL     1      63.599  42.345  19.567  1.00  0.00     0.000 C 
BRANCH  14  15
ATOM     15  C   UNL     1      62.096  42.098  19.370  1.00  0.00     0.000 C 
BRANCH  15  16
ATOM     16  C   UNL     1      61.267  43.174  20.088  1.00  0.00     0.000 C 
BRANCH  16  17
ATOM     17  C   UNL     1      59.809  43.226  19.603  1.00  0.00     0.000 C 
BRANCH  17  18
ATOM     18  C   UNL     1      59.322  41.956  18.878  1.00  0.00     0.000 C 
BRANCH  18  19
ATOM     19  C   UNL     1      58.217  42.222  17.834  1.00  0.00     0.000 C 
BRANCH  19  20
ATOM     20  C   UNL     1      57.941  43.724  17.648  1.00  0.00     0.006 C 
BRANCH  20  21
ATOM     21  C   UNL     1      57.869  44.122  16.168  1.00  0.00     0.053 C 
BRANCH  21  22
ATOM     22  C   UNL     1      56.459  44.376  15.731  1.00  0.00     0.041 C 
ATOM     23  O   UNL     1      55.520  43.664  16.176  1.00  0.00    -0.550 OA
ATOM     24  O   UNL     1      56.177  45.419  14.857  1.00  0.00    -0.550 OA
ENDBRANCH  21  22
ENDBRANCH  20  21
ENDBRANCH  19  20
ENDBRANCH  18  19
ENDBRANCH  17  18
ENDBRANCH  16  17
ENDBRANCH  15  16
ENDBRANCH  14  15
ENDBRANCH  13  14
ENDBRANCH   1  13
TORSDOF 20
ENDMDL
MODEL 7
REMARK VINA RESULT:    -2.881      4.292      7.179
REMARK INTER + INTRA:          -9.818
REMARK INTER:                  -5.449
REMARK INTRA:                  -4.369
REMARK UNBOUND:                -3.569
REMARK SMILES CCCCCCCCCCCCCCCCCCCCCC(=O)[O-]
REMARK SMILES IDX 12 1 11 2 10 3 9 4 8 5 7 6 6 7 5 8 4 9 3 10 2 11 1 12 13 13
REMARK SMILES IDX 14 14 15 15 16 16 17 17 18 18 19 19 20 20 21 21 22 22 23 23
REMARK SMILES IDX 24 24
REMARK H PARENT
REMARK Flexibility Score: inf
ROOT
ATOM      1  C   UNL     1      49.306  43.322  16.709  1.00  0.00     0.000 C 
ENDROOT
BRANCH   1   2
ATOM      2  C   UNL     1      50.733  43.496  16.157  1.00  0.00     0.000 C 
BRANCH   2   3
ATOM      3  C   UNL     1      51.036  44.870  15.530  1.00  0.00     0.000 C 
BRANCH   3   4
ATOM      4  C   UNL     1      50.047  45.252  14.416  1.00  0.00    -0.000 C 
BRANCH   4   5
ATOM      5  C   UNL     1      49.468  46.668  14.589  1.00  0.00    -0.000 C 
BRANCH   5   6
ATOM      6  C   UNL     1      48.283  46.778  15.572  1.00  0.00    -0.000 C 
BRANCH   6   7
ATOM      7  C   UNL     1      48.586  47.529  16.884  1.00  0.00    -0.000 C 
BRANCH   7   8
ATOM      8  C   UNL     1      48.522  46.664  18.155  1.00  0.00    -0.000 C 
BRANCH   8   9
ATOM      9  C   UNL     1      49.910  46.342  18.729  1.00  0.00    -0.000 C 
BRANCH   9  10
ATOM     10  C   UNL     1      49.808  45.331  19.877  1.00  0.00    -0.000 C 
BRANCH  10  11
ATOM     11  C   UNL     1      51.169  44.686  20.164  1.00  0.00    -0.003 C 
ATOM     12  C   UNL     1      52.222  45.151  19.163  1.00  0.00     0.004 C 
ENDBRANCH  10  11
ENDBRANCH   9  10
ENDBRANCH   8   9
ENDBRANCH   7   8
ENDBRANCH   6   7
ENDBRANCH   5   6
ENDBRANCH   4   5
ENDBRANCH   3   4
ENDBRANCH   2   3
ENDBRANCH   1   2
BRANCH   1  13
ATOM     13  C   UNL     1      49.123  42.015  17.498  1.00  0.00     0.000 C 
BRANCH  13  14
ATOM     14  C   UNL     1      47.734  41.905  18.149  1.00  0.00     0.000 C 
BRANCH  14  15
ATOM     15  C   UNL     1      47.164  43.269  18.569  1.00  0.00     0.000 C 
BRANCH  15  16
ATOM     16  C   UNL     1      45.761  43.479  17.979  1.00  0.00     0.000 C 
BRANCH  16  17
ATOM     17  C   UNL     1      45.734  44.544  16.870  1.00  0.00     0.000 C 
BRANCH  17  18
ATOM     18  C   UNL     1      45.284  44.029  15.489  1.00  0.00     0.000 C 
BRANCH  18  19
ATOM     19  C   UNL     1      46.448  43.545  14.597  1.00  0.00     0.000 C 
BRANCH  19  20
ATOM     20  C   UNL     1      46.544  42.010  14.548  1.00  0.00     0.006 C 
BRANCH  20  21
ATOM     21  C   UNL     1      45.277  41.332  15.084  1.00  0.00     0.053 C 
BRANCH  21  22
ATOM     22  C   UNL     1      45.541  39.921  15.509  1.00  0.00     0.041 C 
ATOM     23  O   UNL     1      45.819  39.042  14.650  1.00  0.00    -0.550 OA
ATOM     24  O   UNL     1      45.511  39.581  16.856  1.00  0.00    -0.550 OA
ENDBRANCH  21  22
ENDBRANCH  20  21
ENDBRANCH  19  20
ENDBRANCH  18  19
ENDBRANCH  17  18
ENDBRANCH  16  17
ENDBRANCH  15  16
ENDBRANCH  14  15
ENDBRANCH  13  14
ENDBRANCH   1  13
TORSDOF 20
ENDMDL
MODEL 8
REMARK VINA RESULT:    -2.872      2.371      6.785
REMARK INTER + INTRA:          -9.799
REMARK INTER:                  -5.998
REMARK INTRA:                  -3.802
REMARK UNBOUND:                -3.569
REMARK SMILES CCCCCCCCCCCCCCCCCCCCCC(=O)[O-]
REMARK SMILES IDX 12 1 11 2 10 3 9 4 8 5 7 6 6 7 5 8 4 9 3 10 2 11 1 12 13 13
REMARK SMILES IDX 14 14 15 15 16 16 17 17 18 18 19 19 20 20 21 21 22 22 23 23
REMARK SMILES IDX 24 24
REMARK H PARENT
REMARK Flexibility Score: inf
ROOT
ATOM      1  C   UNL     1      45.054  43.780  15.255  1.00  0.00     0.000 C 
ENDROOT
BRANCH   1   2
ATOM      2  C   UNL     1      45.088  45.035  16.149  1.00  0.00     0.000 C 
BRANCH   2   3
ATOM      3  C   UNL     1      44.930  44.774  17.659  1.00  0.00     0.000 C 
BRANCH   3   4
ATOM      4  C   UNL     1      45.512  45.903  18.526  1.00  0.00    -0.000 C 
BRANCH   4   5
ATOM      5  C   UNL     1      46.119  47.046  17.692  1.00  0.00    -0.000 C 
BRANCH   5   6
ATOM      6  C   UNL     1      47.630  47.281  17.901  1.00  0.00    -0.000 C 
BRANCH   6   7
ATOM      7  C   UNL     1      48.557  46.402  17.036  1.00  0.00    -0.000 C 
BRANCH   7   8
ATOM      8  C   UNL     1      48.486  46.678  15.524  1.00  0.00    -0.000 C 
BRANCH   8   9
ATOM      9  C   UNL     1      49.288  45.665  14.694  1.00  0.00    -0.000 C 
BRANCH   9  10
ATOM     10  C   UNL     1      50.534  46.319  14.085  1.00  0.00    -0.000 C 
BRANCH  10  11
ATOM     11  C   UNL     1      50.523  47.836  14.307  1.00  0.00    -0.003 C 
ATOM     12  C   UNL     1      50.530  48.587  12.979  1.00  0.00     0.004 C 
ENDBRANCH  10  11
ENDBRANCH   9  10
ENDBRANCH   8   9
ENDBRANCH   7   8
ENDBRANCH   6   7
ENDBRANCH   5   6
ENDBRANCH   4   5
ENDBRANCH   3   4
ENDBRANCH   2   3
ENDBRANCH   1   2
BRANCH   1  13
ATOM     13  C   UNL     1      46.383  43.531  14.522  1.00  0.00     0.000 C 
BRANCH  13  14
ATOM     14  C   UNL     1      46.694  42.035  14.353  1.00  0.00     0.000 C 
BRANCH  14  15
ATOM     15  C   UNL     1      45.712  41.133  15.116  1.00  0.00     0.000 C 
BRANCH  15  16
ATOM     16  C   UNL     1      46.412  40.437  16.293  1.00  0.00     0.000 C 
BRANCH  16  17
ATOM     17  C   UNL     1      46.149  41.132  17.639  1.00  0.00     0.000 C 
BRANCH  17  18
ATOM     18  C   UNL     1      47.408  41.674  18.344  1.00  0.00     0.000 C 
BRANCH  18  19
ATOM     19  C   UNL     1      47.962  42.971  17.716  1.00  0.00     0.000 C 
BRANCH  19  20
ATOM     20  C   UNL     1      49.297  42.741  16.987  1.00  0.00     0.006 C 
BRANCH  20  21
ATOM     21  C   UNL     1      50.505  42.990  17.897  1.00  0.00     0.053 C 
BRANCH  21  22
ATOM     22  C   UNL     1      51.471  43.957  17.285  1.00  0.00     0.041 C 
ATOM     23  O   UNL     1      51.847  44.971  17.931  1.00  0.00    -0.550 OA
ATOM     24  O   UNL     1      51.980  43.724  16.014  1.00  0.00    -0.550 OA
ENDBRANCH  21  22
ENDBRANCH  20  21
ENDBRANCH  19  20
ENDBRANCH  18  19
ENDBRANCH  17  18
ENDBRANCH  16  17
ENDBRANCH  15  16
ENDBRANCH  14  15
ENDBRANCH  13  14
ENDBRANCH   1  13
TORSDOF 20
ENDMDL
MODEL 9
REMARK VINA RESULT:    -2.853      2.021      3.663
REMARK INTER + INTRA:          -9.758
REMARK INTER:                  -5.810
REMARK INTRA:                  -3.948
REMARK UNBOUND:                -3.569
REMARK SMILES CCCCCCCCCCCCCCCCCCCCCC(=O)[O-]
REMARK SMILES IDX 12 1 11 2 10 3 9 4 8 5 7 6 6 7 5 8 4 9 3 10 2 11 1 12 13 13
REMARK SMILES IDX 14 14 15 15 16 16 17 17 18 18 19 19 20 20 21 21 22 22 23 23
REMARK SMILES IDX 24 24
REMARK H PARENT
REMARK Flexibility Score: inf
ROOT
ATOM      1  C   UNL     1      51.131  46.754  13.670  1.00  0.00     0.000 C 
ENDROOT
BRANCH   1   2
ATOM      2  C   UNL     1      50.228  45.649  14.250  1.00  0.00     0.000 C 
BRANCH   2   3
ATOM      3  C   UNL     1      50.826  44.858  15.428  1.00  0.00     0.000 C 
BRANCH   3   4
ATOM      4  C   UNL     1      50.666  45.578  16.777  1.00  0.00    -0.000 C 
BRANCH   4   5
ATOM      5  C   UNL     1      49.963  44.713  17.838  1.00  0.00    -0.000 C 
BRANCH   5   6
ATOM      6  C   UNL     1      48.421  44.718  17.772  1.00  0.00    -0.000 C 
BRANCH   6   7
ATOM      7  C   UNL     1      47.778  46.099  17.533  1.00  0.00    -0.000 C 
BRANCH   7   8
ATOM      8  C   UNL     1      46.706  46.132  16.429  1.00  0.00    -0.000 C 
BRANCH   8   9
ATOM      9  C   UNL     1      46.911  45.043  15.365  1.00  0.00    -0.000 C 
BRANCH   9  10
ATOM     10  C   UNL     1      45.698  44.108  15.296  1.00  0.00    -0.000 C 
BRANCH  10  11
ATOM     11  C   UNL     1      46.105  42.716  14.799  1.00  0.00    -0.003 C 
ATOM     12  C   UNL     1      47.596  42.656  14.486  1.00  0.00     0.004 C 
ENDBRANCH  10  11
ENDBRANCH   9  10
ENDBRANCH   8   9
ENDBRANCH   7   8
ENDBRANCH   6   7
ENDBRANCH   5   6
ENDBRANCH   4   5
ENDBRANCH   3   4
ENDBRANCH   2   3
ENDBRANCH   1   2
BRANCH   1  13
ATOM     13  C   UNL     1      50.446  48.131  13.632  1.00  0.00     0.000 C 
BRANCH  13  14
ATOM     14  C   UNL     1      49.184  48.188  14.509  1.00  0.00     0.000 C 
BRANCH  14  15
ATOM     15  C   UNL     1      49.407  48.951  15.824  1.00  0.00     0.000 C 
BRANCH  15  16
ATOM     16  C   UNL     1      50.663  49.831  15.738  1.00  0.00     0.000 C 
BRANCH  16  17
ATOM     17  C   UNL     1      51.692  49.511  16.835  1.00  0.00     0.000 C 
BRANCH  17  18
ATOM     18  C   UNL     1      53.153  49.836  16.467  1.00  0.00     0.000 C 
BRANCH  18  19
ATOM     19  C   UNL     1      53.835  48.747  15.611  1.00  0.00     0.000 C 
BRANCH  19  20
ATOM     20  C   UNL     1      53.790  47.365  16.284  1.00  0.00     0.006 C 
BRANCH  20  21
ATOM     21  C   UNL     1      54.436  46.276  15.417  1.00  0.00     0.053 C 
BRANCH  21  22
ATOM     22  C   UNL     1      54.930  45.130  16.244  1.00  0.00     0.041 C 
ATOM     23  O   UNL     1      54.119  44.273  16.687  1.00  0.00    -0.550 OA
ATOM     24  O   UNL     1      56.288  44.989  16.499  1.00  0.00    -0.550 OA
ENDBRANCH  21  22
ENDBRANCH  20  21
ENDBRANCH  19  20
ENDBRANCH  18  19
ENDBRANCH  17  18
ENDBRANCH  16  17
ENDBRANCH  15  16
ENDBRANCH  14  15
ENDBRANCH  13  14
ENDBRANCH   1  13
TORSDOF 20
ENDMDL
