MODEL 1
REMARK VINA RESULT:     0.745      0.000      0.000
REMARK INTER + INTRA:           0.811
REMARK INTER:                   0.811
REMARK INTRA:                   0.000
REMARK UNBOUND:                 0.000
REMARK SMILES Cc1cc(O)c2c(c1)C(=O)c1cc(O)cc(O)c1C2=O
REMARK SMILES IDX 1 1 2 2 8 3 7 4 6 5 4 6 3 7 19 8 20 9 18 10 11 11 9 12 10 13
REMARK SMILES IDX 12 14 13 15 15 16 16 17 5 18 17 20 14 22
REMARK H PARENT 5 19 17 21 14 23
REMARK Flexibility Score: inf
ROOT
ATOM      1  C   UNL     1     -15.437  -1.498  -4.887  1.00  0.00     0.044 C 
ATOM      2  C   UNL     1     -16.119  -2.794  -4.556  1.00  0.00    -0.047 A 
ATOM      3  C   UNL     1     -15.966  -3.366  -3.289  1.00  0.00     0.016 A 
ATOM      4  C   UNL     1     -16.580  -4.591  -2.976  1.00  0.00     0.038 A 
ATOM      5  C   UNL     1     -17.362  -5.256  -3.949  1.00  0.00     0.076 A 
ATOM      6  C   UNL     1     -17.429  -4.717  -5.262  1.00  0.00     0.127 A 
ATOM      7  C   UNL     1     -16.832  -3.484  -5.540  1.00  0.00     0.050 A 
ATOM      8  C   UNL     1     -18.125  -6.467  -3.536  1.00  0.00     0.201 C 
ATOM      9  O   UNL     1     -19.125  -6.844  -4.205  1.00  0.00    -0.288 OA
ATOM     10  C   UNL     1     -17.785  -7.171  -2.272  1.00  0.00     0.076 A 
ATOM     11  C   UNL     1     -16.949  -6.529  -1.333  1.00  0.00     0.041 A 
ATOM     12  C   UNL     1     -16.397  -5.189  -1.632  1.00  0.00     0.194 C 
ATOM     13  O   UNL     1     -15.753  -4.562  -0.745  1.00  0.00    -0.289 OA
ATOM     14  C   UNL     1     -16.647  -7.166  -0.116  1.00  0.00     0.059 A 
ATOM     15  C   UNL     1     -17.161  -8.431   0.169  1.00  0.00     0.120 A 
ATOM     16  C   UNL     1     -17.983  -9.074  -0.762  1.00  0.00     0.093 A 
ATOM     17  C   UNL     1     -18.297  -8.456  -1.979  1.00  0.00     0.131 A 
ENDROOT
BRANCH   6  18
ATOM     18  O   UNL     1     -18.040  -5.385  -6.327  1.00  0.00    -0.507 OA
ATOM     19  H   UNL     1     -17.541  -5.965  -6.986  1.00  0.00     0.293 HD
ENDBRANCH   6  18
BRANCH  17  20
ATOM     20  O   UNL     1     -19.109  -9.125  -2.895  1.00  0.00    -0.507 OA
ATOM     21  H   UNL     1     -18.784  -9.939  -3.402  1.00  0.00     0.293 HD
ENDBRANCH  17  20
BRANCH  15  22
ATOM     22  O   UNL     1     -16.848  -9.043   1.381  1.00  0.00    -0.508 OA
ATOM     23  H   UNL     1     -17.564  -9.457   1.966  1.00  0.00     0.293 HD
ENDBRANCH  15  22
TORSDOF 3
ENDMDL
MODEL 2
REMARK VINA RESULT:     0.881      1.517      5.510
REMARK INTER + INTRA:           0.959
REMARK INTER:                   0.959
REMARK INTRA:                   0.000
REMARK UNBOUND:                 0.000
REMARK SMILES Cc1cc(O)c2c(c1)C(=O)c1cc(O)cc(O)c1C2=O
REMARK SMILES IDX 1 1 2 2 8 3 7 4 6 5 4 6 3 7 19 8 20 9 18 10 11 11 9 12 10 13
REMARK SMILES IDX 12 14 13 15 15 16 16 17 5 18 17 20 14 22
REMARK H PARENT 5 19 17 21 14 23
REMARK Flexibility Score: inf
ROOT
ATOM      1  C   UNL     1     -18.914  -9.061   0.677  1.00  0.00     0.044 C 
ATOM      2  C   UNL     1     -18.538  -8.452  -0.642  1.00  0.00    -0.047 A 
ATOM      3  C   UNL     1     -17.887  -7.215  -0.686  1.00  0.00     0.016 A 
ATOM      4  C   UNL     1     -17.552  -6.623  -1.917  1.00  0.00     0.038 A 
ATOM      5  C   UNL     1     -17.874  -7.282  -3.126  1.00  0.00     0.076 A 
ATOM      6  C   UNL     1     -18.623  -8.489  -3.073  1.00  0.00     0.127 A 
ATOM      7  C   UNL     1     -18.920  -9.070  -1.836  1.00  0.00     0.050 A 
ATOM      8  C   UNL     1     -17.366  -6.707  -4.403  1.00  0.00     0.201 C 
ATOM      9  O   UNL     1     -17.259  -7.435  -5.426  1.00  0.00    -0.288 OA
ATOM     10  C   UNL     1     -16.874  -5.305  -4.448  1.00  0.00     0.076 A 
ATOM     11  C   UNL     1     -16.618  -4.629  -3.235  1.00  0.00     0.041 A 
ATOM     12  C   UNL     1     -16.873  -5.306  -1.945  1.00  0.00     0.194 C 
ATOM     13  O   UNL     1     -16.529  -4.751  -0.864  1.00  0.00    -0.289 OA
ATOM     14  C   UNL     1     -16.118  -3.315  -3.261  1.00  0.00     0.059 A 
ATOM     15  C   UNL     1     -15.879  -2.670  -4.475  1.00  0.00     0.120 A 
ATOM     16  C   UNL     1     -16.139  -3.334  -5.678  1.00  0.00     0.093 A 
ATOM     17  C   UNL     1     -16.636  -4.643  -5.674  1.00  0.00     0.131 A 
ENDROOT
BRANCH   6  18
ATOM     18  O   UNL     1     -19.125  -9.123  -4.212  1.00  0.00    -0.507 OA
ATOM     19  H   UNL     1     -19.105 -10.123  -4.353  1.00  0.00     0.293 HD
ENDBRANCH   6  18
BRANCH  17  20
ATOM     20  O   UNL     1     -16.899  -5.277  -6.889  1.00  0.00    -0.507 OA
ATOM     21  H   UNL     1     -16.287  -5.993  -7.261  1.00  0.00     0.293 HD
ENDBRANCH  17  20
BRANCH  15  22
ATOM     22  O   UNL     1     -15.383  -1.368  -4.476  1.00  0.00    -0.508 OA
ATOM     23  H   UNL     1     -15.954  -0.584  -4.183  1.00  0.00     0.293 HD
ENDBRANCH  15  22
TORSDOF 3
ENDMDL
MODEL 3
REMARK VINA RESULT:     0.888      4.427      6.752
REMARK INTER + INTRA:           0.966
REMARK INTER:                   0.966
REMARK INTRA:                   0.000
REMARK UNBOUND:                 0.000
REMARK SMILES Cc1cc(O)c2c(c1)C(=O)c1cc(O)cc(O)c1C2=O
REMARK SMILES IDX 1 1 2 2 8 3 7 4 6 5 4 6 3 7 19 8 20 9 18 10 11 11 9 12 10 13
REMARK SMILES IDX 12 14 13 15 15 16 16 17 5 18 17 20 14 22
REMARK H PARENT 5 19 17 21 14 23
REMARK Flexibility Score: inf
ROOT
ATOM      1  C   UNL     1     -19.125  -9.125  -5.253  1.00  0.00     0.044 C 
ATOM      2  C   UNL     1     -18.050  -8.083  -5.356  1.00  0.00    -0.047 A 
ATOM      3  C   UNL     1     -16.780  -8.426  -5.830  1.00  0.00     0.016 A 
ATOM      4  C   UNL     1     -15.758  -7.463  -5.908  1.00  0.00     0.038 A 
ATOM      5  C   UNL     1     -16.013  -6.131  -5.504  1.00  0.00     0.076 A 
ATOM      6  C   UNL     1     -17.275  -5.816  -4.932  1.00  0.00     0.127 A 
ATOM      7  C   UNL     1     -18.282  -6.785  -4.891  1.00  0.00     0.050 A 
ATOM      8  C   UNL     1     -14.962  -5.105  -5.748  1.00  0.00     0.201 C 
ATOM      9  O   UNL     1     -15.269  -3.884  -5.800  1.00  0.00    -0.288 OA
ATOM     10  C   UNL     1     -13.565  -5.520  -6.044  1.00  0.00     0.076 A 
ATOM     11  C   UNL     1     -13.307  -6.866  -6.380  1.00  0.00     0.041 A 
ATOM     12  C   UNL     1     -14.414  -7.847  -6.400  1.00  0.00     0.194 C 
ATOM     13  O   UNL     1     -14.208  -9.020  -6.821  1.00  0.00    -0.289 OA
ATOM     14  C   UNL     1     -11.997  -7.267  -6.699  1.00  0.00     0.059 A 
ATOM     15  C   UNL     1     -10.948  -6.347  -6.678  1.00  0.00     0.120 A 
ATOM     16  C   UNL     1     -11.199  -5.015  -6.337  1.00  0.00     0.093 A 
ATOM     17  C   UNL     1     -12.497  -4.595  -6.018  1.00  0.00     0.131 A 
ENDROOT
BRANCH   6  18
ATOM     18  O   UNL     1     -17.561  -4.574  -4.359  1.00  0.00    -0.507 OA
ATOM     19  H   UNL     1     -17.668  -4.425  -3.366  1.00  0.00     0.293 HD
ENDBRANCH   6  18
BRANCH  17  20
ATOM     20  O   UNL     1     -12.716  -3.262  -5.669  1.00  0.00    -0.507 OA
ATOM     21  H   UNL     1     -12.073  -2.753  -5.075  1.00  0.00     0.293 HD
ENDBRANCH  17  20
BRANCH  15  22
ATOM     22  O   UNL     1      -9.659  -6.768  -6.997  1.00  0.00    -0.508 OA
ATOM     23  H   UNL     1      -8.964  -6.939  -6.279  1.00  0.00     0.293 HD
ENDBRANCH  15  22
TORSDOF 3
ENDMDL
MODEL 4
REMARK VINA RESULT:     1.869      5.988      7.548
REMARK INTER + INTRA:           2.033
REMARK INTER:                   2.033
REMARK INTRA:                   0.000
REMARK UNBOUND:                 0.000
REMARK SMILES Cc1cc(O)c2c(c1)C(=O)c1cc(O)cc(O)c1C2=O
REMARK SMILES IDX 1 1 2 2 8 3 7 4 6 5 4 6 3 7 19 8 20 9 18 10 11 11 9 12 10 13
REMARK SMILES IDX 12 14 13 15 15 16 16 17 5 18 17 20 14 22
REMARK H PARENT 5 19 17 21 14 23
REMARK Flexibility Score: inf
ROOT
ATOM      1  C   UNL     1      -7.455  -7.179  -7.780  1.00  0.00     0.044 C 
ATOM      2  C   UNL     1      -8.668  -6.428  -7.313  1.00  0.00    -0.047 A 
ATOM      3  C   UNL     1      -9.888  -7.093  -7.153  1.00  0.00     0.016 A 
ATOM      4  C   UNL     1     -11.036  -6.395  -6.740  1.00  0.00     0.038 A 
ATOM      5  C   UNL     1     -10.962  -5.006  -6.481  1.00  0.00     0.076 A 
ATOM      6  C   UNL     1      -9.743  -4.323  -6.742  1.00  0.00     0.127 A 
ATOM      7  C   UNL     1      -8.610  -5.044  -7.126  1.00  0.00     0.050 A 
ATOM      8  C   UNL     1     -12.153  -4.331  -5.894  1.00  0.00     0.201 C 
ATOM      9  O   UNL     1     -12.022  -3.241  -5.274  1.00  0.00    -0.288 OA
ATOM     10  C   UNL     1     -13.484  -4.992  -5.935  1.00  0.00     0.076 A 
ATOM     11  C   UNL     1     -13.558  -6.364  -6.260  1.00  0.00     0.041 A 
ATOM     12  C   UNL     1     -12.324  -7.112  -6.587  1.00  0.00     0.194 C 
ATOM     13  O   UNL     1     -12.373  -8.362  -6.756  1.00  0.00    -0.289 OA
ATOM     14  C   UNL     1     -14.806  -7.013  -6.267  1.00  0.00     0.059 A 
ATOM     15  C   UNL     1     -15.972  -6.311  -5.963  1.00  0.00     0.120 A 
ATOM     16  C   UNL     1     -15.904  -4.951  -5.649  1.00  0.00     0.093 A 
ATOM     17  C   UNL     1     -14.671  -4.286  -5.635  1.00  0.00     0.131 A 
ENDROOT
BRANCH   6  18
ATOM     18  O   UNL     1      -9.622  -2.933  -6.672  1.00  0.00    -0.507 OA
ATOM     19  H   UNL     1      -8.901  -2.458  -6.148  1.00  0.00     0.293 HD
ENDBRANCH   6  18
BRANCH  17  20
ATOM     20  O   UNL     1     -14.633  -2.925  -5.330  1.00  0.00    -0.507 OA
ATOM     21  H   UNL     1     -14.439  -2.225  -6.036  1.00  0.00     0.293 HD
ENDBRANCH  17  20
BRANCH  15  22
ATOM     22  O   UNL     1     -17.197  -6.975  -5.977  1.00  0.00    -0.508 OA
ATOM     23  H   UNL     1     -17.807  -6.980  -5.168  1.00  0.00     0.293 HD
ENDBRANCH  15  22
TORSDOF 3
ENDMDL
MODEL 5
REMARK VINA RESULT:     2.752      4.556      5.696
REMARK INTER + INTRA:           2.994
REMARK INTER:                   2.994
REMARK INTRA:                   0.000
REMARK UNBOUND:                 0.000
REMARK SMILES Cc1cc(O)c2c(c1)C(=O)c1cc(O)cc(O)c1C2=O
REMARK SMILES IDX 1 1 2 2 8 3 7 4 6 5 4 6 3 7 19 8 20 9 18 10 11 11 9 12 10 13
REMARK SMILES IDX 12 14 13 15 15 16 16 17 5 18 17 20 14 22
REMARK H PARENT 5 19 17 21 14 23
REMARK Flexibility Score: inf
ROOT
ATOM      1  C   UNL     1      -9.411  -4.406  -6.749  1.00  0.00     0.044 C 
ATOM      2  C   UNL     1     -10.638  -5.248  -6.550  1.00  0.00    -0.047 A 
ATOM      3  C   UNL     1     -11.894  -4.645  -6.435  1.00  0.00     0.016 A 
ATOM      4  C   UNL     1     -13.046  -5.423  -6.224  1.00  0.00     0.038 A 
ATOM      5  C   UNL     1     -12.939  -6.830  -6.126  1.00  0.00     0.076 A 
ATOM      6  C   UNL     1     -11.647  -7.424  -6.144  1.00  0.00     0.127 A 
ATOM      7  C   UNL     1     -10.521  -6.631  -6.382  1.00  0.00     0.050 A 
ATOM      8  C   UNL     1     -14.192  -7.633  -6.061  1.00  0.00     0.201 C 
ATOM      9  O   UNL     1     -14.181  -8.851  -6.385  1.00  0.00    -0.288 OA
ATOM     10  C   UNL     1     -15.483  -6.978  -5.726  1.00  0.00     0.076 A 
ATOM     11  C   UNL     1     -15.567  -5.569  -5.760  1.00  0.00     0.041 A 
ATOM     12  C   UNL     1     -14.369  -4.767  -6.092  1.00  0.00     0.194 C 
ATOM     13  O   UNL     1     -14.471  -3.518  -6.245  1.00  0.00    -0.289 OA
ATOM     14  C   UNL     1     -16.791  -4.935  -5.482  1.00  0.00     0.059 A 
ATOM     15  C   UNL     1     -17.923  -5.687  -5.165  1.00  0.00     0.120 A 
ATOM     16  C   UNL     1     -17.842  -7.082  -5.121  1.00  0.00     0.093 A 
ATOM     17  C   UNL     1     -16.633  -7.732  -5.397  1.00  0.00     0.131 A 
ENDROOT
BRANCH   6  18
ATOM     18  O   UNL     1     -11.431  -8.781  -5.892  1.00  0.00    -0.507 OA
ATOM     19  H   UNL     1     -10.517  -9.188  -5.754  1.00  0.00     0.293 HD
ENDBRANCH   6  18
BRANCH  17  20
ATOM     20  O   UNL     1     -16.577  -9.125  -5.334  1.00  0.00    -0.507 OA
ATOM     21  H   UNL     1     -16.183  -9.608  -4.536  1.00  0.00     0.293 HD
ENDBRANCH  17  20
BRANCH  15  22
ATOM     22  O   UNL     1     -19.125  -5.037  -4.892  1.00  0.00    -0.508 OA
ATOM     23  H   UNL     1     -19.738  -5.347  -4.148  1.00  0.00     0.293 HD
ENDBRANCH  15  22
TORSDOF 3
ENDMDL
