MODEL 1
REMARK VINA RESULT:    -2.217      0.000      0.000
REMARK INTER + INTRA:          -2.217
REMARK INTER:                  -2.217
REMARK INTRA:                   0.000
REMARK UNBOUND:                 0.000
REMARK SMILES CC1=CC[C@H]2[C@H](C1)C2(C)C
REMARK SMILES IDX 1 1 2 2 3 3 4 4 5 5 6 6 7 7 8 8 9 9 10 10
REMARK H PARENT
REMARK Flexibility Score: inf
ROOT
ATOM      1  C   UNL     1     157.669 157.375 143.399  1.00  0.00     0.039 C 
ATOM      2  C   UNL     1     157.321 157.066 141.970  1.00  0.00    -0.077 C 
ATOM      3  C   UNL     1     156.294 156.210 141.699  1.00  0.00    -0.028 C 
ATOM      4  C   UNL     1     155.875 155.875 140.268  1.00  0.00     0.031 C 
ATOM      5  C   UNL     1     156.344 157.020 139.362  1.00  0.00     0.003 C 
ATOM      6  C   UNL     1     157.904 156.946 139.559  1.00  0.00     0.003 C 
ATOM      7  C   UNL     1     158.084 157.769 140.840  1.00  0.00     0.034 C 
ATOM      8  C   UNL     1     157.293 157.170 138.195  1.00  0.00    -0.029 C 
ATOM      9  C   UNL     1     157.329 155.992 137.216  1.00  0.00     0.012 C 
ATOM     10  C   UNL     1     157.465 158.576 137.615  1.00  0.00     0.012 C 
ENDROOT
TORSDOF 0
ENDMDL
MODEL 2
REMARK VINA RESULT:    -2.197     18.855     20.452
REMARK INTER + INTRA:          -2.197
REMARK INTER:                  -2.197
REMARK INTRA:                   0.000
REMARK UNBOUND:                 0.000
REMARK SMILES CC1=CC[C@H]2[C@H](C1)C2(C)C
REMARK SMILES IDX 1 1 2 2 3 3 4 4 5 5 6 6 7 7 8 8 9 9 10 10
REMARK H PARENT
REMARK Flexibility Score: inf
ROOT
ATOM      1  C   UNL     1     165.155 176.124 139.415  1.00  0.00     0.039 C 
ATOM      2  C   UNL     1     166.454 175.400 139.202  1.00  0.00    -0.077 C 
ATOM      3  C   UNL     1     167.631 176.040 139.460  1.00  0.00    -0.028 C 
ATOM      4  C   UNL     1     168.983 175.350 139.288  1.00  0.00     0.031 C 
ATOM      5  C   UNL     1     168.753 173.837 139.381  1.00  0.00     0.003 C 
ATOM      6  C   UNL     1     167.800 173.596 138.152  1.00  0.00     0.003 C 
ATOM      7  C   UNL     1     166.434 173.931 138.761  1.00  0.00     0.034 C 
ATOM      8  C   UNL     1     168.933 172.647 138.467  1.00  0.00    -0.029 C 
ATOM      9  C   UNL     1     170.158 172.698 137.548  1.00  0.00     0.012 C 
ATOM     10  C   UNL     1     168.518 171.279 139.016  1.00  0.00     0.012 C 
ENDROOT
TORSDOF 0
ENDMDL
MODEL 3
REMARK VINA RESULT:    -2.176     19.403     20.771
REMARK INTER + INTRA:          -2.176
REMARK INTER:                  -2.176
REMARK INTRA:                   0.000
REMARK UNBOUND:                 0.000
REMARK SMILES CC1=CC[C@H]2[C@H](C1)C2(C)C
REMARK SMILES IDX 1 1 2 2 3 3 4 4 5 5 6 6 7 7 8 8 9 9 10 10
REMARK H PARENT
REMARK Flexibility Score: inf
ROOT
ATOM      1  C   UNL     1     168.636 173.099 137.077  1.00  0.00     0.039 C 
ATOM      2  C   UNL     1     167.956 174.036 138.034  1.00  0.00    -0.077 C 
ATOM      3  C   UNL     1     168.635 175.122 138.509  1.00  0.00    -0.028 C 
ATOM      4  C   UNL     1     167.992 176.125 139.464  1.00  0.00     0.031 C 
ATOM      5  C   UNL     1     166.472 176.032 139.288  1.00  0.00     0.003 C 
ATOM      6  C   UNL     1     166.204 174.543 139.720  1.00  0.00     0.003 C 
ATOM      7  C   UNL     1     166.489 173.796 138.413  1.00  0.00     0.034 C 
ATOM      8  C   UNL     1     165.292 175.665 140.159  1.00  0.00    -0.029 C 
ATOM      9  C   UNL     1     165.388 176.106 141.623  1.00  0.00     0.012 C 
ATOM     10  C   UNL     1     163.909 175.690 139.503  1.00  0.00     0.012 C 
ENDROOT
TORSDOF 0
ENDMDL
MODEL 4
REMARK VINA RESULT:    -2.171     23.987     25.205
REMARK INTER + INTRA:          -2.171
REMARK INTER:                  -2.171
REMARK INTRA:                   0.000
REMARK UNBOUND:                 0.000
REMARK SMILES CC1=CC[C@H]2[C@H](C1)C2(C)C
REMARK SMILES IDX 1 1 2 2 3 3 4 4 5 5 6 6 7 7 8 8 9 9 10 10
REMARK H PARENT
REMARK Flexibility Score: inf
ROOT
ATOM      1  C   UNL     1     175.680 175.970 142.831  1.00  0.00     0.039 C 
ATOM      2  C   UNL     1     175.200 175.393 141.530  1.00  0.00    -0.077 C 
ATOM      3  C   UNL     1     174.231 174.431 141.538  1.00  0.00    -0.028 C 
ATOM      4  C   UNL     1     173.683 173.823 140.249  1.00  0.00     0.031 C 
ATOM      5  C   UNL     1     173.937 174.822 139.114  1.00  0.00     0.003 C 
ATOM      6  C   UNL     1     175.509 174.895 139.117  1.00  0.00     0.003 C 
ATOM      7  C   UNL     1     175.758 175.940 140.211  1.00  0.00     0.034 C 
ATOM      8  C   UNL     1     174.727 174.833 137.825  1.00  0.00    -0.029 C 
ATOM      9  C   UNL     1     174.759 173.508 137.057  1.00  0.00     0.012 C 
ATOM     10  C   UNL     1     174.700 176.125 137.004  1.00  0.00     0.012 C 
ENDROOT
TORSDOF 0
ENDMDL
MODEL 5
REMARK VINA RESULT:    -2.145      7.435      8.337
REMARK INTER + INTRA:          -2.145
REMARK INTER:                  -2.145
REMARK INTRA:                   0.000
REMARK UNBOUND:                 0.000
REMARK SMILES CC1=CC[C@H]2[C@H](C1)C2(C)C
REMARK SMILES IDX 1 1 2 2 3 3 4 4 5 5 6 6 7 7 8 8 9 9 10 10
REMARK H PARENT
REMARK Flexibility Score: inf
ROOT
ATOM      1  C   UNL     1     167.670 156.048 139.880  1.00  0.00     0.039 C 
ATOM      2  C   UNL     1     166.431 156.674 139.306  1.00  0.00    -0.077 C 
ATOM      3  C   UNL     1     165.396 155.876 138.911  1.00  0.00    -0.028 C 
ATOM      4  C   UNL     1     164.100 156.452 138.343  1.00  0.00     0.031 C 
ATOM      5  C   UNL     1     163.972 157.897 138.840  1.00  0.00     0.003 C 
ATOM      6  C   UNL     1     165.249 158.556 138.197  1.00  0.00     0.003 C 
ATOM      7  C   UNL     1     166.322 158.202 139.233  1.00  0.00     0.034 C 
ATOM      8  C   UNL     1     163.916 159.269 138.207  1.00  0.00    -0.029 C 
ATOM      9  C   UNL     1     163.164 159.352 136.875  1.00  0.00     0.012 C 
ATOM     10  C   UNL     1     163.812 160.467 139.153  1.00  0.00     0.012 C 
ENDROOT
TORSDOF 0
ENDMDL
MODEL 6
REMARK VINA RESULT:    -2.082     19.910     20.690
REMARK INTER + INTRA:          -2.082
REMARK INTER:                  -2.082
REMARK INTRA:                   0.000
REMARK UNBOUND:                 0.000
REMARK SMILES CC1=CC[C@H]2[C@H](C1)C2(C)C
REMARK SMILES IDX 1 1 2 2 3 3 4 4 5 5 6 6 7 7 8 8 9 9 10 10
REMARK H PARENT
REMARK Flexibility Score: inf
ROOT
ATOM      1  C   UNL     1     165.486 175.692 141.767  1.00  0.00     0.039 C 
ATOM      2  C   UNL     1     166.420 175.332 140.646  1.00  0.00    -0.077 C 
ATOM      3  C   UNL     1     166.473 176.123 139.535  1.00  0.00    -0.028 C 
ATOM      4  C   UNL     1     167.419 175.825 138.373  1.00  0.00     0.031 C 
ATOM      5  C   UNL     1     168.570 174.970 138.913  1.00  0.00     0.003 C 
ATOM      6  C   UNL     1     167.798 173.687 139.396  1.00  0.00     0.003 C 
ATOM      7  C   UNL     1     167.346 174.118 140.796  1.00  0.00     0.034 C 
ATOM      8  C   UNL     1     169.113 173.582 138.658  1.00  0.00    -0.029 C 
ATOM      9  C   UNL     1     169.056 173.107 137.203  1.00  0.00     0.012 C 
ATOM     10  C   UNL     1     170.312 173.139 139.500  1.00  0.00     0.012 C 
ENDROOT
TORSDOF 0
ENDMDL
MODEL 7
REMARK VINA RESULT:    -2.050     24.024     25.302
REMARK INTER + INTRA:          -2.050
REMARK INTER:                  -2.050
REMARK INTRA:                   0.000
REMARK UNBOUND:                 0.000
REMARK SMILES CC1=CC[C@H]2[C@H](C1)C2(C)C
REMARK SMILES IDX 1 1 2 2 3 3 4 4 5 5 6 6 7 7 8 8 9 9 10 10
REMARK H PARENT
REMARK Flexibility Score: inf
ROOT
ATOM      1  C   UNL     1     174.368 174.641 143.756  1.00  0.00     0.039 C 
ATOM      2  C   UNL     1     174.692 174.938 142.319  1.00  0.00    -0.077 C 
ATOM      3  C   UNL     1     175.729 175.775 142.024  1.00  0.00    -0.028 C 
ATOM      4  C   UNL     1     176.125 176.096 140.584  1.00  0.00     0.031 C 
ATOM      5  C   UNL     1     175.618 174.957 139.692  1.00  0.00     0.003 C 
ATOM      6  C   UNL     1     174.064 175.060 139.920  1.00  0.00     0.003 C 
ATOM      7  C   UNL     1     173.895 174.245 141.207  1.00  0.00     0.034 C 
ATOM      8  C   UNL     1     174.643 174.820 138.545  1.00  0.00    -0.029 C 
ATOM      9  C   UNL     1     174.608 175.995 137.562  1.00  0.00     0.012 C 
ATOM     10  C   UNL     1     174.434 173.415 137.974  1.00  0.00     0.012 C 
ENDROOT
TORSDOF 0
ENDMDL
MODEL 8
REMARK VINA RESULT:    -2.028      7.499      8.791
REMARK INTER + INTRA:          -2.028
REMARK INTER:                  -2.028
REMARK INTRA:                   0.000
REMARK UNBOUND:                 0.000
REMARK SMILES CC1=CC[C@H]2[C@H](C1)C2(C)C
REMARK SMILES IDX 1 1 2 2 3 3 4 4 5 5 6 6 7 7 8 8 9 9 10 10
REMARK H PARENT
REMARK Flexibility Score: inf
ROOT
ATOM      1  C   UNL     1     163.835 159.788 137.025  1.00  0.00     0.039 C 
ATOM      2  C   UNL     1     164.223 158.669 137.949  1.00  0.00    -0.077 C 
ATOM      3  C   UNL     1     163.290 157.742 138.311  1.00  0.00    -0.028 C 
ATOM      4  C   UNL     1     163.628 156.567 139.226  1.00  0.00     0.031 C 
ATOM      5  C   UNL     1     165.138 156.322 139.137  1.00  0.00     0.003 C 
ATOM      6  C   UNL     1     165.702 157.686 139.685  1.00  0.00     0.003 C 
ATOM      7  C   UNL     1     165.678 158.550 138.419  1.00  0.00     0.034 C 
ATOM      8  C   UNL     1     166.310 156.363 140.092  1.00  0.00    -0.029 C 
ATOM      9  C   UNL     1     166.021 155.875 141.515  1.00  0.00     0.012 C 
ATOM     10  C   UNL     1     167.693 156.062 139.509  1.00  0.00     0.012 C 
ENDROOT
TORSDOF 0
ENDMDL
MODEL 9
REMARK VINA RESULT:    -2.001      5.305      6.625
REMARK INTER + INTRA:          -2.001
REMARK INTER:                  -2.001
REMARK INTRA:                   0.000
REMARK UNBOUND:                 0.000
REMARK SMILES CC1=CC[C@H]2[C@H](C1)C2(C)C
REMARK SMILES IDX 1 1 2 2 3 3 4 4 5 5 6 6 7 7 8 8 9 9 10 10
REMARK H PARENT
REMARK Flexibility Score: inf
ROOT
ATOM      1  C   UNL     1     164.512 156.278 138.359  1.00  0.00     0.039 C 
ATOM      2  C   UNL     1     163.556 157.437 138.375  1.00  0.00    -0.077 C 
ATOM      3  C   UNL     1     162.694 157.583 139.423  1.00  0.00    -0.028 C 
ATOM      4  C   UNL     1     161.716 158.753 139.509  1.00  0.00     0.031 C 
ATOM      5  C   UNL     1     162.270 159.892 138.646  1.00  0.00     0.003 C 
ATOM      6  C   UNL     1     162.272 159.223 137.222  1.00  0.00     0.003 C 
ATOM      7  C   UNL     1     163.609 158.473 137.245  1.00  0.00     0.034 C 
ATOM      8  C   UNL     1     161.818 160.651 137.419  1.00  0.00    -0.029 C 
ATOM      9  C   UNL     1     160.314 160.920 137.324  1.00  0.00     0.012 C 
ATOM     10  C   UNL     1     162.764 161.727 136.880  1.00  0.00     0.012 C 
ENDROOT
TORSDOF 0
ENDMDL
