MODEL 1
REMARK VINA RESULT:    -4.682      0.000      0.000
REMARK INTER + INTRA:          -6.977
REMARK INTER:                  -6.324
REMARK INTRA:                  -0.653
REMARK UNBOUND:                -0.653
REMARK SMILES CC(=O)CCC=C(C)CCC=C(C)C
REMARK SMILES IDX 7 1 6 2 8 3 9 4 10 5 11 6 13 7 12 8 14 9 5 10 4 11 2 12 3 13
REMARK SMILES IDX 1 14
REMARK H PARENT
REMARK Flexibility Score: inf
ROOT
ATOM      1  C   UNL     1       3.762  23.537  39.248  1.00  0.00    -0.077 C 
ATOM      2  C   UNL     1       5.057  23.740  39.586  1.00  0.00    -0.028 C 
ATOM      3  C   UNL     1       2.754  24.592  39.626  1.00  0.00     0.039 C 
ENDROOT
BRANCH   1   4
ATOM      4  C   UNL     1       3.286  22.315  38.488  1.00  0.00     0.034 C 
BRANCH   4   5
ATOM      5  C   UNL     1       2.126  22.673  37.552  1.00  0.00     0.032 C 
BRANCH   5   6
ATOM      6  C   UNL     1       1.069  21.597  37.576  1.00  0.00    -0.028 C 
ATOM      7  C   UNL     1      -1.054  20.524  38.258  1.00  0.00     0.039 C 
ATOM      8  C   UNL     1      -0.082  21.674  38.283  1.00  0.00    -0.080 C 
ATOM      9  C   UNL     1      -0.456  22.903  39.074  1.00  0.00     0.039 C 
ENDBRANCH   5   6
ENDBRANCH   4   5
ENDBRANCH   1   4
BRANCH   2  10
ATOM     10  C   UNL     1       6.193  22.774  39.335  1.00  0.00     0.035 C 
BRANCH  10  11
ATOM     11  C   UNL     1       7.264  23.405  38.438  1.00  0.00     0.079 C 
BRANCH  11  12
ATOM     12  C   UNL     1       8.449  22.495  38.260  1.00  0.00     0.130 C 
ATOM     13  O   UNL     1       9.439  22.897  37.665  1.00  0.00    -0.300 OA
ATOM     14  C   UNL     1       8.436  21.109  38.829  1.00  0.00     0.087 C 
ENDBRANCH  11  12
ENDBRANCH  10  11
ENDBRANCH   2  10
TORSDOF 6
ENDMDL
MODEL 2
REMARK VINA RESULT:    -4.646      8.843     13.113
REMARK INTER + INTRA:          -6.928
REMARK INTER:                  -5.970
REMARK INTRA:                  -0.958
REMARK UNBOUND:                -0.653
REMARK SMILES CC(=O)CCC=C(C)CCC=C(C)C
REMARK SMILES IDX 7 1 6 2 8 3 9 4 10 5 11 6 13 7 12 8 14 9 5 10 4 11 2 12 3 13
REMARK SMILES IDX 1 14
REMARK H PARENT
REMARK Flexibility Score: inf
ROOT
ATOM      1  C   UNL     1      15.216  21.803  37.439  1.00  0.00    -0.077 C 
ATOM      2  C   UNL     1      14.614  22.414  38.487  1.00  0.00    -0.028 C 
ATOM      3  C   UNL     1      15.592  20.351  37.583  1.00  0.00     0.039 C 
ENDROOT
BRANCH   1   4
ATOM      4  C   UNL     1      15.505  22.503  36.126  1.00  0.00     0.034 C 
BRANCH   4   5
ATOM      5  C   UNL     1      16.947  23.019  36.089  1.00  0.00     0.032 C 
BRANCH   5   6
ATOM      6  C   UNL     1      17.606  22.669  34.778  1.00  0.00    -0.028 C 
ATOM      7  C   UNL     1      19.125  21.430  33.267  1.00  0.00     0.039 C 
ATOM      8  C   UNL     1      18.505  21.671  34.619  1.00  0.00    -0.080 C 
ATOM      9  C   UNL     1      18.889  20.749  35.751  1.00  0.00     0.039 C 
ENDBRANCH   5   6
ENDBRANCH   4   5
ENDBRANCH   1   4
BRANCH   2  10
ATOM     10  C   UNL     1      14.212  23.871  38.542  1.00  0.00     0.035 C 
BRANCH  10  11
ATOM     11  C   UNL     1      12.704  24.017  38.778  1.00  0.00     0.079 C 
BRANCH  11  12
ATOM     12  C   UNL     1      11.925  23.892  37.496  1.00  0.00     0.130 C 
ATOM     13  O   UNL     1      10.880  23.256  37.481  1.00  0.00    -0.300 OA
ATOM     14  C   UNL     1      12.405  24.564  36.246  1.00  0.00     0.087 C 
ENDBRANCH  11  12
ENDBRANCH  10  11
ENDBRANCH   2  10
TORSDOF 6
ENDMDL
MODEL 3
REMARK VINA RESULT:    -4.634      9.540     11.334
REMARK INTER + INTRA:          -6.912
REMARK INTER:                  -5.516
REMARK INTRA:                  -1.397
REMARK UNBOUND:                -0.653
REMARK SMILES CC(=O)CCC=C(C)CCC=C(C)C
REMARK SMILES IDX 7 1 6 2 8 3 9 4 10 5 11 6 13 7 12 8 14 9 5 10 4 11 2 12 3 13
REMARK SMILES IDX 1 14
REMARK H PARENT
REMARK Flexibility Score: inf
ROOT
ATOM      1  C   UNL     1      15.053  23.189  39.271  1.00  0.00    -0.077 C 
ATOM      2  C   UNL     1      16.005  22.804  38.389  1.00  0.00    -0.028 C 
ATOM      3  C   UNL     1      14.816  22.326  40.484  1.00  0.00     0.039 C 
ENDROOT
BRANCH   1   4
ATOM      4  C   UNL     1      14.236  24.456  39.109  1.00  0.00     0.034 C 
BRANCH   4   5
ATOM      5  C   UNL     1      12.801  24.127  38.684  1.00  0.00     0.032 C 
BRANCH   5   6
ATOM      6  C   UNL     1      12.696  24.036  37.182  1.00  0.00    -0.028 C 
ATOM      7  C   UNL     1      12.497  22.902  34.991  1.00  0.00     0.039 C 
ATOM      8  C   UNL     1      12.561  22.878  36.496  1.00  0.00    -0.080 C 
ATOM      9  C   UNL     1      12.430  21.545  37.191  1.00  0.00     0.039 C 
ENDBRANCH   5   6
ENDBRANCH   4   5
ENDBRANCH   1   4
BRANCH   2  10
ATOM     10  C   UNL     1      16.347  23.514  37.099  1.00  0.00     0.035 C 
BRANCH  10  11
ATOM     11  C   UNL     1      16.176  22.580  35.895  1.00  0.00     0.079 C 
BRANCH  11  12
ATOM     12  C   UNL     1      17.441  22.474  35.088  1.00  0.00     0.130 C 
ATOM     13  O   UNL     1      17.695  23.319  34.242  1.00  0.00    -0.300 OA
ATOM     14  C   UNL     1      18.406  21.353  35.332  1.00  0.00     0.087 C 
ENDBRANCH  11  12
ENDBRANCH  10  11
ENDBRANCH   2  10
TORSDOF 6
ENDMDL
MODEL 4
REMARK VINA RESULT:    -4.616      3.546      5.609
REMARK INTER + INTRA:          -6.889
REMARK INTER:                  -5.381
REMARK INTRA:                  -1.507
REMARK UNBOUND:                -0.653
REMARK SMILES CC(=O)CCC=C(C)CCC=C(C)C
REMARK SMILES IDX 7 1 6 2 8 3 9 4 10 5 11 6 13 7 12 8 14 9 5 10 4 11 2 12 3 13
REMARK SMILES IDX 1 14
REMARK H PARENT
REMARK Flexibility Score: inf
ROOT
ATOM      1  C   UNL     1       3.111  23.450  38.692  1.00  0.00    -0.077 C 
ATOM      2  C   UNL     1       2.916  22.229  38.142  1.00  0.00    -0.028 C 
ATOM      3  C   UNL     1       4.449  23.741  39.322  1.00  0.00     0.039 C 
ENDROOT
BRANCH   1   4
ATOM      4  C   UNL     1       2.059  24.542  38.680  1.00  0.00     0.034 C 
BRANCH   4   5
ATOM      5  C   UNL     1       1.550  24.823  40.097  1.00  0.00     0.032 C 
BRANCH   5   6
ATOM      6  C   UNL     1       0.394  23.916  40.439  1.00  0.00    -0.028 C 
ATOM      7  C   UNL     1      -0.729  21.977  41.489  1.00  0.00     0.039 C 
ATOM      8  C   UNL     1       0.487  22.832  41.241  1.00  0.00    -0.080 C 
ATOM      9  C   UNL     1       1.771  22.460  41.941  1.00  0.00     0.039 C 
ENDBRANCH   5   6
ENDBRANCH   4   5
ENDBRANCH   1   4
BRANCH   2  10
ATOM     10  C   UNL     1       1.630  21.743  37.512  1.00  0.00     0.035 C 
BRANCH  10  11
ATOM     11  C   UNL     1       1.147  20.448  38.174  1.00  0.00     0.079 C 
BRANCH  11  12
ATOM     12  C   UNL     1      -0.353  20.403  38.282  1.00  0.00     0.130 C 
ATOM     13  O   UNL     1      -1.012  21.396  38.010  1.00  0.00    -0.300 OA
ATOM     14  C   UNL     1      -1.048  19.140  38.695  1.00  0.00     0.087 C 
ENDBRANCH  11  12
ENDBRANCH  10  11
ENDBRANCH   2  10
TORSDOF 6
ENDMDL
MODEL 5
REMARK VINA RESULT:    -4.541     18.535     20.937
REMARK INTER + INTRA:          -6.787
REMARK INTER:                  -5.371
REMARK INTRA:                  -1.416
REMARK UNBOUND:                -0.653
REMARK SMILES CC(=O)CCC=C(C)CCC=C(C)C
REMARK SMILES IDX 7 1 6 2 8 3 9 4 10 5 11 6 13 7 12 8 14 9 5 10 4 11 2 12 3 13
REMARK SMILES IDX 1 14
REMARK H PARENT
REMARK Flexibility Score: inf
ROOT
ATOM      1  C   UNL     1      18.465  12.615  51.992  1.00  0.00    -0.077 C 
ATOM      2  C   UNL     1      17.625  11.583  52.240  1.00  0.00    -0.028 C 
ATOM      3  C   UNL     1      18.774  13.569  53.118  1.00  0.00     0.039 C 
ENDROOT
BRANCH   1   4
ATOM      4  C   UNL     1      19.125  12.841  50.646  1.00  0.00     0.034 C 
BRANCH   4   5
ATOM      5  C   UNL     1      18.300  13.808  49.790  1.00  0.00     0.032 C 
BRANCH   5   6
ATOM      6  C   UNL     1      17.717  13.098  48.594  1.00  0.00    -0.028 C 
ATOM      7  C   UNL     1      15.921  12.170  47.166  1.00  0.00     0.039 C 
ATOM      8  C   UNL     1      16.392  12.923  48.382  1.00  0.00    -0.080 C 
ATOM      9  C   UNL     1      15.350  13.498  49.310  1.00  0.00     0.039 C 
ENDBRANCH   5   6
ENDBRANCH   4   5
ENDBRANCH   1   4
BRANCH   2  10
ATOM     10  C   UNL     1      17.164  10.561  51.226  1.00  0.00     0.035 C 
BRANCH  10  11
ATOM     11  C   UNL     1      15.634  10.476  51.186  1.00  0.00     0.079 C 
BRANCH  11  12
ATOM     12  C   UNL     1      15.155   9.550  50.102  1.00  0.00     0.130 C 
ATOM     13  O   UNL     1      13.979   9.217  50.063  1.00  0.00    -0.300 OA
ATOM     14  C   UNL     1      16.102   9.053  49.052  1.00  0.00     0.087 C 
ENDBRANCH  11  12
ENDBRANCH  10  11
ENDBRANCH   2  10
TORSDOF 6
ENDMDL
MODEL 6
REMARK VINA RESULT:    -4.517      3.798      5.660
REMARK INTER + INTRA:          -6.754
REMARK INTER:                  -5.915
REMARK INTRA:                  -0.839
REMARK UNBOUND:                -0.653
REMARK SMILES CC(=O)CCC=C(C)CCC=C(C)C
REMARK SMILES IDX 7 1 6 2 8 3 9 4 10 5 11 6 13 7 12 8 14 9 5 10 4 11 2 12 3 13
REMARK SMILES IDX 1 14
REMARK H PARENT
REMARK Flexibility Score: inf
ROOT
ATOM      1  C   UNL     1       3.093  23.776  39.011  1.00  0.00    -0.077 C 
ATOM      2  C   UNL     1       2.881  24.696  39.981  1.00  0.00    -0.028 C 
ATOM      3  C   UNL     1       4.197  22.771  39.213  1.00  0.00     0.039 C 
ENDROOT
BRANCH   1   4
ATOM      4  C   UNL     1       2.258  23.696  37.748  1.00  0.00     0.034 C 
BRANCH   4   5
ATOM      5  C   UNL     1       2.154  22.249  37.255  1.00  0.00     0.032 C 
BRANCH   5   6
ATOM      6  C   UNL     1       0.737  21.744  37.374  1.00  0.00    -0.028 C 
ATOM      7  C   UNL     1      -1.125  20.434  38.343  1.00  0.00     0.039 C 
ATOM      8  C   UNL     1       0.308  20.899  38.339  1.00  0.00    -0.080 C 
ATOM      9  C   UNL     1       1.212  20.427  39.451  1.00  0.00     0.039 C 
ENDBRANCH   5   6
ENDBRANCH   4   5
ENDBRANCH   1   4
BRANCH   2  10
ATOM     10  C   UNL     1       1.857  25.808  39.930  1.00  0.00     0.035 C 
BRANCH  10  11
ATOM     11  C   UNL     1       1.549  26.337  41.336  1.00  0.00     0.079 C 
BRANCH  11  12
ATOM     12  C   UNL     1       0.068  26.405  41.594  1.00  0.00     0.130 C 
ATOM     13  O   UNL     1      -0.361  27.125  42.484  1.00  0.00    -0.300 OA
ATOM     14  C   UNL     1      -0.888  25.618  40.749  1.00  0.00     0.087 C 
ENDBRANCH  11  12
ENDBRANCH  10  11
ENDBRANCH   2  10
TORSDOF 6
ENDMDL
MODEL 7
REMARK VINA RESULT:    -4.511      3.661      6.327
REMARK INTER + INTRA:          -6.746
REMARK INTER:                  -5.369
REMARK INTRA:                  -1.377
REMARK UNBOUND:                -0.653
REMARK SMILES CC(=O)CCC=C(C)CCC=C(C)C
REMARK SMILES IDX 7 1 6 2 8 3 9 4 10 5 11 6 13 7 12 8 14 9 5 10 4 11 2 12 3 13
REMARK SMILES IDX 1 14
REMARK H PARENT
REMARK Flexibility Score: inf
ROOT
ATOM      1  C   UNL     1      -0.491  21.483  38.721  1.00  0.00    -0.077 C 
ATOM      2  C   UNL     1      -1.093  22.160  39.727  1.00  0.00    -0.028 C 
ATOM      3  C   UNL     1      -0.539  19.977  38.749  1.00  0.00     0.039 C 
ENDROOT
BRANCH   1   4
ATOM      4  C   UNL     1       0.203  22.168  37.560  1.00  0.00     0.034 C 
BRANCH   4   5
ATOM      5  C   UNL     1       1.616  21.608  37.364  1.00  0.00     0.032 C 
BRANCH   5   6
ATOM      6  C   UNL     1       2.654  22.613  37.797  1.00  0.00    -0.028 C 
ATOM      7  C   UNL     1       4.249  23.695  39.349  1.00  0.00     0.039 C 
ATOM      8  C   UNL     1       3.246  22.623  39.013  1.00  0.00    -0.080 C 
ATOM      9  C   UNL     1       2.967  21.561  40.048  1.00  0.00     0.039 C 
ENDBRANCH   5   6
ENDBRANCH   4   5
ENDBRANCH   1   4
BRANCH   2  10
ATOM     10  C   UNL     1      -1.105  23.664  39.891  1.00  0.00     0.035 C 
BRANCH  10  11
ATOM     11  C   UNL     1       0.204  24.160  40.515  1.00  0.00     0.079 C 
BRANCH  11  12
ATOM     12  C   UNL     1       0.370  25.647  40.354  1.00  0.00     0.130 C 
ATOM     13  O   UNL     1      -0.475  26.405  40.809  1.00  0.00    -0.300 OA
ATOM     14  C   UNL     1       1.577  26.207  39.664  1.00  0.00     0.087 C 
ENDBRANCH  11  12
ENDBRANCH  10  11
ENDBRANCH   2  10
TORSDOF 6
ENDMDL
MODEL 8
REMARK VINA RESULT:    -4.455      8.644     12.418
REMARK INTER + INTRA:          -6.671
REMARK INTER:                  -5.548
REMARK INTRA:                  -1.123
REMARK UNBOUND:                -0.653
REMARK SMILES CC(=O)CCC=C(C)CCC=C(C)C
REMARK SMILES IDX 7 1 6 2 8 3 9 4 10 5 11 6 13 7 12 8 14 9 5 10 4 11 2 12 3 13
REMARK SMILES IDX 1 14
REMARK H PARENT
REMARK Flexibility Score: inf
ROOT
ATOM      1  C   UNL     1      15.375  23.933  38.483  1.00  0.00    -0.077 C 
ATOM      2  C   UNL     1      14.195  24.519  38.791  1.00  0.00    -0.028 C 
ATOM      3  C   UNL     1      16.546  24.822  38.153  1.00  0.00     0.039 C 
ENDROOT
BRANCH   1   4
ATOM      4  C   UNL     1      15.578  22.430  38.479  1.00  0.00     0.034 C 
BRANCH   4   5
ATOM      5  C   UNL     1      15.477  21.870  37.057  1.00  0.00     0.032 C 
BRANCH   5   6
ATOM      6  C   UNL     1      16.791  21.268  36.625  1.00  0.00    -0.028 C 
ATOM      7  C   UNL     1      18.855  21.068  35.274  1.00  0.00     0.039 C 
ATOM      8  C   UNL     1      17.575  21.771  35.645  1.00  0.00    -0.080 C 
ATOM      9  C   UNL     1      17.233  23.052  34.923  1.00  0.00     0.039 C 
ENDBRANCH   5   6
ENDBRANCH   4   5
ENDBRANCH   1   4
BRANCH   2  10
ATOM     10  C   UNL     1      12.905  23.792  39.098  1.00  0.00     0.035 C 
BRANCH  10  11
ATOM     11  C   UNL     1      11.816  24.147  38.080  1.00  0.00     0.079 C 
BRANCH  11  12
ATOM     12  C   UNL     1      12.011  23.419  36.778  1.00  0.00     0.130 C 
ATOM     13  O   UNL     1      12.417  24.027  35.797  1.00  0.00    -0.300 OA
ATOM     14  C   UNL     1      11.737  21.949  36.680  1.00  0.00     0.087 C 
ENDBRANCH  11  12
ENDBRANCH  10  11
ENDBRANCH   2  10
TORSDOF 6
ENDMDL
MODEL 9
REMARK VINA RESULT:    -4.402      2.934      6.546
REMARK INTER + INTRA:          -6.599
REMARK INTER:                  -5.879
REMARK INTRA:                  -0.720
REMARK UNBOUND:                -0.653
REMARK SMILES CC(=O)CCC=C(C)CCC=C(C)C
REMARK SMILES IDX 7 1 6 2 8 3 9 4 10 5 11 6 13 7 12 8 14 9 5 10 4 11 2 12 3 13
REMARK SMILES IDX 1 14
REMARK H PARENT
REMARK Flexibility Score: inf
ROOT
ATOM      1  C   UNL     1       3.080  23.710  39.257  1.00  0.00    -0.077 C 
ATOM      2  C   UNL     1       2.056  23.598  38.379  1.00  0.00    -0.028 C 
ATOM      3  C   UNL     1       3.074  24.875  40.213  1.00  0.00     0.039 C 
ENDROOT
BRANCH   1   4
ATOM      4  C   UNL     1       4.214  22.707  39.339  1.00  0.00     0.034 C 
BRANCH   4   5
ATOM      5  C   UNL     1       5.481  23.362  39.900  1.00  0.00     0.032 C 
BRANCH   5   6
ATOM      6  C   UNL     1       6.584  23.358  38.871  1.00  0.00    -0.028 C 
ATOM      7  C   UNL     1       8.684  22.597  37.807  1.00  0.00     0.039 C 
ATOM      8  C   UNL     1       7.620  22.489  38.868  1.00  0.00    -0.080 C 
ATOM      9  C   UNL     1       7.733  21.372  39.876  1.00  0.00     0.039 C 
ENDBRANCH   5   6
ENDBRANCH   4   5
ENDBRANCH   1   4
BRANCH   2  10
ATOM     10  C   UNL     1       1.919  22.529  37.319  1.00  0.00     0.035 C 
BRANCH  10  11
ATOM     11  C   UNL     1       0.512  21.921  37.328  1.00  0.00     0.079 C 
BRANCH  11  12
ATOM     12  C   UNL     1       0.215  21.221  38.626  1.00  0.00     0.130 C 
ATOM     13  O   UNL     1      -0.704  21.612  39.331  1.00  0.00    -0.300 OA
ATOM     14  C   UNL     1       1.022  20.030  39.050  1.00  0.00     0.087 C 
ENDBRANCH  11  12
ENDBRANCH  10  11
ENDBRANCH   2  10
TORSDOF 6
ENDMDL
