MODEL 1
REMARK VINA RESULT:    13.665      0.000      0.000
REMARK INTER + INTRA:          18.581
REMARK INTER:                  17.260
REMARK INTRA:                   1.320
REMARK UNBOUND:                 1.320
REMARK SMILES O=C(C=Cc1ccc(O)cc1)c1ccc(O)cc1O
REMARK SMILES IDX 4 1 3 2 5 3 6 4 7 5 8 6 11 7 10 8 9 9 2 11 1 12 12 13 18 14
REMARK SMILES IDX 13 15 17 16 14 17 15 18 19 19 16 21
REMARK H PARENT 9 10 19 20 16 22
REMARK Flexibility Score: inf
ROOT
ATOM      1  C   UNL     1      -4.911  -2.333  16.353  1.00  0.00     0.012 C 
ATOM      2  C   UNL     1      -4.741  -1.004  16.433  1.00  0.00     0.053 C 
ENDROOT
BRANCH   1   3
ATOM      3  C   UNL     1      -4.655  -3.157  15.154  1.00  0.00    -0.025 A 
ATOM      4  C   UNL     1      -5.459  -4.278  14.903  1.00  0.00     0.012 A 
ATOM      5  C   UNL     1      -5.262  -5.044  13.750  1.00  0.00     0.047 A 
ATOM      6  C   UNL     1      -4.274  -4.683  12.824  1.00  0.00     0.115 A 
ATOM      7  C   UNL     1      -3.685  -2.780  14.208  1.00  0.00     0.012 A 
ATOM      8  C   UNL     1      -3.489  -3.548  13.055  1.00  0.00     0.047 A 
BRANCH   6   9
ATOM      9  O   UNL     1      -4.068  -5.439  11.673  1.00  0.00    -0.508 OA
ATOM     10  H   UNL     1      -3.161  -5.487  11.226  1.00  0.00     0.293 HD
ENDBRANCH   6   9
ENDBRANCH   1   3
BRANCH   2  11
ATOM     11  C   UNL     1      -4.100  -0.156  15.400  1.00  0.00     0.189 C 
ATOM     12  O   UNL     1      -3.023  -0.519  14.852  1.00  0.00    -0.289 OA
BRANCH  11  13
ATOM     13  C   UNL     1      -4.670   1.163  15.055  1.00  0.00     0.064 A 
ATOM     14  C   UNL     1      -5.593   1.317  13.992  1.00  0.00     0.130 A 
ATOM     15  C   UNL     1      -4.258   2.302  15.771  1.00  0.00     0.020 A 
ATOM     16  C   UNL     1      -6.064   2.592  13.659  1.00  0.00     0.093 A 
ATOM     17  C   UNL     1      -4.744   3.567  15.436  1.00  0.00     0.047 A 
ATOM     18  C   UNL     1      -5.644   3.718  14.379  1.00  0.00     0.119 A 
BRANCH  14  19
ATOM     19  O   UNL     1      -6.081   0.228  13.266  1.00  0.00    -0.507 OA
ATOM     20  H   UNL     1      -5.611  -0.667  13.227  1.00  0.00     0.293 HD
ENDBRANCH  14  19
BRANCH  18  21
ATOM     21  O   UNL     1      -6.114   4.987  14.054  1.00  0.00    -0.508 OA
ATOM     22  H   UNL     1      -6.934   5.379  14.502  1.00  0.00     0.293 HD
ENDBRANCH  18  21
ENDBRANCH  11  13
ENDBRANCH   2  11
TORSDOF 6
ENDMDL
MODEL 2
REMARK VINA RESULT:    14.030      2.338      3.699
REMARK INTER + INTRA:          19.042
REMARK INTER:                  18.467
REMARK INTRA:                   0.575
REMARK UNBOUND:                 1.320
REMARK SMILES O=C(C=Cc1ccc(O)cc1)c1ccc(O)cc1O
REMARK SMILES IDX 4 1 3 2 5 3 6 4 7 5 8 6 11 7 10 8 9 9 2 11 1 12 12 13 18 14
REMARK SMILES IDX 13 15 17 16 14 17 15 18 19 19 16 21
REMARK H PARENT 9 10 19 20 16 22
REMARK Flexibility Score: inf
ROOT
ATOM      1  C   UNL     1      -4.334  -0.855  12.948  1.00  0.00     0.012 C 
ATOM      2  C   UNL     1      -4.338   0.454  12.648  1.00  0.00     0.053 C 
ENDROOT
BRANCH   1   3
ATOM      3  C   UNL     1      -4.840  -1.444  14.205  1.00  0.00    -0.025 A 
ATOM      4  C   UNL     1      -4.523  -2.773  14.520  1.00  0.00     0.012 A 
ATOM      5  C   UNL     1      -4.954  -3.335  15.725  1.00  0.00     0.047 A 
ATOM      6  C   UNL     1      -5.688  -2.566  16.638  1.00  0.00     0.115 A 
ATOM      7  C   UNL     1      -5.551  -0.667  15.137  1.00  0.00     0.012 A 
ATOM      8  C   UNL     1      -5.982  -1.231  16.342  1.00  0.00     0.047 A 
BRANCH   6   9
ATOM      9  O   UNL     1      -6.125  -3.116  17.842  1.00  0.00    -0.508 OA
ATOM     10  H   UNL     1      -5.492  -3.611  18.458  1.00  0.00     0.293 HD
ENDBRANCH   6   9
ENDBRANCH   1   3
BRANCH   2  11
ATOM     11  C   UNL     1      -5.010   1.514  13.436  1.00  0.00     0.189 C 
ATOM     12  O   UNL     1      -6.124   1.976  13.068  1.00  0.00    -0.289 OA
BRANCH  11  13
ATOM     13  C   UNL     1      -4.346   2.102  14.618  1.00  0.00     0.064 A 
ATOM     14  C   UNL     1      -4.881   3.233  15.284  1.00  0.00     0.130 A 
ATOM     15  C   UNL     1      -3.132   1.555  15.072  1.00  0.00     0.020 A 
ATOM     16  C   UNL     1      -4.190   3.795  16.363  1.00  0.00     0.093 A 
ATOM     17  C   UNL     1      -2.459   2.119  16.157  1.00  0.00     0.047 A 
ATOM     18  C   UNL     1      -2.981   3.241  16.803  1.00  0.00     0.119 A 
BRANCH  14  19
ATOM     19  O   UNL     1      -6.102   3.803  14.917  1.00  0.00    -0.507 OA
ATOM     20  H   UNL     1      -6.844   3.997  15.577  1.00  0.00     0.293 HD
ENDBRANCH  14  19
BRANCH  18  21
ATOM     21  O   UNL     1      -2.295   3.796  17.879  1.00  0.00    -0.508 OA
ATOM     22  H   UNL     1      -1.282   3.836  17.898  1.00  0.00     0.293 HD
ENDBRANCH  18  21
ENDBRANCH  11  13
ENDBRANCH   2  11
TORSDOF 6
ENDMDL
MODEL 3
REMARK VINA RESULT:    14.550      2.095      6.811
REMARK INTER + INTRA:          19.698
REMARK INTER:                  18.464
REMARK INTRA:                   1.234
REMARK UNBOUND:                 1.320
REMARK SMILES O=C(C=Cc1ccc(O)cc1)c1ccc(O)cc1O
REMARK SMILES IDX 4 1 3 2 5 3 6 4 7 5 8 6 11 7 10 8 9 9 2 11 1 12 12 13 18 14
REMARK SMILES IDX 13 15 17 16 14 17 15 18 19 19 16 21
REMARK H PARENT 9 10 19 20 16 22
REMARK Flexibility Score: inf
ROOT
ATOM      1  C   UNL     1      -5.503   1.864  13.786  1.00  0.00     0.012 C 
ATOM      2  C   UNL     1      -5.459   0.560  13.466  1.00  0.00     0.053 C 
ENDROOT
BRANCH   1   3
ATOM      3  C   UNL     1      -4.726   2.506  14.865  1.00  0.00    -0.025 A 
ATOM      4  C   UNL     1      -3.413   2.081  15.115  1.00  0.00     0.012 A 
ATOM      5  C   UNL     1      -2.644   2.706  16.102  1.00  0.00     0.047 A 
ATOM      6  C   UNL     1      -3.174   3.777  16.834  1.00  0.00     0.115 A 
ATOM      7  C   UNL     1      -5.242   3.600  15.581  1.00  0.00     0.012 A 
ATOM      8  C   UNL     1      -4.473   4.224  16.568  1.00  0.00     0.047 A 
BRANCH   6   9
ATOM      9  O   UNL     1      -2.419   4.406  17.821  1.00  0.00    -0.508 OA
ATOM     10  H   UNL     1      -2.782   5.194  18.343  1.00  0.00     0.293 HD
ENDBRANCH   6   9
ENDBRANCH   1   3
BRANCH   2  11
ATOM     11  C   UNL     1      -4.496  -0.425  14.013  1.00  0.00     0.189 C 
ATOM     12  O   UNL     1      -3.264  -0.159  14.059  1.00  0.00    -0.289 OA
BRANCH  11  13
ATOM     13  C   UNL     1      -4.956  -1.765  14.435  1.00  0.00     0.064 A 
ATOM     14  C   UNL     1      -5.707  -1.950  15.623  1.00  0.00     0.130 A 
ATOM     15  C   UNL     1      -4.608  -2.890  13.665  1.00  0.00     0.020 A 
ATOM     16  C   UNL     1      -6.072  -3.242  16.019  1.00  0.00     0.093 A 
ATOM     17  C   UNL     1      -4.989  -4.172  14.066  1.00  0.00     0.047 A 
ATOM     18  C   UNL     1      -5.717  -4.353  15.244  1.00  0.00     0.119 A 
BRANCH  14  19
ATOM     19  O   UNL     1      -6.125  -0.878  16.413  1.00  0.00    -0.507 OA
ATOM     20  H   UNL     1      -6.531  -0.993  17.333  1.00  0.00     0.293 HD
ENDBRANCH  14  19
BRANCH  18  21
ATOM     21  O   UNL     1      -6.084  -5.639  15.634  1.00  0.00    -0.508 OA
ATOM     22  H   UNL     1      -5.727  -6.055  16.486  1.00  0.00     0.293 HD
ENDBRANCH  18  21
ENDBRANCH  11  13
ENDBRANCH   2  11
TORSDOF 6
ENDMDL
MODEL 4
REMARK VINA RESULT:    14.719      2.180      6.235
REMARK INTER + INTRA:          19.912
REMARK INTER:                  19.825
REMARK INTRA:                   0.087
REMARK UNBOUND:                 1.320
REMARK SMILES O=C(C=Cc1ccc(O)cc1)c1ccc(O)cc1O
REMARK SMILES IDX 4 1 3 2 5 3 6 4 7 5 8 6 11 7 10 8 9 9 2 11 1 12 12 13 18 14
REMARK SMILES IDX 13 15 17 16 14 17 15 18 19 19 16 21
REMARK H PARENT 9 10 19 20 16 22
REMARK Flexibility Score: inf
ROOT
ATOM      1  C   UNL     1      -5.973   2.081  13.305  1.00  0.00     0.012 C 
ATOM      2  C   UNL     1      -6.048   0.831  12.820  1.00  0.00     0.053 C 
ENDROOT
BRANCH   1   3
ATOM      3  C   UNL     1      -5.084   2.520  14.400  1.00  0.00    -0.025 A 
ATOM      4  C   UNL     1      -5.561   3.437  15.348  1.00  0.00     0.012 A 
ATOM      5  C   UNL     1      -4.752   3.831  16.418  1.00  0.00     0.047 A 
ATOM      6  C   UNL     1      -3.466   3.295  16.563  1.00  0.00     0.115 A 
ATOM      7  C   UNL     1      -3.804   1.962  14.566  1.00  0.00     0.012 A 
ATOM      8  C   UNL     1      -2.996   2.358  15.636  1.00  0.00     0.047 A 
BRANCH   6   9
ATOM      9  O   UNL     1      -2.650   3.682  17.624  1.00  0.00    -0.508 OA
ATOM     10  H   UNL     1      -1.843   3.134  17.898  1.00  0.00     0.293 HD
ENDBRANCH   6   9
ENDBRANCH   1   3
BRANCH   2  11
ATOM     11  C   UNL     1      -5.131  -0.281  13.168  1.00  0.00     0.189 C 
ATOM     12  O   UNL     1      -4.209  -0.621  12.378  1.00  0.00    -0.289 OA
BRANCH  11  13
ATOM     13  C   UNL     1      -5.337  -1.060  14.408  1.00  0.00     0.064 A 
ATOM     14  C   UNL     1      -5.042  -2.444  14.471  1.00  0.00     0.130 A 
ATOM     15  C   UNL     1      -5.876  -0.424  15.541  1.00  0.00     0.020 A 
ATOM     16  C   UNL     1      -5.307  -3.157  15.646  1.00  0.00     0.093 A 
ATOM     17  C   UNL     1      -6.125  -1.145  16.710  1.00  0.00     0.047 A 
ATOM     18  C   UNL     1      -5.846  -2.512  16.766  1.00  0.00     0.119 A 
BRANCH  14  19
ATOM     19  O   UNL     1      -4.465  -3.132  13.402  1.00  0.00    -0.507 OA
ATOM     20  H   UNL     1      -4.985  -3.421  12.584  1.00  0.00     0.293 HD
ENDBRANCH  14  19
BRANCH  18  21
ATOM     21  O   UNL     1      -6.106  -3.219  17.937  1.00  0.00    -0.508 OA
ATOM     22  H   UNL     1      -6.697  -2.836  18.667  1.00  0.00     0.293 HD
ENDBRANCH  18  21
ENDBRANCH  11  13
ENDBRANCH   2  11
TORSDOF 6
ENDMDL
MODEL 5
REMARK VINA RESULT:    14.783      1.745      2.364
REMARK INTER + INTRA:          19.993
REMARK INTER:                  20.925
REMARK INTRA:                  -0.932
REMARK UNBOUND:                 1.320
REMARK SMILES O=C(C=Cc1ccc(O)cc1)c1ccc(O)cc1O
REMARK SMILES IDX 4 1 3 2 5 3 6 4 7 5 8 6 11 7 10 8 9 9 2 11 1 12 12 13 18 14
REMARK SMILES IDX 13 15 17 16 14 17 15 18 19 19 16 21
REMARK H PARENT 9 10 19 20 16 22
REMARK Flexibility Score: inf
ROOT
ATOM      1  C   UNL     1      -1.963  -1.104  14.584  1.00  0.00     0.012 C 
ATOM      2  C   UNL     1      -2.087   0.152  14.127  1.00  0.00     0.053 C 
ENDROOT
BRANCH   1   3
ATOM      3  C   UNL     1      -3.075  -2.059  14.772  1.00  0.00    -0.025 A 
ATOM      4  C   UNL     1      -3.286  -3.066  13.819  1.00  0.00     0.012 A 
ATOM      5  C   UNL     1      -4.304  -4.007  14.000  1.00  0.00     0.047 A 
ATOM      6  C   UNL     1      -5.107  -3.964  15.148  1.00  0.00     0.115 A 
ATOM      7  C   UNL     1      -3.862  -2.038  15.936  1.00  0.00     0.012 A 
ATOM      8  C   UNL     1      -4.881  -2.980  16.116  1.00  0.00     0.047 A 
BRANCH   6   9
ATOM      9  O   UNL     1      -6.125  -4.895  15.339  1.00  0.00    -0.508 OA
ATOM     10  H   UNL     1      -6.742  -4.848  16.141  1.00  0.00     0.293 HD
ENDBRANCH   6   9
ENDBRANCH   1   3
BRANCH   2  11
ATOM     11  C   UNL     1      -3.324   0.741  13.560  1.00  0.00     0.189 C 
ATOM     12  O   UNL     1      -3.701   0.439  12.395  1.00  0.00    -0.289 OA
BRANCH  11  13
ATOM     13  C   UNL     1      -4.088   1.752  14.321  1.00  0.00     0.064 A 
ATOM     14  C   UNL     1      -5.426   2.077  13.986  1.00  0.00     0.130 A 
ATOM     15  C   UNL     1      -3.464   2.438  15.378  1.00  0.00     0.020 A 
ATOM     16  C   UNL     1      -6.095   3.082  14.693  1.00  0.00     0.093 A 
ATOM     17  C   UNL     1      -4.146   3.431  16.083  1.00  0.00     0.047 A 
ATOM     18  C   UNL     1      -5.460   3.759  15.742  1.00  0.00     0.119 A 
BRANCH  14  19
ATOM     19  O   UNL     1      -6.124   1.408  12.978  1.00  0.00    -0.507 OA
ATOM     20  H   UNL     1      -6.035   1.636  11.997  1.00  0.00     0.293 HD
ENDBRANCH  14  19
BRANCH  18  21
ATOM     21  O   UNL     1      -6.125   4.756  16.451  1.00  0.00    -0.508 OA
ATOM     22  H   UNL     1      -5.894   5.736  16.330  1.00  0.00     0.293 HD
ENDBRANCH  18  21
ENDBRANCH  11  13
ENDBRANCH   2  11
TORSDOF 6
ENDMDL
MODEL 6
REMARK VINA RESULT:    15.889      1.787      6.727
REMARK INTER + INTRA:          21.389
REMARK INTER:                  20.598
REMARK INTRA:                   0.791
REMARK UNBOUND:                 1.320
REMARK SMILES O=C(C=Cc1ccc(O)cc1)c1ccc(O)cc1O
REMARK SMILES IDX 4 1 3 2 5 3 6 4 7 5 8 6 11 7 10 8 9 9 2 11 1 12 12 13 18 14
REMARK SMILES IDX 13 15 17 16 14 17 15 18 19 19 16 21
REMARK H PARENT 9 10 19 20 16 22
REMARK Flexibility Score: inf
ROOT
ATOM      1  C   UNL     1      -2.589   0.623  14.690  1.00  0.00     0.012 C 
ATOM      2  C   UNL     1      -2.878  -0.578  14.164  1.00  0.00     0.053 C 
ENDROOT
BRANCH   1   3
ATOM      3  C   UNL     1      -3.541   1.743  14.837  1.00  0.00    -0.025 A 
ATOM      4  C   UNL     1      -3.433   2.598  15.943  1.00  0.00     0.012 A 
ATOM      5  C   UNL     1      -4.295   3.690  16.078  1.00  0.00     0.047 A 
ATOM      6  C   UNL     1      -5.259   3.952  15.095  1.00  0.00     0.115 A 
ATOM      7  C   UNL     1      -4.490   2.026  13.839  1.00  0.00     0.012 A 
ATOM      8  C   UNL     1      -5.352   3.119  13.975  1.00  0.00     0.047 A 
BRANCH   6   9
ATOM      9  O   UNL     1      -6.125   5.036  15.219  1.00  0.00    -0.508 OA
ATOM     10  H   UNL     1      -6.146   5.603  16.057  1.00  0.00     0.293 HD
ENDBRANCH   6   9
ENDBRANCH   1   3
BRANCH   2  11
ATOM     11  C   UNL     1      -4.236  -1.055  13.808  1.00  0.00     0.189 C 
ATOM     12  O   UNL     1      -4.975  -0.373  13.047  1.00  0.00    -0.289 OA
BRANCH  11  13
ATOM     13  C   UNL     1      -4.774  -2.296  14.405  1.00  0.00     0.064 A 
ATOM     14  C   UNL     1      -5.588  -2.268  15.564  1.00  0.00     0.130 A 
ATOM     15  C   UNL     1      -4.438  -3.538  13.837  1.00  0.00     0.020 A 
ATOM     16  C   UNL     1      -6.028  -3.469  16.133  1.00  0.00     0.093 A 
ATOM     17  C   UNL     1      -4.892  -4.728  14.407  1.00  0.00     0.047 A 
ATOM     18  C   UNL     1      -5.684  -4.699  15.557  1.00  0.00     0.119 A 
BRANCH  14  19
ATOM     19  O   UNL     1      -5.998  -1.073  16.157  1.00  0.00    -0.507 OA
ATOM     20  H   UNL     1      -5.482  -0.616  16.898  1.00  0.00     0.293 HD
ENDBRANCH  14  19
BRANCH  18  21
ATOM     21  O   UNL     1      -6.124  -5.895  16.119  1.00  0.00    -0.508 OA
ATOM     22  H   UNL     1      -6.914  -5.923  16.754  1.00  0.00     0.293 HD
ENDBRANCH  18  21
ENDBRANCH  11  13
ENDBRANCH   2  11
TORSDOF 6
ENDMDL
MODEL 7
REMARK VINA RESULT:    16.315      1.082      2.012
REMARK INTER + INTRA:          21.927
REMARK INTER:                  21.441
REMARK INTRA:                   0.487
REMARK UNBOUND:                 1.320
REMARK SMILES O=C(C=Cc1ccc(O)cc1)c1ccc(O)cc1O
REMARK SMILES IDX 4 1 3 2 5 3 6 4 7 5 8 6 11 7 10 8 9 9 2 11 1 12 12 13 18 14
REMARK SMILES IDX 13 15 17 16 14 17 15 18 19 19 16 21
REMARK H PARENT 9 10 19 20 16 22
REMARK Flexibility Score: inf
ROOT
ATOM      1  C   UNL     1      -5.844  -2.347  16.381  1.00  0.00     0.012 C 
ATOM      2  C   UNL     1      -5.515  -1.083  16.695  1.00  0.00     0.053 C 
ENDROOT
BRANCH   1   3
ATOM      3  C   UNL     1      -5.386  -3.076  15.181  1.00  0.00    -0.025 A 
ATOM      4  C   UNL     1      -4.606  -2.410  14.225  1.00  0.00     0.012 A 
ATOM      5  C   UNL     1      -4.125  -3.094  13.105  1.00  0.00     0.047 A 
ATOM      6  C   UNL     1      -4.399  -4.458  12.941  1.00  0.00     0.115 A 
ATOM      7  C   UNL     1      -5.633  -4.452  15.029  1.00  0.00     0.012 A 
ATOM      8  C   UNL     1      -5.152  -5.135  13.907  1.00  0.00     0.047 A 
BRANCH   6   9
ATOM      9  O   UNL     1      -3.927  -5.150  11.829  1.00  0.00    -0.508 OA
ATOM     10  H   UNL     1      -4.389  -5.087  10.930  1.00  0.00     0.293 HD
ENDBRANCH   6   9
ENDBRANCH   1   3
BRANCH   2  11
ATOM     11  C   UNL     1      -4.496  -0.263  15.996  1.00  0.00     0.189 C 
ATOM     12  O   UNL     1      -3.294  -0.639  15.950  1.00  0.00    -0.289 OA
BRANCH  11  13
ATOM     13  C   UNL     1      -4.861   1.046  15.415  1.00  0.00     0.064 A 
ATOM     14  C   UNL     1      -4.392   2.261  15.973  1.00  0.00     0.130 A 
ATOM     15  C   UNL     1      -5.726   1.093  14.307  1.00  0.00     0.020 A 
ATOM     16  C   UNL     1      -4.809   3.482  15.429  1.00  0.00     0.093 A 
ATOM     17  C   UNL     1      -6.125   2.317  13.767  1.00  0.00     0.047 A 
ATOM     18  C   UNL     1      -5.672   3.514  14.327  1.00  0.00     0.119 A 
BRANCH  14  19
ATOM     19  O   UNL     1      -3.497   2.292  17.044  1.00  0.00    -0.507 OA
ATOM     20  H   UNL     1      -3.751   2.022  17.986  1.00  0.00     0.293 HD
ENDBRANCH  14  19
BRANCH  18  21
ATOM     21  O   UNL     1      -6.084   4.727  13.781  1.00  0.00    -0.508 OA
ATOM     22  H   UNL     1      -5.731   5.611  14.129  1.00  0.00     0.293 HD
ENDBRANCH  18  21
ENDBRANCH  11  13
ENDBRANCH   2  11
TORSDOF 6
ENDMDL
MODEL 8
REMARK VINA RESULT:    16.372      1.955      5.072
REMARK INTER + INTRA:          22.000
REMARK INTER:                  18.625
REMARK INTRA:                   3.375
REMARK UNBOUND:                 1.320
REMARK SMILES O=C(C=Cc1ccc(O)cc1)c1ccc(O)cc1O
REMARK SMILES IDX 4 1 3 2 5 3 6 4 7 5 8 6 11 7 10 8 9 9 2 11 1 12 12 13 18 14
REMARK SMILES IDX 13 15 17 16 14 17 15 18 19 19 16 21
REMARK H PARENT 9 10 19 20 16 22
REMARK Flexibility Score: inf
ROOT
ATOM      1  C   UNL     1      -5.995  -1.734  16.373  1.00  0.00     0.012 C 
ATOM      2  C   UNL     1      -5.533  -2.840  15.768  1.00  0.00     0.053 C 
ENDROOT
BRANCH   1   3
ATOM      3  C   UNL     1      -5.589  -0.350  16.050  1.00  0.00    -0.025 A 
ATOM      4  C   UNL     1      -4.581   0.266  16.805  1.00  0.00     0.012 A 
ATOM      5  C   UNL     1      -4.151   1.558  16.487  1.00  0.00     0.047 A 
ATOM      6  C   UNL     1      -4.709   2.237  15.396  1.00  0.00     0.115 A 
ATOM      7  C   UNL     1      -6.125   0.323  14.938  1.00  0.00     0.012 A 
ATOM      8  C   UNL     1      -5.694   1.615  14.621  1.00  0.00     0.047 A 
BRANCH   6   9
ATOM      9  O   UNL     1      -4.290   3.525  15.070  1.00  0.00    -0.508 OA
ATOM     10  H   UNL     1      -4.505   3.941  14.173  1.00  0.00     0.293 HD
ENDBRANCH   6   9
ENDBRANCH   1   3
BRANCH   2  11
ATOM     11  C   UNL     1      -4.680  -2.863  14.556  1.00  0.00     0.189 C 
ATOM     12  O   UNL     1      -4.645  -3.884  13.818  1.00  0.00    -0.289 OA
BRANCH  11  13
ATOM     13  C   UNL     1      -3.797  -1.720  14.241  1.00  0.00     0.064 A 
ATOM     14  C   UNL     1      -2.492  -1.621  14.782  1.00  0.00     0.130 A 
ATOM     15  C   UNL     1      -4.275  -0.685  13.417  1.00  0.00     0.020 A 
ATOM     16  C   UNL     1      -1.710  -0.493  14.507  1.00  0.00     0.093 A 
ATOM     17  C   UNL     1      -3.480   0.429  13.141  1.00  0.00     0.047 A 
ATOM     18  C   UNL     1      -2.199   0.532  13.687  1.00  0.00     0.119 A 
BRANCH  14  19
ATOM     19  O   UNL     1      -1.935  -2.628  15.572  1.00  0.00    -0.507 OA
ATOM     20  H   UNL     1      -2.436  -3.466  15.837  1.00  0.00     0.293 HD
ENDBRANCH  14  19
BRANCH  18  21
ATOM     21  O   UNL     1      -1.421   1.652  13.408  1.00  0.00    -0.508 OA
ATOM     22  H   UNL     1      -1.839   2.563  13.257  1.00  0.00     0.293 HD
ENDBRANCH  18  21
ENDBRANCH  11  13
ENDBRANCH   2  11
TORSDOF 6
ENDMDL
