MODEL 1
REMARK VINA RESULT:    -3.851      0.000      0.000
REMARK INTER + INTRA:          -5.374
REMARK INTER:                  -5.202
REMARK INTRA:                  -0.172
REMARK UNBOUND:                -0.172
REMARK SMILES CCCCCCCC=O
REMARK SMILES IDX 5 1 4 2 3 3 2 4 1 5 6 6 7 7 8 8 9 9
REMARK H PARENT
REMARK Flexibility Score: inf
ROOT
ATOM      1  C   UNL     1      25.386  58.419  -8.999  1.00  0.00     0.000 C 
ENDROOT
BRANCH   1   2
ATOM      2  C   UNL     1      25.859  56.961  -9.101  1.00  0.00     0.000 C 
BRANCH   2   3
ATOM      3  C   UNL     1      25.230  56.102  -7.993  1.00  0.00    -0.000 C 
BRANCH   3   4
ATOM      4  C   UNL     1      23.955  55.380  -8.456  1.00  0.00    -0.003 C 
ATOM      5  C   UNL     1      23.018  55.036  -7.300  1.00  0.00     0.004 C 
ENDBRANCH   3   4
ENDBRANCH   2   3
ENDBRANCH   1   2
BRANCH   1   6
ATOM      6  C   UNL     1      26.386  59.410  -9.614  1.00  0.00     0.008 C 
BRANCH   6   7
ATOM      7  C   UNL     1      27.344  58.741 -10.612  1.00  0.00     0.072 C 
BRANCH   7   8
ATOM      8  C   UNL     1      28.601  59.543 -10.762  1.00  0.00     0.224 C 
ATOM      9  O   UNL     1      28.587  60.611 -11.352  1.00  0.00    -0.303 OA
ENDBRANCH   7   8
ENDBRANCH   6   7
ENDBRANCH   1   6
TORSDOF 6
ENDMDL
MODEL 2
REMARK VINA RESULT:    -3.832      3.010      5.686
REMARK INTER + INTRA:          -5.348
REMARK INTER:                  -5.156
REMARK INTRA:                  -0.192
REMARK UNBOUND:                -0.172
REMARK SMILES CCCCCCCC=O
REMARK SMILES IDX 5 1 4 2 3 3 2 4 1 5 6 6 7 7 8 8 9 9
REMARK H PARENT
REMARK Flexibility Score: inf
ROOT
ATOM      1  C   UNL     1      25.169  58.012  -9.002  1.00  0.00     0.000 C 
ENDROOT
BRANCH   1   2
ATOM      2  C   UNL     1      26.163  59.114  -9.397  1.00  0.00     0.000 C 
BRANCH   2   3
ATOM      3  C   UNL     1      27.144  58.609 -10.466  1.00  0.00    -0.000 C 
BRANCH   3   4
ATOM      4  C   UNL     1      28.472  59.382 -10.462  1.00  0.00    -0.003 C 
ATOM      5  C   UNL     1      28.300  60.855 -10.827  1.00  0.00     0.004 C 
ENDBRANCH   3   4
ENDBRANCH   2   3
ENDBRANCH   1   2
BRANCH   1   6
ATOM      6  C   UNL     1      25.826  56.626  -8.908  1.00  0.00     0.008 C 
BRANCH   6   7
ATOM      7  C   UNL     1      25.112  55.699  -7.913  1.00  0.00     0.072 C 
BRANCH   7   8
ATOM      8  C   UNL     1      23.668  55.537  -8.278  1.00  0.00     0.224 C 
ATOM      9  O   UNL     1      22.887  55.016  -7.498  1.00  0.00    -0.303 OA
ENDBRANCH   7   8
ENDBRANCH   6   7
ENDBRANCH   1   6
TORSDOF 6
ENDMDL
MODEL 3
REMARK VINA RESULT:    -3.645     17.921     19.306
REMARK INTER + INTRA:          -5.096
REMARK INTER:                  -4.654
REMARK INTRA:                  -0.442
REMARK UNBOUND:                -0.172
REMARK SMILES CCCCCCCC=O
REMARK SMILES IDX 5 1 4 2 3 3 2 4 1 5 6 6 7 7 8 8 9 9
REMARK H PARENT
REMARK Flexibility Score: inf
ROOT
ATOM      1  C   UNL     1      18.003  42.660   1.475  1.00  0.00     0.000 C 
ENDROOT
BRANCH   1   2
ATOM      2  C   UNL     1      16.532  43.034   1.242  1.00  0.00     0.000 C 
BRANCH   2   3
ATOM      3  C   UNL     1      16.287  44.517   1.557  1.00  0.00    -0.000 C 
BRANCH   3   4
ATOM      4  C   UNL     1      15.702  45.287   0.362  1.00  0.00    -0.003 C 
ATOM      5  C   UNL     1      16.771  45.733  -0.634  1.00  0.00     0.004 C 
ENDBRANCH   3   4
ENDBRANCH   2   3
ENDBRANCH   1   2
BRANCH   1   6
ATOM      6  C   UNL     1      18.862  43.864   1.893  1.00  0.00     0.008 C 
BRANCH   6   7
ATOM      7  C   UNL     1      20.088  44.058   0.988  1.00  0.00     0.072 C 
BRANCH   7   8
ATOM      8  C   UNL     1      20.996  42.869   1.060  1.00  0.00     0.224 C 
ATOM      9  O   UNL     1      21.256  42.227   0.055  1.00  0.00    -0.303 OA
ENDBRANCH   7   8
ENDBRANCH   6   7
ENDBRANCH   1   6
TORSDOF 6
ENDMDL
MODEL 4
REMARK VINA RESULT:    -3.593     17.837     18.898
REMARK INTER + INTRA:          -5.024
REMARK INTER:                  -4.798
REMARK INTRA:                  -0.226
REMARK UNBOUND:                -0.172
REMARK SMILES CCCCCCCC=O
REMARK SMILES IDX 5 1 4 2 3 3 2 4 1 5 6 6 7 7 8 8 9 9
REMARK H PARENT
REMARK Flexibility Score: inf
ROOT
ATOM      1  C   UNL     1      19.074  44.835  -0.014  1.00  0.00     0.000 C 
ENDROOT
BRANCH   1   2
ATOM      2  C   UNL     1      17.551  45.037  -0.025  1.00  0.00     0.000 C 
BRANCH   2   3
ATOM      3  C   UNL     1      16.901  44.374   1.199  1.00  0.00    -0.000 C 
BRANCH   3   4
ATOM      4  C   UNL     1      15.517  44.959   1.522  1.00  0.00    -0.003 C 
ATOM      5  C   UNL     1      14.864  45.632   0.316  1.00  0.00     0.004 C 
ENDBRANCH   3   4
ENDBRANCH   2   3
ENDBRANCH   1   2
BRANCH   1   6
ATOM      6  C   UNL     1      19.624  44.553   1.393  1.00  0.00     0.008 C 
BRANCH   6   7
ATOM      7  C   UNL     1      20.106  43.105   1.561  1.00  0.00     0.072 C 
BRANCH   7   8
ATOM      8  C   UNL     1      20.404  42.485   0.229  1.00  0.00     0.224 C 
ATOM      9  O   UNL     1      21.533  42.103  -0.037  1.00  0.00    -0.303 OA
ENDBRANCH   7   8
ENDBRANCH   6   7
ENDBRANCH   1   6
TORSDOF 6
ENDMDL
MODEL 5
REMARK VINA RESULT:    -3.571     15.893     17.408
REMARK INTER + INTRA:          -4.995
REMARK INTER:                  -4.669
REMARK INTRA:                  -0.326
REMARK UNBOUND:                -0.172
REMARK SMILES CCCCCCCC=O
REMARK SMILES IDX 5 1 4 2 3 3 2 4 1 5 6 6 7 7 8 8 9 9
REMARK H PARENT
REMARK Flexibility Score: inf
ROOT
ATOM      1  C   UNL     1      32.257  44.874   1.855  1.00  0.00     0.000 C 
ENDROOT
BRANCH   1   2
ATOM      2  C   UNL     1      33.064  46.035   1.254  1.00  0.00     0.000 C 
BRANCH   2   3
ATOM      3  C   UNL     1      33.491  47.028   2.345  1.00  0.00    -0.000 C 
BRANCH   3   4
ATOM      4  C   UNL     1      32.445  47.166   3.462  1.00  0.00    -0.003 C 
ATOM      5  C   UNL     1      32.268  48.610   3.930  1.00  0.00     0.004 C 
ENDBRANCH   3   4
ENDBRANCH   2   3
ENDBRANCH   1   2
BRANCH   1   6
ATOM      6  C   UNL     1      31.035  44.499   1.002  1.00  0.00     0.008 C 
BRANCH   6   7
ATOM      7  C   UNL     1      29.996  45.628   0.929  1.00  0.00     0.072 C 
BRANCH   7   8
ATOM      8  C   UNL     1      29.009  45.374  -0.169  1.00  0.00     0.224 C 
ATOM      9  O   UNL     1      28.171  46.214  -0.454  1.00  0.00    -0.303 OA
ENDBRANCH   7   8
ENDBRANCH   6   7
ENDBRANCH   1   6
TORSDOF 6
ENDMDL
MODEL 6
REMARK VINA RESULT:    -3.561      4.126      7.109
REMARK INTER + INTRA:          -4.982
REMARK INTER:                  -4.692
REMARK INTRA:                  -0.289
REMARK UNBOUND:                -0.172
REMARK SMILES CCCCCCCC=O
REMARK SMILES IDX 5 1 4 2 3 3 2 4 1 5 6 6 7 7 8 8 9 9
REMARK H PARENT
REMARK Flexibility Score: inf
ROOT
ATOM      1  C   UNL     1      30.363  58.812 -12.906  1.00  0.00     0.000 C 
ENDROOT
BRANCH   1   2
ATOM      2  C   UNL     1      30.261  57.295 -13.125  1.00  0.00     0.000 C 
BRANCH   2   3
ATOM      3  C   UNL     1      31.491  56.767 -13.879  1.00  0.00    -0.000 C 
BRANCH   3   4
ATOM      4  C   UNL     1      32.633  57.794 -13.941  1.00  0.00    -0.003 C 
ATOM      5  C   UNL     1      33.985  57.197 -13.556  1.00  0.00     0.004 C 
ENDBRANCH   3   4
ENDBRANCH   2   3
ENDBRANCH   1   2
BRANCH   1   6
ATOM      6  C   UNL     1      30.133  59.216 -11.441  1.00  0.00     0.008 C 
BRANCH   6   7
ATOM      7  C   UNL     1      29.012  60.254 -11.283  1.00  0.00     0.072 C 
BRANCH   7   8
ATOM      8  C   UNL     1      27.836  59.664 -10.567  1.00  0.00     0.224 C 
ATOM      9  O   UNL     1      27.385  58.581 -10.905  1.00  0.00    -0.303 OA
ENDBRANCH   7   8
ENDBRANCH   6   7
ENDBRANCH   1   6
TORSDOF 6
ENDMDL
MODEL 7
REMARK VINA RESULT:    -3.549     17.294     19.160
REMARK INTER + INTRA:          -4.965
REMARK INTER:                  -4.468
REMARK INTRA:                  -0.497
REMARK UNBOUND:                -0.172
REMARK SMILES CCCCCCCC=O
REMARK SMILES IDX 5 1 4 2 3 3 2 4 1 5 6 6 7 7 8 8 9 9
REMARK H PARENT
REMARK Flexibility Score: inf
ROOT
ATOM      1  C   UNL     1      16.541  43.083   1.139  1.00  0.00     0.000 C 
ENDROOT
BRANCH   1   2
ATOM      2  C   UNL     1      18.031  42.710   1.128  1.00  0.00     0.000 C 
BRANCH   2   3
ATOM      3  C   UNL     1      18.853  43.712   1.953  1.00  0.00    -0.000 C 
BRANCH   3   4
ATOM      4  C   UNL     1      20.037  44.294   1.166  1.00  0.00    -0.003 C 
ATOM      5  C   UNL     1      19.596  45.107  -0.050  1.00  0.00     0.004 C 
ENDBRANCH   3   4
ENDBRANCH   2   3
ENDBRANCH   1   2
BRANCH   1   6
ATOM      6  C   UNL     1      16.293  44.519   1.626  1.00  0.00     0.008 C 
BRANCH   6   7
ATOM      7  C   UNL     1      15.388  45.317   0.676  1.00  0.00     0.072 C 
BRANCH   7   8
ATOM      8  C   UNL     1      15.846  45.174  -0.743  1.00  0.00     0.224 C 
ATOM      9  O   UNL     1      16.221  46.149  -1.374  1.00  0.00    -0.303 OA
ENDBRANCH   7   8
ENDBRANCH   6   7
ENDBRANCH   1   6
TORSDOF 6
ENDMDL
MODEL 8
REMARK VINA RESULT:    -3.537     16.016     17.400
REMARK INTER + INTRA:          -4.949
REMARK INTER:                  -4.658
REMARK INTRA:                  -0.290
REMARK UNBOUND:                -0.172
REMARK SMILES CCCCCCCC=O
REMARK SMILES IDX 5 1 4 2 3 3 2 4 1 5 6 6 7 7 8 8 9 9
REMARK H PARENT
REMARK Flexibility Score: inf
ROOT
ATOM      1  C   UNL     1      32.711  46.026   2.053  1.00  0.00     0.000 C 
ENDROOT
BRANCH   1   2
ATOM      2  C   UNL     1      32.227  44.572   1.950  1.00  0.00     0.000 C 
BRANCH   2   3
ATOM      3  C   UNL     1      31.170  44.422   0.846  1.00  0.00    -0.000 C 
BRANCH   3   4
ATOM      4  C   UNL     1      30.144  45.566   0.851  1.00  0.00    -0.003 C 
ATOM      5  C   UNL     1      29.028  45.363  -0.173  1.00  0.00     0.004 C 
ENDBRANCH   3   4
ENDBRANCH   2   3
ENDBRANCH   1   2
BRANCH   1   6
ATOM      6  C   UNL     1      32.781  46.525   3.505  1.00  0.00     0.008 C 
BRANCH   6   7
ATOM      7  C   UNL     1      31.862  47.730   3.760  1.00  0.00     0.072 C 
BRANCH   7   8
ATOM      8  C   UNL     1      32.664  48.981   3.950  1.00  0.00     0.224 C 
ATOM      9  O   UNL     1      33.369  49.407   3.048  1.00  0.00    -0.303 OA
ENDBRANCH   7   8
ENDBRANCH   6   7
ENDBRANCH   1   6
TORSDOF 6
ENDMDL
MODEL 9
REMARK VINA RESULT:    -3.493      3.880      5.643
REMARK INTER + INTRA:          -4.890
REMARK INTER:                  -4.425
REMARK INTRA:                  -0.465
REMARK UNBOUND:                -0.172
REMARK SMILES CCCCCCCC=O
REMARK SMILES IDX 5 1 4 2 3 3 2 4 1 5 6 6 7 7 8 8 9 9
REMARK H PARENT
REMARK Flexibility Score: inf
ROOT
ATOM      1  C   UNL     1      31.067  59.224 -11.586  1.00  0.00     0.000 C 
ENDROOT
BRANCH   1   2
ATOM      2  C   UNL     1      30.094  59.535 -10.439  1.00  0.00     0.000 C 
BRANCH   2   3
ATOM      3  C   UNL     1      29.026  60.544 -10.884  1.00  0.00    -0.000 C 
BRANCH   3   4
ATOM      4  C   UNL     1      27.628  60.201 -10.347  1.00  0.00    -0.003 C 
ATOM      5  C   UNL     1      27.295  58.715 -10.474  1.00  0.00     0.004 C 
ENDBRANCH   3   4
ENDBRANCH   2   3
ENDBRANCH   1   2
BRANCH   1   6
ATOM      6  C   UNL     1      30.351  59.004 -12.927  1.00  0.00     0.008 C 
BRANCH   6   7
ATOM      7  C   UNL     1      29.910  57.546 -13.130  1.00  0.00     0.072 C 
BRANCH   7   8
ATOM      8  C   UNL     1      31.099  56.644 -13.261  1.00  0.00     0.224 C 
ATOM      9  O   UNL     1      31.851  56.746 -14.217  1.00  0.00    -0.303 OA
ENDBRANCH   7   8
ENDBRANCH   6   7
ENDBRANCH   1   6
TORSDOF 6
ENDMDL
