MODEL 1
REMARK VINA RESULT:    -4.280      0.000      0.000
REMARK INTER + INTRA:          -5.848
REMARK INTER:                  -5.781
REMARK INTRA:                  -0.066
REMARK UNBOUND:                -0.066
REMARK SMILES [NH3+]CCCC[C@H]([NH3+])C(=O)[O-]
REMARK SMILES IDX 4 1 3 2 2 3 1 4 5 8 6 9 7 10 8 14 9 15 10 16
REMARK H PARENT 1 5 1 6 1 7 7 11 7 12 7 13
REMARK Flexibility Score: inf
ROOT
ATOM      1  C   UNL     1      -8.348  -6.436 -11.090  1.00  0.00     0.012 C 
ENDROOT
BRANCH   1   2
ATOM      2  C   UNL     1      -7.243  -6.312 -10.025  1.00  0.00     0.061 C 
BRANCH   2   3
ATOM      3  C   UNL     1      -7.148  -4.933  -9.345  1.00  0.00     0.258 C 
BRANCH   3   4
ATOM      4  N   UNL     1      -7.859  -4.894  -8.065  1.00  0.00    -0.358 N 
ATOM      5  H   UNL     1      -8.854  -4.623  -8.238  1.00  0.00     0.344 HD
ATOM      6  H   UNL     1      -7.842  -5.836  -7.609  1.00  0.00     0.344 HD
ATOM      7  H   UNL     1      -7.430  -4.182  -7.433  1.00  0.00     0.344 HD
ENDBRANCH   3   4
ENDBRANCH   2   3
ENDBRANCH   1   2
BRANCH   1   8
ATOM      8  C   UNL     1      -7.914  -6.124 -12.537  1.00  0.00     0.072 C 
BRANCH   8   9
ATOM      9  C   UNL     1      -9.036  -6.320 -13.591  1.00  0.00     0.227 C 
BRANCH   9  10
ATOM     10  N   UNL     1      -9.030  -7.699 -14.094  1.00  0.00    -0.350 N 
ATOM     11  H   UNL     1      -8.190  -8.216 -13.744  1.00  0.00     0.345 HD
ATOM     12  H   UNL     1      -9.895  -8.196 -13.781  1.00  0.00     0.345 HD
ATOM     13  H   UNL     1      -9.020  -7.697 -15.141  1.00  0.00     0.345 HD
ENDBRANCH   9  10
BRANCH   9  14
ATOM     14  C   UNL     1      -8.892  -5.361 -14.744  1.00  0.00     0.099 C 
ATOM     15  O   UNL     1      -9.909  -4.835 -15.270  1.00  0.00    -0.544 OA
ATOM     16  O   UNL     1      -7.628  -5.013 -15.203  1.00  0.00    -0.544 OA
ENDBRANCH   9  14
ENDBRANCH   8   9
ENDBRANCH   1   8
TORSDOF 7
ENDMDL
MODEL 2
REMARK VINA RESULT:    -4.270      1.376      1.596
REMARK INTER + INTRA:          -5.834
REMARK INTER:                  -5.721
REMARK INTRA:                  -0.114
REMARK UNBOUND:                -0.066
REMARK SMILES [NH3+]CCCC[C@H]([NH3+])C(=O)[O-]
REMARK SMILES IDX 4 1 3 2 2 3 1 4 5 8 6 9 7 10 8 14 9 15 10 16
REMARK H PARENT 1 5 1 6 1 7 7 11 7 12 7 13
REMARK Flexibility Score: inf
ROOT
ATOM      1  C   UNL     1      -8.203  -6.068 -11.806  1.00  0.00     0.012 C 
ENDROOT
BRANCH   1   2
ATOM      2  C   UNL     1      -7.576  -6.376 -10.435  1.00  0.00     0.061 C 
BRANCH   2   3
ATOM      3  C   UNL     1      -7.088  -5.143  -9.650  1.00  0.00     0.258 C 
BRANCH   3   4
ATOM      4  N   UNL     1      -7.749  -5.014  -8.351  1.00  0.00    -0.358 N 
ATOM      5  H   UNL     1      -7.480  -4.099  -7.922  1.00  0.00     0.344 HD
ATOM      6  H   UNL     1      -8.789  -5.037  -8.466  1.00  0.00     0.344 HD
ATOM      7  H   UNL     1      -7.442  -5.779  -7.710  1.00  0.00     0.344 HD
ENDBRANCH   3   4
ENDBRANCH   2   3
ENDBRANCH   1   2
BRANCH   1   8
ATOM      8  C   UNL     1      -7.782  -7.007 -12.956  1.00  0.00     0.072 C 
BRANCH   8   9
ATOM      9  C   UNL     1      -7.809  -6.343 -14.357  1.00  0.00     0.227 C 
BRANCH   9  10
ATOM     10  N   UNL     1      -6.634  -5.483 -14.540  1.00  0.00    -0.350 N 
ATOM     11  H   UNL     1      -6.890  -4.616 -15.068  1.00  0.00     0.345 HD
ATOM     12  H   UNL     1      -6.240  -5.214 -13.609  1.00  0.00     0.345 HD
ATOM     13  H   UNL     1      -5.892  -5.999 -15.068  1.00  0.00     0.345 HD
ENDBRANCH   9  10
BRANCH   9  14
ATOM     14  C   UNL     1      -9.064  -5.535 -14.568  1.00  0.00     0.099 C 
ATOM     15  O   UNL     1      -8.996  -4.302 -14.820  1.00  0.00    -0.544 OA
ATOM     16  O   UNL     1     -10.305  -6.159 -14.533  1.00  0.00    -0.544 OA
ENDBRANCH   9  14
ENDBRANCH   8   9
ENDBRANCH   1   8
TORSDOF 7
ENDMDL
MODEL 3
REMARK VINA RESULT:    -4.216      1.594      1.979
REMARK INTER + INTRA:          -5.761
REMARK INTER:                  -5.633
REMARK INTRA:                  -0.128
REMARK UNBOUND:                -0.066
REMARK SMILES [NH3+]CCCC[C@H]([NH3+])C(=O)[O-]
REMARK SMILES IDX 4 1 3 2 2 3 1 4 5 8 6 9 7 10 8 14 9 15 10 16
REMARK H PARENT 1 5 1 6 1 7 7 11 7 12 7 13
REMARK Flexibility Score: inf
ROOT
ATOM      1  C   UNL     1      -7.868  -6.734 -13.137  1.00  0.00     0.012 C 
ENDROOT
BRANCH   1   2
ATOM      2  C   UNL     1      -8.391  -6.094 -11.839  1.00  0.00     0.061 C 
BRANCH   2   3
ATOM      3  C   UNL     1      -7.507  -6.324 -10.598  1.00  0.00     0.258 C 
BRANCH   3   4
ATOM      4  N   UNL     1      -6.818  -5.105 -10.172  1.00  0.00    -0.358 N 
ATOM      5  H   UNL     1      -7.531  -4.388  -9.905  1.00  0.00     0.344 HD
ATOM      6  H   UNL     1      -6.210  -5.299  -9.342  1.00  0.00     0.344 HD
ATOM      7  H   UNL     1      -6.244  -4.720 -10.955  1.00  0.00     0.344 HD
ENDBRANCH   3   4
ENDBRANCH   2   3
ENDBRANCH   1   2
BRANCH   1   8
ATOM      8  C   UNL     1      -8.826  -6.668 -14.344  1.00  0.00     0.072 C 
BRANCH   8   9
ATOM      9  C   UNL     1      -9.642  -5.352 -14.434  1.00  0.00     0.227 C 
BRANCH   9  10
ATOM     10  N   UNL     1     -10.943  -5.598 -15.069  1.00  0.00    -0.350 N 
ATOM     11  H   UNL     1     -11.443  -6.385 -14.593  1.00  0.00     0.345 HD
ATOM     12  H   UNL     1     -11.533  -4.736 -15.019  1.00  0.00     0.345 HD
ATOM     13  H   UNL     1     -10.808  -5.839 -16.079  1.00  0.00     0.345 HD
ENDBRANCH   9  10
BRANCH   9  14
ATOM     14  C   UNL     1      -8.900  -4.287 -15.200  1.00  0.00     0.099 C 
ATOM     15  O   UNL     1      -9.314  -3.097 -15.204  1.00  0.00    -0.544 OA
ATOM     16  O   UNL     1      -7.724  -4.605 -15.867  1.00  0.00    -0.544 OA
ENDBRANCH   9  14
ENDBRANCH   8   9
ENDBRANCH   1   8
TORSDOF 7
ENDMDL
MODEL 4
REMARK VINA RESULT:    -4.132      4.124      4.899
REMARK INTER + INTRA:          -5.647
REMARK INTER:                  -5.567
REMARK INTRA:                  -0.080
REMARK UNBOUND:                -0.066
REMARK SMILES [NH3+]CCCC[C@H]([NH3+])C(=O)[O-]
REMARK SMILES IDX 4 1 3 2 2 3 1 4 5 8 6 9 7 10 8 14 9 15 10 16
REMARK H PARENT 1 5 1 6 1 7 7 11 7 12 7 13
REMARK Flexibility Score: inf
ROOT
ATOM      1  C   UNL     1     -10.894  -5.904 -15.082  1.00  0.00     0.012 C 
ENDROOT
BRANCH   1   2
ATOM      2  C   UNL     1     -10.061  -7.119 -14.636  1.00  0.00     0.061 C 
BRANCH   2   3
ATOM      3  C   UNL     1     -10.641  -8.488 -15.038  1.00  0.00     0.258 C 
BRANCH   3   4
ATOM      4  N   UNL     1      -9.972  -9.597 -14.355  1.00  0.00    -0.358 N 
ATOM      5  H   UNL     1      -8.946  -9.400 -14.313  1.00  0.00     0.344 HD
ATOM      6  H   UNL     1     -10.336  -9.698 -13.379  1.00  0.00     0.344 HD
ATOM      7  H   UNL     1     -10.113 -10.487 -14.885  1.00  0.00     0.344 HD
ENDBRANCH   3   4
ENDBRANCH   2   3
ENDBRANCH   1   2
BRANCH   1   8
ATOM      8  C   UNL     1     -10.131  -4.833 -15.889  1.00  0.00     0.072 C 
BRANCH   8   9
ATOM      9  C   UNL     1      -8.897  -4.247 -15.156  1.00  0.00     0.227 C 
BRANCH   9  10
ATOM     10  N   UNL     1      -8.893  -2.782 -15.249  1.00  0.00    -0.350 N 
ATOM     11  H   UNL     1      -8.205  -2.460 -15.969  1.00  0.00     0.345 HD
ATOM     12  H   UNL     1      -9.847  -2.439 -15.507  1.00  0.00     0.345 HD
ATOM     13  H   UNL     1      -8.640  -2.366 -14.322  1.00  0.00     0.345 HD
ENDBRANCH   9  10
BRANCH   9  14
ATOM     14  C   UNL     1      -7.606  -4.792 -15.712  1.00  0.00     0.099 C 
ATOM     15  O   UNL     1      -7.218  -4.465 -16.866  1.00  0.00    -0.544 OA
ATOM     16  O   UNL     1      -6.811  -5.622 -14.932  1.00  0.00    -0.544 OA
ENDBRANCH   9  14
ENDBRANCH   8   9
ENDBRANCH   1   8
TORSDOF 7
ENDMDL
MODEL 5
REMARK VINA RESULT:    -4.122      3.116      5.053
REMARK INTER + INTRA:          -5.634
REMARK INTER:                  -5.437
REMARK INTRA:                  -0.197
REMARK UNBOUND:                -0.066
REMARK SMILES [NH3+]CCCC[C@H]([NH3+])C(=O)[O-]
REMARK SMILES IDX 4 1 3 2 2 3 1 4 5 8 6 9 7 10 8 14 9 15 10 16
REMARK H PARENT 1 5 1 6 1 7 7 11 7 12 7 13
REMARK Flexibility Score: inf
ROOT
ATOM      1  C   UNL     1      -7.460  -4.983 -15.486  1.00  0.00     0.012 C 
ENDROOT
BRANCH   1   2
ATOM      2  C   UNL     1      -8.615  -3.968 -15.536  1.00  0.00     0.061 C 
BRANCH   2   3
ATOM      3  C   UNL     1      -9.441  -3.986 -16.837  1.00  0.00     0.258 C 
BRANCH   3   4
ATOM      4  N   UNL     1      -8.597  -3.942 -18.032  1.00  0.00    -0.358 N 
ATOM      5  H   UNL     1      -7.827  -3.252 -17.878  1.00  0.00     0.344 HD
ATOM      6  H   UNL     1      -8.175  -4.882 -18.216  1.00  0.00     0.344 HD
ATOM      7  H   UNL     1      -9.155  -3.631 -18.859  1.00  0.00     0.344 HD
ENDBRANCH   3   4
ENDBRANCH   2   3
ENDBRANCH   1   2
BRANCH   1   8
ATOM      8  C   UNL     1      -7.586  -6.082 -14.410  1.00  0.00     0.072 C 
BRANCH   8   9
ATOM      9  C   UNL     1      -8.971  -6.132 -13.716  1.00  0.00     0.227 C 
BRANCH   9  10
ATOM     10  N   UNL     1      -8.828  -6.558 -12.317  1.00  0.00    -0.350 N 
ATOM     11  H   UNL     1      -9.731  -6.435 -11.801  1.00  0.00     0.345 HD
ATOM     12  H   UNL     1      -8.543  -7.563 -12.278  1.00  0.00     0.345 HD
ATOM     13  H   UNL     1      -8.084  -5.992 -11.847  1.00  0.00     0.345 HD
ENDBRANCH   9  10
BRANCH   9  14
ATOM     14  C   UNL     1      -9.921  -7.059 -14.430  1.00  0.00     0.099 C 
ATOM     15  O   UNL     1     -11.010  -6.626 -14.893  1.00  0.00    -0.544 OA
ATOM     16  O   UNL     1      -9.575  -8.390 -14.625  1.00  0.00    -0.544 OA
ENDBRANCH   9  14
ENDBRANCH   8   9
ENDBRANCH   1   8
TORSDOF 7
ENDMDL
MODEL 6
REMARK VINA RESULT:    -4.071      3.688      4.075
REMARK INTER + INTRA:          -5.565
REMARK INTER:                  -5.492
REMARK INTRA:                  -0.073
REMARK UNBOUND:                -0.066
REMARK SMILES [NH3+]CCCC[C@H]([NH3+])C(=O)[O-]
REMARK SMILES IDX 4 1 3 2 2 3 1 4 5 8 6 9 7 10 8 14 9 15 10 16
REMARK H PARENT 1 5 1 6 1 7 7 11 7 12 7 13
REMARK Flexibility Score: inf
ROOT
ATOM      1  C   UNL     1      -8.840  -6.126 -13.786  1.00  0.00     0.012 C 
ENDROOT
BRANCH   1   2
ATOM      2  C   UNL     1      -7.458  -6.505 -14.347  1.00  0.00     0.061 C 
BRANCH   2   3
ATOM      3  C   UNL     1      -6.796  -5.428 -15.227  1.00  0.00     0.258 C 
BRANCH   3   4
ATOM      4  N   UNL     1      -5.339  -5.565 -15.273  1.00  0.00    -0.358 N 
ATOM      5  H   UNL     1      -4.907  -4.613 -15.256  1.00  0.00     0.344 HD
ATOM      6  H   UNL     1      -4.997  -6.105 -14.444  1.00  0.00     0.344 HD
ATOM      7  H   UNL     1      -5.047  -6.042 -16.156  1.00  0.00     0.344 HD
ENDBRANCH   3   4
ENDBRANCH   2   3
ENDBRANCH   1   2
BRANCH   1   8
ATOM      8  C   UNL     1     -10.048  -6.562 -14.642  1.00  0.00     0.072 C 
BRANCH   8   9
ATOM      9  C   UNL     1     -10.945  -5.389 -15.116  1.00  0.00     0.227 C 
BRANCH   9  10
ATOM     10  N   UNL     1     -12.030  -5.887 -15.970  1.00  0.00    -0.350 N 
ATOM     11  H   UNL     1     -12.274  -6.874 -15.719  1.00  0.00     0.345 HD
ATOM     12  H   UNL     1     -12.878  -5.285 -15.857  1.00  0.00     0.345 HD
ATOM     13  H   UNL     1     -11.740  -5.850 -16.975  1.00  0.00     0.345 HD
ENDBRANCH   9  10
BRANCH   9  14
ATOM     14  C   UNL     1     -10.153  -4.347 -15.862  1.00  0.00     0.099 C 
ATOM     15  O   UNL     1     -10.067  -4.387 -17.119  1.00  0.00    -0.544 OA
ATOM     16  O   UNL     1      -9.551  -3.304 -15.168  1.00  0.00    -0.544 OA
ENDBRANCH   9  14
ENDBRANCH   8   9
ENDBRANCH   1   8
TORSDOF 7
ENDMDL
MODEL 7
REMARK VINA RESULT:    -4.057      3.397      4.883
REMARK INTER + INTRA:          -5.547
REMARK INTER:                  -5.388
REMARK INTRA:                  -0.159
REMARK UNBOUND:                -0.066
REMARK SMILES [NH3+]CCCC[C@H]([NH3+])C(=O)[O-]
REMARK SMILES IDX 4 1 3 2 2 3 1 4 5 8 6 9 7 10 8 14 9 15 10 16
REMARK H PARENT 1 5 1 6 1 7 7 11 7 12 7 13
REMARK Flexibility Score: inf
ROOT
ATOM      1  C   UNL     1      -7.593  -4.636 -15.687  1.00  0.00     0.012 C 
ENDROOT
BRANCH   1   2
ATOM      2  C   UNL     1      -8.959  -4.155 -15.165  1.00  0.00     0.061 C 
BRANCH   2   3
ATOM      3  C   UNL     1     -10.172  -4.619 -15.993  1.00  0.00     0.258 C 
BRANCH   3   4
ATOM      4  N   UNL     1     -11.138  -5.371 -15.191  1.00  0.00    -0.358 N 
ATOM      5  H   UNL     1     -10.817  -6.363 -15.114  1.00  0.00     0.344 HD
ATOM      6  H   UNL     1     -11.209  -4.965 -14.229  1.00  0.00     0.344 HD
ATOM      7  H   UNL     1     -12.076  -5.365 -15.653  1.00  0.00     0.344 HD
ENDBRANCH   3   4
ENDBRANCH   2   3
ENDBRANCH   1   2
BRANCH   1   8
ATOM      8  C   UNL     1      -6.934  -5.772 -14.877  1.00  0.00     0.072 C 
BRANCH   8   9
ATOM      9  C   UNL     1      -7.924  -6.581 -13.999  1.00  0.00     0.227 C 
BRANCH   9  10
ATOM     10  N   UNL     1      -7.628  -6.378 -12.575  1.00  0.00    -0.350 N 
ATOM     11  H   UNL     1      -7.112  -5.479 -12.430  1.00  0.00     0.345 HD
ATOM     12  H   UNL     1      -8.518  -6.356 -12.026  1.00  0.00     0.345 HD
ATOM     13  H   UNL     1      -7.046  -7.170 -12.215  1.00  0.00     0.345 HD
ENDBRANCH   9  10
BRANCH   9  14
ATOM     14  C   UNL     1      -7.880  -8.053 -14.319  1.00  0.00     0.099 C 
ATOM     15  O   UNL     1      -6.788  -8.680 -14.297  1.00  0.00    -0.544 OA
ATOM     16  O   UNL     1      -9.058  -8.737 -14.594  1.00  0.00    -0.544 OA
ENDBRANCH   9  14
ENDBRANCH   8   9
ENDBRANCH   1   8
TORSDOF 7
ENDMDL
MODEL 8
REMARK VINA RESULT:    -4.038      3.626      4.628
REMARK INTER + INTRA:          -5.520
REMARK INTER:                  -5.397
REMARK INTRA:                  -0.123
REMARK UNBOUND:                -0.066
REMARK SMILES [NH3+]CCCC[C@H]([NH3+])C(=O)[O-]
REMARK SMILES IDX 4 1 3 2 2 3 1 4 5 8 6 9 7 10 8 14 9 15 10 16
REMARK H PARENT 1 5 1 6 1 7 7 11 7 12 7 13
REMARK Flexibility Score: inf
ROOT
ATOM      1  C   UNL     1      -9.166  -6.996 -14.015  1.00  0.00     0.012 C 
ENDROOT
BRANCH   1   2
ATOM      2  C   UNL     1     -10.485  -7.308 -14.743  1.00  0.00     0.061 C 
BRANCH   2   3
ATOM      3  C   UNL     1     -10.761  -8.806 -14.979  1.00  0.00     0.258 C 
BRANCH   3   4
ATOM      4  N   UNL     1      -9.709  -9.658 -14.421  1.00  0.00    -0.358 N 
ATOM      5  H   UNL     1      -8.804  -9.434 -14.894  1.00  0.00     0.344 HD
ATOM      6  H   UNL     1      -9.604  -9.485 -13.394  1.00  0.00     0.344 HD
ATOM      7  H   UNL     1      -9.928 -10.665 -14.595  1.00  0.00     0.344 HD
ENDBRANCH   3   4
ENDBRANCH   2   3
ENDBRANCH   1   2
BRANCH   1   8
ATOM      8  C   UNL     1      -8.725  -5.518 -14.040  1.00  0.00     0.072 C 
BRANCH   8   9
ATOM      9  C   UNL     1      -8.488  -4.952 -15.464  1.00  0.00     0.227 C 
BRANCH   9  10
ATOM     10  N   UNL     1      -7.145  -4.365 -15.565  1.00  0.00    -0.350 N 
ATOM     11  H   UNL     1      -6.565  -4.628 -14.735  1.00  0.00     0.345 HD
ATOM     12  H   UNL     1      -6.673  -4.703 -16.435  1.00  0.00     0.345 HD
ATOM     13  H   UNL     1      -7.215  -3.322 -15.619  1.00  0.00     0.345 HD
ENDBRANCH   9  10
BRANCH   9  14
ATOM     14  C   UNL     1      -9.519  -3.918 -15.833  1.00  0.00     0.099 C 
ATOM     15  O   UNL     1      -9.636  -2.861 -15.157  1.00  0.00    -0.544 OA
ATOM     16  O   UNL     1     -10.318  -4.105 -16.955  1.00  0.00    -0.544 OA
ENDBRANCH   9  14
ENDBRANCH   8   9
ENDBRANCH   1   8
TORSDOF 7
ENDMDL
MODEL 9
REMARK VINA RESULT:    -3.950      3.238      4.214
REMARK INTER + INTRA:          -5.402
REMARK INTER:                  -5.298
REMARK INTRA:                  -0.104
REMARK UNBOUND:                -0.066
REMARK SMILES [NH3+]CCCC[C@H]([NH3+])C(=O)[O-]
REMARK SMILES IDX 4 1 3 2 2 3 1 4 5 8 6 9 7 10 8 14 9 15 10 16
REMARK H PARENT 1 5 1 6 1 7 7 11 7 12 7 13
REMARK Flexibility Score: inf
ROOT
ATOM      1  C   UNL     1      -7.537  -7.551 -13.725  1.00  0.00     0.012 C 
ENDROOT
BRANCH   1   2
ATOM      2  C   UNL     1      -7.167  -8.723 -14.651  1.00  0.00     0.061 C 
BRANCH   2   3
ATOM      3  C   UNL     1      -5.669  -9.085 -14.674  1.00  0.00     0.258 C 
BRANCH   3   4
ATOM      4  N   UNL     1      -4.869  -8.096 -15.397  1.00  0.00    -0.358 N 
ATOM      5  H   UNL     1      -4.068  -7.799 -14.792  1.00  0.00     0.344 HD
ATOM      6  H   UNL     1      -4.488  -8.508 -16.280  1.00  0.00     0.344 HD
ATOM      7  H   UNL     1      -5.445  -7.252 -15.614  1.00  0.00     0.344 HD
ENDBRANCH   3   4
ENDBRANCH   2   3
ENDBRANCH   1   2
BRANCH   1   8
ATOM      8  C   UNL     1      -7.685  -6.179 -14.415  1.00  0.00     0.072 C 
BRANCH   8   9
ATOM      9  C   UNL     1      -9.031  -5.466 -14.126  1.00  0.00     0.227 C 
BRANCH   9  10
ATOM     10  N   UNL     1     -10.106  -6.451 -13.953  1.00  0.00    -0.350 N 
ATOM     11  H   UNL     1      -9.981  -7.253 -14.615  1.00  0.00     0.345 HD
ATOM     12  H   UNL     1     -10.103  -6.813 -12.971  1.00  0.00     0.345 HD
ATOM     13  H   UNL     1     -11.034  -6.002 -14.130  1.00  0.00     0.345 HD
ENDBRANCH   9  10
BRANCH   9  14
ATOM     14  C   UNL     1      -9.401  -4.505 -15.226  1.00  0.00     0.099 C 
ATOM     15  O   UNL     1      -8.725  -3.458 -15.416  1.00  0.00    -0.544 OA
ATOM     16  O   UNL     1     -10.466  -4.794 -16.071  1.00  0.00    -0.544 OA
ENDBRANCH   9  14
ENDBRANCH   8   9
ENDBRANCH   1   8
TORSDOF 7
ENDMDL
