MODEL 1
REMARK VINA RESULT:    -4.259      0.000      0.000
REMARK INTER + INTRA:          -5.930
REMARK INTER:                  -5.628
REMARK INTRA:                  -0.302
REMARK UNBOUND:                -0.302
REMARK SMILES C=CCC[C@H](O)CCC
REMARK SMILES IDX 4 1 5 2 7 3 8 4 9 5 6 6 3 8 2 9 1 10
REMARK H PARENT 6 7
REMARK Flexibility Score: inf
ROOT
ATOM      1  C   UNL     1      -2.928  17.546  48.578  1.00  0.00     0.036 C 
ENDROOT
BRANCH   1   2
ATOM      2  C   UNL     1      -2.429  16.730  47.372  1.00  0.00     0.114 C 
BRANCH   2   3
ATOM      3  C   UNL     1      -2.156  17.659  46.178  1.00  0.00     0.031 C 
BRANCH   3   4
ATOM      4  C   UNL     1      -2.783  17.120  44.885  1.00  0.00    -0.001 C 
ATOM      5  C   UNL     1      -1.785  16.275  44.098  1.00  0.00     0.004 C 
ENDBRANCH   3   4
ENDBRANCH   2   3
BRANCH   2   6
ATOM      6  O   UNL     1      -1.243  16.055  47.713  1.00  0.00    -0.393 OA
ATOM      7  H   UNL     1      -0.788  15.817  46.863  1.00  0.00     0.210 HD
ENDBRANCH   2   6
ENDBRANCH   1   2
BRANCH   1   8
ATOM      8  C   UNL     1      -4.207  18.329  48.250  1.00  0.00     0.029 C 
BRANCH   8   9
ATOM      9  C   UNL     1      -4.030  19.799  48.514  1.00  0.00    -0.035 C 
ATOM     10  C   UNL     1      -4.619  20.726  47.754  1.00  0.00     0.004 C 
ENDBRANCH   8   9
ENDBRANCH   1   8
TORSDOF 6
ENDMDL
MODEL 2
REMARK VINA RESULT:    -4.177      0.808      4.083
REMARK INTER + INTRA:          -5.822
REMARK INTER:                  -5.408
REMARK INTRA:                  -0.414
REMARK UNBOUND:                -0.302
REMARK SMILES C=CCC[C@H](O)CCC
REMARK SMILES IDX 4 1 5 2 7 3 8 4 9 5 6 6 3 8 2 9 1 10
REMARK H PARENT 6 7
REMARK Flexibility Score: inf
ROOT
ATOM      1  C   UNL     1      -1.476  17.880  46.381  1.00  0.00     0.036 C 
ENDROOT
BRANCH   1   2
ATOM      2  C   UNL     1      -1.603  17.275  47.790  1.00  0.00     0.114 C 
BRANCH   2   3
ATOM      3  C   UNL     1      -3.044  17.426  48.306  1.00  0.00     0.031 C 
BRANCH   3   4
ATOM      4  C   UNL     1      -3.217  18.703  49.140  1.00  0.00    -0.001 C 
ATOM      5  C   UNL     1      -4.060  19.737  48.399  1.00  0.00     0.004 C 
ENDBRANCH   3   4
ENDBRANCH   2   3
BRANCH   2   6
ATOM      6  O   UNL     1      -1.267  15.910  47.754  1.00  0.00    -0.393 OA
ATOM      7  H   UNL     1      -0.784  15.750  46.901  1.00  0.00     0.210 HD
ENDBRANCH   2   6
ENDBRANCH   1   2
BRANCH   1   8
ATOM      8  C   UNL     1      -2.780  17.747  45.581  1.00  0.00     0.029 C 
BRANCH   8   9
ATOM      9  C   UNL     1      -2.731  16.565  44.652  1.00  0.00    -0.035 C 
ATOM     10  C   UNL     1      -1.601  16.194  44.044  1.00  0.00     0.004 C 
ENDBRANCH   8   9
ENDBRANCH   1   8
TORSDOF 6
ENDMDL
MODEL 3
REMARK VINA RESULT:    -4.124      3.837      6.518
REMARK INTER + INTRA:          -5.752
REMARK INTER:                  -5.488
REMARK INTRA:                  -0.264
REMARK UNBOUND:                -0.302
REMARK SMILES C=CCC[C@H](O)CCC
REMARK SMILES IDX 4 1 5 2 7 3 8 4 9 5 6 6 3 8 2 9 1 10
REMARK H PARENT 6 7
REMARK Flexibility Score: inf
ROOT
ATOM      1  C   UNL     1      -4.863  21.116  47.677  1.00  0.00     0.036 C 
ENDROOT
BRANCH   1   2
ATOM      2  C   UNL     1      -5.289  22.588  47.815  1.00  0.00     0.114 C 
BRANCH   2   3
ATOM      3  C   UNL     1      -4.373  23.316  48.812  1.00  0.00     0.031 C 
BRANCH   3   4
ATOM      4  C   UNL     1      -5.180  24.057  49.888  1.00  0.00    -0.001 C 
ATOM      5  C   UNL     1      -4.422  24.105  51.211  1.00  0.00     0.004 C 
ENDBRANCH   3   4
ENDBRANCH   2   3
BRANCH   2   6
ATOM      6  O   UNL     1      -5.208  23.226  46.564  1.00  0.00    -0.393 OA
ATOM      7  H   UNL     1      -4.854  24.140  46.724  1.00  0.00     0.210 HD
ENDBRANCH   2   6
ENDBRANCH   1   2
BRANCH   1   8
ATOM      8  C   UNL     1      -3.819  20.721  48.732  1.00  0.00     0.029 C 
BRANCH   8   9
ATOM      9  C   UNL     1      -3.646  19.228  48.796  1.00  0.00    -0.035 C 
ATOM     10  C   UNL     1      -4.453  18.398  48.130  1.00  0.00     0.004 C 
ENDBRANCH   8   9
ENDBRANCH   1   8
TORSDOF 6
ENDMDL
MODEL 4
REMARK VINA RESULT:    -4.115      6.178      8.191
REMARK INTER + INTRA:          -5.741
REMARK INTER:                  -5.495
REMARK INTRA:                  -0.246
REMARK UNBOUND:                -0.302
REMARK SMILES C=CCC[C@H](O)CCC
REMARK SMILES IDX 4 1 5 2 7 3 8 4 9 5 6 6 3 8 2 9 1 10
REMARK H PARENT 6 7
REMARK Flexibility Score: inf
ROOT
ATOM      1  C   UNL     1      -4.672  24.115  51.105  1.00  0.00     0.036 C 
ENDROOT
BRANCH   1   2
ATOM      2  C   UNL     1      -5.321  24.969  50.002  1.00  0.00     0.114 C 
BRANCH   2   3
ATOM      3  C   UNL     1      -5.326  24.203  48.669  1.00  0.00     0.031 C 
BRANCH   3   4
ATOM      4  C   UNL     1      -4.739  22.793  48.823  1.00  0.00    -0.001 C 
ATOM      5  C   UNL     1      -5.221  21.869  47.709  1.00  0.00     0.004 C 
ENDBRANCH   3   4
ENDBRANCH   2   3
BRANCH   2   6
ATOM      6  O   UNL     1      -6.646  25.281  50.359  1.00  0.00    -0.393 OA
ATOM      7  H   UNL     1      -6.710  26.271  50.406  1.00  0.00     0.210 HD
ENDBRANCH   2   6
ENDBRANCH   1   2
BRANCH   1   8
ATOM      8  C   UNL     1      -3.501  24.844  51.779  1.00  0.00     0.029 C 
BRANCH   8   9
ATOM      9  C   UNL     1      -3.977  26.048  52.545  1.00  0.00    -0.035 C 
ATOM     10  C   UNL     1      -3.373  26.455  53.664  1.00  0.00     0.004 C 
ENDBRANCH   8   9
ENDBRANCH   1   8
TORSDOF 6
ENDMDL
MODEL 5
REMARK VINA RESULT:    -4.103      2.145      4.281
REMARK INTER + INTRA:          -5.724
REMARK INTER:                  -5.127
REMARK INTRA:                  -0.598
REMARK UNBOUND:                -0.302
REMARK SMILES C=CCC[C@H](O)CCC
REMARK SMILES IDX 4 1 5 2 7 3 8 4 9 5 6 6 3 8 2 9 1 10
REMARK H PARENT 6 7
REMARK Flexibility Score: inf
ROOT
ATOM      1  C   UNL     1      -3.277  17.952  45.562  1.00  0.00     0.036 C 
ENDROOT
BRANCH   1   2
ATOM      2  C   UNL     1      -3.627  17.840  47.056  1.00  0.00     0.114 C 
BRANCH   2   3
ATOM      3  C   UNL     1      -2.431  18.282  47.917  1.00  0.00     0.031 C 
BRANCH   3   4
ATOM      4  C   UNL     1      -1.609  17.081  48.404  1.00  0.00    -0.001 C 
ATOM      5  C   UNL     1      -2.503  15.875  48.679  1.00  0.00     0.004 C 
ENDBRANCH   3   4
ENDBRANCH   2   3
BRANCH   2   6
ATOM      6  O   UNL     1      -4.733  18.659  47.349  1.00  0.00    -0.393 OA
ATOM      7  H   UNL     1      -4.888  18.602  48.328  1.00  0.00     0.210 HD
ENDBRANCH   2   6
ENDBRANCH   1   2
BRANCH   1   8
ATOM      8  C   UNL     1      -3.179  16.574  44.891  1.00  0.00     0.029 C 
BRANCH   8   9
ATOM      9  C   UNL     1      -1.862  16.404  44.185  1.00  0.00    -0.035 C 
ATOM     10  C   UNL     1      -0.733  16.152  44.853  1.00  0.00     0.004 C 
ENDBRANCH   8   9
ENDBRANCH   1   8
TORSDOF 6
ENDMDL
MODEL 6
REMARK VINA RESULT:    -4.091      1.426      1.999
REMARK INTER + INTRA:          -5.709
REMARK INTER:                  -5.417
REMARK INTRA:                  -0.291
REMARK UNBOUND:                -0.302
REMARK SMILES C=CCC[C@H](O)CCC
REMARK SMILES IDX 4 1 5 2 7 3 8 4 9 5 6 6 3 8 2 9 1 10
REMARK H PARENT 6 7
REMARK Flexibility Score: inf
ROOT
ATOM      1  C   UNL     1      -4.504  18.638  48.320  1.00  0.00     0.036 C 
ENDROOT
BRANCH   1   2
ATOM      2  C   UNL     1      -3.373  17.651  48.657  1.00  0.00     0.114 C 
BRANCH   2   3
ATOM      3  C   UNL     1      -2.253  17.748  47.608  1.00  0.00     0.031 C 
BRANCH   3   4
ATOM      4  C   UNL     1      -2.524  16.836  46.403  1.00  0.00    -0.001 C 
ATOM      5  C   UNL     1      -2.934  17.648  45.178  1.00  0.00     0.004 C 
ENDBRANCH   3   4
ENDBRANCH   2   3
BRANCH   2   6
ATOM      6  O   UNL     1      -2.844  17.948  49.926  1.00  0.00    -0.393 OA
ATOM      7  H   UNL     1      -1.870  17.759  49.888  1.00  0.00     0.210 HD
ENDBRANCH   2   6
ENDBRANCH   1   2
BRANCH   1   8
ATOM      8  C   UNL     1      -4.043  20.099  48.437  1.00  0.00     0.029 C 
BRANCH   8   9
ATOM      9  C   UNL     1      -4.858  21.000  47.551  1.00  0.00    -0.035 C 
ATOM     10  C   UNL     1      -5.216  22.228  47.935  1.00  0.00     0.004 C 
ENDBRANCH   8   9
ENDBRANCH   1   8
TORSDOF 6
ENDMDL
MODEL 7
REMARK VINA RESULT:    -4.042      1.380      4.370
REMARK INTER + INTRA:          -5.643
REMARK INTER:                  -5.385
REMARK INTRA:                  -0.258
REMARK UNBOUND:                -0.302
REMARK SMILES C=CCC[C@H](O)CCC
REMARK SMILES IDX 4 1 5 2 7 3 8 4 9 5 6 6 3 8 2 9 1 10
REMARK H PARENT 6 7
REMARK Flexibility Score: inf
ROOT
ATOM      1  C   UNL     1      -2.260  18.021  47.352  1.00  0.00     0.036 C 
ENDROOT
BRANCH   1   2
ATOM      2  C   UNL     1      -3.169  18.547  48.478  1.00  0.00     0.114 C 
BRANCH   2   3
ATOM      3  C   UNL     1      -4.293  19.417  47.891  1.00  0.00     0.031 C 
BRANCH   3   4
ATOM      4  C   UNL     1      -4.252  20.847  48.445  1.00  0.00    -0.001 C 
ATOM      5  C   UNL     1      -5.174  21.772  47.655  1.00  0.00     0.004 C 
ENDBRANCH   3   4
ENDBRANCH   2   3
BRANCH   2   6
ATOM      6  O   UNL     1      -3.737  17.466  49.175  1.00  0.00    -0.393 OA
ATOM      7  H   UNL     1      -4.278  17.847  49.915  1.00  0.00     0.210 HD
ENDBRANCH   2   6
ENDBRANCH   1   2
BRANCH   1   8
ATOM      8  C   UNL     1      -2.797  18.394  45.962  1.00  0.00     0.029 C 
BRANCH   8   9
ATOM      9  C   UNL     1      -3.126  17.167  45.158  1.00  0.00    -0.035 C 
ATOM     10  C   UNL     1      -2.228  16.590  44.355  1.00  0.00     0.004 C 
ENDBRANCH   8   9
ENDBRANCH   1   8
TORSDOF 6
ENDMDL
MODEL 8
REMARK VINA RESULT:    -4.014      1.834      2.210
REMARK INTER + INTRA:          -5.607
REMARK INTER:                  -5.451
REMARK INTRA:                  -0.156
REMARK UNBOUND:                -0.302
REMARK SMILES C=CCC[C@H](O)CCC
REMARK SMILES IDX 4 1 5 2 7 3 8 4 9 5 6 6 3 8 2 9 1 10
REMARK H PARENT 6 7
REMARK Flexibility Score: inf
ROOT
ATOM      1  C   UNL     1      -3.972  18.984  47.521  1.00  0.00     0.036 C 
ENDROOT
BRANCH   1   2
ATOM      2  C   UNL     1      -2.854  18.966  46.464  1.00  0.00     0.114 C 
BRANCH   2   3
ATOM      3  C   UNL     1      -2.335  17.532  46.264  1.00  0.00     0.031 C 
BRANCH   3   4
ATOM      4  C   UNL     1      -2.929  16.885  45.005  1.00  0.00    -0.001 C 
ATOM      5  C   UNL     1      -1.834  16.305  44.114  1.00  0.00     0.004 C 
ENDBRANCH   3   4
ENDBRANCH   2   3
BRANCH   2   6
ATOM      6  O   UNL     1      -3.347  19.453  45.240  1.00  0.00    -0.393 OA
ATOM      7  H   UNL     1      -3.524  20.423  45.362  1.00  0.00     0.210 HD
ENDBRANCH   2   6
ENDBRANCH   1   2
BRANCH   1   8
ATOM      8  C   UNL     1      -4.050  20.333  48.249  1.00  0.00     0.029 C 
BRANCH   8   9
ATOM      9  C   UNL     1      -5.147  21.194  47.686  1.00  0.00    -0.035 C 
ATOM     10  C   UNL     1      -5.139  22.523  47.823  1.00  0.00     0.004 C 
ENDBRANCH   8   9
ENDBRANCH   1   8
TORSDOF 6
ENDMDL
MODEL 9
REMARK VINA RESULT:    -3.924      4.898      6.525
REMARK INTER + INTRA:          -5.489
REMARK INTER:                  -4.919
REMARK INTRA:                  -0.569
REMARK UNBOUND:                -0.302
REMARK SMILES C=CCC[C@H](O)CCC
REMARK SMILES IDX 4 1 5 2 7 3 8 4 9 5 6 6 3 8 2 9 1 10
REMARK H PARENT 6 7
REMARK Flexibility Score: inf
ROOT
ATOM      1  C   UNL     1      -4.656  24.619  48.461  1.00  0.00     0.036 C 
ENDROOT
BRANCH   1   2
ATOM      2  C   UNL     1      -4.688  23.552  47.352  1.00  0.00     0.114 C 
BRANCH   2   3
ATOM      3  C   UNL     1      -5.528  22.344  47.800  1.00  0.00     0.031 C 
BRANCH   3   4
ATOM      4  C   UNL     1      -4.740  21.032  47.683  1.00  0.00    -0.001 C 
ATOM      5  C   UNL     1      -3.702  20.911  48.795  1.00  0.00     0.004 C 
ENDBRANCH   3   4
ENDBRANCH   2   3
BRANCH   2   6
ATOM      6  O   UNL     1      -5.249  24.097  46.183  1.00  0.00    -0.393 OA
ATOM      7  H   UNL     1      -5.247  25.084  46.290  1.00  0.00     0.210 HD
ENDBRANCH   2   6
ENDBRANCH   1   2
BRANCH   1   8
ATOM      8  C   UNL     1      -5.563  24.243  49.642  1.00  0.00     0.029 C 
BRANCH   8   9
ATOM      9  C   UNL     1      -4.767  24.065  50.906  1.00  0.00    -0.035 C 
ATOM     10  C   UNL     1      -3.432  24.010  50.894  1.00  0.00     0.004 C 
ENDBRANCH   8   9
ENDBRANCH   1   8
TORSDOF 6
ENDMDL
