MODEL 1
REMARK VINA RESULT:    -2.172      0.000      0.000
REMARK INTER + INTRA:          -2.172
REMARK INTER:                  -2.172
REMARK INTRA:                   0.000
REMARK UNBOUND:                 0.000
REMARK SMILES CC(=O)[O-]
REMARK SMILES IDX 1 1 2 2 3 3 4 4
REMARK H PARENT
REMARK Flexibility Score: inf
ROOT
ATOM      1  C   UNL     1      33.694  81.476  27.414  1.00  0.00     0.063 C 
ATOM      2  C   UNL     1      33.539  82.944  27.200  1.00  0.00     0.038 C 
ATOM      3  O   UNL     1      33.096  83.674  28.125  1.00  0.00    -0.550 OA
ATOM      4  O   UNL     1      33.831  83.502  25.962  1.00  0.00    -0.550 OA
ENDROOT
TORSDOF 0
ENDMDL
MODEL 2
REMARK VINA RESULT:    -2.010     18.087     18.603
REMARK INTER + INTRA:          -2.010
REMARK INTER:                  -2.010
REMARK INTRA:                   0.000
REMARK UNBOUND:                 0.000
REMARK SMILES CC(=O)[O-]
REMARK SMILES IDX 1 1 2 2 3 3 4 4
REMARK H PARENT
REMARK Flexibility Score: inf
ROOT
ATOM      1  C   UNL     1      28.671  71.981  12.075  1.00  0.00     0.063 C 
ATOM      2  C   UNL     1      27.831  72.030  13.306  1.00  0.00     0.038 C 
ATOM      3  O   UNL     1      26.588  71.842  13.230  1.00  0.00    -0.550 OA
ATOM      4  O   UNL     1      28.408  72.337  14.531  1.00  0.00    -0.550 OA
ENDROOT
TORSDOF 0
ENDMDL
MODEL 3
REMARK VINA RESULT:    -1.988     18.290     18.793
REMARK INTER + INTRA:          -1.988
REMARK INTER:                  -1.988
REMARK INTRA:                   0.000
REMARK UNBOUND:                 0.000
REMARK SMILES CC(=O)[O-]
REMARK SMILES IDX 1 1 2 2 3 3 4 4
REMARK H PARENT
REMARK Flexibility Score: inf
ROOT
ATOM      1  C   UNL     1      26.683  71.676  12.702  1.00  0.00     0.063 C 
ATOM      2  C   UNL     1      28.115  71.994  12.966  1.00  0.00     0.038 C 
ATOM      3  O   UNL     1      28.476  72.379  14.109  1.00  0.00    -0.550 OA
ATOM      4  O   UNL     1      29.046  71.920  11.938  1.00  0.00    -0.550 OA
ENDROOT
TORSDOF 0
ENDMDL
MODEL 4
REMARK VINA RESULT:    -1.865     18.917     19.408
REMARK INTER + INTRA:          -1.865
REMARK INTER:                  -1.865
REMARK INTRA:                   0.000
REMARK UNBOUND:                 0.000
REMARK SMILES CC(=O)[O-]
REMARK SMILES IDX 1 1 2 2 3 3 4 4
REMARK H PARENT
REMARK Flexibility Score: inf
ROOT
ATOM      1  C   UNL     1      28.312  72.205  13.407  1.00  0.00     0.063 C 
ATOM      2  C   UNL     1      27.070  71.665  12.783  1.00  0.00     0.038 C 
ATOM      3  O   UNL     1      25.943  71.961  13.261  1.00  0.00    -0.550 OA
ATOM      4  O   UNL     1      27.154  70.790  11.708  1.00  0.00    -0.550 OA
ENDROOT
TORSDOF 0
ENDMDL
MODEL 5
REMARK VINA RESULT:    -1.790     20.234     20.462
REMARK INTER + INTRA:          -1.790
REMARK INTER:                  -1.790
REMARK INTRA:                   0.000
REMARK UNBOUND:                 0.000
REMARK SMILES CC(=O)[O-]
REMARK SMILES IDX 1 1 2 2 3 3 4 4
REMARK H PARENT
REMARK Flexibility Score: inf
ROOT
ATOM      1  C   UNL     1      22.363  69.603  18.316  1.00  0.00     0.063 C 
ATOM      2  C   UNL     1      22.173  68.186  18.739  1.00  0.00     0.038 C 
ATOM      3  O   UNL     1      21.199  67.872  19.472  1.00  0.00    -0.550 OA
ATOM      4  O   UNL     1      23.099  67.220  18.372  1.00  0.00    -0.550 OA
ENDROOT
TORSDOF 0
ENDMDL
MODEL 6
REMARK VINA RESULT:    -1.733      1.650      2.229
REMARK INTER + INTRA:          -1.733
REMARK INTER:                  -1.733
REMARK INTRA:                   0.000
REMARK UNBOUND:                 0.000
REMARK SMILES CC(=O)[O-]
REMARK SMILES IDX 1 1 2 2 3 3 4 4
REMARK H PARENT
REMARK Flexibility Score: inf
ROOT
ATOM      1  C   UNL     1      32.863  84.375  27.719  1.00  0.00     0.063 C 
ATOM      2  C   UNL     1      33.072  82.899  27.684  1.00  0.00     0.038 C 
ATOM      3  O   UNL     1      34.215  82.417  27.898  1.00  0.00    -0.550 OA
ATOM      4  O   UNL     1      32.018  82.054  27.361  1.00  0.00    -0.550 OA
ENDROOT
TORSDOF 0
ENDMDL
MODEL 7
REMARK VINA RESULT:    -1.691     20.022     20.358
REMARK INTER + INTRA:          -1.691
REMARK INTER:                  -1.691
REMARK INTRA:                   0.000
REMARK UNBOUND:                 0.000
REMARK SMILES CC(=O)[O-]
REMARK SMILES IDX 1 1 2 2 3 3 4 4
REMARK H PARENT
REMARK Flexibility Score: inf
ROOT
ATOM      1  C   UNL     1      23.026  67.318  17.676  1.00  0.00     0.063 C 
ATOM      2  C   UNL     1      22.344  68.287  18.581  1.00  0.00     0.038 C 
ATOM      3  O   UNL     1      21.575  67.872  19.487  1.00  0.00    -0.550 OA
ATOM      4  O   UNL     1      22.512  69.653  18.393  1.00  0.00    -0.550 OA
ENDROOT
TORSDOF 0
ENDMDL
MODEL 8
REMARK VINA RESULT:    -1.685     17.983     18.180
REMARK INTER + INTRA:          -1.685
REMARK INTER:                  -1.685
REMARK INTRA:                   0.000
REMARK UNBOUND:                 0.000
REMARK SMILES CC(=O)[O-]
REMARK SMILES IDX 1 1 2 2 3 3 4 4
REMARK H PARENT
REMARK Flexibility Score: inf
ROOT
ATOM      1  C   UNL     1      18.365  75.285  19.628  1.00  0.00     0.063 C 
ATOM      2  C   UNL     1      18.815  76.429  18.784  1.00  0.00     0.038 C 
ATOM      3  O   UNL     1      18.140  76.776  17.779  1.00  0.00    -0.550 OA
ATOM      4  O   UNL     1      20.008  77.079  19.071  1.00  0.00    -0.550 OA
ENDROOT
TORSDOF 0
ENDMDL
MODEL 9
REMARK VINA RESULT:    -1.632     21.305     21.643
REMARK INTER + INTRA:          -1.632
REMARK INTER:                  -1.632
REMARK INTRA:                   0.000
REMARK UNBOUND:                 0.000
REMARK SMILES CC(=O)[O-]
REMARK SMILES IDX 1 1 2 2 3 3 4 4
REMARK H PARENT
REMARK Flexibility Score: inf
ROOT
ATOM      1  C   UNL     1      22.829  67.243  18.370  1.00  0.00     0.063 C 
ATOM      2  C   UNL     1      21.504  66.960  18.992  1.00  0.00     0.038 C 
ATOM      3  O   UNL     1      20.689  67.898  19.197  1.00  0.00    -0.550 OA
ATOM      4  O   UNL     1      21.186  65.670  19.397  1.00  0.00    -0.550 OA
ENDROOT
TORSDOF 0
ENDMDL
