MODEL 1
REMARK VINA RESULT:    -1.719      0.000      0.000
REMARK INTER + INTRA:          -2.437
REMARK INTER:                  -2.070
REMARK INTRA:                  -0.366
REMARK UNBOUND:                -0.366
REMARK SMILES Oc1cc(O)c2c(c1)O[C@@H](c1ccc(O)c(O)c1)[C@H](O)C2
REMARK SMILES IDX 21 1 19 2 10 3 9 4 7 5 8 6 2 7 3 8 4 9 6 10 20 11 11 13
REMARK SMILES IDX 18 14 12 15 16 16 13 17 14 18 17 19 15 21 5 23 1 25
REMARK H PARENT 20 12 17 20 15 22 5 24 1 26
REMARK Flexibility Score: inf
ROOT
ATOM      1  C   UNL     1     -16.171 -19.763  78.888  1.00  0.00     0.079 C 
ATOM      2  C   UNL     1     -15.687 -20.002  80.330  1.00  0.00     0.164 C 
ATOM      3  C   UNL     1     -15.434 -21.502  80.555  1.00  0.00     0.232 C 
ATOM      4  O   UNL     1     -14.496 -21.985  79.593  1.00  0.00    -0.482 OA
ATOM      5  C   UNL     1     -14.504 -21.556  78.262  1.00  0.00     0.131 A 
ATOM      6  C   UNL     1     -13.687 -22.208  77.335  1.00  0.00     0.093 A 
ATOM      7  C   UNL     1     -13.687 -21.810  75.994  1.00  0.00     0.122 A 
ATOM      8  C   UNL     1     -14.513 -20.763  75.580  1.00  0.00     0.092 A 
ATOM      9  C   UNL     1     -15.339 -20.100  76.494  1.00  0.00     0.126 A 
ATOM     10  C   UNL     1     -15.312 -20.470  77.861  1.00  0.00     0.039 A 
ENDROOT
BRANCH   2  11
ATOM     11  O   UNL     1     -16.654 -19.543  81.239  1.00  0.00    -0.389 OA
ATOM     12  H   UNL     1     -16.446 -18.588  81.420  1.00  0.00     0.211 HD
ENDBRANCH   2  11
BRANCH   3  13
ATOM     13  C   UNL     1     -14.915 -21.763  81.950  1.00  0.00    -0.001 A 
ATOM     14  C   UNL     1     -15.585 -22.650  82.810  1.00  0.00     0.057 A 
ATOM     15  C   UNL     1     -13.721 -21.161  82.383  1.00  0.00     0.012 A 
ATOM     16  C   UNL     1     -15.085 -22.914  84.093  1.00  0.00     0.157 A 
ATOM     17  C   UNL     1     -13.219 -21.427  83.659  1.00  0.00     0.050 A 
ATOM     18  C   UNL     1     -13.896 -22.297  84.519  1.00  0.00     0.157 A 
BRANCH  16  19
ATOM     19  O   UNL     1     -15.764 -23.785  84.945  1.00  0.00    -0.504 OA
ATOM     20  H   UNL     1     -15.723 -23.682  85.952  1.00  0.00     0.293 HD
ENDBRANCH  16  19
BRANCH  18  21
ATOM     21  O   UNL     1     -13.373 -22.540  85.789  1.00  0.00    -0.504 OA
ATOM     22  H   UNL     1     -12.749 -21.887  86.247  1.00  0.00     0.293 HD
ENDBRANCH  18  21
ENDBRANCH   3  13
BRANCH   9  23
ATOM     23  O   UNL     1     -16.177 -19.093  76.011  1.00  0.00    -0.507 OA
ATOM     24  H   UNL     1     -15.888 -18.128  75.914  1.00  0.00     0.293 HD
ENDBRANCH   9  23
BRANCH   7  25
ATOM     25  O   UNL     1     -12.875 -22.455  75.062  1.00  0.00    -0.508 OA
ATOM     26  H   UNL     1     -13.208 -23.250  74.530  1.00  0.00     0.293 HD
ENDBRANCH   7  25
TORSDOF 6
ENDMDL
MODEL 2
REMARK VINA RESULT:    -1.548      4.951      6.710
REMARK INTER + INTRA:          -2.231
REMARK INTER:                  -1.861
REMARK INTRA:                  -0.370
REMARK UNBOUND:                -0.366
REMARK SMILES Oc1cc(O)c2c(c1)O[C@@H](c1ccc(O)c(O)c1)[C@H](O)C2
REMARK SMILES IDX 21 1 19 2 10 3 9 4 7 5 8 6 2 7 3 8 4 9 6 10 20 11 11 13
REMARK SMILES IDX 18 14 12 15 16 16 13 17 14 18 17 19 15 21 5 23 1 25
REMARK H PARENT 20 12 17 20 15 22 5 24 1 26
REMARK Flexibility Score: inf
ROOT
ATOM      1  C   UNL     1     -20.469 -22.039  82.947  1.00  0.00     0.079 C 
ATOM      2  C   UNL     1     -18.968 -21.845  83.232  1.00  0.00     0.164 C 
ATOM      3  C   UNL     1     -18.466 -22.958  84.167  1.00  0.00     0.232 C 
ATOM      4  O   UNL     1     -18.736 -24.235  83.589  1.00  0.00    -0.482 OA
ATOM      5  C   UNL     1     -19.918 -24.505  82.893  1.00  0.00     0.131 A 
ATOM      6  C   UNL     1     -20.201 -25.821  82.521  1.00  0.00     0.093 A 
ATOM      7  C   UNL     1     -21.384 -26.122  81.838  1.00  0.00     0.122 A 
ATOM      8  C   UNL     1     -22.289 -25.103  81.534  1.00  0.00     0.092 A 
ATOM      9  C   UNL     1     -22.023 -23.779  81.901  1.00  0.00     0.126 A 
ATOM     10  C   UNL     1     -20.808 -23.462  82.554  1.00  0.00     0.039 A 
ENDROOT
BRANCH   2  11
ATOM     11  O   UNL     1     -18.756 -20.592  83.829  1.00  0.00    -0.389 OA
ATOM     12  H   UNL     1     -18.363 -20.765  84.725  1.00  0.00     0.211 HD
ENDBRANCH   2  11
BRANCH   3  13
ATOM     13  C   UNL     1     -16.984 -22.819  84.430  1.00  0.00    -0.001 A 
ATOM     14  C   UNL     1     -16.060 -22.875  83.372  1.00  0.00     0.057 A 
ATOM     15  C   UNL     1     -16.519 -22.576  85.733  1.00  0.00     0.012 A 
ATOM     16  C   UNL     1     -14.688 -22.716  83.615  1.00  0.00     0.157 A 
ATOM     17  C   UNL     1     -15.153 -22.413  85.975  1.00  0.00     0.050 A 
ATOM     18  C   UNL     1     -14.234 -22.485  84.924  1.00  0.00     0.157 A 
BRANCH  16  19
ATOM     19  O   UNL     1     -13.777 -22.787  82.562  1.00  0.00    -0.504 OA
ATOM     20  H   UNL     1     -14.034 -23.181  81.663  1.00  0.00     0.293 HD
ENDBRANCH  16  19
BRANCH  18  21
ATOM     21  O   UNL     1     -12.876 -22.322  85.198  1.00  0.00    -0.504 OA
ATOM     22  H   UNL     1     -12.536 -21.604  85.826  1.00  0.00     0.293 HD
ENDBRANCH  18  21
ENDBRANCH   3  13
BRANCH   9  23
ATOM     23  O   UNL     1     -22.988 -22.811  81.612  1.00  0.00    -0.507 OA
ATOM     24  H   UNL     1     -23.242 -22.544  80.669  1.00  0.00     0.293 HD
ENDBRANCH   9  23
BRANCH   7  25
ATOM     25  O   UNL     1     -21.674 -27.433  81.463  1.00  0.00    -0.508 OA
ATOM     26  H   UNL     1     -21.174 -28.220  81.860  1.00  0.00     0.293 HD
ENDBRANCH   7  25
TORSDOF 6
ENDMDL
MODEL 3
REMARK VINA RESULT:    -1.514      1.594      3.255
REMARK INTER + INTRA:          -2.190
REMARK INTER:                  -1.831
REMARK INTRA:                  -0.359
REMARK UNBOUND:                -0.366
REMARK SMILES Oc1cc(O)c2c(c1)O[C@@H](c1ccc(O)c(O)c1)[C@H](O)C2
REMARK SMILES IDX 21 1 19 2 10 3 9 4 7 5 8 6 2 7 3 8 4 9 6 10 20 11 11 13
REMARK SMILES IDX 18 14 12 15 16 16 13 17 14 18 17 19 15 21 5 23 1 25
REMARK H PARENT 20 12 17 20 15 22 5 24 1 26
REMARK Flexibility Score: inf
ROOT
ATOM      1  C   UNL     1     -14.512 -20.608  78.364  1.00  0.00     0.079 C 
ATOM      2  C   UNL     1     -14.213 -21.377  79.664  1.00  0.00     0.164 C 
ATOM      3  C   UNL     1     -14.466 -20.469  80.879  1.00  0.00     0.232 C 
ATOM      4  O   UNL     1     -15.807 -19.980  80.847  1.00  0.00    -0.482 OA
ATOM      5  C   UNL     1     -16.438 -19.604  79.657  1.00  0.00     0.131 A 
ATOM      6  C   UNL     1     -17.675 -18.958  79.719  1.00  0.00     0.093 A 
ATOM      7  C   UNL     1     -18.320 -18.556  78.545  1.00  0.00     0.122 A 
ATOM      8  C   UNL     1     -17.720 -18.795  77.307  1.00  0.00     0.092 A 
ATOM      9  C   UNL     1     -16.481 -19.439  77.226  1.00  0.00     0.126 A 
ATOM     10  C   UNL     1     -15.843 -19.886  78.408  1.00  0.00     0.039 A 
ENDROOT
BRANCH   2  11
ATOM     11  O   UNL     1     -12.877 -21.809  79.665  1.00  0.00    -0.389 OA
ATOM     12  H   UNL     1     -12.401 -21.266  78.983  1.00  0.00     0.211 HD
ENDBRANCH   2  11
BRANCH   3  13
ATOM     13  C   UNL     1     -14.223 -21.211  82.172  1.00  0.00    -0.001 A 
ATOM     14  C   UNL     1     -15.048 -22.285  82.548  1.00  0.00     0.057 A 
ATOM     15  C   UNL     1     -13.132 -20.868  82.988  1.00  0.00     0.012 A 
ATOM     16  C   UNL     1     -14.802 -22.992  83.734  1.00  0.00     0.157 A 
ATOM     17  C   UNL     1     -12.884 -21.574  84.167  1.00  0.00     0.050 A 
ATOM     18  C   UNL     1     -13.715 -22.632  84.548  1.00  0.00     0.157 A 
BRANCH  16  19
ATOM     19  O   UNL     1     -15.634 -24.047  84.107  1.00  0.00    -0.504 OA
ATOM     20  H   UNL     1     -15.263 -24.964  84.327  1.00  0.00     0.293 HD
ENDBRANCH  16  19
BRANCH  18  21
ATOM     21  O   UNL     1     -13.444 -23.315  85.733  1.00  0.00    -0.504 OA
ATOM     22  H   UNL     1     -13.367 -22.839  86.624  1.00  0.00     0.293 HD
ENDBRANCH  18  21
ENDBRANCH   3  13
BRANCH   9  23
ATOM     23  O   UNL     1     -15.909 -19.606  75.962  1.00  0.00    -0.507 OA
ATOM     24  H   UNL     1     -15.136 -19.049  75.623  1.00  0.00     0.293 HD
ENDBRANCH   9  23
BRANCH   7  25
ATOM     25  O   UNL     1     -19.554 -17.911  78.598  1.00  0.00    -0.508 OA
ATOM     26  H   UNL     1     -19.701 -17.011  78.156  1.00  0.00     0.293 HD
ENDBRANCH   7  25
TORSDOF 6
ENDMDL
MODEL 4
REMARK VINA RESULT:    -1.497      7.120      8.692
REMARK INTER + INTRA:          -2.170
REMARK INTER:                  -1.800
REMARK INTRA:                  -0.370
REMARK UNBOUND:                -0.366
REMARK SMILES Oc1cc(O)c2c(c1)O[C@@H](c1ccc(O)c(O)c1)[C@H](O)C2
REMARK SMILES IDX 21 1 19 2 10 3 9 4 7 5 8 6 2 7 3 8 4 9 6 10 20 11 11 13
REMARK SMILES IDX 18 14 12 15 16 16 13 17 14 18 17 19 15 21 5 23 1 25
REMARK H PARENT 20 12 17 20 15 22 5 24 1 26
REMARK Flexibility Score: inf
ROOT
ATOM      1  C   UNL     1     -17.078 -14.799  79.244  1.00  0.00     0.079 C 
ATOM      2  C   UNL     1     -16.482 -14.993  80.650  1.00  0.00     0.164 C 
ATOM      3  C   UNL     1     -15.350 -13.979  80.883  1.00  0.00     0.232 C 
ATOM      4  O   UNL     1     -15.842 -12.652  80.693  1.00  0.00    -0.482 OA
ATOM      5  C   UNL     1     -16.756 -12.331  79.685  1.00  0.00     0.131 A 
ATOM      6  C   UNL     1     -17.047 -10.988  79.435  1.00  0.00     0.093 A 
ATOM      7  C   UNL     1     -17.946 -10.638  78.422  1.00  0.00     0.122 A 
ATOM      8  C   UNL     1     -18.548 -11.636  77.652  1.00  0.00     0.092 A 
ATOM      9  C   UNL     1     -18.266 -12.986  77.888  1.00  0.00     0.126 A 
ATOM     10  C   UNL     1     -17.391 -13.349  78.940  1.00  0.00     0.039 A 
ENDROOT
BRANCH   2  11
ATOM     11  O   UNL     1     -15.982 -16.299  80.779  1.00  0.00    -0.389 OA
ATOM     12  H   UNL     1     -15.044 -16.280  80.451  1.00  0.00     0.211 HD
ENDBRANCH   2  11
BRANCH   3  13
ATOM     13  C   UNL     1     -14.774 -14.116  82.273  1.00  0.00    -0.001 A 
ATOM     14  C   UNL     1     -15.588 -13.943  83.406  1.00  0.00     0.057 A 
ATOM     15  C   UNL     1     -13.427 -14.473  82.447  1.00  0.00     0.012 A 
ATOM     16  C   UNL     1     -15.058 -14.101  84.695  1.00  0.00     0.157 A 
ATOM     17  C   UNL     1     -12.899 -14.635  83.730  1.00  0.00     0.050 A 
ATOM     18  C   UNL     1     -13.707 -14.447  84.856  1.00  0.00     0.157 A 
BRANCH  16  19
ATOM     19  O   UNL     1     -15.870 -13.914  85.814  1.00  0.00    -0.504 OA
ATOM     20  H   UNL     1     -16.415 -14.672  86.207  1.00  0.00     0.293 HD
ENDBRANCH  16  19
BRANCH  18  21
ATOM     21  O   UNL     1     -13.150 -14.612  86.125  1.00  0.00    -0.504 OA
ATOM     22  H   UNL     1     -12.156 -14.516  86.293  1.00  0.00     0.293 HD
ENDBRANCH  18  21
ENDBRANCH   3  13
BRANCH   9  23
ATOM     23  O   UNL     1     -18.863 -13.936  77.054  1.00  0.00    -0.507 OA
ATOM     24  H   UNL     1     -18.511 -14.878  76.945  1.00  0.00     0.293 HD
ENDBRANCH   9  23
BRANCH   7  25
ATOM     25  O   UNL     1     -18.242  -9.301  78.166  1.00  0.00    -0.508 OA
ATOM     26  H   UNL     1     -18.116  -8.897  77.244  1.00  0.00     0.293 HD
ENDBRANCH   7  25
TORSDOF 6
ENDMDL
MODEL 5
REMARK VINA RESULT:    -1.485      2.437      6.985
REMARK INTER + INTRA:          -2.155
REMARK INTER:                  -1.785
REMARK INTRA:                  -0.370
REMARK UNBOUND:                -0.366
REMARK SMILES Oc1cc(O)c2c(c1)O[C@@H](c1ccc(O)c(O)c1)[C@H](O)C2
REMARK SMILES IDX 21 1 19 2 10 3 9 4 7 5 8 6 2 7 3 8 4 9 6 10 20 11 11 13
REMARK SMILES IDX 18 14 12 15 16 16 13 17 14 18 17 19 15 21 5 23 1 25
REMARK H PARENT 20 12 17 20 15 22 5 24 1 26
REMARK Flexibility Score: inf
ROOT
ATOM      1  C   UNL     1     -13.458 -22.004  83.529  1.00  0.00     0.079 C 
ATOM      2  C   UNL     1     -14.154 -21.638  82.206  1.00  0.00     0.164 C 
ATOM      3  C   UNL     1     -13.503 -22.404  81.043  1.00  0.00     0.232 C 
ATOM      4  O   UNL     1     -13.554 -23.808  81.299  1.00  0.00    -0.482 OA
ATOM      5  C   UNL     1     -13.354 -24.342  82.576  1.00  0.00     0.131 A 
ATOM      6  C   UNL     1     -13.228 -25.726  82.720  1.00  0.00     0.093 A 
ATOM      7  C   UNL     1     -13.010 -26.286  83.983  1.00  0.00     0.122 A 
ATOM      8  C   UNL     1     -12.911 -25.457  85.102  1.00  0.00     0.092 A 
ATOM      9  C   UNL     1     -13.032 -24.069  84.976  1.00  0.00     0.126 A 
ATOM     10  C   UNL     1     -13.295 -23.499  83.707  1.00  0.00     0.039 A 
ENDROOT
BRANCH   2  11
ATOM     11  O   UNL     1     -14.049 -20.255  81.980  1.00  0.00    -0.389 OA
ATOM     12  H   UNL     1     -13.190 -20.108  81.503  1.00  0.00     0.211 HD
ENDBRANCH   2  11
BRANCH   3  13
ATOM     13  C   UNL     1     -14.195 -22.098  79.735  1.00  0.00    -0.001 A 
ATOM     14  C   UNL     1     -15.560 -22.389  79.561  1.00  0.00     0.057 A 
ATOM     15  C   UNL     1     -13.492 -21.467  78.696  1.00  0.00     0.012 A 
ATOM     16  C   UNL     1     -16.207 -22.076  78.357  1.00  0.00     0.157 A 
ATOM     17  C   UNL     1     -14.137 -21.151  77.497  1.00  0.00     0.050 A 
ATOM     18  C   UNL     1     -15.490 -21.455  77.320  1.00  0.00     0.157 A 
BRANCH  16  19
ATOM     19  O   UNL     1     -17.557 -22.381  78.188  1.00  0.00    -0.504 OA
ATOM     20  H   UNL     1     -17.856 -23.252  77.765  1.00  0.00     0.293 HD
ENDBRANCH  16  19
BRANCH  18  21
ATOM     21  O   UNL     1     -16.106 -21.131  76.111  1.00  0.00    -0.504 OA
ATOM     22  H   UNL     1     -15.842 -20.313  75.575  1.00  0.00     0.293 HD
ENDBRANCH  18  21
ENDBRANCH   3  13
BRANCH   9  23
ATOM     23  O   UNL     1     -12.875 -23.289  86.125  1.00  0.00    -0.507 OA
ATOM     24  H   UNL     1     -13.653 -22.936  86.667  1.00  0.00     0.293 HD
ENDBRANCH   9  23
BRANCH   7  25
ATOM     25  O   UNL     1     -12.884 -27.665  84.136  1.00  0.00    -0.508 OA
ATOM     26  H   UNL     1     -12.910 -28.102  85.051  1.00  0.00     0.293 HD
ENDBRANCH   7  25
TORSDOF 6
ENDMDL
MODEL 6
REMARK VINA RESULT:    -1.420      2.043      6.914
REMARK INTER + INTRA:          -2.077
REMARK INTER:                  -1.712
REMARK INTRA:                  -0.366
REMARK UNBOUND:                -0.366
REMARK SMILES Oc1cc(O)c2c(c1)O[C@@H](c1ccc(O)c(O)c1)[C@H](O)C2
REMARK SMILES IDX 21 1 19 2 10 3 9 4 7 5 8 6 2 7 3 8 4 9 6 10 20 11 11 13
REMARK SMILES IDX 18 14 12 15 16 16 13 17 14 18 17 19 15 21 5 23 1 25
REMARK H PARENT 20 12 17 20 15 22 5 24 1 26
REMARK Flexibility Score: inf
ROOT
ATOM      1  C   UNL     1     -13.584 -20.997  82.422  1.00  0.00     0.079 C 
ATOM      2  C   UNL     1     -14.338 -20.664  81.121  1.00  0.00     0.164 C 
ATOM      3  C   UNL     1     -13.718 -21.436  79.945  1.00  0.00     0.232 C 
ATOM      4  O   UNL     1     -13.731 -22.836  80.224  1.00  0.00    -0.482 OA
ATOM      5  C   UNL     1     -13.471 -23.347  81.499  1.00  0.00     0.131 A 
ATOM      6  C   UNL     1     -13.312 -24.725  81.659  1.00  0.00     0.093 A 
ATOM      7  C   UNL     1     -13.035 -25.262  82.920  1.00  0.00     0.122 A 
ATOM      8  C   UNL     1     -12.909 -24.414  84.023  1.00  0.00     0.092 A 
ATOM      9  C   UNL     1     -13.063 -23.031  83.881  1.00  0.00     0.126 A 
ATOM     10  C   UNL     1     -13.386 -22.486  82.615  1.00  0.00     0.039 A 
ENDROOT
BRANCH   2  11
ATOM     11  O   UNL     1     -14.270 -19.284  80.872  1.00  0.00    -0.389 OA
ATOM     12  H   UNL     1     -14.445 -18.827  81.737  1.00  0.00     0.211 HD
ENDBRANCH   2  11
BRANCH   3  13
ATOM     13  C   UNL     1     -14.465 -21.163  78.661  1.00  0.00    -0.001 A 
ATOM     14  C   UNL     1     -13.791 -20.670  77.530  1.00  0.00     0.057 A 
ATOM     15  C   UNL     1     -15.836 -21.454  78.567  1.00  0.00     0.012 A 
ATOM     16  C   UNL     1     -14.481 -20.446  76.330  1.00  0.00     0.157 A 
ATOM     17  C   UNL     1     -16.524 -21.236  77.370  1.00  0.00     0.050 A 
ATOM     18  C   UNL     1     -15.855 -20.730  76.252  1.00  0.00     0.157 A 
BRANCH  16  19
ATOM     19  O   UNL     1     -13.807 -19.943  75.217  1.00  0.00    -0.504 OA
ATOM     20  H   UNL     1     -14.306 -19.559  74.423  1.00  0.00     0.293 HD
ENDBRANCH  16  19
BRANCH  18  21
ATOM     21  O   UNL     1     -16.569 -20.519  75.073  1.00  0.00    -0.504 OA
ATOM     22  H   UNL     1     -16.886 -19.599  74.792  1.00  0.00     0.293 HD
ENDBRANCH  18  21
ENDBRANCH   3  13
BRANCH   9  23
ATOM     23  O   UNL     1     -12.877 -22.230  85.012  1.00  0.00    -0.507 OA
ATOM     24  H   UNL     1     -12.645 -22.602  85.923  1.00  0.00     0.293 HD
ENDBRANCH   9  23
BRANCH   7  25
ATOM     25  O   UNL     1     -12.875 -26.636  83.088  1.00  0.00    -0.508 OA
ATOM     26  H   UNL     1     -12.061 -27.122  82.730  1.00  0.00     0.293 HD
ENDBRANCH   7  25
TORSDOF 6
ENDMDL
MODEL 7
REMARK VINA RESULT:    -1.411      3.754      6.794
REMARK INTER + INTRA:          -2.066
REMARK INTER:                  -1.698
REMARK INTRA:                  -0.367
REMARK UNBOUND:                -0.366
REMARK SMILES Oc1cc(O)c2c(c1)O[C@@H](c1ccc(O)c(O)c1)[C@H](O)C2
REMARK SMILES IDX 21 1 19 2 10 3 9 4 7 5 8 6 2 7 3 8 4 9 6 10 20 11 11 13
REMARK SMILES IDX 18 14 12 15 16 16 13 17 14 18 17 19 15 21 5 23 1 25
REMARK H PARENT 20 12 17 20 15 22 5 24 1 26
REMARK Flexibility Score: inf
ROOT
ATOM      1  C   UNL     1     -15.218 -21.658  81.449  1.00  0.00     0.079 C 
ATOM      2  C   UNL     1     -16.497 -22.401  81.019  1.00  0.00     0.164 C 
ATOM      3  C   UNL     1     -16.237 -23.916  80.993  1.00  0.00     0.232 C 
ATOM      4  O   UNL     1     -15.775 -24.350  82.272  1.00  0.00    -0.482 OA
ATOM      5  C   UNL     1     -14.894 -23.590  83.046  1.00  0.00     0.131 A 
ATOM      6  C   UNL     1     -14.336 -24.157  84.194  1.00  0.00     0.093 A 
ATOM      7  C   UNL     1     -13.439 -23.425  84.978  1.00  0.00     0.122 A 
ATOM      8  C   UNL     1     -13.094 -22.124  84.606  1.00  0.00     0.092 A 
ATOM      9  C   UNL     1     -13.642 -21.540  83.459  1.00  0.00     0.126 A 
ATOM     10  C   UNL     1     -14.583 -22.261  82.685  1.00  0.00     0.039 A 
ENDROOT
BRANCH   2  11
ATOM     11  O   UNL     1     -16.893 -21.965  79.744  1.00  0.00    -0.389 OA
ATOM     12  H   UNL     1     -16.815 -20.975  79.742  1.00  0.00     0.211 HD
ENDBRANCH   2  11
BRANCH   3  13
ATOM     13  C   UNL     1     -17.488 -24.675  80.616  1.00  0.00    -0.001 A 
ATOM     14  C   UNL     1     -18.664 -24.541  81.375  1.00  0.00     0.057 A 
ATOM     15  C   UNL     1     -17.504 -25.483  79.467  1.00  0.00     0.012 A 
ATOM     16  C   UNL     1     -19.832 -25.223  81.005  1.00  0.00     0.157 A 
ATOM     17  C   UNL     1     -18.668 -26.160  79.096  1.00  0.00     0.050 A 
ATOM     18  C   UNL     1     -19.832 -26.037  79.861  1.00  0.00     0.157 A 
BRANCH  16  19
ATOM     19  O   UNL     1     -20.990 -25.095  81.772  1.00  0.00    -0.504 OA
ATOM     20  H   UNL     1     -21.452 -25.902  82.176  1.00  0.00     0.293 HD
ENDBRANCH  16  19
BRANCH  18  21
ATOM     21  O   UNL     1     -20.978 -26.728  79.467  1.00  0.00    -0.504 OA
ATOM     22  H   UNL     1     -21.090 -27.096  78.530  1.00  0.00     0.293 HD
ENDBRANCH  18  21
ENDBRANCH   3  13
BRANCH   9  23
ATOM     23  O   UNL     1     -13.222 -20.253  83.113  1.00  0.00    -0.507 OA
ATOM     24  H   UNL     1     -12.266 -20.027  82.869  1.00  0.00     0.293 HD
ENDBRANCH   9  23
BRANCH   7  25
ATOM     25  O   UNL     1     -12.877 -23.983  86.125  1.00  0.00    -0.508 OA
ATOM     26  H   UNL     1     -11.887 -24.194  86.182  1.00  0.00     0.293 HD
ENDBRANCH   7  25
TORSDOF 6
ENDMDL
MODEL 8
REMARK VINA RESULT:    -1.346      7.961     10.057
REMARK INTER + INTRA:          -1.988
REMARK INTER:                  -1.643
REMARK INTRA:                  -0.345
REMARK UNBOUND:                -0.366
REMARK SMILES Oc1cc(O)c2c(c1)O[C@@H](c1ccc(O)c(O)c1)[C@H](O)C2
REMARK SMILES IDX 21 1 19 2 10 3 9 4 7 5 8 6 2 7 3 8 4 9 6 10 20 11 11 13
REMARK SMILES IDX 18 14 12 15 16 16 13 17 14 18 17 19 15 21 5 23 1 25
REMARK H PARENT 20 12 17 20 15 22 5 24 1 26
REMARK Flexibility Score: inf
ROOT
ATOM      1  C   UNL     1     -19.865 -15.421  81.925  1.00  0.00     0.079 C 
ATOM      2  C   UNL     1     -18.588 -15.521  82.781  1.00  0.00     0.164 C 
ATOM      3  C   UNL     1     -17.847 -14.175  82.773  1.00  0.00     0.232 C 
ATOM      4  O   UNL     1     -18.716 -13.140  83.235  1.00  0.00    -0.482 OA
ATOM      5  C   UNL     1     -20.071 -13.096  82.895  1.00  0.00     0.131 A 
ATOM      6  C   UNL     1     -20.816 -11.960  83.221  1.00  0.00     0.093 A 
ATOM      7  C   UNL     1     -22.170 -11.883  82.879  1.00  0.00     0.122 A 
ATOM      8  C   UNL     1     -22.777 -12.943  82.202  1.00  0.00     0.092 A 
ATOM      9  C   UNL     1     -22.046 -14.088  81.866  1.00  0.00     0.126 A 
ATOM     10  C   UNL     1     -20.686 -14.190  82.247  1.00  0.00     0.039 A 
ENDROOT
BRANCH   2  11
ATOM     11  O   UNL     1     -17.751 -16.527  82.270  1.00  0.00    -0.389 OA
ATOM     12  H   UNL     1     -16.843 -16.356  82.635  1.00  0.00     0.211 HD
ENDBRANCH   2  11
BRANCH   3  13
ATOM     13  C   UNL     1     -16.611 -14.229  83.641  1.00  0.00    -0.001 A 
ATOM     14  C   UNL     1     -15.329 -14.238  83.064  1.00  0.00     0.057 A 
ATOM     15  C   UNL     1     -16.731 -14.215  85.040  1.00  0.00     0.012 A 
ATOM     16  C   UNL     1     -14.184 -14.258  83.872  1.00  0.00     0.157 A 
ATOM     17  C   UNL     1     -15.590 -14.230  85.847  1.00  0.00     0.050 A 
ATOM     18  C   UNL     1     -14.316 -14.256  85.271  1.00  0.00     0.157 A 
BRANCH  16  19
ATOM     19  O   UNL     1     -12.916 -14.282  83.291  1.00  0.00    -0.504 OA
ATOM     20  H   UNL     1     -12.783 -14.115  82.300  1.00  0.00     0.293 HD
ENDBRANCH  16  19
BRANCH  18  21
ATOM     21  O   UNL     1     -13.196 -14.275  86.102  1.00  0.00    -0.504 OA
ATOM     22  H   UNL     1     -12.418 -14.903  85.942  1.00  0.00     0.293 HD
ENDBRANCH  18  21
ENDBRANCH   3  13
BRANCH   9  23
ATOM     23  O   UNL     1     -22.696 -15.094  81.147  1.00  0.00    -0.507 OA
ATOM     24  H   UNL     1     -23.279 -14.913  80.341  1.00  0.00     0.293 HD
ENDBRANCH   9  23
BRANCH   7  25
ATOM     25  O   UNL     1     -22.920 -10.754  83.200  1.00  0.00    -0.508 OA
ATOM     26  H   UNL     1     -23.257 -10.591  84.142  1.00  0.00     0.293 HD
ENDBRANCH   7  25
TORSDOF 6
ENDMDL
