MODEL 1
REMARK VINA RESULT:    -6.667      0.000      0.000
REMARK INTER + INTRA:          -8.602
REMARK INTER:                  -8.420
REMARK INTRA:                  -0.181
REMARK UNBOUND:                -0.181
REMARK SMILES Oc1ccc(CCc2cc(O)cc(O)c2)cc1
REMARK SMILES IDX 6 1 5 2 4 3 3 4 2 5 16 6 17 7 1 8 7 10 8 11 15 12 9 13 13 14
REMARK SMILES IDX 10 15 12 16 14 17 11 19
REMARK H PARENT 1 9 14 18 11 20
REMARK Flexibility Score: inf
ROOT
ATOM      1  C   UNL     1      13.002  21.978  17.074  1.00  0.00     0.040 C 
ENDROOT
BRANCH   1   2
ATOM      2  C   UNL     1      13.454  20.651  16.525  1.00  0.00    -0.047 A 
ATOM      3  C   UNL     1      14.060  19.705  17.367  1.00  0.00     0.007 A 
ATOM      4  C   UNL     1      14.450  18.460  16.864  1.00  0.00     0.046 A 
ATOM      5  C   UNL     1      14.229  18.144  15.521  1.00  0.00     0.115 A 
ATOM      6  C   UNL     1      13.221  20.325  15.180  1.00  0.00     0.007 A 
ATOM      7  C   UNL     1      13.612  19.080  14.678  1.00  0.00     0.046 A 
BRANCH   5   8
ATOM      8  O   UNL     1      14.623  16.900  15.032  1.00  0.00    -0.508 OA
ATOM      9  H   UNL     1      14.478  16.642  14.063  1.00  0.00     0.293 HD
ENDBRANCH   5   8
ENDBRANCH   1   2
BRANCH   1  10
ATOM     10  C   UNL     1      12.525  21.828  18.522  1.00  0.00     0.040 C 
BRANCH  10  11
ATOM     11  C   UNL     1      11.082  21.403  18.562  1.00  0.00    -0.040 A 
ATOM     12  C   UNL     1      10.235  21.869  19.580  1.00  0.00     0.050 A 
ATOM     13  C   UNL     1      10.558  20.583  17.549  1.00  0.00     0.050 A 
ATOM     14  C   UNL     1       8.885  21.500  19.601  1.00  0.00     0.119 A 
ATOM     15  C   UNL     1       9.205  20.212  17.568  1.00  0.00     0.119 A 
ATOM     16  C   UNL     1       8.373  20.670  18.595  1.00  0.00     0.092 A 
BRANCH  14  17
ATOM     17  O   UNL     1       8.061  21.967  20.623  1.00  0.00    -0.508 OA
ATOM     18  H   UNL     1       8.231  22.858  21.074  1.00  0.00     0.293 HD
ENDBRANCH  14  17
BRANCH  15  19
ATOM     19  O   UNL     1       8.680  19.394  16.571  1.00  0.00    -0.508 OA
ATOM     20  H   UNL     1       8.954  19.498  15.601  1.00  0.00     0.293 HD
ENDBRANCH  15  19
ENDBRANCH  10  11
ENDBRANCH   1  10
TORSDOF 6
ENDMDL
MODEL 2
REMARK VINA RESULT:    -6.659      0.064      2.036
REMARK INTER + INTRA:          -8.592
REMARK INTER:                  -8.419
REMARK INTRA:                  -0.173
REMARK UNBOUND:                -0.181
REMARK SMILES Oc1ccc(CCc2cc(O)cc(O)c2)cc1
REMARK SMILES IDX 6 1 5 2 4 3 3 4 2 5 16 6 17 7 1 8 7 10 8 11 15 12 9 13 13 14
REMARK SMILES IDX 10 15 12 16 14 17 11 19
REMARK H PARENT 1 9 14 18 11 20
REMARK Flexibility Score: inf
ROOT
ATOM      1  C   UNL     1      13.071  21.998  17.050  1.00  0.00     0.040 C 
ENDROOT
BRANCH   1   2
ATOM      2  C   UNL     1      13.489  20.657  16.508  1.00  0.00    -0.047 A 
ATOM      3  C   UNL     1      14.120  19.721  17.342  1.00  0.00     0.007 A 
ATOM      4  C   UNL     1      14.477  18.463  16.847  1.00  0.00     0.046 A 
ATOM      5  C   UNL     1      14.199  18.125  15.519  1.00  0.00     0.115 A 
ATOM      6  C   UNL     1      13.199  20.309  15.179  1.00  0.00     0.007 A 
ATOM      7  C   UNL     1      13.557  19.052  14.685  1.00  0.00     0.046 A 
BRANCH   5   8
ATOM      8  O   UNL     1      14.561  16.869  15.038  1.00  0.00    -0.508 OA
ATOM      9  H   UNL     1      15.400  16.735  14.486  1.00  0.00     0.293 HD
ENDBRANCH   5   8
ENDBRANCH   1   2
BRANCH   1  10
ATOM     10  C   UNL     1      12.569  21.865  18.491  1.00  0.00     0.040 C 
BRANCH  10  11
ATOM     11  C   UNL     1      11.114  21.479  18.510  1.00  0.00    -0.040 A 
ATOM     12  C   UNL     1      10.598  20.614  17.533  1.00  0.00     0.050 A 
ATOM     13  C   UNL     1      10.275  21.937  19.539  1.00  0.00     0.050 A 
ATOM     14  C   UNL     1       9.253  20.228  17.568  1.00  0.00     0.119 A 
ATOM     15  C   UNL     1       8.927  21.553  19.577  1.00  0.00     0.119 A 
ATOM     16  C   UNL     1       8.419  20.701  18.590  1.00  0.00     0.092 A 
BRANCH  14  17
ATOM     17  O   UNL     1       8.757  19.373  16.586  1.00  0.00    -0.508 OA
ATOM     18  H   UNL     1       9.351  19.016  15.847  1.00  0.00     0.293 HD
ENDBRANCH  14  17
BRANCH  15  19
ATOM     19  O   UNL     1       8.087  22.009  20.590  1.00  0.00    -0.508 OA
ATOM     20  H   UNL     1       7.506  21.372  21.123  1.00  0.00     0.293 HD
ENDBRANCH  15  19
ENDBRANCH  10  11
ENDBRANCH   1  10
TORSDOF 6
ENDMDL
MODEL 3
REMARK VINA RESULT:    -6.610      1.756      5.739
REMARK INTER + INTRA:          -8.530
REMARK INTER:                  -7.982
REMARK INTRA:                  -0.547
REMARK UNBOUND:                -0.181
REMARK SMILES Oc1ccc(CCc2cc(O)cc(O)c2)cc1
REMARK SMILES IDX 6 1 5 2 4 3 3 4 2 5 16 6 17 7 1 8 7 10 8 11 15 12 9 13 13 14
REMARK SMILES IDX 10 15 12 16 14 17 11 19
REMARK H PARENT 1 9 14 18 11 20
REMARK Flexibility Score: inf
ROOT
ATOM      1  C   UNL     1      12.701  18.991  19.504  1.00  0.00     0.040 C 
ENDROOT
BRANCH   1   2
ATOM      2  C   UNL     1      11.418  19.700  19.160  1.00  0.00    -0.047 A 
ATOM      3  C   UNL     1      11.073  20.896  19.810  1.00  0.00     0.007 A 
ATOM      4  C   UNL     1       9.898  21.571  19.466  1.00  0.00     0.046 A 
ATOM      5  C   UNL     1       9.063  21.065  18.466  1.00  0.00     0.115 A 
ATOM      6  C   UNL     1      10.584  19.202  18.147  1.00  0.00     0.007 A 
ATOM      7  C   UNL     1       9.409  19.878  17.805  1.00  0.00     0.046 A 
BRANCH   5   8
ATOM      8  O   UNL     1       7.894  21.748  18.134  1.00  0.00    -0.508 OA
ATOM      9  H   UNL     1       7.292  22.143  18.846  1.00  0.00     0.293 HD
ENDBRANCH   5   8
ENDBRANCH   1   2
BRANCH   1  10
ATOM     10  C   UNL     1      13.901  19.723  18.895  1.00  0.00     0.040 C 
BRANCH  10  11
ATOM     11  C   UNL     1      13.847  19.669  17.393  1.00  0.00    -0.040 A 
ATOM     12  C   UNL     1      14.202  18.493  16.713  1.00  0.00     0.050 A 
ATOM     13  C   UNL     1      13.386  20.777  16.661  1.00  0.00     0.050 A 
ATOM     14  C   UNL     1      14.122  18.431  15.317  1.00  0.00     0.119 A 
ATOM     15  C   UNL     1      13.305  20.717  15.263  1.00  0.00     0.119 A 
ATOM     16  C   UNL     1      13.675  19.545  14.594  1.00  0.00     0.092 A 
BRANCH  14  17
ATOM     17  O   UNL     1      14.484  17.257  14.660  1.00  0.00    -0.508 OA
ATOM     18  H   UNL     1      14.362  16.349  15.093  1.00  0.00     0.293 HD
ENDBRANCH  14  17
BRANCH  15  19
ATOM     19  O   UNL     1      12.855  21.812  14.530  1.00  0.00    -0.508 OA
ATOM     20  H   UNL     1      12.589  22.679  14.983  1.00  0.00     0.293 HD
ENDBRANCH  15  19
ENDBRANCH  10  11
ENDBRANCH   1  10
TORSDOF 6
ENDMDL
MODEL 4
REMARK VINA RESULT:    -6.534      1.707      5.639
REMARK INTER + INTRA:          -8.435
REMARK INTER:                  -7.819
REMARK INTRA:                  -0.615
REMARK UNBOUND:                -0.181
REMARK SMILES Oc1ccc(CCc2cc(O)cc(O)c2)cc1
REMARK SMILES IDX 6 1 5 2 4 3 3 4 2 5 16 6 17 7 1 8 7 10 8 11 15 12 9 13 13 14
REMARK SMILES IDX 10 15 12 16 14 17 11 19
REMARK H PARENT 1 9 14 18 11 20
REMARK Flexibility Score: inf
ROOT
ATOM      1  C   UNL     1      12.648  19.087  19.411  1.00  0.00     0.040 C 
ENDROOT
BRANCH   1   2
ATOM      2  C   UNL     1      11.339  19.769  19.113  1.00  0.00    -0.047 A 
ATOM      3  C   UNL     1      10.970  20.930  19.811  1.00  0.00     0.007 A 
ATOM      4  C   UNL     1       9.770  21.582  19.511  1.00  0.00     0.046 A 
ATOM      5  C   UNL     1       8.933  21.086  18.507  1.00  0.00     0.115 A 
ATOM      6  C   UNL     1      10.503  19.283  18.096  1.00  0.00     0.007 A 
ATOM      7  C   UNL     1       9.303  19.935  17.798  1.00  0.00     0.046 A 
BRANCH   5   8
ATOM      8  O   UNL     1       7.739  21.745  18.219  1.00  0.00    -0.508 OA
ATOM      9  H   UNL     1       6.965  21.746  18.872  1.00  0.00     0.293 HD
ENDBRANCH   5   8
ENDBRANCH   1   2
BRANCH   1  10
ATOM     10  C   UNL     1      13.810  19.846  18.762  1.00  0.00     0.040 C 
BRANCH  10  11
ATOM     11  C   UNL     1      13.768  19.698  17.265  1.00  0.00    -0.040 A 
ATOM     12  C   UNL     1      13.379  20.778  16.457  1.00  0.00     0.050 A 
ATOM     13  C   UNL     1      14.174  18.496  16.661  1.00  0.00     0.050 A 
ATOM     14  C   UNL     1      13.370  20.652  15.063  1.00  0.00     0.119 A 
ATOM     15  C   UNL     1      14.166  18.367  15.265  1.00  0.00     0.119 A 
ATOM     16  C   UNL     1      13.761  19.445  14.470  1.00  0.00     0.092 A 
BRANCH  14  17
ATOM     17  O   UNL     1      12.974  21.733  14.278  1.00  0.00    -0.508 OA
ATOM     18  H   UNL     1      13.594  22.142  13.589  1.00  0.00     0.293 HD
ENDBRANCH  14  17
BRANCH  15  19
ATOM     19  O   UNL     1      14.559  17.176  14.660  1.00  0.00    -0.508 OA
ATOM     20  H   UNL     1      15.501  16.815  14.763  1.00  0.00     0.293 HD
ENDBRANCH  15  19
ENDBRANCH  10  11
ENDBRANCH   1  10
TORSDOF 6
ENDMDL
MODEL 5
REMARK VINA RESULT:    -6.342     16.685     18.737
REMARK INTER + INTRA:          -8.192
REMARK INTER:                  -7.651
REMARK INTRA:                  -0.540
REMARK UNBOUND:                -0.181
REMARK SMILES Oc1ccc(CCc2cc(O)cc(O)c2)cc1
REMARK SMILES IDX 6 1 5 2 4 3 3 4 2 5 16 6 17 7 1 8 7 10 8 11 15 12 9 13 13 14
REMARK SMILES IDX 10 15 12 16 14 17 11 19
REMARK H PARENT 1 9 14 18 11 20
REMARK Flexibility Score: inf
ROOT
ATOM      1  C   UNL     1      20.913  16.364   4.759  1.00  0.00     0.040 C 
ENDROOT
BRANCH   1   2
ATOM      2  C   UNL     1      20.346  15.126   4.118  1.00  0.00    -0.047 A 
ATOM      3  C   UNL     1      19.168  14.546   4.615  1.00  0.00     0.007 A 
ATOM      4  C   UNL     1      18.623  13.416   3.998  1.00  0.00     0.046 A 
ATOM      5  C   UNL     1      19.243  12.860   2.875  1.00  0.00     0.115 A 
ATOM      6  C   UNL     1      20.958  14.573   2.982  1.00  0.00     0.007 A 
ATOM      7  C   UNL     1      20.413  13.442   2.367  1.00  0.00     0.046 A 
BRANCH   5   8
ATOM      8  O   UNL     1      18.690  11.733   2.271  1.00  0.00    -0.508 OA
ATOM      9  H   UNL     1      19.270  10.967   1.948  1.00  0.00     0.293 HD
ENDBRANCH   5   8
ENDBRANCH   1   2
BRANCH   1  10
ATOM     10  C   UNL     1      22.341  16.109   5.252  1.00  0.00     0.040 C 
BRANCH  10  11
ATOM     11  C   UNL     1      23.339  16.806   4.366  1.00  0.00    -0.040 A 
ATOM     12  C   UNL     1      24.283  16.062   3.642  1.00  0.00     0.050 A 
ATOM     13  C   UNL     1      23.295  18.202   4.214  1.00  0.00     0.050 A 
ATOM     14  C   UNL     1      25.190  16.706   2.792  1.00  0.00     0.119 A 
ATOM     15  C   UNL     1      24.203  18.850   3.364  1.00  0.00     0.119 A 
ATOM     16  C   UNL     1      25.150  18.100   2.657  1.00  0.00     0.092 A 
BRANCH  14  17
ATOM     17  O   UNL     1      26.125  15.951   2.086  1.00  0.00    -0.508 OA
ATOM     18  H   UNL     1      26.643  16.343   1.309  1.00  0.00     0.293 HD
ENDBRANCH  14  17
BRANCH  15  19
ATOM     19  O   UNL     1      24.170  20.233   3.212  1.00  0.00    -0.508 OA
ATOM     20  H   UNL     1      23.638  20.673   2.470  1.00  0.00     0.293 HD
ENDBRANCH  15  19
ENDBRANCH  10  11
ENDBRANCH   1  10
TORSDOF 6
ENDMDL
MODEL 6
REMARK VINA RESULT:    -6.310     16.708     18.677
REMARK INTER + INTRA:          -8.151
REMARK INTER:                  -7.629
REMARK INTRA:                  -0.522
REMARK UNBOUND:                -0.181
REMARK SMILES Oc1ccc(CCc2cc(O)cc(O)c2)cc1
REMARK SMILES IDX 6 1 5 2 4 3 3 4 2 5 16 6 17 7 1 8 7 10 8 11 15 12 9 13 13 14
REMARK SMILES IDX 10 15 12 16 14 17 11 19
REMARK H PARENT 1 9 14 18 11 20
REMARK Flexibility Score: inf
ROOT
ATOM      1  C   UNL     1      20.880  16.353   4.743  1.00  0.00     0.040 C 
ENDROOT
BRANCH   1   2
ATOM      2  C   UNL     1      20.321  15.115   4.093  1.00  0.00    -0.047 A 
ATOM      3  C   UNL     1      19.165  14.505   4.606  1.00  0.00     0.007 A 
ATOM      4  C   UNL     1      18.628  13.375   3.981  1.00  0.00     0.046 A 
ATOM      5  C   UNL     1      19.234  12.850   2.836  1.00  0.00     0.115 A 
ATOM      6  C   UNL     1      20.919  14.593   2.935  1.00  0.00     0.007 A 
ATOM      7  C   UNL     1      20.381  13.463   2.313  1.00  0.00     0.046 A 
BRANCH   5   8
ATOM      8  O   UNL     1      18.689  11.722   2.225  1.00  0.00    -0.508 OA
ATOM      9  H   UNL     1      19.092  11.331   1.382  1.00  0.00     0.293 HD
ENDBRANCH   5   8
ENDBRANCH   1   2
BRANCH   1  10
ATOM     10  C   UNL     1      22.322  16.117   5.202  1.00  0.00     0.040 C 
BRANCH  10  11
ATOM     11  C   UNL     1      23.290  16.809   4.282  1.00  0.00    -0.040 A 
ATOM     12  C   UNL     1      23.279  18.208   4.165  1.00  0.00     0.050 A 
ATOM     13  C   UNL     1      24.251  16.066   3.576  1.00  0.00     0.050 A 
ATOM     14  C   UNL     1      24.199  18.857   3.334  1.00  0.00     0.119 A 
ATOM     15  C   UNL     1      25.174  16.713   2.743  1.00  0.00     0.119 A 
ATOM     16  C   UNL     1      25.145  18.106   2.622  1.00  0.00     0.092 A 
BRANCH  14  17
ATOM     17  O   UNL     1      24.168  20.245   3.226  1.00  0.00    -0.508 OA
ATOM     18  H   UNL     1      24.602  20.725   2.446  1.00  0.00     0.293 HD
ENDBRANCH  14  17
BRANCH  15  19
ATOM     19  O   UNL     1      26.125  15.982   2.035  1.00  0.00    -0.508 OA
ATOM     20  H   UNL     1      26.126  15.955   1.022  1.00  0.00     0.293 HD
ENDBRANCH  15  19
ENDBRANCH  10  11
ENDBRANCH   1  10
TORSDOF 6
ENDMDL
MODEL 7
REMARK VINA RESULT:    -6.299      4.974      6.310
REMARK INTER + INTRA:          -8.137
REMARK INTER:                  -7.701
REMARK INTRA:                  -0.436
REMARK UNBOUND:                -0.181
REMARK SMILES Oc1ccc(CCc2cc(O)cc(O)c2)cc1
REMARK SMILES IDX 6 1 5 2 4 3 3 4 2 5 16 6 17 7 1 8 7 10 8 11 15 12 9 13 13 14
REMARK SMILES IDX 10 15 12 16 14 17 11 19
REMARK H PARENT 1 9 14 18 11 20
REMARK Flexibility Score: inf
ROOT
ATOM      1  C   UNL     1      17.370  18.874  18.745  1.00  0.00     0.040 C 
ENDROOT
BRANCH   1   2
ATOM      2  C   UNL     1      18.482  19.317  19.658  1.00  0.00    -0.047 A 
ATOM      3  C   UNL     1      19.750  18.721  19.572  1.00  0.00     0.007 A 
ATOM      4  C   UNL     1      20.791  19.157  20.397  1.00  0.00     0.046 A 
ATOM      5  C   UNL     1      20.579  20.196  21.308  1.00  0.00     0.115 A 
ATOM      6  C   UNL     1      18.277  20.370  20.564  1.00  0.00     0.007 A 
ATOM      7  C   UNL     1      19.319  20.804  21.389  1.00  0.00     0.046 A 
BRANCH   5   8
ATOM      8  O   UNL     1      21.626  20.619  22.125  1.00  0.00    -0.508 OA
ATOM      9  H   UNL     1      21.825  20.164  23.008  1.00  0.00     0.293 HD
ENDBRANCH   5   8
ENDBRANCH   1   2
BRANCH   1  10
ATOM     10  C   UNL     1      16.122  18.505  19.555  1.00  0.00     0.040 C 
BRANCH  10  11
ATOM     11  C   UNL     1      14.874  18.876  18.801  1.00  0.00    -0.040 A 
ATOM     12  C   UNL     1      13.685  19.156  19.494  1.00  0.00     0.050 A 
ATOM     13  C   UNL     1      14.903  19.002  17.402  1.00  0.00     0.050 A 
ATOM     14  C   UNL     1      12.532  19.533  18.797  1.00  0.00     0.119 A 
ATOM     15  C   UNL     1      13.749  19.380  16.701  1.00  0.00     0.119 A 
ATOM     16  C   UNL     1      12.566  19.642  17.400  1.00  0.00     0.092 A 
BRANCH  14  17
ATOM     17  O   UNL     1      11.360  19.800  19.501  1.00  0.00    -0.508 OA
ATOM     18  H   UNL     1      10.510  19.274  19.333  1.00  0.00     0.293 HD
ENDBRANCH  14  17
BRANCH  15  19
ATOM     19  O   UNL     1      13.768  19.500  15.314  1.00  0.00    -0.508 OA
ATOM     20  H   UNL     1      14.163  18.775  14.725  1.00  0.00     0.293 HD
ENDBRANCH  15  19
ENDBRANCH  10  11
ENDBRANCH   1  10
TORSDOF 6
ENDMDL
MODEL 8
REMARK VINA RESULT:    -6.242      4.992      6.613
REMARK INTER + INTRA:          -8.066
REMARK INTER:                  -7.627
REMARK INTRA:                  -0.439
REMARK UNBOUND:                -0.181
REMARK SMILES Oc1ccc(CCc2cc(O)cc(O)c2)cc1
REMARK SMILES IDX 6 1 5 2 4 3 3 4 2 5 16 6 17 7 1 8 7 10 8 11 15 12 9 13 13 14
REMARK SMILES IDX 10 15 12 16 14 17 11 19
REMARK H PARENT 1 9 14 18 11 20
REMARK Flexibility Score: inf
ROOT
ATOM      1  C   UNL     1      17.438  18.855  18.732  1.00  0.00     0.040 C 
ENDROOT
BRANCH   1   2
ATOM      2  C   UNL     1      18.534  19.330  19.649  1.00  0.00    -0.047 A 
ATOM      3  C   UNL     1      19.820  18.772  19.565  1.00  0.00     0.007 A 
ATOM      4  C   UNL     1      20.846  19.238  20.393  1.00  0.00     0.046 A 
ATOM      5  C   UNL     1      20.601  20.269  21.304  1.00  0.00     0.115 A 
ATOM      6  C   UNL     1      18.295  20.375  20.555  1.00  0.00     0.007 A 
ATOM      7  C   UNL     1      19.322  20.839  21.383  1.00  0.00     0.046 A 
BRANCH   5   8
ATOM      8  O   UNL     1      21.632  20.723  22.125  1.00  0.00    -0.508 OA
ATOM      9  H   UNL     1      22.582  20.390  22.013  1.00  0.00     0.293 HD
ENDBRANCH   5   8
ENDBRANCH   1   2
BRANCH   1  10
ATOM     10  C   UNL     1      16.186  18.489  19.535  1.00  0.00     0.040 C 
BRANCH  10  11
ATOM     11  C   UNL     1      14.943  18.888  18.786  1.00  0.00    -0.040 A 
ATOM     12  C   UNL     1      14.968  19.013  17.388  1.00  0.00     0.050 A 
ATOM     13  C   UNL     1      13.734  19.082  19.475  1.00  0.00     0.050 A 
ATOM     14  C   UNL     1      13.805  19.353  16.687  1.00  0.00     0.119 A 
ATOM     15  C   UNL     1      12.567  19.423  18.775  1.00  0.00     0.119 A 
ATOM     16  C   UNL     1      12.607  19.559  17.383  1.00  0.00     0.092 A 
BRANCH  14  17
ATOM     17  O   UNL     1      13.851  19.479  15.301  1.00  0.00    -0.508 OA
ATOM     18  H   UNL     1      14.334  18.801  14.723  1.00  0.00     0.293 HD
ENDBRANCH  14  17
BRANCH  15  19
ATOM     19  O   UNL     1      11.367  19.624  19.452  1.00  0.00    -0.508 OA
ATOM     20  H   UNL     1      11.283  19.446  20.446  1.00  0.00     0.293 HD
ENDBRANCH  15  19
ENDBRANCH  10  11
ENDBRANCH   1  10
TORSDOF 6
ENDMDL
MODEL 9
REMARK VINA RESULT:    -6.056     15.804     17.564
REMARK INTER + INTRA:          -7.831
REMARK INTER:                  -7.278
REMARK INTRA:                  -0.552
REMARK UNBOUND:                -0.181
REMARK SMILES Oc1ccc(CCc2cc(O)cc(O)c2)cc1
REMARK SMILES IDX 6 1 5 2 4 3 3 4 2 5 16 6 17 7 1 8 7 10 8 11 15 12 9 13 13 14
REMARK SMILES IDX 10 15 12 16 14 17 11 19
REMARK H PARENT 1 9 14 18 11 20
REMARK Flexibility Score: inf
ROOT
ATOM      1  C   UNL     1      23.331  15.807   3.921  1.00  0.00     0.040 C 
ENDROOT
BRANCH   1   2
ATOM      2  C   UNL     1      23.488  17.225   4.403  1.00  0.00    -0.047 A 
ATOM      3  C   UNL     1      24.116  18.184   3.592  1.00  0.00     0.007 A 
ATOM      4  C   UNL     1      24.232  19.508   4.026  1.00  0.00     0.046 A 
ATOM      5  C   UNL     1      23.713  19.889   5.268  1.00  0.00     0.115 A 
ATOM      6  C   UNL     1      22.956  17.614   5.642  1.00  0.00     0.007 A 
ATOM      7  C   UNL     1      23.073  18.938   6.075  1.00  0.00     0.046 A 
BRANCH   5   8
ATOM      8  O   UNL     1      23.837  21.211   5.689  1.00  0.00    -0.508 OA
ATOM      9  H   UNL     1      24.223  21.926   5.083  1.00  0.00     0.293 HD
ENDBRANCH   5   8
ENDBRANCH   1   2
BRANCH   1  10
ATOM     10  C   UNL     1      22.301  15.734   2.789  1.00  0.00     0.040 C 
BRANCH  10  11
ATOM     11  C   UNL     1      21.080  14.974   3.233  1.00  0.00    -0.040 A 
ATOM     12  C   UNL     1      20.165  15.561   4.121  1.00  0.00     0.050 A 
ATOM     13  C   UNL     1      20.817  13.695   2.717  1.00  0.00     0.050 A 
ATOM     14  C   UNL     1      19.013  14.869   4.510  1.00  0.00     0.119 A 
ATOM     15  C   UNL     1      19.663  12.998   3.104  1.00  0.00     0.119 A 
ATOM     16  C   UNL     1      18.765  13.587   4.002  1.00  0.00     0.092 A 
BRANCH  14  17
ATOM     17  O   UNL     1      18.120  15.465   5.398  1.00  0.00    -0.508 OA
ATOM     18  H   UNL     1      18.441  15.930   6.239  1.00  0.00     0.293 HD
ENDBRANCH  14  17
BRANCH  15  19
ATOM     19  O   UNL     1      19.399  11.727   2.603  1.00  0.00    -0.508 OA
ATOM     20  H   UNL     1      19.206  11.575   1.619  1.00  0.00     0.293 HD
ENDBRANCH  15  19
ENDBRANCH  10  11
ENDBRANCH   1  10
TORSDOF 6
ENDMDL
