MODEL 1
REMARK VINA RESULT:    -4.374      0.000      0.000
REMARK INTER + INTRA:          -5.701
REMARK INTER:                  -5.397
REMARK INTRA:                  -0.305
REMARK UNBOUND:                -0.305
REMARK SMILES COC(=O)c1ccccc1C(=O)OC
REMARK SMILES IDX 5 1 6 2 7 3 8 4 9 5 10 6 3 7 4 8 2 9 1 10 11 11 12 12 13 13
REMARK SMILES IDX 14 14
REMARK H PARENT
REMARK Flexibility Score: inf
ROOT
ATOM      1  C   UNL     1      78.420  16.036   1.784  1.00  0.00     0.074 A 
ATOM      2  C   UNL     1      77.945  17.102   0.998  1.00  0.00     0.016 A 
ATOM      3  C   UNL     1      78.595  18.337   1.003  1.00  0.00     0.001 A 
ATOM      4  C   UNL     1      79.727  18.527   1.791  1.00  0.00     0.001 A 
ATOM      5  C   UNL     1      80.202  17.492   2.596  1.00  0.00     0.016 A 
ATOM      6  C   UNL     1      79.550  16.244   2.623  1.00  0.00     0.074 A 
ENDROOT
BRANCH   1   7
ATOM      7  C   UNL     1      77.754  14.722   1.645  1.00  0.00     0.338 C 
ATOM      8  O   UNL     1      77.017  14.279   2.570  1.00  0.00    -0.246 OA
BRANCH   7   9
ATOM      9  O   UNL     1      77.991  13.945   0.506  1.00  0.00    -0.465 OA
ATOM     10  C   UNL     1      79.265  13.875  -0.123  1.00  0.00     0.282 C 
ENDBRANCH   7   9
ENDBRANCH   1   7
BRANCH   6  11
ATOM     11  C   UNL     1      80.029  15.224   3.584  1.00  0.00     0.338 C 
ATOM     12  O   UNL     1      80.847  14.341   3.204  1.00  0.00    -0.246 OA
BRANCH  11  13
ATOM     13  O   UNL     1      79.620  15.273   4.920  1.00  0.00    -0.465 OA
ATOM     14  C   UNL     1      79.325  14.106   5.677  1.00  0.00     0.282 C 
ENDBRANCH  11  13
ENDBRANCH   6  11
TORSDOF 4
ENDMDL
MODEL 2
REMARK VINA RESULT:    -4.080      1.957      3.552
REMARK INTER + INTRA:          -5.338
REMARK INTER:                  -5.124
REMARK INTRA:                  -0.214
REMARK UNBOUND:                -0.305
REMARK SMILES COC(=O)c1ccccc1C(=O)OC
REMARK SMILES IDX 5 1 6 2 7 3 8 4 9 5 10 6 3 7 4 8 2 9 1 10 11 11 12 12 13 13
REMARK SMILES IDX 14 14
REMARK H PARENT
REMARK Flexibility Score: inf
ROOT
ATOM      1  C   UNL     1      79.730  14.917   2.728  1.00  0.00     0.074 A 
ATOM      2  C   UNL     1      79.395  14.099   1.632  1.00  0.00     0.016 A 
ATOM      3  C   UNL     1      78.922  14.658   0.444  1.00  0.00     0.001 A 
ATOM      4  C   UNL     1      78.776  16.038   0.330  1.00  0.00     0.001 A 
ATOM      5  C   UNL     1      79.078  16.865   1.411  1.00  0.00     0.016 A 
ATOM      6  C   UNL     1      79.538  16.323   2.627  1.00  0.00     0.074 A 
ENDROOT
BRANCH   1   7
ATOM      7  C   UNL     1      80.332  14.272   3.915  1.00  0.00     0.338 C 
ATOM      8  O   UNL     1      81.571  14.032   3.951  1.00  0.00    -0.246 OA
BRANCH   7   9
ATOM      9  O   UNL     1      79.510  13.875   4.976  1.00  0.00    -0.465 OA
ATOM     10  C   UNL     1      79.945  13.890   6.330  1.00  0.00     0.282 C 
ENDBRANCH   7   9
ENDBRANCH   1   7
BRANCH   6  11
ATOM     11  C   UNL     1      79.730  17.239   3.774  1.00  0.00     0.338 C 
ATOM     12  O   UNL     1      80.484  18.243   3.654  1.00  0.00    -0.246 OA
BRANCH  11  13
ATOM     13  O   UNL     1      79.035  17.022   4.968  1.00  0.00    -0.465 OA
ATOM     14  C   UNL     1      79.403  17.639   6.195  1.00  0.00     0.282 C 
ENDBRANCH  11  13
ENDBRANCH   6  11
TORSDOF 4
ENDMDL
MODEL 3
REMARK VINA RESULT:    -3.992      1.913      3.742
REMARK INTER + INTRA:          -5.230
REMARK INTER:                  -4.886
REMARK INTRA:                  -0.344
REMARK UNBOUND:                -0.305
REMARK SMILES COC(=O)c1ccccc1C(=O)OC
REMARK SMILES IDX 5 1 6 2 7 3 8 4 9 5 10 6 3 7 4 8 2 9 1 10 11 11 12 12 13 13
REMARK SMILES IDX 14 14
REMARK H PARENT
REMARK Flexibility Score: inf
ROOT
ATOM      1  C   UNL     1      79.295  14.845   2.955  1.00  0.00     0.074 A 
ATOM      2  C   UNL     1      79.501  13.979   4.045  1.00  0.00     0.016 A 
ATOM      3  C   UNL     1      79.548  14.474   5.349  1.00  0.00     0.001 A 
ATOM      4  C   UNL     1      79.390  15.837   5.586  1.00  0.00     0.001 A 
ATOM      5  C   UNL     1      79.209  16.716   4.518  1.00  0.00     0.016 A 
ATOM      6  C   UNL     1      79.179  16.243   3.193  1.00  0.00     0.074 A 
ENDROOT
BRANCH   1   7
ATOM      7  C   UNL     1      79.141  14.243   1.611  1.00  0.00     0.338 C 
ATOM      8  O   UNL     1      80.145  14.095   0.861  1.00  0.00    -0.246 OA
BRANCH   7   9
ATOM      9  O   UNL     1      77.866  13.892   1.154  1.00  0.00    -0.465 OA
ATOM     10  C   UNL     1      77.377  14.277  -0.125  1.00  0.00     0.282 C 
ENDBRANCH   7   9
ENDBRANCH   1   7
BRANCH   6  11
ATOM     11  C   UNL     1      79.102  17.235   2.096  1.00  0.00     0.338 C 
ATOM     12  O   UNL     1      80.147  17.833   1.718  1.00  0.00    -0.246 OA
BRANCH  11  13
ATOM     13  O   UNL     1      77.886  17.467   1.446  1.00  0.00    -0.465 OA
ATOM     14  C   UNL     1      77.580  18.700   0.806  1.00  0.00     0.282 C 
ENDBRANCH  11  13
ENDBRANCH   6  11
TORSDOF 4
ENDMDL
MODEL 4
REMARK VINA RESULT:    -3.987      1.954      3.538
REMARK INTER + INTRA:          -5.223
REMARK INTER:                  -5.047
REMARK INTRA:                  -0.176
REMARK UNBOUND:                -0.305
REMARK SMILES COC(=O)c1ccccc1C(=O)OC
REMARK SMILES IDX 5 1 6 2 7 3 8 4 9 5 10 6 3 7 4 8 2 9 1 10 11 11 12 12 13 13
REMARK SMILES IDX 14 14
REMARK H PARENT
REMARK Flexibility Score: inf
ROOT
ATOM      1  C   UNL     1      79.507  16.299   2.615  1.00  0.00     0.074 A 
ATOM      2  C   UNL     1      79.064  16.828   1.389  1.00  0.00     0.016 A 
ATOM      3  C   UNL     1      78.740  15.987   0.324  1.00  0.00     0.001 A 
ATOM      4  C   UNL     1      78.853  14.606   0.464  1.00  0.00     0.001 A 
ATOM      5  C   UNL     1      79.313  14.060   1.662  1.00  0.00     0.016 A 
ATOM      6  C   UNL     1      79.666  14.891   2.744  1.00  0.00     0.074 A 
ENDROOT
BRANCH   1   7
ATOM      7  C   UNL     1      79.724  17.238   3.738  1.00  0.00     0.338 C 
ATOM      8  O   UNL     1      80.537  18.196   3.620  1.00  0.00    -0.246 OA
BRANCH   7   9
ATOM      9  O   UNL     1      79.065  17.023   4.953  1.00  0.00    -0.465 OA
ATOM     10  C   UNL     1      79.478  17.636   6.169  1.00  0.00     0.282 C 
ENDBRANCH   7   9
ENDBRANCH   1   7
BRANCH   6  11
ATOM     11  C   UNL     1      80.258  14.261   3.946  1.00  0.00     0.338 C 
ATOM     12  O   UNL     1      81.508  14.103   4.019  1.00  0.00    -0.246 OA
BRANCH  11  13
ATOM     13  O   UNL     1      79.441  13.894   5.019  1.00  0.00    -0.465 OA
ATOM     14  C   UNL     1      79.890  13.913   6.369  1.00  0.00     0.282 C 
ENDBRANCH  11  13
ENDBRANCH   6  11
TORSDOF 4
ENDMDL
MODEL 5
REMARK VINA RESULT:    -3.962      1.925      4.068
REMARK INTER + INTRA:          -5.193
REMARK INTER:                  -4.877
REMARK INTRA:                  -0.315
REMARK UNBOUND:                -0.305
REMARK SMILES COC(=O)c1ccccc1C(=O)OC
REMARK SMILES IDX 5 1 6 2 7 3 8 4 9 5 10 6 3 7 4 8 2 9 1 10 11 11 12 12 13 13
REMARK SMILES IDX 14 14
REMARK H PARENT
REMARK Flexibility Score: inf
ROOT
ATOM      1  C   UNL     1      79.214  16.250   3.186  1.00  0.00     0.074 A 
ATOM      2  C   UNL     1      79.240  16.747   4.501  1.00  0.00     0.016 A 
ATOM      3  C   UNL     1      79.374  15.883   5.589  1.00  0.00     0.001 A 
ATOM      4  C   UNL     1      79.484  14.510   5.381  1.00  0.00     0.001 A 
ATOM      5  C   UNL     1      79.437  13.993   4.086  1.00  0.00     0.016 A 
ATOM      6  C   UNL     1      79.281  14.844   2.975  1.00  0.00     0.074 A 
ENDROOT
BRANCH   1   7
ATOM      7  C   UNL     1      79.184  17.227   2.075  1.00  0.00     0.338 C 
ATOM      8  O   UNL     1      80.211  17.907   1.796  1.00  0.00    -0.246 OA
BRANCH   7   9
ATOM      9  O   UNL     1      77.993  17.436   1.372  1.00  0.00    -0.465 OA
ATOM     10  C   UNL     1      77.547  18.731   0.986  1.00  0.00     0.282 C 
ENDBRANCH   7   9
ENDBRANCH   1   7
BRANCH   6  11
ATOM     11  C   UNL     1      79.119  14.229   1.638  1.00  0.00     0.338 C 
ATOM     12  O   UNL     1      80.138  13.979   0.937  1.00  0.00    -0.246 OA
BRANCH  11  13
ATOM     13  O   UNL     1      77.847  13.875   1.179  1.00  0.00    -0.465 OA
ATOM     14  C   UNL     1      77.382  14.202  -0.125  1.00  0.00     0.282 C 
ENDBRANCH  11  13
ENDBRANCH   6  11
TORSDOF 4
ENDMDL
MODEL 6
REMARK VINA RESULT:    -3.582      2.039      4.208
REMARK INTER + INTRA:          -4.724
REMARK INTER:                  -4.657
REMARK INTRA:                  -0.067
REMARK UNBOUND:                -0.305
REMARK SMILES COC(=O)c1ccccc1C(=O)OC
REMARK SMILES IDX 5 1 6 2 7 3 8 4 9 5 10 6 3 7 4 8 2 9 1 10 11 11 12 12 13 13
REMARK SMILES IDX 14 14
REMARK H PARENT
REMARK Flexibility Score: inf
ROOT
ATOM      1  C   UNL     1      78.155  15.606   2.617  1.00  0.00     0.074 A 
ATOM      2  C   UNL     1      77.500  14.370   2.467  1.00  0.00     0.016 A 
ATOM      3  C   UNL     1      77.190  13.876   1.199  1.00  0.00     0.001 A 
ATOM      4  C   UNL     1      77.529  14.606   0.063  1.00  0.00     0.001 A 
ATOM      5  C   UNL     1      78.157  15.845   0.188  1.00  0.00     0.016 A 
ATOM      6  C   UNL     1      78.461  16.372   1.458  1.00  0.00     0.074 A 
ENDROOT
BRANCH   1   7
ATOM      7  C   UNL     1      78.556  16.017   3.981  1.00  0.00     0.338 C 
ATOM      8  O   UNL     1      77.916  16.919   4.589  1.00  0.00    -0.246 OA
BRANCH   7   9
ATOM      9  O   UNL     1      79.686  15.440   4.571  1.00  0.00    -0.465 OA
ATOM     10  C   UNL     1      79.666  14.878   5.878  1.00  0.00     0.282 C 
ENDBRANCH   7   9
ENDBRANCH   1   7
BRANCH   6  11
ATOM     11  C   UNL     1      79.021  17.742   1.532  1.00  0.00     0.338 C 
ATOM     12  O   UNL     1      78.374  18.709   1.044  1.00  0.00    -0.246 OA
BRANCH  11  13
ATOM     13  O   UNL     1      80.234  17.968   2.188  1.00  0.00    -0.465 OA
ATOM     14  C   UNL     1      81.014  19.139   1.980  1.00  0.00     0.282 C 
ENDBRANCH  11  13
ENDBRANCH   6  11
TORSDOF 4
ENDMDL
MODEL 7
REMARK VINA RESULT:    -3.320      1.880      4.264
REMARK INTER + INTRA:          -4.401
REMARK INTER:                  -4.378
REMARK INTRA:                  -0.023
REMARK UNBOUND:                -0.305
REMARK SMILES COC(=O)c1ccccc1C(=O)OC
REMARK SMILES IDX 5 1 6 2 7 3 8 4 9 5 10 6 3 7 4 8 2 9 1 10 11 11 12 12 13 13
REMARK SMILES IDX 14 14
REMARK H PARENT
REMARK Flexibility Score: inf
ROOT
ATOM      1  C   UNL     1      79.319  16.220   3.681  1.00  0.00     0.074 A 
ATOM      2  C   UNL     1      79.329  16.585   5.040  1.00  0.00     0.016 A 
ATOM      3  C   UNL     1      79.368  15.613   6.040  1.00  0.00     0.001 A 
ATOM      4  C   UNL     1      79.397  14.262   5.701  1.00  0.00     0.001 A 
ATOM      5  C   UNL     1      79.363  13.877   4.361  1.00  0.00     0.016 A 
ATOM      6  C   UNL     1      79.303  14.840   3.335  1.00  0.00     0.074 A 
ENDROOT
BRANCH   1   7
ATOM      7  C   UNL     1      79.393  17.300   2.672  1.00  0.00     0.338 C 
ATOM      8  O   UNL     1      78.581  17.327   1.706  1.00  0.00    -0.246 OA
BRANCH   7   9
ATOM      9  O   UNL     1      80.407  18.260   2.763  1.00  0.00    -0.465 OA
ATOM     10  C   UNL     1      80.764  19.104   1.675  1.00  0.00     0.282 C 
ENDBRANCH   7   9
ENDBRANCH   1   7
BRANCH   6  11
ATOM     11  C   UNL     1      79.151  14.369   1.940  1.00  0.00     0.338 C 
ATOM     12  O   UNL     1      80.175  14.167   1.231  1.00  0.00    -0.246 OA
BRANCH  11  13
ATOM     13  O   UNL     1      77.879  14.095   1.428  1.00  0.00    -0.465 OA
ATOM     14  C   UNL     1      77.529  14.335   0.070  1.00  0.00     0.282 C 
ENDBRANCH  11  13
ENDBRANCH   6  11
TORSDOF 4
ENDMDL
MODEL 8
REMARK VINA RESULT:    -3.074      1.818      3.862
REMARK INTER + INTRA:          -4.098
REMARK INTER:                  -3.908
REMARK INTRA:                  -0.190
REMARK UNBOUND:                -0.305
REMARK SMILES COC(=O)c1ccccc1C(=O)OC
REMARK SMILES IDX 5 1 6 2 7 3 8 4 9 5 10 6 3 7 4 8 2 9 1 10 11 11 12 12 13 13
REMARK SMILES IDX 14 14
REMARK H PARENT
REMARK Flexibility Score: inf
ROOT
ATOM      1  C   UNL     1      79.003  14.773   4.178  1.00  0.00     0.074 A 
ATOM      2  C   UNL     1      79.237  13.878   5.239  1.00  0.00     0.016 A 
ATOM      3  C   UNL     1      79.578  14.349   6.507  1.00  0.00     0.001 A 
ATOM      4  C   UNL     1      79.691  15.718   6.738  1.00  0.00     0.001 A 
ATOM      5  C   UNL     1      79.487  16.622   5.695  1.00  0.00     0.016 A 
ATOM      6  C   UNL     1      79.163  16.169   4.402  1.00  0.00     0.074 A 
ENDROOT
BRANCH   1   7
ATOM      7  C   UNL     1      78.534  14.214   2.891  1.00  0.00     0.338 C 
ATOM      8  O   UNL     1      77.327  13.878   2.743  1.00  0.00    -0.246 OA
BRANCH   7   9
ATOM      9  O   UNL     1      79.452  14.006   1.854  1.00  0.00    -0.465 OA
ATOM     10  C   UNL     1      79.327  14.631   0.583  1.00  0.00     0.282 C 
ENDBRANCH   7   9
ENDBRANCH   1   7
BRANCH   6  11
ATOM     11  C   UNL     1      79.075  17.167   3.312  1.00  0.00     0.338 C 
ATOM     12  O   UNL     1      77.991  17.311   2.681  1.00  0.00    -0.246 OA
BRANCH  11  13
ATOM     13  O   UNL     1      80.171  17.984   3.020  1.00  0.00    -0.465 OA
ATOM     14  C   UNL     1      80.399  18.531   1.727  1.00  0.00     0.282 C 
ENDBRANCH  11  13
ENDBRANCH   6  11
TORSDOF 4
ENDMDL
