MODEL 1
REMARK VINA RESULT:    -3.243      0.000      0.000
REMARK INTER + INTRA:          -8.329
REMARK INTER:                  -5.896
REMARK INTRA:                  -2.433
REMARK UNBOUND:                -2.433
REMARK SMILES CCCCCCCCCCCCCC[C@@H](C)C(=O)[O-]
REMARK SMILES IDX 9 1 10 2 11 3 12 4 13 5 14 6 15 7 16 8 17 9 18 10 19 11 8 12
REMARK SMILES IDX 7 13 6 14 5 15 4 16 3 17 2 18 1 19
REMARK H PARENT
REMARK Flexibility Score: inf
ROOT
ATOM      1  C   UNL     1      48.703  32.063  86.790  1.00  0.00     0.000 C 
ENDROOT
BRANCH   1   2
ATOM      2  C   UNL     1      49.825  31.276  87.495  1.00  0.00     0.000 C 
BRANCH   2   3
ATOM      3  C   UNL     1      50.135  31.725  88.937  1.00  0.00     0.000 C 
BRANCH   3   4
ATOM      4  C   UNL     1      50.027  30.616  90.000  1.00  0.00     0.000 C 
BRANCH   4   5
ATOM      5  C   UNL     1      48.576  30.188  90.269  1.00  0.00     0.001 C 
BRANCH   5   6
ATOM      6  C   UNL     1      47.693  31.409  90.576  1.00  0.00     0.009 C 
BRANCH   6   7
ATOM      7  C   UNL     1      46.267  31.273  89.998  1.00  0.00     0.032 C 
ATOM      8  C   UNL     1      46.197  30.258  88.849  1.00  0.00     0.014 C 
BRANCH   7   9
ATOM      9  C   UNL     1      45.309  30.875  91.087  1.00  0.00     0.044 C 
ATOM     10  O   UNL     1      44.542  31.728  91.608  1.00  0.00    -0.550 OA
ATOM     11  O   UNL     1      45.265  29.558  91.525  1.00  0.00    -0.550 OA
ENDBRANCH   7   9
ENDBRANCH   6   7
ENDBRANCH   5   6
ENDBRANCH   4   5
ENDBRANCH   3   4
ENDBRANCH   2   3
ENDBRANCH   1   2
BRANCH   1  12
ATOM     12  C   UNL     1      48.364  33.421  87.431  1.00  0.00     0.000 C 
BRANCH  12  13
ATOM     13  C   UNL     1      48.842  34.614  86.585  1.00  0.00    -0.000 C 
BRANCH  13  14
ATOM     14  C   UNL     1      49.607  35.655  87.418  1.00  0.00    -0.000 C 
BRANCH  14  15
ATOM     15  C   UNL     1      51.132  35.453  87.356  1.00  0.00    -0.000 C 
BRANCH  15  16
ATOM     16  C   UNL     1      51.580  34.712  86.086  1.00  0.00    -0.000 C 
BRANCH  16  17
ATOM     17  C   UNL     1      52.509  33.524  86.394  1.00  0.00    -0.000 C 
BRANCH  17  18
ATOM     18  C   UNL     1      53.166  33.635  87.779  1.00  0.00    -0.003 C 
ATOM     19  C   UNL     1      54.566  33.021  87.823  1.00  0.00     0.004 C 
ENDBRANCH  17  18
ENDBRANCH  16  17
ENDBRANCH  15  16
ENDBRANCH  14  15
ENDBRANCH  13  14
ENDBRANCH  12  13
ENDBRANCH   1  12
TORSDOF 14
ENDMDL
MODEL 2
REMARK VINA RESULT:    -3.105      1.250      3.195
REMARK INTER + INTRA:          -8.079
REMARK INTER:                  -5.931
REMARK INTRA:                  -2.147
REMARK UNBOUND:                -2.433
REMARK SMILES CCCCCCCCCCCCCC[C@@H](C)C(=O)[O-]
REMARK SMILES IDX 9 1 10 2 11 3 12 4 13 5 14 6 15 7 16 8 17 9 18 10 19 11 8 12
REMARK SMILES IDX 7 13 6 14 5 15 4 16 3 17 2 18 1 19
REMARK H PARENT
REMARK Flexibility Score: inf
ROOT
ATOM      1  C   UNL     1      51.320  34.320  85.330  1.00  0.00     0.000 C 
ENDROOT
BRANCH   1   2
ATOM      2  C   UNL     1      50.142  34.746  86.228  1.00  0.00     0.000 C 
BRANCH   2   3
ATOM      3  C   UNL     1      48.946  33.773  86.247  1.00  0.00     0.000 C 
BRANCH   3   4
ATOM      4  C   UNL     1      48.332  33.525  87.636  1.00  0.00     0.000 C 
BRANCH   4   5
ATOM      5  C   UNL     1      48.056  32.039  87.909  1.00  0.00     0.001 C 
BRANCH   5   6
ATOM      6  C   UNL     1      46.923  31.871  88.933  1.00  0.00     0.009 C 
BRANCH   6   7
ATOM      7  C   UNL     1      47.179  30.711  89.921  1.00  0.00     0.032 C 
ATOM      8  C   UNL     1      48.499  30.878  90.687  1.00  0.00     0.014 C 
BRANCH   7   9
ATOM      9  C   UNL     1      46.036  30.605  90.894  1.00  0.00     0.044 C 
ATOM     10  O   UNL     1      45.193  31.535  90.996  1.00  0.00    -0.550 OA
ATOM     11  O   UNL     1      45.905  29.473  91.688  1.00  0.00    -0.550 OA
ENDBRANCH   7   9
ENDBRANCH   6   7
ENDBRANCH   5   6
ENDBRANCH   4   5
ENDBRANCH   3   4
ENDBRANCH   2   3
ENDBRANCH   1   2
BRANCH   1  12
ATOM     12  C   UNL     1      52.687  34.901  85.737  1.00  0.00     0.000 C 
BRANCH  12  13
ATOM     13  C   UNL     1      52.666  35.550  87.132  1.00  0.00    -0.000 C 
BRANCH  13  14
ATOM     14  C   UNL     1      53.812  35.053  88.028  1.00  0.00    -0.000 C 
BRANCH  14  15
ATOM     15  C   UNL     1      54.478  33.779  87.478  1.00  0.00    -0.000 C 
BRANCH  15  16
ATOM     16  C   UNL     1      54.078  32.517  88.259  1.00  0.00    -0.000 C 
BRANCH  16  17
ATOM     17  C   UNL     1      53.068  31.645  87.492  1.00  0.00    -0.000 C 
BRANCH  17  18
ATOM     18  C   UNL     1      51.750  31.459  88.260  1.00  0.00    -0.003 C 
ATOM     19  C   UNL     1      51.541  32.516  89.344  1.00  0.00     0.004 C 
ENDBRANCH  17  18
ENDBRANCH  16  17
ENDBRANCH  15  16
ENDBRANCH  14  15
ENDBRANCH  13  14
ENDBRANCH  12  13
ENDBRANCH   1  12
TORSDOF 14
ENDMDL
MODEL 3
REMARK VINA RESULT:    -3.092      3.601      6.475
REMARK INTER + INTRA:          -8.055
REMARK INTER:                  -5.983
REMARK INTRA:                  -2.072
REMARK UNBOUND:                -2.433
REMARK SMILES CCCCCCCCCCCCCC[C@@H](C)C(=O)[O-]
REMARK SMILES IDX 9 1 10 2 11 3 12 4 13 5 14 6 15 7 16 8 17 9 18 10 19 11 8 12
REMARK SMILES IDX 7 13 6 14 5 15 4 16 3 17 2 18 1 19
REMARK H PARENT
REMARK Flexibility Score: inf
ROOT
ATOM      1  C   UNL     1      48.385  32.411  87.782  1.00  0.00     0.000 C 
ENDROOT
BRANCH   1   2
ATOM      2  C   UNL     1      48.533  32.766  86.289  1.00  0.00     0.000 C 
BRANCH   2   3
ATOM      3  C   UNL     1      49.029  34.197  86.001  1.00  0.00     0.000 C 
BRANCH   3   4
ATOM      4  C   UNL     1      49.006  35.148  87.211  1.00  0.00     0.000 C 
BRANCH   4   5
ATOM      5  C   UNL     1      50.373  35.788  87.492  1.00  0.00     0.001 C 
BRANCH   5   6
ATOM      6  C   UNL     1      51.514  34.885  86.996  1.00  0.00     0.009 C 
BRANCH   6   7
ATOM      7  C   UNL     1      52.120  34.017  88.120  1.00  0.00     0.032 C 
ATOM      8  C   UNL     1      52.056  32.518  87.798  1.00  0.00     0.014 C 
BRANCH   7   9
ATOM      9  C   UNL     1      53.547  34.423  88.369  1.00  0.00     0.044 C 
ATOM     10  O   UNL     1      54.275  34.817  87.420  1.00  0.00    -0.550 OA
ATOM     11  O   UNL     1      54.070  34.366  89.654  1.00  0.00    -0.550 OA
ENDBRANCH   7   9
ENDBRANCH   6   7
ENDBRANCH   5   6
ENDBRANCH   4   5
ENDBRANCH   3   4
ENDBRANCH   2   3
ENDBRANCH   1   2
BRANCH   1  12
ATOM     12  C   UNL     1      47.184  31.508  88.117  1.00  0.00     0.000 C 
BRANCH  12  13
ATOM     13  C   UNL     1      46.558  31.834  89.484  1.00  0.00    -0.000 C 
BRANCH  13  14
ATOM     14  C   UNL     1      47.243  31.085  90.638  1.00  0.00    -0.000 C 
BRANCH  14  15
ATOM     15  C   UNL     1      47.584  29.629  90.274  1.00  0.00    -0.000 C 
BRANCH  15  16
ATOM     16  C   UNL     1      48.987  29.214  90.744  1.00  0.00    -0.000 C 
BRANCH  16  17
ATOM     17  C   UNL     1      50.104  29.842  89.892  1.00  0.00    -0.000 C 
BRANCH  17  18
ATOM     18  C   UNL     1      51.256  30.394  90.747  1.00  0.00    -0.003 C 
ATOM     19  C   UNL     1      50.811  31.511  91.691  1.00  0.00     0.004 C 
ENDBRANCH  17  18
ENDBRANCH  16  17
ENDBRANCH  15  16
ENDBRANCH  14  15
ENDBRANCH  13  14
ENDBRANCH  12  13
ENDBRANCH   1  12
TORSDOF 14
ENDMDL
MODEL 4
REMARK VINA RESULT:    -3.052      1.527      3.169
REMARK INTER + INTRA:          -7.983
REMARK INTER:                  -5.370
REMARK INTRA:                  -2.613
REMARK UNBOUND:                -2.433
REMARK SMILES CCCCCCCCCCCCCC[C@@H](C)C(=O)[O-]
REMARK SMILES IDX 9 1 10 2 11 3 12 4 13 5 14 6 15 7 16 8 17 9 18 10 19 11 8 12
REMARK SMILES IDX 7 13 6 14 5 15 4 16 3 17 2 18 1 19
REMARK H PARENT
REMARK Flexibility Score: inf
ROOT
ATOM      1  C   UNL     1      51.458  30.705  87.615  1.00  0.00     0.000 C 
ENDROOT
BRANCH   1   2
ATOM      2  C   UNL     1      50.333  31.094  86.636  1.00  0.00     0.000 C 
BRANCH   2   3
ATOM      3  C   UNL     1      49.230  30.033  86.448  1.00  0.00     0.000 C 
BRANCH   3   4
ATOM      4  C   UNL     1      47.905  30.341  87.169  1.00  0.00     0.000 C 
BRANCH   4   5
ATOM      5  C   UNL     1      47.678  31.845  87.383  1.00  0.00     0.001 C 
BRANCH   5   6
ATOM      6  C   UNL     1      47.512  32.167  88.877  1.00  0.00     0.009 C 
BRANCH   6   7
ATOM      7  C   UNL     1      47.655  30.919  89.776  1.00  0.00     0.032 C 
ATOM      8  C   UNL     1      48.892  30.992  90.682  1.00  0.00     0.014 C 
BRANCH   7   9
ATOM      9  C   UNL     1      46.419  30.748  90.616  1.00  0.00     0.044 C 
ATOM     10  O   UNL     1      45.543  31.652  90.658  1.00  0.00    -0.550 OA
ATOM     11  O   UNL     1      46.238  29.585  91.354  1.00  0.00    -0.550 OA
ENDBRANCH   7   9
ENDBRANCH   6   7
ENDBRANCH   5   6
ENDBRANCH   4   5
ENDBRANCH   3   4
ENDBRANCH   2   3
ENDBRANCH   1   2
BRANCH   1  12
ATOM     12  C   UNL     1      51.859  31.808  88.611  1.00  0.00     0.000 C 
BRANCH  12  13
ATOM     13  C   UNL     1      51.063  33.109  88.409  1.00  0.00    -0.000 C 
BRANCH  13  14
ATOM     14  C   UNL     1      51.934  34.251  87.861  1.00  0.00    -0.000 C 
BRANCH  14  15
ATOM     15  C   UNL     1      51.106  35.318  87.122  1.00  0.00    -0.000 C 
BRANCH  15  16
ATOM     16  C   UNL     1      49.592  35.107  87.278  1.00  0.00    -0.000 C 
BRANCH  16  17
ATOM     17  C   UNL     1      48.882  34.905  85.928  1.00  0.00    -0.000 C 
BRANCH  17  18
ATOM     18  C   UNL     1      49.812  34.307  84.859  1.00  0.00    -0.003 C 
ATOM     19  C   UNL     1      49.396  34.679  83.436  1.00  0.00     0.004 C 
ENDBRANCH  17  18
ENDBRANCH  16  17
ENDBRANCH  15  16
ENDBRANCH  14  15
ENDBRANCH  13  14
ENDBRANCH  12  13
ENDBRANCH   1  12
TORSDOF 14
ENDMDL
MODEL 5
REMARK VINA RESULT:    -3.044      2.133      5.182
REMARK INTER + INTRA:          -7.968
REMARK INTER:                  -5.511
REMARK INTRA:                  -2.457
REMARK UNBOUND:                -2.433
REMARK SMILES CCCCCCCCCCCCCC[C@@H](C)C(=O)[O-]
REMARK SMILES IDX 9 1 10 2 11 3 12 4 13 5 14 6 15 7 16 8 17 9 18 10 19 11 8 12
REMARK SMILES IDX 7 13 6 14 5 15 4 16 3 17 2 18 1 19
REMARK H PARENT
REMARK Flexibility Score: inf
ROOT
ATOM      1  C   UNL     1      52.537  34.359  86.036  1.00  0.00     0.000 C 
ENDROOT
BRANCH   1   2
ATOM      2  C   UNL     1      53.124  35.357  87.053  1.00  0.00     0.000 C 
BRANCH   2   3
ATOM      3  C   UNL     1      53.791  34.720  88.289  1.00  0.00     0.000 C 
BRANCH   3   4
ATOM      4  C   UNL     1      54.517  33.389  88.021  1.00  0.00     0.000 C 
BRANCH   4   5
ATOM      5  C   UNL     1      53.841  32.193  88.708  1.00  0.00     0.001 C 
BRANCH   5   6
ATOM      6  C   UNL     1      52.591  32.640  89.483  1.00  0.00     0.009 C 
BRANCH   6   7
ATOM      7  C   UNL     1      51.291  32.019  88.927  1.00  0.00     0.032 C 
ATOM      8  C   UNL     1      51.533  31.208  87.646  1.00  0.00     0.014 C 
BRANCH   7   9
ATOM      9  C   UNL     1      50.654  31.144  89.971  1.00  0.00     0.044 C 
ATOM     10  O   UNL     1      50.512  31.556  91.152  1.00  0.00    -0.550 OA
ATOM     11  O   UNL     1      50.216  29.869  89.633  1.00  0.00    -0.550 OA
ENDBRANCH   7   9
ENDBRANCH   6   7
ENDBRANCH   5   6
ENDBRANCH   4   5
ENDBRANCH   3   4
ENDBRANCH   2   3
ENDBRANCH   1   2
BRANCH   1  12
ATOM     12  C   UNL     1      51.075  34.629  85.635  1.00  0.00     0.000 C 
BRANCH  12  13
ATOM     13  C   UNL     1      50.216  35.120  86.813  1.00  0.00    -0.000 C 
BRANCH  13  14
ATOM     14  C   UNL     1      48.739  34.719  86.670  1.00  0.00    -0.000 C 
BRANCH  14  15
ATOM     15  C   UNL     1      48.321  33.641  87.686  1.00  0.00    -0.000 C 
BRANCH  15  16
ATOM     16  C   UNL     1      48.068  32.275  87.030  1.00  0.00    -0.000 C 
BRANCH  16  17
ATOM     17  C   UNL     1      47.330  31.300  87.965  1.00  0.00    -0.000 C 
BRANCH  17  18
ATOM     18  C   UNL     1      47.005  31.927  89.330  1.00  0.00    -0.003 C 
ATOM     19  C   UNL     1      46.887  30.889  90.446  1.00  0.00     0.004 C 
ENDBRANCH  17  18
ENDBRANCH  16  17
ENDBRANCH  15  16
ENDBRANCH  14  15
ENDBRANCH  13  14
ENDBRANCH  12  13
ENDBRANCH   1  12
TORSDOF 14
ENDMDL
MODEL 6
REMARK VINA RESULT:    -3.020      4.730      7.166
REMARK INTER + INTRA:          -7.924
REMARK INTER:                  -5.328
REMARK INTRA:                  -2.596
REMARK UNBOUND:                -2.433
REMARK SMILES CCCCCCCCCCCCCC[C@@H](C)C(=O)[O-]
REMARK SMILES IDX 9 1 10 2 11 3 12 4 13 5 14 6 15 7 16 8 17 9 18 10 19 11 8 12
REMARK SMILES IDX 7 13 6 14 5 15 4 16 3 17 2 18 1 19
REMARK H PARENT
REMARK Flexibility Score: inf
ROOT
ATOM      1  C   UNL     1      53.962  32.611  87.632  1.00  0.00     0.000 C 
ENDROOT
BRANCH   1   2
ATOM      2  C   UNL     1      53.617  34.094  87.397  1.00  0.00     0.000 C 
BRANCH   2   3
ATOM      3  C   UNL     1      53.403  34.493  85.922  1.00  0.00     0.000 C 
BRANCH   3   4
ATOM      4  C   UNL     1      53.377  33.316  84.930  1.00  0.00     0.000 C 
BRANCH   4   5
ATOM      5  C   UNL     1      51.964  33.003  84.415  1.00  0.00     0.001 C 
BRANCH   5   6
ATOM      6  C   UNL     1      51.243  34.288  83.977  1.00  0.00     0.009 C 
BRANCH   6   7
ATOM      7  C   UNL     1      50.157  34.028  82.909  1.00  0.00     0.032 C 
ATOM      8  C   UNL     1      48.768  34.495  83.364  1.00  0.00     0.014 C 
BRANCH   7   9
ATOM      9  C   UNL     1      50.529  34.716  81.623  1.00  0.00     0.044 C 
ATOM     10  O   UNL     1      49.638  35.195  80.873  1.00  0.00    -0.550 OA
ATOM     11  O   UNL     1      51.864  34.826  81.257  1.00  0.00    -0.550 OA
ENDBRANCH   7   9
ENDBRANCH   6   7
ENDBRANCH   5   6
ENDBRANCH   4   5
ENDBRANCH   3   4
ENDBRANCH   2   3
ENDBRANCH   1   2
BRANCH   1  12
ATOM     12  C   UNL     1      52.928  31.831  88.465  1.00  0.00     0.000 C 
BRANCH  12  13
ATOM     13  C   UNL     1      51.796  32.726  88.997  1.00  0.00    -0.000 C 
BRANCH  13  14
ATOM     14  C   UNL     1      50.402  32.184  88.641  1.00  0.00    -0.000 C 
BRANCH  14  15
ATOM     15  C   UNL     1      50.179  32.086  87.122  1.00  0.00    -0.000 C 
BRANCH  15  16
ATOM     16  C   UNL     1      48.878  32.767  86.668  1.00  0.00    -0.000 C 
BRANCH  16  17
ATOM     17  C   UNL     1      48.551  34.023  87.495  1.00  0.00    -0.000 C 
BRANCH  17  18
ATOM     18  C   UNL     1      49.021  35.317  86.810  1.00  0.00    -0.003 C 
ATOM     19  C   UNL     1      50.249  35.932  87.483  1.00  0.00     0.004 C 
ENDBRANCH  17  18
ENDBRANCH  16  17
ENDBRANCH  15  16
ENDBRANCH  14  15
ENDBRANCH  13  14
ENDBRANCH  12  13
ENDBRANCH   1  12
TORSDOF 14
ENDMDL
MODEL 7
REMARK VINA RESULT:    -3.015     15.860     17.407
REMARK INTER + INTRA:          -7.915
REMARK INTER:                  -5.228
REMARK INTRA:                  -2.687
REMARK UNBOUND:                -2.433
REMARK SMILES CCCCCCCCCCCCCC[C@@H](C)C(=O)[O-]
REMARK SMILES IDX 9 1 10 2 11 3 12 4 13 5 14 6 15 7 16 8 17 9 18 10 19 11 8 12
REMARK SMILES IDX 7 13 6 14 5 15 4 16 3 17 2 18 1 19
REMARK H PARENT
REMARK Flexibility Score: inf
ROOT
ATOM      1  C   UNL     1      46.585  22.505  73.982  1.00  0.00     0.000 C 
ENDROOT
BRANCH   1   2
ATOM      2  C   UNL     1      46.390  23.372  75.241  1.00  0.00     0.000 C 
BRANCH   2   3
ATOM      3  C   UNL     1      45.140  23.039  76.080  1.00  0.00     0.000 C 
BRANCH   3   4
ATOM      4  C   UNL     1      43.858  22.792  75.266  1.00  0.00     0.000 C 
BRANCH   4   5
ATOM      5  C   UNL     1      42.929  21.757  75.917  1.00  0.00     0.001 C 
BRANCH   5   6
ATOM      6  C   UNL     1      42.549  22.182  77.344  1.00  0.00     0.009 C 
BRANCH   6   7
ATOM      7  C   UNL     1      42.340  20.978  78.290  1.00  0.00     0.032 C 
ATOM      8  C   UNL     1      43.133  21.119  79.596  1.00  0.00     0.014 C 
BRANCH   7   9
ATOM      9  C   UNL     1      40.876  20.817  78.598  1.00  0.00     0.044 C 
ATOM     10  O   UNL     1      40.050  21.706  78.263  1.00  0.00    -0.550 OA
ATOM     11  O   UNL     1      40.428  19.679  79.256  1.00  0.00    -0.550 OA
ENDBRANCH   7   9
ENDBRANCH   6   7
ENDBRANCH   5   6
ENDBRANCH   4   5
ENDBRANCH   3   4
ENDBRANCH   2   3
ENDBRANCH   1   2
BRANCH   1  12
ATOM     12  C   UNL     1      47.684  21.432  74.099  1.00  0.00     0.000 C 
BRANCH  12  13
ATOM     13  C   UNL     1      47.160  20.012  73.823  1.00  0.00    -0.000 C 
BRANCH  13  14
ATOM     14  C   UNL     1      45.829  19.727  74.538  1.00  0.00    -0.000 C 
BRANCH  14  15
ATOM     15  C   UNL     1      45.997  18.777  75.737  1.00  0.00    -0.000 C 
BRANCH  15  16
ATOM     16  C   UNL     1      45.455  19.373  77.046  1.00  0.00    -0.000 C 
BRANCH  16  17
ATOM     17  C   UNL     1      46.524  19.439  78.151  1.00  0.00    -0.000 C 
BRANCH  17  18
ATOM     18  C   UNL     1      47.190  20.821  78.242  1.00  0.00    -0.003 C 
ATOM     19  C   UNL     1      48.560  20.864  77.565  1.00  0.00     0.004 C 
ENDBRANCH  17  18
ENDBRANCH  16  17
ENDBRANCH  15  16
ENDBRANCH  14  15
ENDBRANCH  13  14
ENDBRANCH  12  13
ENDBRANCH   1  12
TORSDOF 14
ENDMDL
MODEL 8
REMARK VINA RESULT:    -3.003      3.831      6.125
REMARK INTER + INTRA:          -7.893
REMARK INTER:                  -5.589
REMARK INTRA:                  -2.304
REMARK UNBOUND:                -2.433
REMARK SMILES CCCCCCCCCCCCCC[C@@H](C)C(=O)[O-]
REMARK SMILES IDX 9 1 10 2 11 3 12 4 13 5 14 6 15 7 16 8 17 9 18 10 19 11 8 12
REMARK SMILES IDX 7 13 6 14 5 15 4 16 3 17 2 18 1 19
REMARK H PARENT
REMARK Flexibility Score: inf
ROOT
ATOM      1  C   UNL     1      51.595  34.630  85.863  1.00  0.00     0.000 C 
ENDROOT
BRANCH   1   2
ATOM      2  C   UNL     1      53.119  34.412  85.945  1.00  0.00     0.000 C 
BRANCH   2   3
ATOM      3  C   UNL     1      53.576  33.353  86.968  1.00  0.00     0.000 C 
BRANCH   3   4
ATOM      4  C   UNL     1      52.689  32.097  87.043  1.00  0.00     0.000 C 
BRANCH   4   5
ATOM      5  C   UNL     1      52.441  31.628  88.484  1.00  0.00     0.001 C 
BRANCH   5   6
ATOM      6  C   UNL     1      52.285  32.828  89.432  1.00  0.00     0.009 C 
BRANCH   6   7
ATOM      7  C   UNL     1      53.139  32.692  90.712  1.00  0.00     0.032 C 
ATOM      8  C   UNL     1      53.536  31.236  90.996  1.00  0.00     0.014 C 
BRANCH   7   9
ATOM      9  C   UNL     1      54.374  33.543  90.597  1.00  0.00     0.044 C 
ATOM     10  O   UNL     1      54.299  34.726  90.174  1.00  0.00    -0.550 OA
ATOM     11  O   UNL     1      55.610  33.023  90.960  1.00  0.00    -0.550 OA
ENDBRANCH   7   9
ENDBRANCH   6   7
ENDBRANCH   5   6
ENDBRANCH   4   5
ENDBRANCH   3   4
ENDBRANCH   2   3
ENDBRANCH   1   2
BRANCH   1  12
ATOM     12  C   UNL     1      50.971  35.305  87.098  1.00  0.00     0.000 C 
BRANCH  12  13
ATOM     13  C   UNL     1      49.575  34.753  87.435  1.00  0.00    -0.000 C 
BRANCH  13  14
ATOM     14  C   UNL     1      48.982  33.917  86.289  1.00  0.00    -0.000 C 
BRANCH  14  15
ATOM     15  C   UNL     1      48.435  32.562  86.772  1.00  0.00    -0.000 C 
BRANCH  15  16
ATOM     16  C   UNL     1      48.736  32.296  88.255  1.00  0.00    -0.000 C 
BRANCH  16  17
ATOM     17  C   UNL     1      47.479  31.898  89.050  1.00  0.00    -0.000 C 
BRANCH  17  18
ATOM     18  C   UNL     1      47.792  30.918  90.192  1.00  0.00    -0.003 C 
ATOM     19  C   UNL     1      49.252  30.979  90.642  1.00  0.00     0.004 C 
ENDBRANCH  17  18
ENDBRANCH  16  17
ENDBRANCH  15  16
ENDBRANCH  14  15
ENDBRANCH  13  14
ENDBRANCH  12  13
ENDBRANCH   1  12
TORSDOF 14
ENDMDL
MODEL 9
REMARK VINA RESULT:    -2.995      2.235      4.047
REMARK INTER + INTRA:          -7.880
REMARK INTER:                  -5.356
REMARK INTRA:                  -2.524
REMARK UNBOUND:                -2.433
REMARK SMILES CCCCCCCCCCCCCC[C@@H](C)C(=O)[O-]
REMARK SMILES IDX 9 1 10 2 11 3 12 4 13 5 14 6 15 7 16 8 17 9 18 10 19 11 8 12
REMARK SMILES IDX 7 13 6 14 5 15 4 16 3 17 2 18 1 19
REMARK H PARENT
REMARK Flexibility Score: inf
ROOT
ATOM      1  C   UNL     1      49.004  29.965  86.919  1.00  0.00     0.000 C 
ENDROOT
BRANCH   1   2
ATOM      2  C   UNL     1      48.736  31.473  86.742  1.00  0.00     0.000 C 
BRANCH   2   3
ATOM      3  C   UNL     1      47.863  32.117  87.838  1.00  0.00     0.000 C 
BRANCH   3   4
ATOM      4  C   UNL     1      46.739  31.219  88.384  1.00  0.00     0.000 C 
BRANCH   4   5
ATOM      5  C   UNL     1      45.958  31.874  89.533  1.00  0.00     0.001 C 
BRANCH   5   6
ATOM      6  C   UNL     1      46.254  31.171  90.868  1.00  0.00     0.009 C 
BRANCH   6   7
ATOM      7  C   UNL     1      45.196  30.105  91.229  1.00  0.00     0.032 C 
ATOM      8  C   UNL     1      45.812  28.884  91.926  1.00  0.00     0.014 C 
BRANCH   7   9
ATOM      9  C   UNL     1      44.136  30.712  92.108  1.00  0.00     0.044 C 
ATOM     10  O   UNL     1      44.353  31.792  92.718  1.00  0.00    -0.550 OA
ATOM     11  O   UNL     1      42.908  30.080  92.251  1.00  0.00    -0.550 OA
ENDBRANCH   7   9
ENDBRANCH   6   7
ENDBRANCH   5   6
ENDBRANCH   4   5
ENDBRANCH   3   4
ENDBRANCH   2   3
ENDBRANCH   1   2
BRANCH   1  12
ATOM     12  C   UNL     1      50.443  29.609  87.336  1.00  0.00     0.000 C 
BRANCH  12  13
ATOM     13  C   UNL     1      50.497  28.763  88.620  1.00  0.00    -0.000 C 
BRANCH  13  14
ATOM     14  C   UNL     1      49.283  29.001  89.532  1.00  0.00    -0.000 C 
BRANCH  14  15
ATOM     15  C   UNL     1      49.679  29.601  90.893  1.00  0.00    -0.000 C 
BRANCH  15  16
ATOM     16  C   UNL     1      49.868  31.125  90.837  1.00  0.00    -0.000 C 
BRANCH  16  17
ATOM     17  C   UNL     1      51.263  31.564  91.315  1.00  0.00    -0.000 C 
BRANCH  17  18
ATOM     18  C   UNL     1      52.179  31.981  90.153  1.00  0.00    -0.003 C 
ATOM     19  C   UNL     1      51.422  32.680  89.024  1.00  0.00     0.004 C 
ENDBRANCH  17  18
ENDBRANCH  16  17
ENDBRANCH  15  16
ENDBRANCH  14  15
ENDBRANCH  13  14
ENDBRANCH  12  13
ENDBRANCH   1  12
TORSDOF 14
ENDMDL
