MODEL 1
REMARK VINA RESULT:    -4.032      0.000      0.000
REMARK INTER + INTRA:          -5.177
REMARK INTER:                  -4.857
REMARK INTRA:                  -0.320
REMARK UNBOUND:                -0.320
REMARK SMILES O=c1c(O)c(-c2ccc(O)c(O)c2)oc2cc(O)cc(O)c12
REMARK SMILES IDX 5 1 3 2 2 3 1 4 22 5 20 6 19 7 17 8 16 9 15 10 14 11 6 12
REMARK SMILES IDX 7 13 8 14 9 15 13 16 11 17 10 18 12 20 4 22 21 24 18 26
REMARK H PARENT 10 19 12 21 4 23 21 25 18 27
REMARK Flexibility Score: inf
ROOT
ATOM      1  C   UNL     1      38.877 -34.431  12.064  1.00  0.00     0.180 A 
ATOM      2  C   UNL     1      39.505 -34.519  10.810  1.00  0.00     0.208 A 
ATOM      3  C   UNL     1      39.496 -35.744  10.127  1.00  0.00     0.238 A 
ATOM      4  O   UNL     1      40.125 -35.835   9.041  1.00  0.00    -0.285 OA
ATOM      5  C   UNL     1      38.810 -36.854  10.679  1.00  0.00     0.111 A 
ATOM      6  C   UNL     1      38.697 -38.133  10.052  1.00  0.00     0.134 A 
ATOM      7  C   UNL     1      38.086 -39.187  10.742  1.00  0.00     0.093 A 
ATOM      8  C   UNL     1      37.525 -38.994  12.007  1.00  0.00     0.123 A 
ATOM      9  C   UNL     1      37.583 -37.737  12.602  1.00  0.00     0.094 A 
ATOM     10  C   UNL     1      38.220 -36.674  11.957  1.00  0.00     0.146 A 
ATOM     11  O   UNL     1      38.270 -35.499  12.572  1.00  0.00    -0.452 OA
ENDROOT
BRANCH   1  12
ATOM     12  C   UNL     1      38.857 -33.178  12.852  1.00  0.00     0.025 A 
ATOM     13  C   UNL     1      39.942 -32.808  13.666  1.00  0.00     0.016 A 
ATOM     14  C   UNL     1      39.889 -31.631  14.419  1.00  0.00     0.051 A 
ATOM     15  C   UNL     1      38.751 -30.816  14.380  1.00  0.00     0.157 A 
ATOM     16  C   UNL     1      37.708 -32.369  12.834  1.00  0.00     0.062 A 
ATOM     17  C   UNL     1      37.654 -31.191  13.586  1.00  0.00     0.158 A 
BRANCH  15  18
ATOM     18  O   UNL     1      38.703 -29.643  15.132  1.00  0.00    -0.504 OA
ATOM     19  H   UNL     1      37.978 -28.949  14.987  1.00  0.00     0.293 HD
ENDBRANCH  15  18
BRANCH  17  20
ATOM     20  O   UNL     1      36.503 -30.405  13.532  1.00  0.00    -0.504 OA
ATOM     21  H   UNL     1      36.543 -29.393  13.510  1.00  0.00     0.293 HD
ENDBRANCH  17  20
ENDBRANCH   1  12
BRANCH   2  22
ATOM     22  O   UNL     1      40.111 -33.392  10.248  1.00  0.00    -0.502 OA
ATOM     23  H   UNL     1      40.562 -33.412   9.341  1.00  0.00     0.293 HD
ENDBRANCH   2  22
BRANCH   6  24
ATOM     24  O   UNL     1      39.142 -38.413   8.757  1.00  0.00    -0.507 OA
ATOM     25  H   UNL     1      38.751 -38.021   7.915  1.00  0.00     0.293 HD
ENDBRANCH   6  24
BRANCH   8  26
ATOM     26  O   UNL     1      36.904 -40.044  12.678  1.00  0.00    -0.508 OA
ATOM     27  H   UNL     1      35.902 -40.050  12.840  1.00  0.00     0.293 HD
ENDBRANCH   8  26
TORSDOF 6
ENDMDL
MODEL 2
REMARK VINA RESULT:    -4.017      3.650      7.102
REMARK INTER + INTRA:          -5.159
REMARK INTER:                  -5.090
REMARK INTRA:                  -0.069
REMARK UNBOUND:                -0.320
REMARK SMILES O=c1c(O)c(-c2ccc(O)c(O)c2)oc2cc(O)cc(O)c12
REMARK SMILES IDX 5 1 3 2 2 3 1 4 22 5 20 6 19 7 17 8 16 9 15 10 14 11 6 12
REMARK SMILES IDX 7 13 8 14 9 15 13 16 11 17 10 18 12 20 4 22 21 24 18 26
REMARK H PARENT 10 19 12 21 4 23 21 25 18 27
REMARK Flexibility Score: inf
ROOT
ATOM      1  C   UNL     1      35.755 -30.237  12.613  1.00  0.00     0.180 A 
ATOM      2  C   UNL     1      36.231 -29.404  13.641  1.00  0.00     0.208 A 
ATOM      3  C   UNL     1      37.415 -29.754  14.307  1.00  0.00     0.238 A 
ATOM      4  O   UNL     1      37.794 -29.045  15.276  1.00  0.00    -0.285 OA
ATOM      5  C   UNL     1      38.140 -30.901  13.902  1.00  0.00     0.111 A 
ATOM      6  C   UNL     1      39.377 -31.326  14.476  1.00  0.00     0.134 A 
ATOM      7  C   UNL     1      39.950 -32.536  14.066  1.00  0.00     0.093 A 
ATOM      8  C   UNL     1      39.365 -33.305  13.056  1.00  0.00     0.123 A 
ATOM      9  C   UNL     1      38.188 -32.871  12.452  1.00  0.00     0.094 A 
ATOM     10  C   UNL     1      37.572 -31.688  12.866  1.00  0.00     0.146 A 
ATOM     11  O   UNL     1      36.439 -31.324  12.277  1.00  0.00    -0.452 OA
ENDROOT
BRANCH   1  12
ATOM     12  C   UNL     1      34.506 -29.943  11.873  1.00  0.00     0.025 A 
ATOM     13  C   UNL     1      33.290 -29.732  12.546  1.00  0.00     0.016 A 
ATOM     14  C   UNL     1      32.119 -29.480  11.824  1.00  0.00     0.051 A 
ATOM     15  C   UNL     1      32.144 -29.448  10.424  1.00  0.00     0.157 A 
ATOM     16  C   UNL     1      34.522 -29.932  10.469  1.00  0.00     0.062 A 
ATOM     17  C   UNL     1      33.352 -29.679   9.744  1.00  0.00     0.158 A 
BRANCH  15  18
ATOM     18  O   UNL     1      30.975 -29.195   9.708  1.00  0.00    -0.504 OA
ATOM     19  H   UNL     1      30.290 -28.521  10.031  1.00  0.00     0.293 HD
ENDBRANCH  15  18
BRANCH  17  20
ATOM     20  O   UNL     1      33.408 -29.661   8.351  1.00  0.00    -0.504 OA
ATOM     21  H   UNL     1      32.629 -29.960   7.777  1.00  0.00     0.293 HD
ENDBRANCH  17  20
ENDBRANCH   1  12
BRANCH   2  22
ATOM     22  O   UNL     1      35.541 -28.236  13.974  1.00  0.00    -0.502 OA
ATOM     23  H   UNL     1      34.618 -28.250  14.391  1.00  0.00     0.293 HD
ENDBRANCH   2  22
BRANCH   6  24
ATOM     24  O   UNL     1      40.092 -30.592  15.428  1.00  0.00    -0.507 OA
ATOM     25  H   UNL     1      40.955 -30.889  15.857  1.00  0.00     0.293 HD
ENDBRANCH   6  24
BRANCH   8  26
ATOM     26  O   UNL     1      39.951 -34.498  12.642  1.00  0.00    -0.508 OA
ATOM     27  H   UNL     1      40.942 -34.559  12.437  1.00  0.00     0.293 HD
ENDBRANCH   8  26
TORSDOF 6
ENDMDL
MODEL 3
REMARK VINA RESULT:    -3.983      2.059      7.415
REMARK INTER + INTRA:          -5.119
REMARK INTER:                  -4.797
REMARK INTRA:                  -0.322
REMARK UNBOUND:                -0.320
REMARK SMILES O=c1c(O)c(-c2ccc(O)c(O)c2)oc2cc(O)cc(O)c12
REMARK SMILES IDX 5 1 3 2 2 3 1 4 22 5 20 6 19 7 17 8 16 9 15 10 14 11 6 12
REMARK SMILES IDX 7 13 8 14 9 15 13 16 11 17 10 18 12 20 4 22 21 24 18 26
REMARK H PARENT 10 19 12 21 4 23 21 25 18 27
REMARK Flexibility Score: inf
ROOT
ATOM      1  C   UNL     1      38.133 -32.346  12.906  1.00  0.00     0.180 A 
ATOM      2  C   UNL     1      38.852 -31.618  13.870  1.00  0.00     0.208 A 
ATOM      3  C   UNL     1      38.278 -30.461  14.418  1.00  0.00     0.238 A 
ATOM      4  O   UNL     1      38.958 -29.773  15.223  1.00  0.00    -0.285 OA
ATOM      5  C   UNL     1      36.969 -30.074  14.038  1.00  0.00     0.111 A 
ATOM      6  C   UNL     1      36.271 -28.944  14.562  1.00  0.00     0.134 A 
ATOM      7  C   UNL     1      35.022 -28.598  14.033  1.00  0.00     0.093 A 
ATOM      8  C   UNL     1      34.416 -29.378  13.045  1.00  0.00     0.123 A 
ATOM      9  C   UNL     1      35.065 -30.513  12.566  1.00  0.00     0.094 A 
ATOM     10  C   UNL     1      36.329 -30.863  13.046  1.00  0.00     0.146 A 
ATOM     11  O   UNL     1      36.921 -31.941  12.545  1.00  0.00    -0.452 OA
ENDROOT
BRANCH   1  12
ATOM     12  C   UNL     1      38.676 -33.569  12.272  1.00  0.00     0.025 A 
ATOM     13  C   UNL     1      39.549 -33.497  11.172  1.00  0.00     0.016 A 
ATOM     14  C   UNL     1      40.030 -34.665  10.575  1.00  0.00     0.051 A 
ATOM     15  C   UNL     1      39.638 -35.920  11.059  1.00  0.00     0.157 A 
ATOM     16  C   UNL     1      38.269 -34.829  12.740  1.00  0.00     0.062 A 
ATOM     17  C   UNL     1      38.749 -36.001  12.145  1.00  0.00     0.158 A 
BRANCH  15  18
ATOM     18  O   UNL     1      40.121 -37.084  10.463  1.00  0.00    -0.504 OA
ATOM     19  H   UNL     1      39.560 -37.927  10.413  1.00  0.00     0.293 HD
ENDBRANCH  15  18
BRANCH  17  20
ATOM     20  O   UNL     1      38.334 -37.235  12.646  1.00  0.00    -0.504 OA
ATOM     21  H   UNL     1      37.509 -37.707  12.297  1.00  0.00     0.293 HD
ENDBRANCH  17  20
ENDBRANCH   1  12
BRANCH   2  22
ATOM     22  O   UNL     1      40.110 -32.059  14.288  1.00  0.00    -0.502 OA
ATOM     23  H   UNL     1      40.952 -31.890  13.749  1.00  0.00     0.293 HD
ENDBRANCH   2  22
BRANCH   6  24
ATOM     24  O   UNL     1      36.743 -28.148  15.610  1.00  0.00    -0.507 OA
ATOM     25  H   UNL     1      36.412 -27.221  15.825  1.00  0.00     0.293 HD
ENDBRANCH   6  24
BRANCH   8  26
ATOM     26  O   UNL     1      33.165 -29.037  12.536  1.00  0.00    -0.508 OA
ATOM     27  H   UNL     1      33.054 -28.291  11.857  1.00  0.00     0.293 HD
ENDBRANCH   8  26
TORSDOF 6
ENDMDL
MODEL 4
REMARK VINA RESULT:    -3.922      2.059      7.423
REMARK INTER + INTRA:          -5.045
REMARK INTER:                  -4.726
REMARK INTRA:                  -0.319
REMARK UNBOUND:                -0.320
REMARK SMILES O=c1c(O)c(-c2ccc(O)c(O)c2)oc2cc(O)cc(O)c12
REMARK SMILES IDX 5 1 3 2 2 3 1 4 22 5 20 6 19 7 17 8 16 9 15 10 14 11 6 12
REMARK SMILES IDX 7 13 8 14 9 15 13 16 11 17 10 18 12 20 4 22 21 24 18 26
REMARK H PARENT 10 19 12 21 4 23 21 25 18 27
REMARK Flexibility Score: inf
ROOT
ATOM      1  C   UNL     1      38.027 -32.516  13.106  1.00  0.00     0.180 A 
ATOM      2  C   UNL     1      38.857 -31.740  13.934  1.00  0.00     0.208 A 
ATOM      3  C   UNL     1      38.389 -30.501  14.398  1.00  0.00     0.238 A 
ATOM      4  O   UNL     1      39.165 -29.778  15.076  1.00  0.00    -0.285 OA
ATOM      5  C   UNL     1      37.076 -30.077  14.077  1.00  0.00     0.111 A 
ATOM      6  C   UNL     1      36.482 -28.860  14.530  1.00  0.00     0.134 A 
ATOM      7  C   UNL     1      35.214 -28.495  14.061  1.00  0.00     0.093 A 
ATOM      8  C   UNL     1      34.492 -29.332  13.206  1.00  0.00     0.123 A 
ATOM      9  C   UNL     1      35.041 -30.546  12.803  1.00  0.00     0.094 A 
ATOM     10  C   UNL     1      36.320 -30.921  13.222  1.00  0.00     0.146 A 
ATOM     11  O   UNL     1      36.813 -32.077  12.795  1.00  0.00    -0.452 OA
ENDROOT
BRANCH   1  12
ATOM     12  C   UNL     1      38.454 -33.826  12.565  1.00  0.00     0.025 A 
ATOM     13  C   UNL     1      38.297 -35.010  13.306  1.00  0.00     0.016 A 
ATOM     14  C   UNL     1      38.731 -36.232  12.784  1.00  0.00     0.051 A 
ATOM     15  C   UNL     1      39.338 -36.287  11.523  1.00  0.00     0.157 A 
ATOM     16  C   UNL     1      39.084 -33.883  11.311  1.00  0.00     0.062 A 
ATOM     17  C   UNL     1      39.518 -35.105  10.785  1.00  0.00     0.158 A 
BRANCH  15  18
ATOM     18  O   UNL     1      39.768 -37.508  11.004  1.00  0.00    -0.504 OA
ATOM     19  H   UNL     1      40.324 -37.559  10.158  1.00  0.00     0.293 HD
ENDBRANCH  15  18
BRANCH  17  20
ATOM     20  O   UNL     1      40.125 -35.125   9.529  1.00  0.00    -0.504 OA
ATOM     21  H   UNL     1      41.131 -35.160   9.419  1.00  0.00     0.293 HD
ENDBRANCH  17  20
ENDBRANCH   1  12
BRANCH   2  22
ATOM     22  O   UNL     1      40.120 -32.211  14.302  1.00  0.00    -0.502 OA
ATOM     23  H   UNL     1      40.826 -31.610  14.711  1.00  0.00     0.293 HD
ENDBRANCH   2  22
BRANCH   6  24
ATOM     24  O   UNL     1      37.076 -27.993  15.452  1.00  0.00    -0.507 OA
ATOM     25  H   UNL     1      36.618 -27.615  16.267  1.00  0.00     0.293 HD
ENDBRANCH   6  24
BRANCH   8  26
ATOM     26  O   UNL     1      33.224 -28.969  12.758  1.00  0.00    -0.508 OA
ATOM     27  H   UNL     1      32.443 -28.874  13.398  1.00  0.00     0.293 HD
ENDBRANCH   8  26
TORSDOF 6
ENDMDL
MODEL 5
REMARK VINA RESULT:    -3.901      7.876     10.913
REMARK INTER + INTRA:          -5.019
REMARK INTER:                  -4.965
REMARK INTRA:                  -0.055
REMARK UNBOUND:                -0.320
REMARK SMILES O=c1c(O)c(-c2ccc(O)c(O)c2)oc2cc(O)cc(O)c12
REMARK SMILES IDX 5 1 3 2 2 3 1 4 22 5 20 6 19 7 17 8 16 9 15 10 14 11 6 12
REMARK SMILES IDX 7 13 8 14 9 15 13 16 11 17 10 18 12 20 4 22 21 24 18 26
REMARK H PARENT 10 19 12 21 4 23 21 25 18 27
REMARK Flexibility Score: inf
ROOT
ATOM      1  C   UNL     1      34.223 -35.800   4.645  1.00  0.00     0.180 A 
ATOM      2  C   UNL     1      32.889 -35.554   4.275  1.00  0.00     0.208 A 
ATOM      3  C   UNL     1      32.437 -34.228   4.197  1.00  0.00     0.238 A 
ATOM      4  O   UNL     1      31.223 -34.018   3.938  1.00  0.00    -0.285 OA
ATOM      5  C   UNL     1      33.338 -33.160   4.434  1.00  0.00     0.111 A 
ATOM      6  C   UNL     1      33.000 -31.776   4.339  1.00  0.00     0.134 A 
ATOM      7  C   UNL     1      33.945 -30.808   4.701  1.00  0.00     0.093 A 
ATOM      8  C   UNL     1      35.236 -31.172   5.092  1.00  0.00     0.123 A 
ATOM      9  C   UNL     1      35.591 -32.517   5.136  1.00  0.00     0.094 A 
ATOM     10  C   UNL     1      34.659 -33.508   4.818  1.00  0.00     0.146 A 
ATOM     11  O   UNL     1      35.035 -34.779   4.894  1.00  0.00    -0.452 OA
ENDROOT
BRANCH   1  12
ATOM     12  C   UNL     1      34.769 -37.170   4.764  1.00  0.00     0.025 A 
ATOM     13  C   UNL     1      35.872 -37.587   3.998  1.00  0.00     0.016 A 
ATOM     14  C   UNL     1      36.355 -38.894   4.110  1.00  0.00     0.051 A 
ATOM     15  C   UNL     1      35.737 -39.806   4.976  1.00  0.00     0.157 A 
ATOM     16  C   UNL     1      34.139 -38.094   5.614  1.00  0.00     0.062 A 
ATOM     17  C   UNL     1      34.621 -39.403   5.729  1.00  0.00     0.158 A 
BRANCH  15  18
ATOM     18  O   UNL     1      36.222 -41.108   5.086  1.00  0.00    -0.504 OA
ATOM     19  H   UNL     1      36.363 -41.693   4.270  1.00  0.00     0.293 HD
ENDBRANCH  15  18
BRANCH  17  20
ATOM     20  O   UNL     1      33.979 -40.288   6.594  1.00  0.00    -0.504 OA
ATOM     21  H   UNL     1      34.243 -40.375   7.568  1.00  0.00     0.293 HD
ENDBRANCH  17  20
ENDBRANCH   1  12
BRANCH   2  22
ATOM     22  O   UNL     1      32.037 -36.618   3.970  1.00  0.00    -0.502 OA
ATOM     23  H   UNL     1      31.669 -37.240   4.680  1.00  0.00     0.293 HD
ENDBRANCH   2  22
BRANCH   6  24
ATOM     24  O   UNL     1      31.770 -31.299   3.875  1.00  0.00    -0.507 OA
ATOM     25  H   UNL     1      31.483 -30.332   3.889  1.00  0.00     0.293 HD
ENDBRANCH   6  24
BRANCH   8  26
ATOM     26  O   UNL     1      36.176 -30.202   5.434  1.00  0.00    -0.508 OA
ATOM     27  H   UNL     1      36.551 -30.135   6.374  1.00  0.00     0.293 HD
ENDBRANCH   8  26
TORSDOF 6
ENDMDL
MODEL 6
REMARK VINA RESULT:    -3.883      5.043      7.967
REMARK INTER + INTRA:          -4.998
REMARK INTER:                  -4.758
REMARK INTRA:                  -0.240
REMARK UNBOUND:                -0.320
REMARK SMILES O=c1c(O)c(-c2ccc(O)c(O)c2)oc2cc(O)cc(O)c12
REMARK SMILES IDX 5 1 3 2 2 3 1 4 22 5 20 6 19 7 17 8 16 9 15 10 14 11 6 12
REMARK SMILES IDX 7 13 8 14 9 15 13 16 11 17 10 18 12 20 4 22 21 24 18 26
REMARK H PARENT 10 19 12 21 4 23 21 25 18 27
REMARK Flexibility Score: inf
ROOT
ATOM      1  C   UNL     1      35.226 -29.897  12.406  1.00  0.00     0.180 A 
ATOM      2  C   UNL     1      34.039 -29.491  13.038  1.00  0.00     0.208 A 
ATOM      3  C   UNL     1      32.883 -29.309  12.265  1.00  0.00     0.238 A 
ATOM      4  O   UNL     1      31.843 -28.873  12.826  1.00  0.00    -0.285 OA
ATOM      5  C   UNL     1      32.911 -29.589  10.876  1.00  0.00     0.111 A 
ATOM      6  C   UNL     1      31.786 -29.482  10.003  1.00  0.00     0.134 A 
ATOM      7  C   UNL     1      31.959 -29.682   8.628  1.00  0.00     0.093 A 
ATOM      8  C   UNL     1      33.201 -30.048   8.102  1.00  0.00     0.123 A 
ATOM      9  C   UNL     1      34.291 -30.207   8.953  1.00  0.00     0.094 A 
ATOM     10  C   UNL     1      34.160 -29.978  10.325  1.00  0.00     0.146 A 
ATOM     11  O   UNL     1      35.231 -30.120  11.096  1.00  0.00    -0.452 OA
ENDROOT
BRANCH   1  12
ATOM     12  C   UNL     1      36.490 -30.097  13.151  1.00  0.00     0.025 A 
ATOM     13  C   UNL     1      37.205 -29.010  13.683  1.00  0.00     0.016 A 
ATOM     14  C   UNL     1      38.409 -29.221  14.362  1.00  0.00     0.051 A 
ATOM     15  C   UNL     1      38.920 -30.517  14.508  1.00  0.00     0.157 A 
ATOM     16  C   UNL     1      37.019 -31.392  13.281  1.00  0.00     0.062 A 
ATOM     17  C   UNL     1      38.222 -31.607  13.961  1.00  0.00     0.158 A 
BRANCH  15  18
ATOM     18  O   UNL     1      40.120 -30.724  15.188  1.00  0.00    -0.504 OA
ATOM     19  H   UNL     1      40.911 -30.101  15.070  1.00  0.00     0.293 HD
ENDBRANCH  15  18
BRANCH  17  20
ATOM     20  O   UNL     1      38.709 -32.908  14.083  1.00  0.00    -0.504 OA
ATOM     21  H   UNL     1      39.698 -33.106  14.172  1.00  0.00     0.293 HD
ENDBRANCH  17  20
ENDBRANCH   1  12
BRANCH   2  22
ATOM     22  O   UNL     1      34.012 -29.294  14.422  1.00  0.00    -0.502 OA
ATOM     23  H   UNL     1      34.622 -29.798  15.054  1.00  0.00     0.293 HD
ENDBRANCH   2  22
BRANCH   6  24
ATOM     24  O   UNL     1      30.484 -29.209  10.432  1.00  0.00    -0.507 OA
ATOM     25  H   UNL     1      29.650 -29.623  10.044  1.00  0.00     0.293 HD
ENDBRANCH   6  24
BRANCH   8  26
ATOM     26  O   UNL     1      33.360 -30.261   6.735  1.00  0.00    -0.508 OA
ATOM     27  H   UNL     1      32.676 -29.929   6.064  1.00  0.00     0.293 HD
ENDBRANCH   8  26
TORSDOF 6
ENDMDL
MODEL 7
REMARK VINA RESULT:    -3.755      7.044      8.421
REMARK INTER + INTRA:          -4.844
REMARK INTER:                  -4.521
REMARK INTRA:                  -0.323
REMARK UNBOUND:                -0.320
REMARK SMILES O=c1c(O)c(-c2ccc(O)c(O)c2)oc2cc(O)cc(O)c12
REMARK SMILES IDX 5 1 3 2 2 3 1 4 22 5 20 6 19 7 17 8 16 9 15 10 14 11 6 12
REMARK SMILES IDX 7 13 8 14 9 15 13 16 11 17 10 18 12 20 4 22 21 24 18 26
REMARK H PARENT 10 19 12 21 4 23 21 25 18 27
REMARK Flexibility Score: inf
ROOT
ATOM      1  C   UNL     1      33.912 -35.775   5.397  1.00  0.00     0.180 A 
ATOM      2  C   UNL     1      32.759 -36.479   5.007  1.00  0.00     0.208 A 
ATOM      3  C   UNL     1      32.739 -37.876   5.132  1.00  0.00     0.238 A 
ATOM      4  O   UNL     1      31.733 -38.505   4.711  1.00  0.00    -0.285 OA
ATOM      5  C   UNL     1      33.849 -38.550   5.697  1.00  0.00     0.111 A 
ATOM      6  C   UNL     1      33.919 -39.960   5.913  1.00  0.00     0.134 A 
ATOM      7  C   UNL     1      35.110 -40.528   6.381  1.00  0.00     0.093 A 
ATOM      8  C   UNL     1      36.212 -39.731   6.703  1.00  0.00     0.123 A 
ATOM      9  C   UNL     1      36.134 -38.350   6.548  1.00  0.00     0.094 A 
ATOM     10  C   UNL     1      34.973 -37.757   6.046  1.00  0.00     0.146 A 
ATOM     11  O   UNL     1      34.951 -36.438   5.893  1.00  0.00    -0.452 OA
ENDROOT
BRANCH   1  12
ATOM     12  C   UNL     1      34.016 -34.303   5.282  1.00  0.00     0.025 A 
ATOM     13  C   UNL     1      34.383 -33.687   4.073  1.00  0.00     0.016 A 
ATOM     14  C   UNL     1      34.498 -32.296   3.996  1.00  0.00     0.051 A 
ATOM     15  C   UNL     1      34.260 -31.503   5.126  1.00  0.00     0.157 A 
ATOM     16  C   UNL     1      33.800 -33.505   6.418  1.00  0.00     0.062 A 
ATOM     17  C   UNL     1      33.913 -32.112   6.343  1.00  0.00     0.158 A 
BRANCH  15  18
ATOM     18  O   UNL     1      34.373 -30.115   5.045  1.00  0.00    -0.504 OA
ATOM     19  H   UNL     1      34.682 -29.561   5.835  1.00  0.00     0.293 HD
ENDBRANCH  15  18
BRANCH  17  20
ATOM     20  O   UNL     1      33.677 -31.351   7.488  1.00  0.00    -0.504 OA
ATOM     21  H   UNL     1      34.428 -30.915   8.009  1.00  0.00     0.293 HD
ENDBRANCH  17  20
ENDBRANCH   1  12
BRANCH   2  22
ATOM     22  O   UNL     1      31.646 -35.788   4.522  1.00  0.00    -0.502 OA
ATOM     23  H   UNL     1      30.710 -35.946   4.878  1.00  0.00     0.293 HD
ENDBRANCH   2  22
BRANCH   6  24
ATOM     24  O   UNL     1      32.851 -40.839   5.710  1.00  0.00    -0.507 OA
ATOM     25  H   UNL     1      32.937 -41.838   5.607  1.00  0.00     0.293 HD
ENDBRANCH   6  24
BRANCH   8  26
ATOM     26  O   UNL     1      37.387 -40.303   7.185  1.00  0.00    -0.508 OA
ATOM     27  H   UNL     1      38.241 -39.763   7.275  1.00  0.00     0.293 HD
ENDBRANCH   8  26
TORSDOF 6
ENDMDL
MODEL 8
REMARK VINA RESULT:    -3.745      1.604      2.999
REMARK INTER + INTRA:          -4.832
REMARK INTER:                  -4.634
REMARK INTRA:                  -0.197
REMARK UNBOUND:                -0.320
REMARK SMILES O=c1c(O)c(-c2ccc(O)c(O)c2)oc2cc(O)cc(O)c12
REMARK SMILES IDX 5 1 3 2 2 3 1 4 22 5 20 6 19 7 17 8 16 9 15 10 14 11 6 12
REMARK SMILES IDX 7 13 8 14 9 15 13 16 11 17 10 18 12 20 4 22 21 24 18 26
REMARK H PARENT 10 19 12 21 4 23 21 25 18 27
REMARK Flexibility Score: inf
ROOT
ATOM      1  C   UNL     1      39.076 -34.098  13.026  1.00  0.00     0.180 A 
ATOM      2  C   UNL     1      39.110 -35.188  13.912  1.00  0.00     0.208 A 
ATOM      3  C   UNL     1      39.354 -36.472  13.403  1.00  0.00     0.238 A 
ATOM      4  O   UNL     1      39.308 -37.453  14.191  1.00  0.00    -0.285 OA
ATOM      5  C   UNL     1      39.618 -36.646  12.022  1.00  0.00     0.111 A 
ATOM      6  C   UNL     1      39.923 -37.897  11.404  1.00  0.00     0.134 A 
ATOM      7  C   UNL     1      40.061 -37.963  10.012  1.00  0.00     0.093 A 
ATOM      8  C   UNL     1      39.969 -36.814   9.223  1.00  0.00     0.123 A 
ATOM      9  C   UNL     1      39.726 -35.581   9.822  1.00  0.00     0.094 A 
ATOM     10  C   UNL     1      39.546 -35.488  11.204  1.00  0.00     0.146 A 
ATOM     11  O   UNL     1      39.294 -34.296  11.731  1.00  0.00    -0.452 OA
ENDROOT
BRANCH   1  12
ATOM     12  C   UNL     1      38.809 -32.715  13.485  1.00  0.00     0.025 A 
ATOM     13  C   UNL     1      39.723 -32.026  14.301  1.00  0.00     0.016 A 
ATOM     14  C   UNL     1      39.439 -30.731  14.741  1.00  0.00     0.051 A 
ATOM     15  C   UNL     1      38.234 -30.110  14.384  1.00  0.00     0.157 A 
ATOM     16  C   UNL     1      37.593 -32.098  13.148  1.00  0.00     0.062 A 
ATOM     17  C   UNL     1      37.306 -30.801  13.586  1.00  0.00     0.158 A 
BRANCH  15  18
ATOM     18  O   UNL     1      37.954 -28.817  14.824  1.00  0.00    -0.504 OA
ATOM     19  H   UNL     1      38.646 -28.078  14.772  1.00  0.00     0.293 HD
ENDBRANCH  15  18
BRANCH  17  20
ATOM     20  O   UNL     1      36.095 -30.214  13.220  1.00  0.00    -0.504 OA
ATOM     21  H   UNL     1      35.934 -29.848  12.290  1.00  0.00     0.293 HD
ENDBRANCH  17  20
ENDBRANCH   1  12
BRANCH   2  22
ATOM     22  O   UNL     1      38.923 -34.986  15.282  1.00  0.00    -0.502 OA
ATOM     23  H   UNL     1      39.103 -34.095  15.730  1.00  0.00     0.293 HD
ENDBRANCH   2  22
BRANCH   6  24
ATOM     24  O   UNL     1      40.124 -39.089  12.106  1.00  0.00    -0.507 OA
ATOM     25  H   UNL     1      39.406 -39.767  12.309  1.00  0.00     0.293 HD
ENDBRANCH   6  24
BRANCH   8  26
ATOM     26  O   UNL     1      40.125 -36.887   7.840  1.00  0.00    -0.508 OA
ATOM     27  H   UNL     1      40.321 -36.061   7.285  1.00  0.00     0.293 HD
ENDBRANCH   8  26
TORSDOF 6
ENDMDL
