MODEL 1
REMARK VINA RESULT:    -3.118      0.000      0.000
REMARK INTER + INTRA:          -4.702
REMARK INTER:                  -4.394
REMARK INTRA:                  -0.308
REMARK UNBOUND:                -0.308
REMARK SMILES CCCCCCCCC(=O)[O-]
REMARK SMILES IDX 6 1 7 2 8 3 9 4 10 5 11 6 5 7 4 8 3 9 2 10 1 11
REMARK H PARENT
REMARK Flexibility Score: inf
ROOT
ATOM      1  C   UNL     1       8.355  -4.103  -2.237  1.00  0.00     0.000 C 
ENDROOT
BRANCH   1   2
ATOM      2  C   UNL     1       8.813  -3.456  -0.918  1.00  0.00     0.006 C 
BRANCH   2   3
ATOM      3  C   UNL     1       9.035  -4.495   0.190  1.00  0.00     0.053 C 
BRANCH   3   4
ATOM      4  C   UNL     1       8.609  -3.980   1.531  1.00  0.00     0.041 C 
ATOM      5  O   UNL     1       8.921  -2.814   1.890  1.00  0.00    -0.550 OA
ATOM      6  O   UNL     1       7.841  -4.778   2.371  1.00  0.00    -0.550 OA
ENDBRANCH   3   4
ENDBRANCH   2   3
ENDBRANCH   1   2
BRANCH   1   7
ATOM      7  C   UNL     1       7.631  -3.113  -3.164  1.00  0.00     0.000 C 
BRANCH   7   8
ATOM      8  C   UNL     1       7.578  -1.689  -2.582  1.00  0.00    -0.000 C 
BRANCH   8   9
ATOM      9  C   UNL     1       6.855  -0.700  -3.510  1.00  0.00    -0.000 C 
BRANCH   9  10
ATOM     10  C   UNL     1       6.987   0.757  -3.042  1.00  0.00    -0.003 C 
ATOM     11  C   UNL     1       7.843   0.854  -1.782  1.00  0.00     0.004 C 
ENDBRANCH   9  10
ENDBRANCH   8   9
ENDBRANCH   7   8
ENDBRANCH   1   7
TORSDOF 7
ENDMDL
MODEL 2
REMARK VINA RESULT:    -2.927      0.973      1.422
REMARK INTER + INTRA:          -4.433
REMARK INTER:                  -4.065
REMARK INTRA:                  -0.368
REMARK UNBOUND:                -0.308
REMARK SMILES CCCCCCCCC(=O)[O-]
REMARK SMILES IDX 6 1 7 2 8 3 9 4 10 5 11 6 5 7 4 8 3 9 2 10 1 11
REMARK H PARENT
REMARK Flexibility Score: inf
ROOT
ATOM      1  C   UNL     1       9.256  -3.258  -1.407  1.00  0.00     0.000 C 
ENDROOT
BRANCH   1   2
ATOM      2  C   UNL     1       9.074  -4.195  -0.201  1.00  0.00     0.006 C 
BRANCH   2   3
ATOM      3  C   UNL     1       8.841  -3.421   1.104  1.00  0.00     0.053 C 
BRANCH   3   4
ATOM      4  C   UNL     1       9.010  -4.294   2.309  1.00  0.00     0.041 C 
ATOM      5  O   UNL     1      10.078  -4.254   2.975  1.00  0.00    -0.550 OA
ATOM      6  O   UNL     1       7.976  -5.130   2.714  1.00  0.00    -0.550 OA
ENDBRANCH   3   4
ENDBRANCH   2   3
ENDBRANCH   1   2
BRANCH   1   7
ATOM      7  C   UNL     1       8.164  -3.443  -2.473  1.00  0.00     0.000 C 
BRANCH   7   8
ATOM      8  C   UNL     1       7.470  -2.121  -2.844  1.00  0.00    -0.000 C 
BRANCH   8   9
ATOM      9  C   UNL     1       7.994  -0.930  -2.026  1.00  0.00    -0.000 C 
BRANCH   9  10
ATOM     10  C   UNL     1       7.309   0.393  -2.399  1.00  0.00    -0.003 C 
ATOM     11  C   UNL     1       6.462   0.236  -3.660  1.00  0.00     0.004 C 
ENDBRANCH   9  10
ENDBRANCH   8   9
ENDBRANCH   7   8
ENDBRANCH   1   7
TORSDOF 7
ENDMDL
MODEL 3
REMARK VINA RESULT:    -2.898      3.342      5.119
REMARK INTER + INTRA:          -4.392
REMARK INTER:                  -4.143
REMARK INTRA:                  -0.249
REMARK UNBOUND:                -0.308
REMARK SMILES CCCCCCCCC(=O)[O-]
REMARK SMILES IDX 6 1 7 2 8 3 9 4 10 5 11 6 5 7 4 8 3 9 2 10 1 11
REMARK H PARENT
REMARK Flexibility Score: inf
ROOT
ATOM      1  C   UNL     1       9.248   0.699  -0.397  1.00  0.00     0.000 C 
ENDROOT
BRANCH   1   2
ATOM      2  C   UNL     1       8.847   1.017   1.054  1.00  0.00     0.006 C 
BRANCH   2   3
ATOM      3  C   UNL     1       8.384   2.471   1.222  1.00  0.00     0.053 C 
BRANCH   3   4
ATOM      4  C   UNL     1       7.502   2.641   2.420  1.00  0.00     0.041 C 
ATOM      5  O   UNL     1       6.884   3.722   2.604  1.00  0.00    -0.550 OA
ATOM      6  O   UNL     1       7.338   1.593   3.318  1.00  0.00    -0.550 OA
ENDBRANCH   3   4
ENDBRANCH   2   3
ENDBRANCH   1   2
BRANCH   1   7
ATOM      7  C   UNL     1       8.455  -0.477  -0.988  1.00  0.00     0.000 C 
BRANCH   7   8
ATOM      8  C   UNL     1       7.607  -0.067  -2.205  1.00  0.00    -0.000 C 
BRANCH   8   9
ATOM      9  C   UNL     1       7.227  -1.265  -3.089  1.00  0.00    -0.000 C 
BRANCH   9  10
ATOM     10  C   UNL     1       7.868  -2.579  -2.616  1.00  0.00    -0.003 C 
ATOM     11  C   UNL     1       7.397  -3.757  -3.465  1.00  0.00     0.004 C 
ENDBRANCH   9  10
ENDBRANCH   8   9
ENDBRANCH   7   8
ENDBRANCH   1   7
TORSDOF 7
ENDMDL
MODEL 4
REMARK VINA RESULT:    -2.861      3.815      5.959
REMARK INTER + INTRA:          -4.340
REMARK INTER:                  -3.870
REMARK INTRA:                  -0.470
REMARK UNBOUND:                -0.308
REMARK SMILES CCCCCCCCC(=O)[O-]
REMARK SMILES IDX 6 1 7 2 8 3 9 4 10 5 11 6 5 7 4 8 3 9 2 10 1 11
REMARK H PARENT
REMARK Flexibility Score: inf
ROOT
ATOM      1  C   UNL     1       8.340   1.392  -1.664  1.00  0.00     0.000 C 
ENDROOT
BRANCH   1   2
ATOM      2  C   UNL     1       7.723   2.695  -1.127  1.00  0.00     0.006 C 
BRANCH   2   3
ATOM      3  C   UNL     1       8.021   2.905   0.364  1.00  0.00     0.053 C 
BRANCH   3   4
ATOM      4  C   UNL     1       7.051   3.853   0.999  1.00  0.00     0.041 C 
ATOM      5  O   UNL     1       6.970   3.931   2.253  1.00  0.00    -0.550 OA
ATOM      6  O   UNL     1       6.257   4.673   0.205  1.00  0.00    -0.550 OA
ENDBRANCH   3   4
ENDBRANCH   2   3
ENDBRANCH   1   2
BRANCH   1   7
ATOM      7  C   UNL     1       7.315   0.505  -2.391  1.00  0.00     0.000 C 
BRANCH   7   8
ATOM      8  C   UNL     1       7.659  -0.992  -2.301  1.00  0.00    -0.000 C 
BRANCH   8   9
ATOM      9  C   UNL     1       9.016  -1.245  -1.626  1.00  0.00    -0.000 C 
BRANCH   9  10
ATOM     10  C   UNL     1       8.903  -2.138  -0.381  1.00  0.00    -0.003 C 
ATOM     11  C   UNL     1       8.970  -1.307   0.898  1.00  0.00     0.004 C 
ENDBRANCH   9  10
ENDBRANCH   8   9
ENDBRANCH   7   8
ENDBRANCH   1   7
TORSDOF 7
ENDMDL
MODEL 5
REMARK VINA RESULT:    -2.823      1.656      2.754
REMARK INTER + INTRA:          -4.286
REMARK INTER:                  -3.814
REMARK INTRA:                  -0.472
REMARK UNBOUND:                -0.308
REMARK SMILES CCCCCCCCC(=O)[O-]
REMARK SMILES IDX 6 1 7 2 8 3 9 4 10 5 11 6 5 7 4 8 3 9 2 10 1 11
REMARK H PARENT
REMARK Flexibility Score: inf
ROOT
ATOM      1  C   UNL     1       9.115  -0.860   0.879  1.00  0.00     0.000 C 
ENDROOT
BRANCH   1   2
ATOM      2  C   UNL     1       8.614  -2.164   1.523  1.00  0.00     0.006 C 
BRANCH   2   3
ATOM      3  C   UNL     1       9.000  -3.402   0.701  1.00  0.00     0.053 C 
BRANCH   3   4
ATOM      4  C   UNL     1       8.679  -4.674   1.424  1.00  0.00     0.041 C 
ATOM      5  O   UNL     1       7.788  -4.689   2.314  1.00  0.00    -0.550 OA
ATOM      6  O   UNL     1       9.343  -5.849   1.094  1.00  0.00    -0.550 OA
ENDBRANCH   3   4
ENDBRANCH   2   3
ENDBRANCH   1   2
BRANCH   1   7
ATOM      7  C   UNL     1       9.151  -0.932  -0.657  1.00  0.00     0.000 C 
BRANCH   7   8
ATOM      8  C   UNL     1       8.307   0.171  -1.320  1.00  0.00    -0.000 C 
BRANCH   8   9
ATOM      9  C   UNL     1       7.480  -0.352  -2.504  1.00  0.00    -0.000 C 
BRANCH   9  10
ATOM     10  C   UNL     1       7.513  -1.883  -2.621  1.00  0.00    -0.003 C 
ATOM     11  C   UNL     1       7.893  -2.318  -4.035  1.00  0.00     0.004 C 
ENDBRANCH   9  10
ENDBRANCH   8   9
ENDBRANCH   7   8
ENDBRANCH   1   7
TORSDOF 7
ENDMDL
MODEL 6
REMARK VINA RESULT:    -2.737      3.050      5.425
REMARK INTER + INTRA:          -4.166
REMARK INTER:                  -3.776
REMARK INTRA:                  -0.390
REMARK UNBOUND:                -0.308
REMARK SMILES CCCCCCCCC(=O)[O-]
REMARK SMILES IDX 6 1 7 2 8 3 9 4 10 5 11 6 5 7 4 8 3 9 2 10 1 11
REMARK H PARENT
REMARK Flexibility Score: inf
ROOT
ATOM      1  C   UNL     1       7.491  -1.409  -2.565  1.00  0.00     0.000 C 
ENDROOT
BRANCH   1   2
ATOM      2  C   UNL     1       7.884  -0.132  -1.801  1.00  0.00     0.006 C 
BRANCH   2   3
ATOM      3  C   UNL     1       7.340   1.136  -2.474  1.00  0.00     0.053 C 
BRANCH   3   4
ATOM      4  C   UNL     1       7.512   2.345  -1.606  1.00  0.00     0.041 C 
ATOM      5  O   UNL     1       6.978   3.438  -1.930  1.00  0.00    -0.550 OA
ATOM      6  O   UNL     1       8.237   2.256  -0.424  1.00  0.00    -0.550 OA
ENDBRANCH   3   4
ENDBRANCH   2   3
ENDBRANCH   1   2
BRANCH   1   7
ATOM      7  C   UNL     1       8.291  -2.641  -2.113  1.00  0.00     0.000 C 
BRANCH   7   8
ATOM      8  C   UNL     1       9.008  -2.420  -0.769  1.00  0.00    -0.000 C 
BRANCH   8   9
ATOM      9  C   UNL     1       8.898  -3.636   0.164  1.00  0.00    -0.000 C 
BRANCH   9  10
ATOM     10  C   UNL     1       8.761  -3.239   1.642  1.00  0.00    -0.003 C 
ATOM     11  C   UNL     1       8.774  -1.721   1.806  1.00  0.00     0.004 C 
ENDBRANCH   9  10
ENDBRANCH   8   9
ENDBRANCH   7   8
ENDBRANCH   1   7
TORSDOF 7
ENDMDL
MODEL 7
REMARK VINA RESULT:    -2.734      3.981      6.326
REMARK INTER + INTRA:          -4.161
REMARK INTER:                  -3.926
REMARK INTRA:                  -0.235
REMARK UNBOUND:                -0.308
REMARK SMILES CCCCCCCCC(=O)[O-]
REMARK SMILES IDX 6 1 7 2 8 3 9 4 10 5 11 6 5 7 4 8 3 9 2 10 1 11
REMARK H PARENT
REMARK Flexibility Score: inf
ROOT
ATOM      1  C   UNL     1       7.862   1.406  -1.801  1.00  0.00     0.000 C 
ENDROOT
BRANCH   1   2
ATOM      2  C   UNL     1       7.986   2.601  -0.839  1.00  0.00     0.006 C 
BRANCH   2   3
ATOM      3  C   UNL     1       7.116   3.788  -1.275  1.00  0.00     0.053 C 
BRANCH   3   4
ATOM      4  C   UNL     1       6.644   4.593  -0.104  1.00  0.00     0.041 C 
ATOM      5  O   UNL     1       6.243   5.776  -0.269  1.00  0.00    -0.550 OA
ATOM      6  O   UNL     1       6.618   4.027   1.165  1.00  0.00    -0.550 OA
ENDBRANCH   3   4
ENDBRANCH   2   3
ENDBRANCH   1   2
BRANCH   1   7
ATOM      7  C   UNL     1       8.882   0.295  -1.502  1.00  0.00     0.000 C 
BRANCH   7   8
ATOM      8  C   UNL     1       8.282  -1.114  -1.651  1.00  0.00    -0.000 C 
BRANCH   8   9
ATOM      9  C   UNL     1       7.382  -1.243  -2.890  1.00  0.00    -0.000 C 
BRANCH   9  10
ATOM     10  C   UNL     1       7.301  -2.684  -3.417  1.00  0.00    -0.003 C 
ATOM     11  C   UNL     1       8.153  -3.627  -2.570  1.00  0.00     0.004 C 
ENDBRANCH   9  10
ENDBRANCH   8   9
ENDBRANCH   7   8
ENDBRANCH   1   7
TORSDOF 7
ENDMDL
MODEL 8
REMARK VINA RESULT:    -2.721      1.915      2.818
REMARK INTER + INTRA:          -4.143
REMARK INTER:                  -3.728
REMARK INTRA:                  -0.415
REMARK UNBOUND:                -0.308
REMARK SMILES CCCCCCCCC(=O)[O-]
REMARK SMILES IDX 6 1 7 2 8 3 9 4 10 5 11 6 5 7 4 8 3 9 2 10 1 11
REMARK H PARENT
REMARK Flexibility Score: inf
ROOT
ATOM      1  C   UNL     1       8.822  -3.633   0.100  1.00  0.00     0.000 C 
ENDROOT
BRANCH   1   2
ATOM      2  C   UNL     1       8.767  -3.023   1.512  1.00  0.00     0.006 C 
BRANCH   2   3
ATOM      3  C   UNL     1       8.754  -1.488   1.479  1.00  0.00     0.053 C 
BRANCH   3   4
ATOM      4  C   UNL     1       9.343  -0.899   2.724  1.00  0.00     0.041 C 
ATOM      5  O   UNL     1       9.530  -1.621   3.739  1.00  0.00    -0.550 OA
ATOM      6  O   UNL     1       9.714   0.440   2.753  1.00  0.00    -0.550 OA
ENDBRANCH   3   4
ENDBRANCH   2   3
ENDBRANCH   1   2
BRANCH   1   7
ATOM      7  C   UNL     1       9.012  -2.573  -0.997  1.00  0.00     0.000 C 
BRANCH   7   8
ATOM      8  C   UNL     1       8.368  -2.983  -2.334  1.00  0.00    -0.000 C 
BRANCH   8   9
ATOM      9  C   UNL     1       7.341  -1.955  -2.834  1.00  0.00    -0.000 C 
BRANCH   9  10
ATOM     10  C   UNL     1       7.633  -0.533  -2.333  1.00  0.00    -0.003 C 
ATOM     11  C   UNL     1       6.863   0.504  -3.146  1.00  0.00     0.004 C 
ENDBRANCH   9  10
ENDBRANCH   8   9
ENDBRANCH   7   8
ENDBRANCH   1   7
TORSDOF 7
ENDMDL
MODEL 9
REMARK VINA RESULT:    -2.701      3.465      4.288
REMARK INTER + INTRA:          -4.115
REMARK INTER:                  -3.839
REMARK INTRA:                  -0.276
REMARK UNBOUND:                -0.308
REMARK SMILES CCCCCCCCC(=O)[O-]
REMARK SMILES IDX 6 1 7 2 8 3 9 4 10 5 11 6 5 7 4 8 3 9 2 10 1 11
REMARK H PARENT
REMARK Flexibility Score: inf
ROOT
ATOM      1  C   UNL     1       7.200  -3.562  -3.736  1.00  0.00     0.000 C 
ENDROOT
BRANCH   1   2
ATOM      2  C   UNL     1       7.099  -5.083  -3.942  1.00  0.00     0.006 C 
BRANCH   2   3
ATOM      3  C   UNL     1       5.655  -5.539  -4.190  1.00  0.00     0.053 C 
BRANCH   3   4
ATOM      4  C   UNL     1       5.352  -6.834  -3.500  1.00  0.00     0.041 C 
ATOM      5  O   UNL     1       6.278  -7.649  -3.249  1.00  0.00    -0.550 OA
ATOM      6  O   UNL     1       4.052  -7.126  -3.106  1.00  0.00    -0.550 OA
ENDBRANCH   3   4
ENDBRANCH   2   3
ENDBRANCH   1   2
BRANCH   1   7
ATOM      7  C   UNL     1       8.083  -3.182  -2.536  1.00  0.00     0.000 C 
BRANCH   7   8
ATOM      8  C   UNL     1       7.931  -1.705  -2.134  1.00  0.00    -0.000 C 
BRANCH   8   9
ATOM      9  C   UNL     1       7.022  -0.923  -3.095  1.00  0.00    -0.000 C 
BRANCH   9  10
ATOM     10  C   UNL     1       7.048   0.591  -2.836  1.00  0.00    -0.003 C 
ATOM     11  C   UNL     1       7.980   0.934  -1.677  1.00  0.00     0.004 C 
ENDBRANCH   9  10
ENDBRANCH   8   9
ENDBRANCH   7   8
ENDBRANCH   1   7
TORSDOF 7
ENDMDL
