MODEL 1
REMARK VINA RESULT:    -0.107      0.000      0.000
REMARK INTER + INTRA:          -0.259
REMARK INTER:                  -0.166
REMARK INTRA:                  -0.093
REMARK UNBOUND:                -0.093
REMARK SMILES COc1cc(CNC(=O)CCCCC=CC(C)C)ccc1O
REMARK SMILES IDX 11 1 12 2 13 3 14 4 15 5 16 6 17 7 18 8 10 9 8 10 9 11 7 12
REMARK SMILES IDX 6 14 5 15 4 16 19 17 3 18 20 19 21 20 2 21 1 22 22 23
REMARK H PARENT 7 13 22 24
REMARK Flexibility Score: inf
ROOT
ATOM      1  C   UNL     1       9.946 -15.115  -6.848  1.00  0.00     0.010 C 
ENDROOT
BRANCH   1   2
ATOM      2  C   UNL     1      11.057 -15.105  -7.918  1.00  0.00     0.005 C 
BRANCH   2   3
ATOM      3  C   UNL     1      10.539 -15.125  -9.368  1.00  0.00     0.027 C 
BRANCH   3   4
ATOM      4  C   UNL     1      11.638 -14.934 -10.378  1.00  0.00    -0.031 C 
ATOM      5  C   UNL     1      12.594 -14.005 -10.210  1.00  0.00    -0.028 C 
BRANCH   5   6
ATOM      6  C   UNL     1      13.697 -13.777 -11.219  1.00  0.00     0.005 C 
ATOM      7  C   UNL     1      14.364 -12.411 -11.022  1.00  0.00     0.012 C 
ATOM      8  C   UNL     1      14.728 -14.911 -11.180  1.00  0.00     0.012 C 
ENDBRANCH   5   6
ENDBRANCH   3   4
ENDBRANCH   2   3
ENDBRANCH   1   2
BRANCH   1   9
ATOM      9  C   UNL     1       9.190 -13.784  -6.710  1.00  0.00     0.100 C 
BRANCH   9  10
ATOM     10  C   UNL     1       8.044 -13.688  -7.674  1.00  0.00     0.220 C 
ATOM     11  O   UNL     1       6.892 -14.038  -7.300  1.00  0.00    -0.275 OA
ATOM     12  N   UNL     1       8.263 -13.237  -9.018  1.00  0.00    -0.352 N 
ATOM     13  H   UNL     1       9.230 -12.977  -9.317  1.00  0.00     0.163 HD
BRANCH  12  14
ATOM     14  C   UNL     1       7.186 -13.144 -10.000  1.00  0.00     0.151 C 
BRANCH  14  15
ATOM     15  C   UNL     1       7.664 -13.621 -11.343  1.00  0.00    -0.025 A 
ATOM     16  C   UNL     1       8.913 -13.215 -11.843  1.00  0.00     0.056 A 
ATOM     17  C   UNL     1       6.877 -14.506 -12.093  1.00  0.00     0.009 A 
ATOM     18  C   UNL     1       9.370 -13.683 -13.092  1.00  0.00     0.160 A 
ATOM     19  C   UNL     1       7.323 -14.971 -13.331  1.00  0.00     0.050 A 
ATOM     20  C   UNL     1       8.566 -14.563 -13.832  1.00  0.00     0.157 A 
BRANCH  18  21
ATOM     21  O   UNL     1      10.610 -13.301 -13.625  1.00  0.00    -0.493 OA
ATOM     22  C   UNL     1      11.752 -14.149 -13.696  1.00  0.00     0.278 C 
ENDBRANCH  18  21
BRANCH  20  23
ATOM     23  O   UNL     1       9.012 -15.028 -15.068  1.00  0.00    -0.504 OA
ATOM     24  H   UNL     1       9.716 -15.753 -15.138  1.00  0.00     0.293 HD
ENDBRANCH  20  23
ENDBRANCH  14  15
ENDBRANCH  12  14
ENDBRANCH   9  10
ENDBRANCH   1   9
TORSDOF 10
ENDMDL
MODEL 2
REMARK VINA RESULT:    -0.020      2.155      5.128
REMARK INTER + INTRA:          -0.124
REMARK INTER:                  -0.778
REMARK INTRA:                   0.654
REMARK UNBOUND:                -0.093
REMARK SMILES COc1cc(CNC(=O)CCCCC=CC(C)C)ccc1O
REMARK SMILES IDX 11 1 12 2 13 3 14 4 15 5 16 6 17 7 18 8 10 9 8 10 9 11 7 12
REMARK SMILES IDX 6 14 5 15 4 16 19 17 3 18 20 19 21 20 2 21 1 22 22 23
REMARK H PARENT 7 13 22 24
REMARK Flexibility Score: inf
ROOT
ATOM      1  C   UNL     1       7.734 -13.811 -12.334  1.00  0.00     0.010 C 
ENDROOT
BRANCH   1   2
ATOM      2  C   UNL     1       6.878 -14.663 -13.294  1.00  0.00     0.005 C 
BRANCH   2   3
ATOM      3  C   UNL     1       7.122 -14.373 -14.786  1.00  0.00     0.027 C 
BRANCH   3   4
ATOM      4  C   UNL     1       8.552 -14.010 -15.078  1.00  0.00    -0.031 C 
ATOM      5  C   UNL     1       9.575 -14.745 -14.609  1.00  0.00    -0.028 C 
BRANCH   5   6
ATOM      6  C   UNL     1      11.022 -14.390 -14.868  1.00  0.00     0.005 C 
ATOM      7  C   UNL     1      11.230 -12.872 -14.900  1.00  0.00     0.012 C 
ATOM      8  C   UNL     1      11.949 -15.058 -13.847  1.00  0.00     0.012 C 
ENDBRANCH   5   6
ENDBRANCH   3   4
ENDBRANCH   2   3
ENDBRANCH   1   2
BRANCH   1   9
ATOM      9  C   UNL     1       6.923 -13.048 -11.274  1.00  0.00     0.100 C 
BRANCH   9  10
ATOM     10  C   UNL     1       7.570 -13.113  -9.921  1.00  0.00     0.220 C 
ATOM     11  O   UNL     1       8.230 -12.123  -9.504  1.00  0.00    -0.275 OA
ATOM     12  N   UNL     1       7.470 -14.303  -9.127  1.00  0.00    -0.352 N 
ATOM     13  H   UNL     1       6.942 -15.124  -9.502  1.00  0.00     0.163 HD
BRANCH  12  14
ATOM     14  C   UNL     1       8.097 -14.424  -7.813  1.00  0.00     0.151 C 
BRANCH  14  15
ATOM     15  C   UNL     1       9.589 -14.546  -7.958  1.00  0.00    -0.025 A 
ATOM     16  C   UNL     1      10.226 -14.153  -9.146  1.00  0.00     0.056 A 
ATOM     17  C   UNL     1      10.359 -15.024  -6.889  1.00  0.00     0.009 A 
ATOM     18  C   UNL     1      11.627 -14.245  -9.271  1.00  0.00     0.160 A 
ATOM     19  C   UNL     1      11.747 -15.119  -7.008  1.00  0.00     0.050 A 
ATOM     20  C   UNL     1      12.382 -14.731  -8.194  1.00  0.00     0.157 A 
BRANCH  18  21
ATOM     21  O   UNL     1      12.300 -13.862 -10.441  1.00  0.00    -0.493 OA
ATOM     22  C   UNL     1      11.811 -12.906 -11.376  1.00  0.00     0.278 C 
ENDBRANCH  18  21
BRANCH  20  23
ATOM     23  O   UNL     1      13.768 -14.826  -8.312  1.00  0.00    -0.504 OA
ATOM     24  H   UNL     1      14.304 -15.480  -7.754  1.00  0.00     0.293 HD
ENDBRANCH  20  23
ENDBRANCH  14  15
ENDBRANCH  12  14
ENDBRANCH   9  10
ENDBRANCH   1   9
TORSDOF 10
ENDMDL
MODEL 3
REMARK VINA RESULT:     0.646      2.220      6.131
REMARK INTER + INTRA:           0.912
REMARK INTER:                   1.149
REMARK INTRA:                  -0.238
REMARK UNBOUND:                -0.093
REMARK SMILES COc1cc(CNC(=O)CCCCC=CC(C)C)ccc1O
REMARK SMILES IDX 11 1 12 2 13 3 14 4 15 5 16 6 17 7 18 8 10 9 8 10 9 11 7 12
REMARK SMILES IDX 6 14 5 15 4 16 19 17 3 18 20 19 21 20 2 21 1 22 22 23
REMARK H PARENT 7 13 22 24
REMARK Flexibility Score: inf
ROOT
ATOM      1  C   UNL     1      12.829 -11.750 -11.471  1.00  0.00     0.010 C 
ENDROOT
BRANCH   1   2
ATOM      2  C   UNL     1      11.747 -12.444 -12.324  1.00  0.00     0.005 C 
BRANCH   2   3
ATOM      3  C   UNL     1      10.492 -12.861 -11.537  1.00  0.00     0.027 C 
BRANCH   3   4
ATOM      4  C   UNL     1       9.348 -13.248 -12.435  1.00  0.00    -0.031 C 
ATOM      5  C   UNL     1       9.552 -13.654 -13.700  1.00  0.00    -0.028 C 
BRANCH   5   6
ATOM      6  C   UNL     1       8.420 -14.027 -14.630  1.00  0.00     0.005 C 
ATOM      7  C   UNL     1       7.513 -15.096 -14.010  1.00  0.00     0.012 C 
ATOM      8  C   UNL     1       7.618 -12.791 -15.051  1.00  0.00     0.012 C 
ENDBRANCH   5   6
ENDBRANCH   3   4
ENDBRANCH   2   3
ENDBRANCH   1   2
BRANCH   1   9
ATOM      9  C   UNL     1      13.959 -12.682 -11.006  1.00  0.00     0.100 C 
BRANCH   9  10
ATOM     10  C   UNL     1      13.426 -13.956 -10.416  1.00  0.00     0.220 C 
ATOM     11  O   UNL     1      13.843 -15.062 -10.855  1.00  0.00    -0.275 OA
ATOM     12  N   UNL     1      12.426 -13.915  -9.388  1.00  0.00    -0.352 N 
ATOM     13  H   UNL     1      12.073 -12.989  -9.057  1.00  0.00     0.163 HD
BRANCH  12  14
ATOM     14  C   UNL     1      11.861 -15.125  -8.795  1.00  0.00     0.151 C 
BRANCH  14  15
ATOM     15  C   UNL     1      10.551 -14.813  -8.126  1.00  0.00    -0.025 A 
ATOM     16  C   UNL     1       9.459 -14.344  -8.876  1.00  0.00     0.056 A 
ATOM     17  C   UNL     1      10.401 -15.024  -6.749  1.00  0.00     0.009 A 
ATOM     18  C   UNL     1       8.225 -14.077  -8.251  1.00  0.00     0.160 A 
ATOM     19  C   UNL     1       9.181 -14.758  -6.124  1.00  0.00     0.050 A 
ATOM     20  C   UNL     1       8.094 -14.286  -6.870  1.00  0.00     0.157 A 
BRANCH  18  21
ATOM     21  O   UNL     1       7.112 -13.608  -8.965  1.00  0.00    -0.493 OA
ATOM     22  C   UNL     1       7.148 -12.535  -9.901  1.00  0.00     0.278 C 
ENDBRANCH  18  21
BRANCH  20  23
ATOM     23  O   UNL     1       6.875 -14.022  -6.246  1.00  0.00    -0.504 OA
ATOM     24  H   UNL     1       6.020 -14.477  -6.542  1.00  0.00     0.293 HD
ENDBRANCH  20  23
ENDBRANCH  14  15
ENDBRANCH  12  14
ENDBRANCH   9  10
ENDBRANCH   1   9
TORSDOF 10
ENDMDL
MODEL 4
REMARK VINA RESULT:     2.524      2.255      5.286
REMARK INTER + INTRA:           3.832
REMARK INTER:                   3.845
REMARK INTRA:                  -0.013
REMARK UNBOUND:                -0.093
REMARK SMILES COc1cc(CNC(=O)CCCCC=CC(C)C)ccc1O
REMARK SMILES IDX 11 1 12 2 13 3 14 4 15 5 16 6 17 7 18 8 10 9 8 10 9 11 7 12
REMARK SMILES IDX 6 14 5 15 4 16 19 17 3 18 20 19 21 20 2 21 1 22 22 23
REMARK H PARENT 7 13 22 24
REMARK Flexibility Score: inf
ROOT
ATOM      1  C   UNL     1       8.218 -13.704 -13.330  1.00  0.00     0.010 C 
ENDROOT
BRANCH   1   2
ATOM      2  C   UNL     1       8.701 -14.552 -14.525  1.00  0.00     0.005 C 
BRANCH   2   3
ATOM      3  C   UNL     1      10.196 -14.388 -14.853  1.00  0.00     0.027 C 
BRANCH   3   4
ATOM      4  C   UNL     1      10.990 -13.860 -13.689  1.00  0.00    -0.031 C 
ATOM      5  C   UNL     1      11.168 -14.586 -12.572  1.00  0.00    -0.028 C 
BRANCH   5   6
ATOM      6  C   UNL     1      11.941 -14.071 -11.379  1.00  0.00     0.005 C 
ATOM      7  C   UNL     1      13.281 -14.799 -11.223  1.00  0.00     0.012 C 
ATOM      8  C   UNL     1      12.139 -12.553 -11.458  1.00  0.00     0.012 C 
ENDBRANCH   5   6
ENDBRANCH   3   4
ENDBRANCH   2   3
ENDBRANCH   1   2
BRANCH   1   9
ATOM      9  C   UNL     1       7.329 -14.466 -12.334  1.00  0.00     0.100 C 
BRANCH   9  10
ATOM     10  C   UNL     1       7.591 -14.046 -10.917  1.00  0.00     0.220 C 
ATOM     11  O   UNL     1       8.335 -13.053 -10.693  1.00  0.00    -0.275 OA
ATOM     12  N   UNL     1       7.027 -14.789  -9.826  1.00  0.00    -0.352 N 
ATOM     13  H   UNL     1       6.435 -15.625 -10.031  1.00  0.00     0.163 HD
BRANCH  12  14
ATOM     14  C   UNL     1       7.266 -14.434  -8.429  1.00  0.00     0.151 C 
BRANCH  14  15
ATOM     15  C   UNL     1       8.738 -14.244  -8.185  1.00  0.00    -0.025 A 
ATOM     16  C   UNL     1       9.197 -13.212  -7.351  1.00  0.00     0.056 A 
ATOM     17  C   UNL     1       9.663 -15.124  -8.765  1.00  0.00     0.009 A 
ATOM     18  C   UNL     1      10.576 -13.051  -7.103  1.00  0.00     0.160 A 
ATOM     19  C   UNL     1      11.029 -14.969  -8.525  1.00  0.00     0.050 A 
ATOM     20  C   UNL     1      11.488 -13.937  -7.697  1.00  0.00     0.157 A 
BRANCH  18  21
ATOM     21  O   UNL     1      11.073 -12.033  -6.277  1.00  0.00    -0.493 OA
ATOM     22  C   UNL     1      10.372 -10.834  -5.964  1.00  0.00     0.278 C 
ENDBRANCH  18  21
BRANCH  20  23
ATOM     23  O   UNL     1      12.852 -13.782  -7.457  1.00  0.00    -0.504 OA
ATOM     24  H   UNL     1      13.545 -14.065  -8.139  1.00  0.00     0.293 HD
ENDBRANCH  20  23
ENDBRANCH  14  15
ENDBRANCH  12  14
ENDBRANCH   9  10
ENDBRANCH   1   9
TORSDOF 10
ENDMDL
MODEL 5
REMARK VINA RESULT:     2.852      2.205      5.028
REMARK INTER + INTRA:           4.344
REMARK INTER:                  -0.146
REMARK INTRA:                   4.489
REMARK UNBOUND:                -0.093
REMARK SMILES COc1cc(CNC(=O)CCCCC=CC(C)C)ccc1O
REMARK SMILES IDX 11 1 12 2 13 3 14 4 15 5 16 6 17 7 18 8 10 9 8 10 9 11 7 12
REMARK SMILES IDX 6 14 5 15 4 16 19 17 3 18 20 19 21 20 2 21 1 22 22 23
REMARK H PARENT 7 13 22 24
REMARK Flexibility Score: inf
ROOT
ATOM      1  C   UNL     1       8.206 -13.733 -13.354  1.00  0.00     0.010 C 
ENDROOT
BRANCH   1   2
ATOM      2  C   UNL     1       8.693 -14.536 -14.578  1.00  0.00     0.005 C 
BRANCH   2   3
ATOM      3  C   UNL     1      10.060 -14.088 -15.125  1.00  0.00     0.027 C 
BRANCH   3   4
ATOM      4  C   UNL     1      10.854 -13.296 -14.122  1.00  0.00    -0.031 C 
ATOM      5  C   UNL     1      10.692 -13.471 -12.800  1.00  0.00    -0.028 C 
BRANCH   5   6
ATOM      6  C   UNL     1      11.459 -12.672 -11.770  1.00  0.00     0.005 C 
ATOM      7  C   UNL     1      12.973 -12.793 -11.981  1.00  0.00     0.012 C 
ATOM      8  C   UNL     1      11.014 -11.206 -11.761  1.00  0.00     0.012 C 
ENDBRANCH   5   6
ENDBRANCH   3   4
ENDBRANCH   2   3
ENDBRANCH   1   2
BRANCH   1   9
ATOM      9  C   UNL     1       7.276 -14.516 -12.415  1.00  0.00     0.100 C 
BRANCH   9  10
ATOM     10  C   UNL     1       7.551 -14.209 -10.971  1.00  0.00     0.220 C 
ATOM     11  O   UNL     1       8.403 -13.328 -10.678  1.00  0.00    -0.275 OA
ATOM     12  N   UNL     1       6.875 -14.936  -9.935  1.00  0.00    -0.352 N 
ATOM     13  H   UNL     1       6.192 -15.682 -10.197  1.00  0.00     0.163 HD
BRANCH  12  14
ATOM     14  C   UNL     1       7.120 -14.689  -8.516  1.00  0.00     0.151 C 
BRANCH  14  15
ATOM     15  C   UNL     1       8.587 -14.820  -8.211  1.00  0.00    -0.025 A 
ATOM     16  C   UNL     1       9.532 -14.872  -9.250  1.00  0.00     0.056 A 
ATOM     17  C   UNL     1       9.025 -14.856  -6.880  1.00  0.00     0.009 A 
ATOM     18  C   UNL     1      10.908 -14.970  -8.961  1.00  0.00     0.160 A 
ATOM     19  C   UNL     1      10.386 -14.955  -6.589  1.00  0.00     0.050 A 
ATOM     20  C   UNL     1      11.328 -15.012  -7.624  1.00  0.00     0.157 A 
BRANCH  18  21
ATOM     21  O   UNL     1      11.881 -15.024  -9.970  1.00  0.00    -0.493 OA
ATOM     22  C   UNL     1      13.286 -15.031  -9.735  1.00  0.00     0.278 C 
ENDBRANCH  18  21
BRANCH  20  23
ATOM     23  O   UNL     1      12.687 -15.110  -7.332  1.00  0.00    -0.504 OA
ATOM     24  H   UNL     1      13.312 -14.321  -7.446  1.00  0.00     0.293 HD
ENDBRANCH  20  23
ENDBRANCH  14  15
ENDBRANCH  12  14
ENDBRANCH   9  10
ENDBRANCH   1   9
TORSDOF 10
ENDMDL
