MODEL 1
REMARK VINA RESULT:    -7.318      0.000      0.000
REMARK INTER + INTRA:         -12.123
REMARK INTER:                 -11.169
REMARK INTRA:                  -0.954
REMARK UNBOUND:                -0.954
REMARK SMILES CC(=O)CCC=C(C)CCC=C(C)CCC=C(C)C
REMARK SMILES IDX 10 1 11 2 12 3 13 4 14 5 15 6 16 7 18 8 17 9 19 10 9 11 7 12
REMARK SMILES IDX 6 13 8 14 5 15 4 16 2 17 3 18 1 19
REMARK H PARENT
REMARK Flexibility Score: inf
ROOT
ATOM      1  C   UNL     1      -5.727  29.138  29.177  1.00  0.00     0.032 C 
ENDROOT
BRANCH   1   2
ATOM      2  C   UNL     1      -5.952  30.512  28.597  1.00  0.00    -0.028 C 
ATOM      3  C   UNL     1      -5.080  31.153  27.784  1.00  0.00    -0.077 C 
ATOM      4  C   UNL     1      -3.741  30.553  27.421  1.00  0.00     0.039 C 
BRANCH   3   5
ATOM      5  C   UNL     1      -5.456  32.509  27.229  1.00  0.00     0.034 C 
BRANCH   5   6
ATOM      6  C   UNL     1      -4.313  33.096  26.395  1.00  0.00     0.032 C 
BRANCH   6   7
ATOM      7  C   UNL     1      -4.656  33.071  24.927  1.00  0.00    -0.028 C 
ATOM      8  C   UNL     1      -5.588  33.895  22.808  1.00  0.00     0.039 C 
ATOM      9  C   UNL     1      -5.274  34.077  24.270  1.00  0.00    -0.080 C 
ATOM     10  C   UNL     1      -5.637  35.376  24.953  1.00  0.00     0.039 C 
ENDBRANCH   6   7
ENDBRANCH   5   6
ENDBRANCH   3   5
ENDBRANCH   1   2
BRANCH   1  11
ATOM     11  C   UNL     1      -4.641  29.178  30.258  1.00  0.00     0.034 C 
BRANCH  11  12
ATOM     12  C   UNL     1      -3.691  28.011  30.107  1.00  0.00    -0.077 C 
ATOM     13  C   UNL     1      -2.373  28.200  30.346  1.00  0.00    -0.028 C 
ATOM     14  C   UNL     1      -4.243  26.661  29.712  1.00  0.00     0.039 C 
BRANCH  13  15
ATOM     15  C   UNL     1      -1.315  27.137  30.189  1.00  0.00     0.035 C 
BRANCH  15  16
ATOM     16  C   UNL     1      -0.566  27.311  28.860  1.00  0.00     0.079 C 
BRANCH  16  17
ATOM     17  C   UNL     1      -0.495  26.059  28.015  1.00  0.00     0.130 C 
ATOM     18  O   UNL     1       0.527  25.389  28.058  1.00  0.00    -0.300 OA
ATOM     19  C   UNL     1      -1.618  25.605  27.123  1.00  0.00     0.087 C 
ENDBRANCH  16  17
ENDBRANCH  15  16
ENDBRANCH  13  15
ENDBRANCH  11  12
ENDBRANCH   1  11
TORSDOF 9
ENDMDL
MODEL 2
REMARK VINA RESULT:    -7.211      2.726      7.513
REMARK INTER + INTRA:         -11.959
REMARK INTER:                 -11.042
REMARK INTRA:                  -0.917
REMARK UNBOUND:                -0.954
REMARK SMILES CC(=O)CCC=C(C)CCC=C(C)CCC=C(C)C
REMARK SMILES IDX 10 1 11 2 12 3 13 4 14 5 15 6 16 7 18 8 17 9 19 10 9 11 7 12
REMARK SMILES IDX 6 13 8 14 5 15 4 16 2 17 3 18 1 19
REMARK H PARENT
REMARK Flexibility Score: inf
ROOT
ATOM      1  C   UNL     1      -5.902  29.201  29.387  1.00  0.00     0.032 C 
ENDROOT
BRANCH   1   2
ATOM      2  C   UNL     1      -4.596  28.968  30.103  1.00  0.00    -0.028 C 
ATOM      3  C   UNL     1      -4.002  27.759  30.239  1.00  0.00    -0.077 C 
ATOM      4  C   UNL     1      -4.642  26.494  29.716  1.00  0.00     0.039 C 
BRANCH   3   5
ATOM      5  C   UNL     1      -2.663  27.674  30.937  1.00  0.00     0.034 C 
BRANCH   5   6
ATOM      6  C   UNL     1      -1.551  28.264  30.064  1.00  0.00     0.032 C 
BRANCH   6   7
ATOM      7  C   UNL     1      -0.661  27.172  29.524  1.00  0.00    -0.028 C 
ATOM      8  C   UNL     1       0.126  25.480  27.925  1.00  0.00     0.039 C 
ATOM      9  C   UNL     1      -0.818  26.586  28.316  1.00  0.00    -0.080 C 
ATOM     10  C   UNL     1      -1.895  27.022  27.349  1.00  0.00     0.039 C 
ENDBRANCH   6   7
ENDBRANCH   5   6
ENDBRANCH   3   5
ENDBRANCH   1   2
BRANCH   1  11
ATOM     11  C   UNL     1      -6.085  30.688  29.062  1.00  0.00     0.034 C 
BRANCH  11  12
ATOM     12  C   UNL     1      -5.183  31.102  27.922  1.00  0.00    -0.077 C 
ATOM     13  C   UNL     1      -5.232  32.379  27.475  1.00  0.00    -0.028 C 
ATOM     14  C   UNL     1      -4.239  30.085  27.325  1.00  0.00     0.039 C 
BRANCH  13  15
ATOM     15  C   UNL     1      -4.421  32.910  26.320  1.00  0.00     0.035 C 
BRANCH  15  16
ATOM     16  C   UNL     1      -5.226  32.833  25.014  1.00  0.00     0.079 C 
BRANCH  16  17
ATOM     17  C   UNL     1      -5.313  34.138  24.256  1.00  0.00     0.130 C 
ATOM     18  O   UNL     1      -5.035  34.135  23.065  1.00  0.00    -0.300 OA
ATOM     19  C   UNL     1      -5.717  35.436  24.900  1.00  0.00     0.087 C 
ENDBRANCH  16  17
ENDBRANCH  15  16
ENDBRANCH  13  15
ENDBRANCH  11  12
ENDBRANCH   1  11
TORSDOF 9
ENDMDL
MODEL 3
REMARK VINA RESULT:    -5.993      2.584      7.819
REMARK INTER + INTRA:         -10.100
REMARK INTER:                  -9.016
REMARK INTRA:                  -1.085
REMARK UNBOUND:                -0.954
REMARK SMILES CC(=O)CCC=C(C)CCC=C(C)CCC=C(C)C
REMARK SMILES IDX 10 1 11 2 12 3 13 4 14 5 15 6 16 7 18 8 17 9 19 10 9 11 7 12
REMARK SMILES IDX 6 13 8 14 5 15 4 16 2 17 3 18 1 19
REMARK H PARENT
REMARK Flexibility Score: inf
ROOT
ATOM      1  C   UNL     1      -4.232  30.849  27.974  1.00  0.00     0.032 C 
ENDROOT
BRANCH   1   2
ATOM      2  C   UNL     1      -4.650  29.435  28.291  1.00  0.00    -0.028 C 
ATOM      3  C   UNL     1      -4.415  28.814  29.471  1.00  0.00    -0.077 C 
ATOM      4  C   UNL     1      -3.643  29.483  30.585  1.00  0.00     0.039 C 
BRANCH   3   5
ATOM      5  C   UNL     1      -4.936  27.408  29.676  1.00  0.00     0.034 C 
BRANCH   5   6
ATOM      6  C   UNL     1      -3.787  26.433  29.952  1.00  0.00     0.032 C 
BRANCH   6   7
ATOM      7  C   UNL     1      -3.118  26.017  28.666  1.00  0.00    -0.028 C 
ATOM      8  C   UNL     1      -1.359  25.950  26.951  1.00  0.00     0.039 C 
ATOM      9  C   UNL     1      -1.884  26.416  28.284  1.00  0.00    -0.080 C 
ATOM     10  C   UNL     1      -1.019  27.293  29.160  1.00  0.00     0.039 C 
ENDBRANCH   6   7
ENDBRANCH   5   6
ENDBRANCH   3   5
ENDBRANCH   1   2
BRANCH   1  11
ATOM     11  C   UNL     1      -5.402  31.639  27.379  1.00  0.00     0.034 C 
BRANCH  11  12
ATOM     12  C   UNL     1      -4.915  32.925  26.750  1.00  0.00    -0.077 C 
ATOM     13  C   UNL     1      -5.751  33.622  25.946  1.00  0.00    -0.028 C 
ATOM     14  C   UNL     1      -3.515  33.406  27.052  1.00  0.00     0.039 C 
BRANCH  13  15
ATOM     15  C   UNL     1      -5.379  34.892  25.222  1.00  0.00     0.035 C 
BRANCH  15  16
ATOM     16  C   UNL     1      -5.807  34.820  23.749  1.00  0.00     0.079 C 
BRANCH  16  17
ATOM     17  C   UNL     1      -5.257  33.628  22.998  1.00  0.00     0.130 C 
ATOM     18  O   UNL     1      -4.143  33.220  23.294  1.00  0.00    -0.300 OA
ATOM     19  C   UNL     1      -6.014  32.929  21.901  1.00  0.00     0.087 C 
ENDBRANCH  16  17
ENDBRANCH  15  16
ENDBRANCH  13  15
ENDBRANCH  11  12
ENDBRANCH   1  11
TORSDOF 9
ENDMDL
MODEL 4
REMARK VINA RESULT:    -5.386      1.040      1.741
REMARK INTER + INTRA:          -9.173
REMARK INTER:                  -8.494
REMARK INTRA:                  -0.679
REMARK UNBOUND:                -0.954
REMARK SMILES CC(=O)CCC=C(C)CCC=C(C)CCC=C(C)C
REMARK SMILES IDX 10 1 11 2 12 3 13 4 14 5 15 6 16 7 18 8 17 9 19 10 9 11 7 12
REMARK SMILES IDX 6 13 8 14 5 15 4 16 2 17 3 18 1 19
REMARK H PARENT
REMARK Flexibility Score: inf
ROOT
ATOM      1  C   UNL     1      -4.475  29.450  27.863  1.00  0.00     0.032 C 
ENDROOT
BRANCH   1   2
ATOM      2  C   UNL     1      -3.898  30.792  27.488  1.00  0.00    -0.028 C 
ATOM      3  C   UNL     1      -4.586  31.957  27.519  1.00  0.00    -0.077 C 
ATOM      4  C   UNL     1      -6.051  32.007  27.890  1.00  0.00     0.039 C 
BRANCH   3   5
ATOM      5  C   UNL     1      -3.869  33.241  27.168  1.00  0.00     0.034 C 
BRANCH   5   6
ATOM      6  C   UNL     1      -4.684  34.068  26.167  1.00  0.00     0.032 C 
BRANCH   6   7
ATOM      7  C   UNL     1      -4.904  33.295  24.891  1.00  0.00    -0.028 C 
ATOM      8  C   UNL     1      -5.745  32.869  22.622  1.00  0.00     0.039 C 
ATOM      9  C   UNL     1      -5.570  33.771  23.815  1.00  0.00    -0.080 C 
ATOM     10  C   UNL     1      -6.121  35.178  23.773  1.00  0.00     0.039 C 
ENDBRANCH   6   7
ENDBRANCH   5   6
ENDBRANCH   3   5
ENDBRANCH   1   2
BRANCH   1  11
ATOM     11  C   UNL     1      -4.141  29.103  29.318  1.00  0.00     0.034 C 
BRANCH  11  12
ATOM     12  C   UNL     1      -3.596  27.696  29.422  1.00  0.00    -0.077 C 
ATOM     13  C   UNL     1      -3.222  27.050  28.293  1.00  0.00    -0.028 C 
ATOM     14  C   UNL     1      -3.467  27.058  30.785  1.00  0.00     0.039 C 
BRANCH  13  15
ATOM     15  C   UNL     1      -2.706  25.634  28.251  1.00  0.00     0.035 C 
BRANCH  15  16
ATOM     16  C   UNL     1      -1.432  25.549  27.397  1.00  0.00     0.079 C 
BRANCH  16  17
ATOM     17  C   UNL     1      -0.165  25.938  28.126  1.00  0.00     0.130 C 
ATOM     18  O   UNL     1       0.869  25.349  27.845  1.00  0.00    -0.300 OA
ATOM     19  C   UNL     1      -0.122  27.010  29.181  1.00  0.00     0.087 C 
ENDBRANCH  16  17
ENDBRANCH  15  16
ENDBRANCH  13  15
ENDBRANCH  11  12
ENDBRANCH   1  11
TORSDOF 9
ENDMDL
