MODEL 1
REMARK VINA RESULT:    -7.736      0.000      0.000
REMARK INTER + INTRA:          -8.152
REMARK INTER:                  -8.414
REMARK INTRA:                   0.262
REMARK UNBOUND:                 0.262
REMARK SMILES C[C@@H]1[C@@H](C)CC[C@]2(C(=O)[O-])CC[C@@]3(C)C(=CC[C@H]4[C@]5(C)CC[C@@H](O)C(C)(C)[C@@H]5CC[C@@]43C)[C@@H]12
REMARK SMILES IDX 7 1 6 2 11 3 33 4 5 5 12 6 15 7 2 8 3 9 13 10 16 11 1 12
REMARK SMILES IDX 4 13 14 14 31 15 17 16 18 17 30 18 32 19 19 20 29 21 28 22
REMARK SMILES IDX 21 23 20 24 25 25 22 26 23 27 26 28 27 29 8 30 9 31 10 32
REMARK SMILES IDX 24 33
REMARK H PARENT 24 34
REMARK Flexibility Score: inf
ROOT
ATOM      1  C   UNL     1      -0.839   0.810  -4.553  1.00  0.00     0.017 C 
ATOM      2  C   UNL     1      -1.780  -0.028  -5.498  1.00  0.00     0.014 C 
ATOM      3  C   UNL     1      -1.028   2.340  -4.886  1.00  0.00     0.014 C 
ATOM      4  C   UNL     1       0.679   0.440  -4.742  1.00  0.00     0.030 C 
ATOM      5  C   UNL     1      -1.069  -1.117  -6.302  1.00  0.00     0.004 C 
ATOM      6  C   UNL     1       0.243   3.219  -4.765  1.00  0.00     0.013 C 
ATOM      7  C   UNL     1       1.559   1.302  -3.795  1.00  0.00    -0.063 C 
ATOM      8  C   UNL     1       0.990  -1.111  -4.769  1.00  0.00    -0.003 C 
ATOM      9  C   UNL     1      -0.144  -1.972  -5.427  1.00  0.00    -0.011 C 
ATOM     10  C   UNL     1       1.228   2.801  -3.624  1.00  0.00    -0.006 C 
ATOM     11  C   UNL     1       2.614   0.784  -3.117  1.00  0.00    -0.027 C 
ATOM     12  C   UNL     1       2.361  -1.378  -5.466  1.00  0.00     0.008 C 
ATOM     13  C   UNL     1      -0.936  -2.799  -4.396  1.00  0.00     0.008 C 
ATOM     14  C   UNL     1       0.486   2.977  -2.246  1.00  0.00     0.017 C 
ATOM     15  C   UNL     1       2.588   3.662  -3.648  1.00  0.00    -0.020 C 
ATOM     16  C   UNL     1       3.801   1.599  -2.672  1.00  0.00     0.032 C 
ATOM     17  C   UNL     1       3.523   3.113  -2.497  1.00  0.00     0.006 C 
ATOM     18  C   UNL     1       2.287   5.193  -3.438  1.00  0.00     0.008 C 
ATOM     19  C   UNL     1       3.306   3.514  -5.028  1.00  0.00     0.012 C 
ATOM     20  C   UNL     1       4.816   3.982  -2.094  1.00  0.00    -0.025 C 
ATOM     21  C   UNL     1       3.078   5.851  -2.300  1.00  0.00     0.005 C 
ATOM     22  C   UNL     1       4.594   5.531  -2.409  1.00  0.00     0.003 C 
ATOM     23  C   UNL     1       5.041   3.763  -0.558  1.00  0.00     0.010 C 
ATOM     24  C   UNL     1       6.082   3.456  -2.840  1.00  0.00     0.012 C 
ATOM     25  C   UNL     1       5.533   6.563  -1.608  1.00  0.00    -0.006 C 
ATOM     26  C   UNL     1       6.074   4.688   0.073  1.00  0.00     0.033 C 
ATOM     27  C   UNL     1       5.654   6.153  -0.108  1.00  0.00     0.120 C 
ATOM     28  C   UNL     1       6.945   6.669  -2.272  1.00  0.00     0.014 C 
ATOM     29  C   UNL     1       4.954   8.007  -1.646  1.00  0.00     0.014 C 
ENDROOT
BRANCH   1  30
ATOM     30  C   UNL     1      -1.291   0.551  -3.114  1.00  0.00     0.048 C 
ATOM     31  O   UNL     1      -0.645  -0.212  -2.345  1.00  0.00    -0.550 OA
ATOM     32  O   UNL     1      -2.448   1.143  -2.632  1.00  0.00    -0.550 OA
ENDBRANCH   1  30
BRANCH  27  33
ATOM     33  O   UNL     1       6.513   7.014   0.606  1.00  0.00    -0.393 OA
ATOM     34  H   UNL     1       5.983   7.792   0.924  1.00  0.00     0.210 HD
ENDBRANCH  27  33
TORSDOF 2
ENDMDL
MODEL 2
REMARK VINA RESULT:    -7.642      2.634      7.763
REMARK INTER + INTRA:          -8.050
REMARK INTER:                  -8.307
REMARK INTRA:                   0.257
REMARK UNBOUND:                 0.262
REMARK SMILES C[C@@H]1[C@@H](C)CC[C@]2(C(=O)[O-])CC[C@@]3(C)C(=CC[C@H]4[C@]5(C)CC[C@@H](O)C(C)(C)[C@@H]5CC[C@@]43C)[C@@H]12
REMARK SMILES IDX 7 1 6 2 11 3 33 4 5 5 12 6 15 7 2 8 3 9 13 10 16 11 1 12
REMARK SMILES IDX 4 13 14 14 31 15 17 16 18 17 30 18 32 19 19 20 29 21 28 22
REMARK SMILES IDX 21 23 20 24 25 25 22 26 23 27 26 28 27 29 8 30 9 31 10 32
REMARK SMILES IDX 24 33
REMARK H PARENT 24 34
REMARK Flexibility Score: inf
ROOT
ATOM      1  C   UNL     1       6.579   3.123  -3.142  1.00  0.00     0.017 C 
ATOM      2  C   UNL     1       8.038   3.587  -2.777  1.00  0.00     0.014 C 
ATOM      3  C   UNL     1       6.276   3.546  -4.631  1.00  0.00     0.014 C 
ATOM      4  C   UNL     1       5.494   3.775  -2.207  1.00  0.00     0.030 C 
ATOM      5  C   UNL     1       8.137   4.454  -1.522  1.00  0.00     0.004 C 
ATOM      6  C   UNL     1       4.814   3.967  -4.929  1.00  0.00     0.013 C 
ATOM      7  C   UNL     1       4.076   3.291  -2.618  1.00  0.00    -0.063 C 
ATOM      8  C   UNL     1       5.829   3.727  -0.662  1.00  0.00    -0.003 C 
ATOM      9  C   UNL     1       7.360   3.856  -0.343  1.00  0.00    -0.011 C 
ATOM     10  C   UNL     1       3.724   3.191  -4.118  1.00  0.00    -0.006 C 
ATOM     11  C   UNL     1       3.131   2.959  -1.702  1.00  0.00    -0.027 C 
ATOM     12  C   UNL     1       5.013   4.815   0.105  1.00  0.00     0.008 C 
ATOM     13  C   UNL     1       7.979   2.528   0.135  1.00  0.00     0.008 C 
ATOM     14  C   UNL     1       3.795   1.672  -4.530  1.00  0.00     0.017 C 
ATOM     15  C   UNL     1       2.247   3.777  -4.369  1.00  0.00    -0.020 C 
ATOM     16  C   UNL     1       1.649   3.043  -1.965  1.00  0.00     0.032 C 
ATOM     17  C   UNL     1       1.246   2.959  -3.458  1.00  0.00     0.006 C 
ATOM     18  C   UNL     1       1.844   3.655  -5.886  1.00  0.00     0.008 C 
ATOM     19  C   UNL     1       2.186   5.293  -3.993  1.00  0.00     0.012 C 
ATOM     20  C   UNL     1      -0.332   3.125  -3.729  1.00  0.00    -0.025 C 
ATOM     21  C   UNL     1       0.511   2.938  -6.140  1.00  0.00     0.005 C 
ATOM     22  C   UNL     1      -0.620   3.520  -5.248  1.00  0.00     0.003 C 
ATOM     23  C   UNL     1      -0.991   1.743  -3.390  1.00  0.00     0.010 C 
ATOM     24  C   UNL     1      -0.942   4.192  -2.768  1.00  0.00     0.012 C 
ATOM     25  C   UNL     1      -2.100   3.213  -5.797  1.00  0.00    -0.006 C 
ATOM     26  C   UNL     1      -2.450   1.613  -3.808  1.00  0.00     0.033 C 
ATOM     27  C   UNL     1      -2.586   1.807  -5.324  1.00  0.00     0.120 C 
ATOM     28  C   UNL     1      -3.106   4.326  -5.355  1.00  0.00     0.014 C 
ATOM     29  C   UNL     1      -2.144   3.217  -7.353  1.00  0.00     0.014 C 
ENDROOT
BRANCH   1  30
ATOM     30  C   UNL     1       6.545   1.596  -3.037  1.00  0.00     0.048 C 
ATOM     31  O   UNL     1       6.087   1.013  -2.019  1.00  0.00    -0.550 OA
ATOM     32  O   UNL     1       7.048   0.819  -4.069  1.00  0.00    -0.550 OA
ENDBRANCH   1  30
BRANCH  27  33
ATOM     33  O   UNL     1      -3.902   1.534  -5.750  1.00  0.00    -0.393 OA
ATOM     34  H   UNL     1      -4.296   2.374  -6.107  1.00  0.00     0.210 HD
ENDBRANCH  27  33
TORSDOF 2
ENDMDL
MODEL 3
REMARK VINA RESULT:    -7.547      3.554      9.812
REMARK INTER + INTRA:          -7.946
REMARK INTER:                  -8.204
REMARK INTRA:                   0.258
REMARK UNBOUND:                 0.262
REMARK SMILES C[C@@H]1[C@@H](C)CC[C@]2(C(=O)[O-])CC[C@@]3(C)C(=CC[C@H]4[C@]5(C)CC[C@@H](O)C(C)(C)[C@@H]5CC[C@@]43C)[C@@H]12
REMARK SMILES IDX 7 1 6 2 11 3 33 4 5 5 12 6 15 7 2 8 3 9 13 10 16 11 1 12
REMARK SMILES IDX 4 13 14 14 31 15 17 16 18 17 30 18 32 19 19 20 29 21 28 22
REMARK SMILES IDX 21 23 20 24 25 25 22 26 23 27 26 28 27 29 8 30 9 31 10 32
REMARK SMILES IDX 24 33
REMARK H PARENT 24 34
REMARK Flexibility Score: inf
ROOT
ATOM      1  C   UNL     1       0.829   0.375  -5.660  1.00  0.00     0.017 C 
ATOM      2  C   UNL     1       1.423   1.543  -6.532  1.00  0.00     0.014 C 
ATOM      3  C   UNL     1       0.437  -0.816  -6.616  1.00  0.00     0.014 C 
ATOM      4  C   UNL     1      -0.453   0.819  -4.862  1.00  0.00     0.030 C 
ATOM      5  C   UNL     1       0.740   2.897  -6.337  1.00  0.00     0.004 C 
ATOM      6  C   UNL     1      -0.822  -1.623  -6.208  1.00  0.00     0.013 C 
ATOM      7  C   UNL     1      -1.001  -0.372  -4.029  1.00  0.00    -0.063 C 
ATOM      8  C   UNL     1      -0.322   2.202  -4.105  1.00  0.00    -0.003 C 
ATOM      9  C   UNL     1       0.572   3.251  -4.854  1.00  0.00    -0.011 C 
ATOM     10  C   UNL     1      -1.036  -1.778  -4.666  1.00  0.00    -0.006 C 
ATOM     11  C   UNL     1      -1.457  -0.219  -2.760  1.00  0.00    -0.027 C 
ATOM     12  C   UNL     1      -1.736   2.794  -3.808  1.00  0.00     0.008 C 
ATOM     13  C   UNL     1       1.931   3.473  -4.162  1.00  0.00     0.008 C 
ATOM     14  C   UNL     1       0.174  -2.602  -4.083  1.00  0.00     0.017 C 
ATOM     15  C   UNL     1      -2.431  -2.498  -4.314  1.00  0.00    -0.020 C 
ATOM     16  C   UNL     1      -2.481  -1.124  -2.126  1.00  0.00     0.032 C 
ATOM     17  C   UNL     1      -2.563  -2.544  -2.739  1.00  0.00     0.006 C 
ATOM     18  C   UNL     1      -2.483  -3.951  -4.919  1.00  0.00     0.008 C 
ATOM     19  C   UNL     1      -3.629  -1.699  -4.921  1.00  0.00     0.012 C 
ATOM     20  C   UNL     1      -3.711  -3.476  -2.103  1.00  0.00    -0.025 C 
ATOM     21  C   UNL     1      -2.814  -5.056  -3.907  1.00  0.00     0.005 C 
ATOM     22  C   UNL     1      -4.071  -4.693  -3.069  1.00  0.00     0.003 C 
ATOM     23  C   UNL     1      -3.150  -4.008  -0.739  1.00  0.00     0.010 C 
ATOM     24  C   UNL     1      -4.989  -2.634  -1.795  1.00  0.00     0.012 C 
ATOM     25  C   UNL     1      -4.780  -5.963  -2.383  1.00  0.00    -0.006 C 
ATOM     26  C   UNL     1      -3.987  -5.102  -0.088  1.00  0.00     0.033 C 
ATOM     27  C   UNL     1      -4.097  -6.313  -1.025  1.00  0.00     0.120 C 
ATOM     28  C   UNL     1      -6.312  -5.715  -2.188  1.00  0.00     0.014 C 
ATOM     29  C   UNL     1      -4.683  -7.227  -3.287  1.00  0.00     0.014 C 
ENDROOT
BRANCH   1  30
ATOM     30  C   UNL     1       1.933  -0.089  -4.707  1.00  0.00     0.048 C 
ATOM     31  O   UNL     1       1.976   0.294  -3.507  1.00  0.00    -0.550 OA
ATOM     32  O   UNL     1       2.933  -0.935  -5.162  1.00  0.00    -0.550 OA
ENDBRANCH   1  30
BRANCH  27  33
ATOM     33  O   UNL     1      -4.732  -7.393  -0.378  1.00  0.00    -0.393 OA
ATOM     34  H   UNL     1      -4.279  -7.547   0.493  1.00  0.00     0.210 HD
ENDBRANCH  27  33
TORSDOF 2
ENDMDL
MODEL 4
REMARK VINA RESULT:    -7.524      2.588      9.080
REMARK INTER + INTRA:          -7.921
REMARK INTER:                  -8.179
REMARK INTRA:                   0.258
REMARK UNBOUND:                 0.262
REMARK SMILES C[C@@H]1[C@@H](C)CC[C@]2(C(=O)[O-])CC[C@@]3(C)C(=CC[C@H]4[C@]5(C)CC[C@@H](O)C(C)(C)[C@@H]5CC[C@@]43C)[C@@H]12
REMARK SMILES IDX 7 1 6 2 11 3 33 4 5 5 12 6 15 7 2 8 3 9 13 10 16 11 1 12
REMARK SMILES IDX 4 13 14 14 31 15 17 16 18 17 30 18 32 19 19 20 29 21 28 22
REMARK SMILES IDX 21 23 20 24 25 25 22 26 23 27 26 28 27 29 8 30 9 31 10 32
REMARK SMILES IDX 24 33
REMARK H PARENT 24 34
REMARK Flexibility Score: inf
ROOT
ATOM      1  C   UNL     1       2.626   2.146  -4.685  1.00  0.00     0.017 C 
ATOM      2  C   UNL     1       3.391   3.477  -5.031  1.00  0.00     0.014 C 
ATOM      3  C   UNL     1       2.573   1.246  -5.979  1.00  0.00     0.014 C 
ATOM      4  C   UNL     1       1.152   2.414  -4.201  1.00  0.00     0.030 C 
ATOM      5  C   UNL     1       2.623   4.759  -4.706  1.00  0.00     0.004 C 
ATOM      6  C   UNL     1       1.286   0.402  -6.162  1.00  0.00     0.013 C 
ATOM      7  C   UNL     1       0.443   1.069  -3.884  1.00  0.00    -0.063 C 
ATOM      8  C   UNL     1       1.003   3.557  -3.118  1.00  0.00    -0.003 C 
ATOM      9  C   UNL     1       2.026   4.733  -3.294  1.00  0.00    -0.011 C 
ATOM     10  C   UNL     1       0.651  -0.130  -4.835  1.00  0.00    -0.006 C 
ATOM     11  C   UNL     1      -0.360   0.912  -2.801  1.00  0.00    -0.027 C 
ATOM     12  C   UNL     1      -0.462   4.099  -3.098  1.00  0.00     0.008 C 
ATOM     13  C   UNL     1       3.122   4.732  -2.210  1.00  0.00     0.008 C 
ATOM     14  C   UNL     1       1.680  -1.110  -4.157  1.00  0.00     0.017 C 
ATOM     15  C   UNL     1      -0.754  -0.872  -5.087  1.00  0.00    -0.020 C 
ATOM     16  C   UNL     1      -1.482  -0.092  -2.733  1.00  0.00     0.032 C 
ATOM     17  C   UNL     1      -1.325  -1.309  -3.678  1.00  0.00     0.006 C 
ATOM     18  C   UNL     1      -0.569  -2.123  -6.025  1.00  0.00     0.008 C 
ATOM     19  C   UNL     1      -1.765   0.091  -5.791  1.00  0.00     0.012 C 
ATOM     20  C   UNL     1      -2.565  -2.335  -3.650  1.00  0.00    -0.025 C 
ATOM     21  C   UNL     1      -1.125  -3.436  -5.459  1.00  0.00     0.005 C 
ATOM     22  C   UNL     1      -2.583  -3.258  -4.951  1.00  0.00     0.003 C 
ATOM     23  C   UNL     1      -2.391  -3.211  -2.361  1.00  0.00     0.010 C 
ATOM     24  C   UNL     1      -3.913  -1.560  -3.520  1.00  0.00     0.012 C 
ATOM     25  C   UNL     1      -3.401  -4.638  -4.836  1.00  0.00    -0.006 C 
ATOM     26  C   UNL     1      -3.330  -4.407  -2.271  1.00  0.00     0.033 C 
ATOM     27  C   UNL     1      -3.116  -5.339  -3.472  1.00  0.00     0.120 C 
ATOM     28  C   UNL     1      -4.935  -4.400  -5.030  1.00  0.00     0.014 C 
ATOM     29  C   UNL     1      -2.998  -5.636  -5.961  1.00  0.00     0.014 C 
ENDROOT
BRANCH   1  30
ATOM     30  C   UNL     1       3.433   1.423  -3.604  1.00  0.00     0.048 C 
ATOM     31  O   UNL     1       3.127   1.503  -2.384  1.00  0.00    -0.550 OA
ATOM     32  O   UNL     1       4.546   0.675  -3.954  1.00  0.00    -0.550 OA
ENDBRANCH   1  30
BRANCH  27  33
ATOM     33  O   UNL     1      -3.862  -6.527  -3.324  1.00  0.00    -0.393 OA
ATOM     34  H   UNL     1      -4.241  -6.547  -2.406  1.00  0.00     0.210 HD
ENDBRANCH  27  33
TORSDOF 2
ENDMDL
MODEL 5
REMARK VINA RESULT:    -7.472      4.857      9.649
REMARK INTER + INTRA:          -7.864
REMARK INTER:                  -8.116
REMARK INTRA:                   0.252
REMARK UNBOUND:                 0.262
REMARK SMILES C[C@@H]1[C@@H](C)CC[C@]2(C(=O)[O-])CC[C@@]3(C)C(=CC[C@H]4[C@]5(C)CC[C@@H](O)C(C)(C)[C@@H]5CC[C@@]43C)[C@@H]12
REMARK SMILES IDX 7 1 6 2 11 3 33 4 5 5 12 6 15 7 2 8 3 9 13 10 16 11 1 12
REMARK SMILES IDX 4 13 14 14 31 15 17 16 18 17 30 18 32 19 19 20 29 21 28 22
REMARK SMILES IDX 21 23 20 24 25 25 22 26 23 27 26 28 27 29 8 30 9 31 10 32
REMARK SMILES IDX 24 33
REMARK H PARENT 24 34
REMARK Flexibility Score: inf
ROOT
ATOM      1  C   UNL     1      -0.808   1.583  -5.651  1.00  0.00     0.017 C 
ATOM      2  C   UNL     1      -0.263   2.415  -6.872  1.00  0.00     0.014 C 
ATOM      3  C   UNL     1      -0.041   0.206  -5.599  1.00  0.00     0.014 C 
ATOM      4  C   UNL     1      -2.350   1.292  -5.768  1.00  0.00     0.030 C 
ATOM      5  C   UNL     1      -1.337   2.892  -7.849  1.00  0.00     0.004 C 
ATOM      6  C   UNL     1      -0.873  -1.013  -5.125  1.00  0.00     0.013 C 
ATOM      7  C   UNL     1      -2.831   0.462  -4.546  1.00  0.00    -0.063 C 
ATOM      8  C   UNL     1      -3.237   2.543  -6.158  1.00  0.00    -0.003 C 
ATOM      9  C   UNL     1      -2.524   3.546  -7.130  1.00  0.00    -0.011 C 
ATOM     10  C   UNL     1      -1.946  -0.695  -4.032  1.00  0.00    -0.006 C 
ATOM     11  C   UNL     1      -4.006   0.715  -3.916  1.00  0.00    -0.027 C 
ATOM     12  C   UNL     1      -4.603   2.075  -6.753  1.00  0.00     0.008 C 
ATOM     13  C   UNL     1      -2.117   4.859  -6.433  1.00  0.00     0.008 C 
ATOM     14  C   UNL     1      -1.198  -0.193  -2.740  1.00  0.00     0.017 C 
ATOM     15  C   UNL     1      -2.866  -1.971  -3.693  1.00  0.00    -0.020 C 
ATOM     16  C   UNL     1      -4.786  -0.326  -3.156  1.00  0.00     0.032 C 
ATOM     17  C   UNL     1      -3.944  -1.514  -2.629  1.00  0.00     0.006 C 
ATOM     18  C   UNL     1      -1.997  -3.157  -3.131  1.00  0.00     0.008 C 
ATOM     19  C   UNL     1      -3.582  -2.489  -4.982  1.00  0.00     0.012 C 
ATOM     20  C   UNL     1      -4.801  -2.656  -1.885  1.00  0.00    -0.025 C 
ATOM     21  C   UNL     1      -2.474  -3.720  -1.786  1.00  0.00     0.005 C 
ATOM     22  C   UNL     1      -3.996  -4.031  -1.813  1.00  0.00     0.003 C 
ATOM     23  C   UNL     1      -5.097  -2.120  -0.441  1.00  0.00     0.010 C 
ATOM     24  C   UNL     1      -6.170  -2.868  -2.604  1.00  0.00     0.012 C 
ATOM     25  C   UNL     1      -4.464  -5.074  -0.682  1.00  0.00    -0.006 C 
ATOM     26  C   UNL     1      -5.694  -3.150   0.511  1.00  0.00     0.033 C 
ATOM     27  C   UNL     1      -4.739  -4.341   0.668  1.00  0.00     0.120 C 
ATOM     28  C   UNL     1      -5.723  -5.878  -1.145  1.00  0.00     0.014 C 
ATOM     29  C   UNL     1      -3.371  -6.148  -0.409  1.00  0.00     0.014 C 
ENDROOT
BRANCH   1  30
ATOM     30  C   UNL     1      -0.496   2.379  -4.381  1.00  0.00     0.048 C 
ATOM     31  O   UNL     1      -1.374   3.078  -3.806  1.00  0.00    -0.550 OA
ATOM     32  O   UNL     1       0.783   2.360  -3.847  1.00  0.00    -0.550 OA
ENDBRANCH   1  30
BRANCH  27  33
ATOM     33  O   UNL     1      -5.199  -5.227   1.664  1.00  0.00    -0.393 OA
ATOM     34  H   UNL     1      -5.782  -4.720   2.288  1.00  0.00     0.210 HD
ENDBRANCH  27  33
TORSDOF 2
ENDMDL
MODEL 6
REMARK VINA RESULT:    -7.450      6.994     11.029
REMARK INTER + INTRA:          -7.841
REMARK INTER:                  -8.107
REMARK INTRA:                   0.266
REMARK UNBOUND:                 0.262
REMARK SMILES C[C@@H]1[C@@H](C)CC[C@]2(C(=O)[O-])CC[C@@]3(C)C(=CC[C@H]4[C@]5(C)CC[C@@H](O)C(C)(C)[C@@H]5CC[C@@]43C)[C@@H]12
REMARK SMILES IDX 7 1 6 2 11 3 33 4 5 5 12 6 15 7 2 8 3 9 13 10 16 11 1 12
REMARK SMILES IDX 4 13 14 14 31 15 17 16 18 17 30 18 32 19 19 20 29 21 28 22
REMARK SMILES IDX 21 23 20 24 25 25 22 26 23 27 26 28 27 29 8 30 9 31 10 32
REMARK SMILES IDX 24 33
REMARK H PARENT 24 34
REMARK Flexibility Score: inf
ROOT
ATOM      1  C   UNL     1      -1.827  -2.889  -5.079  1.00  0.00     0.017 C 
ATOM      2  C   UNL     1      -1.151  -3.007  -6.496  1.00  0.00     0.014 C 
ATOM      3  C   UNL     1      -1.669  -4.269  -4.331  1.00  0.00     0.014 C 
ATOM      4  C   UNL     1      -3.360  -2.545  -5.175  1.00  0.00     0.030 C 
ATOM      5  C   UNL     1      -2.060  -2.635  -7.669  1.00  0.00     0.004 C 
ATOM      6  C   UNL     1      -2.851  -4.680  -3.416  1.00  0.00     0.013 C 
ATOM      7  C   UNL     1      -3.976  -2.451  -3.752  1.00  0.00    -0.063 C 
ATOM      8  C   UNL     1      -3.719  -1.371  -6.173  1.00  0.00    -0.003 C 
ATOM      9  C   UNL     1      -2.791  -1.308  -7.436  1.00  0.00    -0.011 C 
ATOM     10  C   UNL     1      -3.567  -3.494  -2.689  1.00  0.00    -0.006 C 
ATOM     11  C   UNL     1      -4.867  -1.486  -3.411  1.00  0.00    -0.027 C 
ATOM     12  C   UNL     1      -5.220  -1.456  -6.594  1.00  0.00     0.008 C 
ATOM     13  C   UNL     1      -1.815  -0.117  -7.396  1.00  0.00     0.008 C 
ATOM     14  C   UNL     1      -2.528  -2.814  -1.720  1.00  0.00     0.017 C 
ATOM     15  C   UNL     1      -4.868  -3.976  -1.874  1.00  0.00    -0.020 C 
ATOM     16  C   UNL     1      -5.896  -1.648  -2.322  1.00  0.00     0.032 C 
ATOM     17  C   UNL     1      -5.537  -2.693  -1.237  1.00  0.00     0.006 C 
ATOM     18  C   UNL     1      -4.478  -5.014  -0.757  1.00  0.00     0.008 C 
ATOM     19  C   UNL     1      -5.883  -4.682  -2.831  1.00  0.00     0.012 C 
ATOM     20  C   UNL     1      -6.677  -2.910  -0.122  1.00  0.00    -0.025 C 
ATOM     21  C   UNL     1      -4.970  -4.654   0.652  1.00  0.00     0.005 C 
ATOM     22  C   UNL     1      -6.482  -4.295   0.645  1.00  0.00     0.003 C 
ATOM     23  C   UNL     1      -6.557  -1.708   0.879  1.00  0.00     0.010 C 
ATOM     24  C   UNL     1      -8.095  -2.848  -0.771  1.00  0.00     0.012 C 
ATOM     25  C   UNL     1      -7.182  -4.416   2.088  1.00  0.00    -0.006 C 
ATOM     26  C   UNL     1      -7.391  -1.849   2.146  1.00  0.00     0.033 C 
ATOM     27  C   UNL     1      -6.975  -3.110   2.916  1.00  0.00     0.120 C 
ATOM     28  C   UNL     1      -8.703  -4.751   1.948  1.00  0.00     0.014 C 
ATOM     29  C   UNL     1      -6.580  -5.588   2.917  1.00  0.00     0.014 C 
ENDROOT
BRANCH   1  30
ATOM     30  C   UNL     1      -1.072  -1.808  -4.302  1.00  0.00     0.048 C 
ATOM     31  O   UNL     1      -1.553  -0.655  -4.135  1.00  0.00    -0.550 OA
ATOM     32  O   UNL     1       0.184  -2.078  -3.779  1.00  0.00    -0.550 OA
ENDBRANCH   1  30
BRANCH  27  33
ATOM     33  O   UNL     1      -7.623  -3.171   4.167  1.00  0.00    -0.393 OA
ATOM     34  H   UNL     1      -7.271  -2.439   4.739  1.00  0.00     0.210 HD
ENDBRANCH  27  33
TORSDOF 2
ENDMDL
MODEL 7
REMARK VINA RESULT:    -7.430      8.563     12.551
REMARK INTER + INTRA:          -7.819
REMARK INTER:                  -8.143
REMARK INTRA:                   0.324
REMARK UNBOUND:                 0.262
REMARK SMILES C[C@@H]1[C@@H](C)CC[C@]2(C(=O)[O-])CC[C@@]3(C)C(=CC[C@H]4[C@]5(C)CC[C@@H](O)C(C)(C)[C@@H]5CC[C@@]43C)[C@@H]12
REMARK SMILES IDX 7 1 6 2 11 3 33 4 5 5 12 6 15 7 2 8 3 9 13 10 16 11 1 12
REMARK SMILES IDX 4 13 14 14 31 15 17 16 18 17 30 18 32 19 19 20 29 21 28 22
REMARK SMILES IDX 21 23 20 24 25 25 22 26 23 27 26 28 27 29 8 30 9 31 10 32
REMARK SMILES IDX 24 33
REMARK H PARENT 24 34
REMARK Flexibility Score: inf
ROOT
ATOM      1  C   UNL     1      -3.442  -4.162  -2.475  1.00  0.00     0.017 C 
ATOM      2  C   UNL     1      -2.536  -4.900  -3.530  1.00  0.00     0.014 C 
ATOM      3  C   UNL     1      -3.131  -4.752  -1.046  1.00  0.00     0.014 C 
ATOM      4  C   UNL     1      -4.976  -4.349  -2.771  1.00  0.00     0.030 C 
ATOM      5  C   UNL     1      -3.298  -5.530  -4.696  1.00  0.00     0.004 C 
ATOM      6  C   UNL     1      -4.338  -4.845  -0.077  1.00  0.00     0.013 C 
ATOM      7  C   UNL     1      -5.821  -3.611  -1.697  1.00  0.00    -0.063 C 
ATOM      8  C   UNL     1      -5.399  -4.115  -4.277  1.00  0.00    -0.003 C 
ATOM      9  C   UNL     1      -4.311  -4.560  -5.316  1.00  0.00    -0.011 C 
ATOM     10  C   UNL     1      -5.387  -3.693  -0.217  1.00  0.00    -0.006 C 
ATOM     11  C   UNL     1      -6.932  -2.899  -2.013  1.00  0.00    -0.027 C 
ATOM     12  C   UNL     1      -6.764  -4.814  -4.574  1.00  0.00     0.008 C 
ATOM     13  C   UNL     1      -3.616  -3.364  -5.995  1.00  0.00     0.008 C 
ATOM     14  C   UNL     1      -4.679  -2.336   0.154  1.00  0.00     0.017 C 
ATOM     15  C   UNL     1      -6.678  -3.929   0.714  1.00  0.00    -0.020 C 
ATOM     16  C   UNL     1      -8.069  -2.658  -1.054  1.00  0.00     0.032 C 
ATOM     17  C   UNL     1      -7.687  -2.742   0.444  1.00  0.00     0.006 C 
ATOM     18  C   UNL     1      -6.273  -3.981   2.235  1.00  0.00     0.008 C 
ATOM     19  C   UNL     1      -7.361  -5.292   0.368  1.00  0.00     0.012 C 
ATOM     20  C   UNL     1      -8.926  -2.557   1.456  1.00  0.00    -0.025 C 
ATOM     21  C   UNL     1      -7.049  -3.013   3.138  1.00  0.00     0.005 C 
ATOM     22  C   UNL     1      -8.581  -3.130   2.904  1.00  0.00     0.003 C 
ATOM     23  C   UNL     1      -9.215  -1.018   1.532  1.00  0.00     0.010 C 
ATOM     24  C   UNL     1     -10.202  -3.254   0.889  1.00  0.00     0.012 C 
ATOM     25  C   UNL     1      -9.466  -2.568   4.123  1.00  0.00    -0.006 C 
ATOM     26  C   UNL     1     -10.197  -0.607   2.621  1.00  0.00     0.033 C 
ATOM     27  C   UNL     1      -9.665  -1.026   3.999  1.00  0.00     0.120 C 
ATOM     28  C   UNL     1     -10.845  -3.302   4.202  1.00  0.00     0.014 C 
ATOM     29  C   UNL     1      -8.782  -2.835   5.496  1.00  0.00     0.014 C 
ENDROOT
BRANCH   1  30
ATOM     30  C   UNL     1      -3.057  -2.680  -2.501  1.00  0.00     0.048 C 
ATOM     31  O   UNL     1      -2.005  -2.260  -1.949  1.00  0.00    -0.550 OA
ATOM     32  O   UNL     1      -3.885  -1.760  -3.125  1.00  0.00    -0.550 OA
ENDBRANCH   1  30
BRANCH  27  33
ATOM     33  O   UNL     1     -10.481  -0.515   5.029  1.00  0.00    -0.393 OA
ATOM     34  H   UNL     1     -10.484   0.477   4.964  1.00  0.00     0.210 HD
ENDBRANCH  27  33
TORSDOF 2
ENDMDL
MODEL 8
REMARK VINA RESULT:    -7.409      4.399      7.034
REMARK INTER + INTRA:          -7.796
REMARK INTER:                  -8.049
REMARK INTRA:                   0.253
REMARK UNBOUND:                 0.262
REMARK SMILES C[C@@H]1[C@@H](C)CC[C@]2(C(=O)[O-])CC[C@@]3(C)C(=CC[C@H]4[C@]5(C)CC[C@@H](O)C(C)(C)[C@@H]5CC[C@@]43C)[C@@H]12
REMARK SMILES IDX 7 1 6 2 11 3 33 4 5 5 12 6 15 7 2 8 3 9 13 10 16 11 1 12
REMARK SMILES IDX 4 13 14 14 31 15 17 16 18 17 30 18 32 19 19 20 29 21 28 22
REMARK SMILES IDX 21 23 20 24 25 25 22 26 23 27 26 28 27 29 8 30 9 31 10 32
REMARK SMILES IDX 24 33
REMARK H PARENT 24 34
REMARK Flexibility Score: inf
ROOT
ATOM      1  C   UNL     1      -5.230  -2.948  -1.989  1.00  0.00     0.017 C 
ATOM      2  C   UNL     1      -6.625  -3.619  -1.704  1.00  0.00     0.014 C 
ATOM      3  C   UNL     1      -5.476  -1.491  -2.540  1.00  0.00     0.014 C 
ATOM      4  C   UNL     1      -4.389  -3.748  -3.052  1.00  0.00     0.030 C 
ATOM      5  C   UNL     1      -6.838  -4.967  -2.393  1.00  0.00     0.004 C 
ATOM      6  C   UNL     1      -4.468  -0.992  -3.606  1.00  0.00     0.013 C 
ATOM      7  C   UNL     1      -3.030  -3.038  -3.302  1.00  0.00    -0.063 C 
ATOM      8  C   UNL     1      -4.329  -5.311  -2.816  1.00  0.00    -0.003 C 
ATOM      9  C   UNL     1      -5.643  -5.909  -2.202  1.00  0.00    -0.011 C 
ATOM     10  C   UNL     1      -3.000  -1.498  -3.414  1.00  0.00    -0.006 C 
ATOM     11  C   UNL     1      -1.867  -3.725  -3.430  1.00  0.00    -0.027 C 
ATOM     12  C   UNL     1      -3.955  -6.047  -4.141  1.00  0.00     0.008 C 
ATOM     13  C   UNL     1      -5.474  -6.325  -0.728  1.00  0.00     0.008 C 
ATOM     14  C   UNL     1      -2.457  -0.925  -2.050  1.00  0.00     0.017 C 
ATOM     15  C   UNL     1      -2.041  -1.062  -4.631  1.00  0.00    -0.020 C 
ATOM     16  C   UNL     1      -0.680  -3.217  -4.207  1.00  0.00     0.032 C 
ATOM     17  C   UNL     1      -0.611  -1.677  -4.357  1.00  0.00     0.006 C 
ATOM     18  C   UNL     1      -1.960   0.506  -4.748  1.00  0.00     0.008 C 
ATOM     19  C   UNL     1      -2.598  -1.602  -5.988  1.00  0.00     0.012 C 
ATOM     20  C   UNL     1       0.621  -1.153  -5.252  1.00  0.00    -0.025 C 
ATOM     21  C   UNL     1      -0.535   1.075  -4.748  1.00  0.00     0.005 C 
ATOM     22  C   UNL     1       0.368   0.334  -5.772  1.00  0.00     0.003 C 
ATOM     23  C   UNL     1       1.892  -1.202  -4.334  1.00  0.00     0.010 C 
ATOM     24  C   UNL     1       0.868  -2.112  -6.458  1.00  0.00     0.012 C 
ATOM     25  C   UNL     1       1.671   1.168  -6.209  1.00  0.00    -0.006 C 
ATOM     26  C   UNL     1       3.124  -0.520  -4.915  1.00  0.00     0.033 C 
ATOM     27  C   UNL     1       2.830   0.962  -5.186  1.00  0.00     0.120 C 
ATOM     28  C   UNL     1       2.128   0.781  -7.654  1.00  0.00     0.014 C 
ATOM     29  C   UNL     1       1.376   2.696  -6.270  1.00  0.00     0.014 C 
ENDROOT
BRANCH   1  30
ATOM     30  C   UNL     1      -4.484  -2.861  -0.655  1.00  0.00     0.048 C 
ATOM     31  O   UNL     1      -3.599  -3.700  -0.335  1.00  0.00    -0.550 OA
ATOM     32  O   UNL     1      -4.791  -1.854   0.247  1.00  0.00    -0.550 OA
ENDBRANCH   1  30
BRANCH  27  33
ATOM     33  O   UNL     1       4.002   1.644  -5.574  1.00  0.00    -0.393 OA
ATOM     34  H   UNL     1       3.740   2.439  -6.108  1.00  0.00     0.210 HD
ENDBRANCH  27  33
TORSDOF 2
ENDMDL
MODEL 9
REMARK VINA RESULT:    -7.395      2.336      8.447
REMARK INTER + INTRA:          -7.782
REMARK INTER:                  -8.042
REMARK INTRA:                   0.260
REMARK UNBOUND:                 0.262
REMARK SMILES C[C@@H]1[C@@H](C)CC[C@]2(C(=O)[O-])CC[C@@]3(C)C(=CC[C@H]4[C@]5(C)CC[C@@H](O)C(C)(C)[C@@H]5CC[C@@]43C)[C@@H]12
REMARK SMILES IDX 7 1 6 2 11 3 33 4 5 5 12 6 15 7 2 8 3 9 13 10 16 11 1 12
REMARK SMILES IDX 4 13 14 14 31 15 17 16 18 17 30 18 32 19 19 20 29 21 28 22
REMARK SMILES IDX 21 23 20 24 25 25 22 26 23 27 26 28 27 29 8 30 9 31 10 32
REMARK SMILES IDX 24 33
REMARK H PARENT 24 34
REMARK Flexibility Score: inf
ROOT
ATOM      1  C   UNL     1       3.961   2.816  -3.982  1.00  0.00     0.017 C 
ATOM      2  C   UNL     1       5.279   3.652  -4.186  1.00  0.00     0.014 C 
ATOM      3  C   UNL     1       3.778   1.856  -5.221  1.00  0.00     0.014 C 
ATOM      4  C   UNL     1       2.686   3.731  -3.866  1.00  0.00     0.030 C 
ATOM      5  C   UNL     1       5.094   5.167  -4.095  1.00  0.00     0.004 C 
ATOM      6  C   UNL     1       2.316   1.605  -5.670  1.00  0.00     0.013 C 
ATOM      7  C   UNL     1       1.417   2.855  -3.677  1.00  0.00    -0.063 C 
ATOM      8  C   UNL     1       2.837   4.965  -2.888  1.00  0.00    -0.003 C 
ATOM      9  C   UNL     1       4.281   5.577  -2.861  1.00  0.00    -0.011 C 
ATOM     10  C   UNL     1       1.267   1.564  -4.510  1.00  0.00    -0.006 C 
ATOM     11  C   UNL     1       0.430   3.189  -2.807  1.00  0.00    -0.027 C 
ATOM     12  C   UNL     1       1.779   6.062  -3.231  1.00  0.00     0.008 C 
ATOM     13  C   UNL     1       5.032   5.266  -1.552  1.00  0.00     0.008 C 
ATOM     14  C   UNL     1       1.615   0.344  -3.576  1.00  0.00     0.017 C 
ATOM     15  C   UNL     1      -0.241   1.444  -5.058  1.00  0.00    -0.020 C 
ATOM     16  C   UNL     1      -1.005   2.758  -2.968  1.00  0.00     0.032 C 
ATOM     17  C   UNL     1      -1.209   1.473  -3.808  1.00  0.00     0.006 C 
ATOM     18  C   UNL     1      -0.436   0.117  -5.882  1.00  0.00     0.008 C 
ATOM     19  C   UNL     1      -0.575   2.636  -6.012  1.00  0.00     0.012 C 
ATOM     20  C   UNL     1      -2.750   1.066  -4.034  1.00  0.00    -0.025 C 
ATOM     21  C   UNL     1      -1.605  -0.761  -5.417  1.00  0.00     0.005 C 
ATOM     22  C   UNL     1      -2.910   0.070  -5.271  1.00  0.00     0.003 C 
ATOM     23  C   UNL     1      -3.229   0.375  -2.710  1.00  0.00     0.010 C 
ATOM     24  C   UNL     1      -3.625   2.340  -4.250  1.00  0.00     0.012 C 
ATOM     25  C   UNL     1      -4.250  -0.819  -5.302  1.00  0.00    -0.006 C 
ATOM     26  C   UNL     1      -4.591  -0.301  -2.801  1.00  0.00     0.033 C 
ATOM     27  C   UNL     1      -4.571  -1.388  -3.885  1.00  0.00     0.120 C 
ATOM     28  C   UNL     1      -5.458   0.006  -5.857  1.00  0.00     0.014 C 
ATOM     29  C   UNL     1      -4.107  -2.033  -6.265  1.00  0.00     0.014 C 
ENDROOT
BRANCH   1  30
ATOM     30  C   UNL     1       4.146   1.973  -2.718  1.00  0.00     0.048 C 
ATOM     31  O   UNL     1       3.604   2.291  -1.625  1.00  0.00    -0.550 OA
ATOM     32  O   UNL     1       4.944   0.840  -2.750  1.00  0.00    -0.550 OA
ENDBRANCH   1  30
BRANCH  27  33
ATOM     33  O   UNL     1      -5.770  -2.130  -3.875  1.00  0.00    -0.393 OA
ATOM     34  H   UNL     1      -5.591  -3.020  -4.277  1.00  0.00     0.210 HD
ENDBRANCH  27  33
TORSDOF 2
ENDMDL
