MODEL 1
REMARK VINA RESULT:    -3.434      0.000      0.000
REMARK INTER + INTRA:          -6.984
REMARK INTER:                  -5.442
REMARK INTRA:                  -1.542
REMARK UNBOUND:                -1.542
REMARK SMILES CCCCCCCCCCCC(=O)[O-]
REMARK SMILES IDX 7 1 8 2 9 3 10 4 11 5 12 6 13 7 14 8 6 9 5 10 4 11 3 12 2 13
REMARK SMILES IDX 1 14
REMARK H PARENT
REMARK Flexibility Score: inf
ROOT
ATOM      1  C   UNL     1      24.552 -15.840   4.918  1.00  0.00     0.000 C 
ENDROOT
BRANCH   1   2
ATOM      2  C   UNL     1      23.633 -16.117   6.114  1.00  0.00     0.000 C 
BRANCH   2   3
ATOM      3  C   UNL     1      22.229 -16.528   5.646  1.00  0.00     0.000 C 
BRANCH   3   4
ATOM      4  C   UNL     1      21.125 -15.581   6.150  1.00  0.00     0.006 C 
BRANCH   4   5
ATOM      5  C   UNL     1      21.645 -14.220   6.643  1.00  0.00     0.053 C 
BRANCH   5   6
ATOM      6  C   UNL     1      21.470 -14.036   8.119  1.00  0.00     0.041 C 
ATOM      7  O   UNL     1      21.594 -15.018   8.898  1.00  0.00    -0.550 OA
ATOM      8  O   UNL     1      21.208 -12.775   8.641  1.00  0.00    -0.550 OA
ENDBRANCH   5   6
ENDBRANCH   4   5
ENDBRANCH   3   4
ENDBRANCH   2   3
ENDBRANCH   1   2
BRANCH   1   9
ATOM      9  C   UNL     1      24.986 -14.371   4.885  1.00  0.00     0.000 C 
BRANCH   9  10
ATOM     10  C   UNL     1      24.169 -13.578   3.857  1.00  0.00    -0.000 C 
BRANCH  10  11
ATOM     11  C   UNL     1      23.590 -14.504   2.780  1.00  0.00    -0.000 C 
BRANCH  11  12
ATOM     12  C   UNL     1      22.091 -14.241   2.575  1.00  0.00    -0.000 C 
BRANCH  12  13
ATOM     13  C   UNL     1      21.409 -15.333   1.738  1.00  0.00    -0.003 C 
ATOM     14  C   UNL     1      22.071 -16.701   1.897  1.00  0.00     0.004 C 
ENDBRANCH  12  13
ENDBRANCH  11  12
ENDBRANCH  10  11
ENDBRANCH   9  10
ENDBRANCH   1   9
TORSDOF 10
ENDMDL
MODEL 2
REMARK VINA RESULT:    -3.404      2.178      3.520
REMARK INTER + INTRA:          -6.936
REMARK INTER:                  -6.317
REMARK INTRA:                  -0.620
REMARK UNBOUND:                -1.542
REMARK SMILES CCCCCCCCCCCC(=O)[O-]
REMARK SMILES IDX 7 1 8 2 9 3 10 4 11 5 12 6 13 7 14 8 6 9 5 10 4 11 3 12 2 13
REMARK SMILES IDX 1 14
REMARK H PARENT
REMARK Flexibility Score: inf
ROOT
ATOM      1  C   UNL     1      21.839 -14.425   2.950  1.00  0.00     0.000 C 
ENDROOT
BRANCH   1   2
ATOM      2  C   UNL     1      21.989 -15.932   3.192  1.00  0.00     0.000 C 
BRANCH   2   3
ATOM      3  C   UNL     1      21.884 -16.264   4.687  1.00  0.00     0.000 C 
BRANCH   3   4
ATOM      4  C   UNL     1      22.001 -15.024   5.591  1.00  0.00     0.006 C 
BRANCH   4   5
ATOM      5  C   UNL     1      21.051 -15.041   6.801  1.00  0.00     0.053 C 
BRANCH   5   6
ATOM      6  C   UNL     1      21.683 -14.477   8.037  1.00  0.00     0.041 C 
ATOM      7  O   UNL     1      21.656 -15.128   9.116  1.00  0.00    -0.550 OA
ATOM      8  O   UNL     1      22.336 -13.251   7.992  1.00  0.00    -0.550 OA
ENDBRANCH   5   6
ENDBRANCH   4   5
ENDBRANCH   3   4
ENDBRANCH   2   3
ENDBRANCH   1   2
BRANCH   1   9
ATOM      9  C   UNL     1      21.902 -14.098   1.455  1.00  0.00     0.000 C 
BRANCH   9  10
ATOM     10  C   UNL     1      22.924 -12.989   1.176  1.00  0.00    -0.000 C 
BRANCH  10  11
ATOM     11  C   UNL     1      23.865 -12.793   2.370  1.00  0.00    -0.000 C 
BRANCH  11  12
ATOM     12  C   UNL     1      24.727 -11.535   2.192  1.00  0.00    -0.000 C 
BRANCH  12  13
ATOM     13  C   UNL     1      24.118 -10.539   1.194  1.00  0.00    -0.003 C 
ATOM     14  C   UNL     1      24.707  -9.134   1.327  1.00  0.00     0.004 C 
ENDBRANCH  12  13
ENDBRANCH  11  12
ENDBRANCH  10  11
ENDBRANCH   9  10
ENDBRANCH   1   9
TORSDOF 10
ENDMDL
MODEL 3
REMARK VINA RESULT:    -3.403      1.308      3.134
REMARK INTER + INTRA:          -6.934
REMARK INTER:                  -5.727
REMARK INTRA:                  -1.207
REMARK UNBOUND:                -1.542
REMARK SMILES CCCCCCCCCCCC(=O)[O-]
REMARK SMILES IDX 7 1 8 2 9 3 10 4 11 5 12 6 13 7 14 8 6 9 5 10 4 11 3 12 2 13
REMARK SMILES IDX 1 14
REMARK H PARENT
REMARK Flexibility Score: inf
ROOT
ATOM      1  C   UNL     1      21.559 -15.175   1.723  1.00  0.00     0.000 C 
ENDROOT
BRANCH   1   2
ATOM      2  C   UNL     1      22.391 -15.788   2.856  1.00  0.00     0.000 C 
BRANCH   2   3
ATOM      3  C   UNL     1      21.552 -15.947   4.132  1.00  0.00     0.000 C 
BRANCH   3   4
ATOM      4  C   UNL     1      21.990 -15.003   5.265  1.00  0.00     0.006 C 
BRANCH   4   5
ATOM      5  C   UNL     1      21.153 -15.136   6.549  1.00  0.00     0.053 C 
BRANCH   5   6
ATOM      6  C   UNL     1      21.880 -14.649   7.764  1.00  0.00     0.041 C 
ATOM      7  O   UNL     1      22.577 -13.601   7.708  1.00  0.00    -0.550 OA
ATOM      8  O   UNL     1      21.762 -15.329   8.970  1.00  0.00    -0.550 OA
ENDBRANCH   5   6
ENDBRANCH   4   5
ENDBRANCH   3   4
ENDBRANCH   2   3
ENDBRANCH   1   2
BRANCH   1   9
ATOM      9  C   UNL     1      21.938 -13.708   1.493  1.00  0.00     0.000 C 
BRANCH   9  10
ATOM     10  C   UNL     1      23.458 -13.544   1.372  1.00  0.00    -0.000 C 
BRANCH  10  11
ATOM     11  C   UNL     1      23.953 -12.356   2.207  1.00  0.00    -0.000 C 
BRANCH  11  12
ATOM     12  C   UNL     1      24.497 -12.826   3.564  1.00  0.00    -0.000 C 
BRANCH  12  13
ATOM     13  C   UNL     1      25.600 -13.886   3.424  1.00  0.00    -0.003 C 
ATOM     14  C   UNL     1      25.633 -14.864   4.598  1.00  0.00     0.004 C 
ENDBRANCH  12  13
ENDBRANCH  11  12
ENDBRANCH  10  11
ENDBRANCH   9  10
ENDBRANCH   1   9
TORSDOF 10
ENDMDL
MODEL 4
REMARK VINA RESULT:    -3.373      1.139      2.379
REMARK INTER + INTRA:          -6.886
REMARK INTER:                  -5.584
REMARK INTRA:                  -1.302
REMARK UNBOUND:                -1.542
REMARK SMILES CCCCCCCCCCCC(=O)[O-]
REMARK SMILES IDX 7 1 8 2 9 3 10 4 11 5 12 6 13 7 14 8 6 9 5 10 4 11 3 12 2 13
REMARK SMILES IDX 1 14
REMARK H PARENT
REMARK Flexibility Score: inf
ROOT
ATOM      1  C   UNL     1      23.756 -16.634   4.300  1.00  0.00     0.000 C 
ENDROOT
BRANCH   1   2
ATOM      2  C   UNL     1      24.492 -15.292   4.399  1.00  0.00     0.000 C 
BRANCH   2   3
ATOM      3  C   UNL     1      23.772 -14.338   5.363  1.00  0.00     0.000 C 
BRANCH   3   4
ATOM      4  C   UNL     1      22.790 -15.059   6.305  1.00  0.00     0.006 C 
BRANCH   4   5
ATOM      5  C   UNL     1      21.561 -14.217   6.688  1.00  0.00     0.053 C 
BRANCH   5   6
ATOM      6  C   UNL     1      21.486 -13.942   8.159  1.00  0.00     0.041 C 
ATOM      7  O   UNL     1      21.668 -14.874   8.987  1.00  0.00    -0.550 OA
ATOM      8  O   UNL     1      21.253 -12.652   8.619  1.00  0.00    -0.550 OA
ENDBRANCH   5   6
ENDBRANCH   4   5
ENDBRANCH   3   4
ENDBRANCH   2   3
ENDBRANCH   1   2
BRANCH   1   9
ATOM      9  C   UNL     1      23.094 -16.799   2.928  1.00  0.00     0.000 C 
BRANCH   9  10
ATOM     10  C   UNL     1      21.681 -16.203   2.922  1.00  0.00    -0.000 C 
BRANCH  10  11
ATOM     11  C   UNL     1      21.451 -15.340   1.675  1.00  0.00    -0.000 C 
BRANCH  11  12
ATOM     12  C   UNL     1      21.810 -13.872   1.948  1.00  0.00    -0.000 C 
BRANCH  12  13
ATOM     13  C   UNL     1      23.111 -13.443   1.253  1.00  0.00    -0.003 C 
ATOM     14  C   UNL     1      23.897 -12.408   2.057  1.00  0.00     0.004 C 
ENDBRANCH  12  13
ENDBRANCH  11  12
ENDBRANCH  10  11
ENDBRANCH   9  10
ENDBRANCH   1   9
TORSDOF 10
ENDMDL
MODEL 5
REMARK VINA RESULT:    -3.339      1.073      2.715
REMARK INTER + INTRA:          -6.832
REMARK INTER:                  -5.270
REMARK INTRA:                  -1.562
REMARK UNBOUND:                -1.542
REMARK SMILES CCCCCCCCCCCC(=O)[O-]
REMARK SMILES IDX 7 1 8 2 9 3 10 4 11 5 12 6 13 7 14 8 6 9 5 10 4 11 3 12 2 13
REMARK SMILES IDX 1 14
REMARK H PARENT
REMARK Flexibility Score: inf
ROOT
ATOM      1  C   UNL     1      21.449 -15.988   3.214  1.00  0.00     0.000 C 
ENDROOT
BRANCH   1   2
ATOM      2  C   UNL     1      22.642 -16.630   3.934  1.00  0.00     0.000 C 
BRANCH   2   3
ATOM      3  C   UNL     1      22.670 -16.233   5.417  1.00  0.00     0.000 C 
BRANCH   3   4
ATOM      4  C   UNL     1      21.865 -14.955   5.715  1.00  0.00     0.006 C 
BRANCH   4   5
ATOM      5  C   UNL     1      22.568 -13.986   6.681  1.00  0.00     0.053 C 
BRANCH   5   6
ATOM      6  C   UNL     1      21.775 -13.738   7.928  1.00  0.00     0.041 C 
ATOM      7  O   UNL     1      21.106 -14.670   8.449  1.00  0.00    -0.550 OA
ATOM      8  O   UNL     1      21.801 -12.490   8.537  1.00  0.00    -0.550 OA
ENDBRANCH   5   6
ENDBRANCH   4   5
ENDBRANCH   3   4
ENDBRANCH   2   3
ENDBRANCH   1   2
BRANCH   1   9
ATOM      9  C   UNL     1      21.880 -15.360   1.885  1.00  0.00     0.000 C 
BRANCH   9  10
ATOM     10  C   UNL     1      21.837 -13.828   1.960  1.00  0.00    -0.000 C 
BRANCH  10  11
ATOM     11  C   UNL     1      23.240 -13.229   1.807  1.00  0.00    -0.000 C 
BRANCH  11  12
ATOM     12  C   UNL     1      23.977 -13.202   3.154  1.00  0.00    -0.000 C 
BRANCH  12  13
ATOM     13  C   UNL     1      25.202 -14.128   3.176  1.00  0.00    -0.003 C 
ATOM     14  C   UNL     1      25.788 -14.299   4.577  1.00  0.00     0.004 C 
ENDBRANCH  12  13
ENDBRANCH  11  12
ENDBRANCH  10  11
ENDBRANCH   9  10
ENDBRANCH   1   9
TORSDOF 10
ENDMDL
MODEL 6
REMARK VINA RESULT:    -3.303     13.510     15.201
REMARK INTER + INTRA:          -6.776
REMARK INTER:                  -5.647
REMARK INTRA:                  -1.129
REMARK UNBOUND:                -1.542
REMARK SMILES CCCCCCCCCCCC(=O)[O-]
REMARK SMILES IDX 7 1 8 2 9 3 10 4 11 5 12 6 13 7 14 8 6 9 5 10 4 11 3 12 2 13
REMARK SMILES IDX 1 14
REMARK H PARENT
REMARK Flexibility Score: inf
ROOT
ATOM      1  C   UNL     1      28.365   0.123  10.930  1.00  0.00     0.000 C 
ENDROOT
BRANCH   1   2
ATOM      2  C   UNL     1      27.044  -0.435  10.387  1.00  0.00     0.000 C 
BRANCH   2   3
ATOM      3  C   UNL     1      25.917  -0.289  11.419  1.00  0.00     0.000 C 
BRANCH   3   4
ATOM      4  C   UNL     1      24.622  -1.010  11.006  1.00  0.00     0.006 C 
BRANCH   4   5
ATOM      5  C   UNL     1      24.854  -2.367  10.319  1.00  0.00     0.053 C 
BRANCH   5   6
ATOM      6  C   UNL     1      23.579  -3.006   9.860  1.00  0.00     0.041 C 
ATOM      7  O   UNL     1      22.482  -2.676  10.382  1.00  0.00    -0.550 OA
ATOM      8  O   UNL     1      23.596  -3.940   8.832  1.00  0.00    -0.550 OA
ENDBRANCH   5   6
ENDBRANCH   4   5
ENDBRANCH   3   4
ENDBRANCH   2   3
ENDBRANCH   1   2
BRANCH   1   9
ATOM      9  C   UNL     1      28.631  -0.378  12.354  1.00  0.00     0.000 C 
BRANCH   9  10
ATOM     10  C   UNL     1      29.751  -1.425  12.369  1.00  0.00    -0.000 C 
BRANCH  10  11
ATOM     11  C   UNL     1      29.194  -2.832  12.126  1.00  0.00    -0.000 C 
BRANCH  11  12
ATOM     12  C   UNL     1      29.849  -3.479  10.897  1.00  0.00    -0.000 C 
BRANCH  12  13
ATOM     13  C   UNL     1      28.875  -3.632   9.720  1.00  0.00    -0.003 C 
ATOM     14  C   UNL     1      29.266  -2.779   8.513  1.00  0.00     0.004 C 
ENDBRANCH  12  13
ENDBRANCH  11  12
ENDBRANCH  10  11
ENDBRANCH   9  10
ENDBRANCH   1   9
TORSDOF 10
ENDMDL
MODEL 7
REMARK VINA RESULT:    -3.291      3.146      5.586
REMARK INTER + INTRA:          -6.756
REMARK INTER:                  -5.885
REMARK INTRA:                  -0.871
REMARK UNBOUND:                -1.542
REMARK SMILES CCCCCCCCCCCC(=O)[O-]
REMARK SMILES IDX 7 1 8 2 9 3 10 4 11 5 12 6 13 7 14 8 6 9 5 10 4 11 3 12 2 13
REMARK SMILES IDX 1 14
REMARK H PARENT
REMARK Flexibility Score: inf
ROOT
ATOM      1  C   UNL     1      21.466 -16.133   2.421  1.00  0.00     0.000 C 
ENDROOT
BRANCH   1   2
ATOM      2  C   UNL     1      21.650 -15.121   1.283  1.00  0.00     0.000 C 
BRANCH   2   3
ATOM      3  C   UNL     1      21.857 -13.703   1.835  1.00  0.00     0.000 C 
BRANCH   3   4
ATOM      4  C   UNL     1      23.172 -13.057   1.362  1.00  0.00     0.006 C 
BRANCH   4   5
ATOM      5  C   UNL     1      24.103 -12.623   2.507  1.00  0.00     0.053 C 
BRANCH   5   6
ATOM      6  C   UNL     1      24.510 -11.185   2.405  1.00  0.00     0.041 C 
ATOM      7  O   UNL     1      24.169 -10.500   1.405  1.00  0.00    -0.550 OA
ATOM      8  O   UNL     1      25.235 -10.589   3.430  1.00  0.00    -0.550 OA
ENDBRANCH   5   6
ENDBRANCH   4   5
ENDBRANCH   3   4
ENDBRANCH   2   3
ENDBRANCH   1   2
BRANCH   1   9
ATOM      9  C   UNL     1      22.818 -16.576   2.990  1.00  0.00     0.000 C 
BRANCH   9  10
ATOM     10  C   UNL     1      22.866 -16.385   4.511  1.00  0.00    -0.000 C 
BRANCH  10  11
ATOM     11  C   UNL     1      21.567 -15.754   5.028  1.00  0.00    -0.000 C 
BRANCH  11  12
ATOM     12  C   UNL     1      21.863 -14.650   6.055  1.00  0.00    -0.000 C 
BRANCH  12  13
ATOM     13  C   UNL     1      21.082 -14.837   7.364  1.00  0.00    -0.003 C 
ATOM     14  C   UNL     1      21.335 -13.713   8.369  1.00  0.00     0.004 C 
ENDBRANCH  12  13
ENDBRANCH  11  12
ENDBRANCH  10  11
ENDBRANCH   9  10
ENDBRANCH   1   9
TORSDOF 10
ENDMDL
MODEL 8
REMARK VINA RESULT:    -3.200      1.616      2.696
REMARK INTER + INTRA:          -6.612
REMARK INTER:                  -5.222
REMARK INTRA:                  -1.390
REMARK UNBOUND:                -1.542
REMARK SMILES CCCCCCCCCCCC(=O)[O-]
REMARK SMILES IDX 7 1 8 2 9 3 10 4 11 5 12 6 13 7 14 8 6 9 5 10 4 11 3 12 2 13
REMARK SMILES IDX 1 14
REMARK H PARENT
REMARK Flexibility Score: inf
ROOT
ATOM      1  C   UNL     1      24.811 -12.177   3.419  1.00  0.00     0.000 C 
ENDROOT
BRANCH   1   2
ATOM      2  C   UNL     1      24.888 -13.022   4.696  1.00  0.00     0.000 C 
BRANCH   2   3
ATOM      3  C   UNL     1      24.748 -14.517   4.378  1.00  0.00     0.000 C 
BRANCH   3   4
ATOM      4  C   UNL     1      23.826 -15.260   5.361  1.00  0.00     0.006 C 
BRANCH   4   5
ATOM      5  C   UNL     1      22.484 -14.552   5.616  1.00  0.00     0.053 C 
BRANCH   5   6
ATOM      6  C   UNL     1      21.504 -15.420   6.344  1.00  0.00     0.041 C 
ATOM      7  O   UNL     1      20.736 -16.185   5.702  1.00  0.00    -0.550 OA
ATOM      8  O   UNL     1      21.461 -15.414   7.733  1.00  0.00    -0.550 OA
ENDBRANCH   5   6
ENDBRANCH   4   5
ENDBRANCH   3   4
ENDBRANCH   2   3
ENDBRANCH   1   2
BRANCH   1   9
ATOM      9  C   UNL     1      24.485 -13.048   2.201  1.00  0.00     0.000 C 
BRANCH   9  10
ATOM     10  C   UNL     1      23.530 -12.324   1.245  1.00  0.00    -0.000 C 
BRANCH  10  11
ATOM     11  C   UNL     1      22.338 -13.215   0.875  1.00  0.00    -0.000 C 
BRANCH  11  12
ATOM     12  C   UNL     1      21.850 -14.014   2.093  1.00  0.00    -0.000 C 
BRANCH  12  13
ATOM     13  C   UNL     1      21.503 -15.469   1.744  1.00  0.00    -0.003 C 
ATOM     14  C   UNL     1      22.718 -16.396   1.798  1.00  0.00     0.004 C 
ENDBRANCH  12  13
ENDBRANCH  11  12
ENDBRANCH  10  11
ENDBRANCH   9  10
ENDBRANCH   1   9
TORSDOF 10
ENDMDL
MODEL 9
REMARK VINA RESULT:    -3.186      1.382      1.991
REMARK INTER + INTRA:          -6.591
REMARK INTER:                  -5.385
REMARK INTRA:                  -1.206
REMARK UNBOUND:                -1.542
REMARK SMILES CCCCCCCCCCCC(=O)[O-]
REMARK SMILES IDX 7 1 8 2 9 3 10 4 11 5 12 6 13 7 14 8 6 9 5 10 4 11 3 12 2 13
REMARK SMILES IDX 1 14
REMARK H PARENT
REMARK Flexibility Score: inf
ROOT
ATOM      1  C   UNL     1      24.827 -13.270   4.015  1.00  0.00     0.000 C 
ENDROOT
BRANCH   1   2
ATOM      2  C   UNL     1      25.086 -14.745   4.344  1.00  0.00     0.000 C 
BRANCH   2   3
ATOM      3  C   UNL     1      23.939 -15.333   5.179  1.00  0.00     0.000 C 
BRANCH   3   4
ATOM      4  C   UNL     1      22.768 -14.353   5.371  1.00  0.00     0.006 C 
BRANCH   4   5
ATOM      5  C   UNL     1      21.971 -14.578   6.668  1.00  0.00     0.053 C 
BRANCH   5   6
ATOM      6  C   UNL     1      22.268 -13.546   7.713  1.00  0.00     0.041 C 
ATOM      7  O   UNL     1      23.342 -12.889   7.667  1.00  0.00    -0.550 OA
ATOM      8  O   UNL     1      21.345 -13.281   8.717  1.00  0.00    -0.550 OA
ENDBRANCH   5   6
ENDBRANCH   4   5
ENDBRANCH   3   4
ENDBRANCH   2   3
ENDBRANCH   1   2
BRANCH   1   9
ATOM      9  C   UNL     1      24.980 -13.006   2.513  1.00  0.00     0.000 C 
BRANCH   9  10
ATOM     10  C   UNL     1      23.742 -12.298   1.949  1.00  0.00    -0.000 C 
BRANCH  10  11
ATOM     11  C   UNL     1      22.950 -13.228   1.022  1.00  0.00    -0.000 C 
BRANCH  11  12
ATOM     12  C   UNL     1      21.874 -13.997   1.802  1.00  0.00    -0.000 C 
BRANCH  12  13
ATOM     13  C   UNL     1      22.182 -15.498   1.910  1.00  0.00    -0.003 C 
ATOM     14  C   UNL     1      20.964 -16.375   1.620  1.00  0.00     0.004 C 
ENDBRANCH  12  13
ENDBRANCH  11  12
ENDBRANCH  10  11
ENDBRANCH   9  10
ENDBRANCH   1   9
TORSDOF 10
ENDMDL
