MODEL 1
REMARK VINA RESULT:    -2.741      0.000      0.000
REMARK INTER + INTRA:          -3.329
REMARK INTER:                  -3.222
REMARK INTRA:                  -0.107
REMARK UNBOUND:                -0.107
REMARK SMILES CCCCC(=O)[O-]
REMARK SMILES IDX 4 1 5 2 6 3 7 4 3 5 2 6 1 7
REMARK H PARENT
REMARK Flexibility Score: inf
ROOT
ATOM      1  C   UNL     1       0.844   4.880 -11.223  1.00  0.00     0.053 C 
ENDROOT
BRANCH   1   2
ATOM      2  C   UNL     1       1.669   5.644 -12.211  1.00  0.00     0.041 C 
ATOM      3  O   UNL     1       1.176   6.627 -12.822  1.00  0.00    -0.550 OA
ATOM      4  O   UNL     1       2.968   5.240 -12.490  1.00  0.00    -0.550 OA
ENDBRANCH   1   2
BRANCH   1   5
ATOM      5  C   UNL     1       0.218   3.648 -11.890  1.00  0.00     0.006 C 
BRANCH   5   6
ATOM      6  C   UNL     1       0.926   2.342 -11.498  1.00  0.00    -0.003 C 
ATOM      7  C   UNL     1       1.928   1.875 -12.553  1.00  0.00     0.004 C 
ENDBRANCH   5   6
ENDBRANCH   1   5
TORSDOF 3
ENDMDL
MODEL 2
REMARK VINA RESULT:    -2.711      2.144      3.579
REMARK INTER + INTRA:          -3.294
REMARK INTER:                  -3.232
REMARK INTRA:                  -0.062
REMARK UNBOUND:                -0.107
REMARK SMILES CCCCC(=O)[O-]
REMARK SMILES IDX 4 1 5 2 6 3 7 4 3 5 2 6 1 7
REMARK H PARENT
REMARK Flexibility Score: inf
ROOT
ATOM      1  C   UNL     1       0.328   3.847 -11.882  1.00  0.00     0.053 C 
ENDROOT
BRANCH   1   2
ATOM      2  C   UNL     1       1.428   2.879 -11.574  1.00  0.00     0.041 C 
ATOM      3  O   UNL     1       1.612   1.876 -12.311  1.00  0.00    -0.550 OA
ATOM      4  O   UNL     1       2.218   3.061 -10.447  1.00  0.00    -0.550 OA
ENDBRANCH   1   2
BRANCH   1   5
ATOM      5  C   UNL     1       0.761   5.277 -11.533  1.00  0.00     0.006 C 
BRANCH   5   6
ATOM      6  C   UNL     1       1.754   5.858 -12.551  1.00  0.00    -0.003 C 
ATOM      7  C   UNL     1       1.490   7.331 -12.859  1.00  0.00     0.004 C 
ENDBRANCH   5   6
ENDBRANCH   1   5
TORSDOF 3
ENDMDL
MODEL 3
REMARK VINA RESULT:    -2.704      2.237      3.540
REMARK INTER + INTRA:          -3.285
REMARK INTER:                  -3.225
REMARK INTRA:                  -0.060
REMARK UNBOUND:                -0.107
REMARK SMILES CCCCC(=O)[O-]
REMARK SMILES IDX 4 1 5 2 6 3 7 4 3 5 2 6 1 7
REMARK H PARENT
REMARK Flexibility Score: inf
ROOT
ATOM      1  C   UNL     1       1.303   4.821 -11.364  1.00  0.00     0.053 C 
ENDROOT
BRANCH   1   2
ATOM      2  C   UNL     1       0.435   3.650 -11.702  1.00  0.00     0.041 C 
ATOM      3  O   UNL     1      -0.778   3.823 -11.989  1.00  0.00    -0.550 OA
ATOM      4  O   UNL     1       0.955   2.363 -11.654  1.00  0.00    -0.550 OA
ENDBRANCH   1   2
BRANCH   1   5
ATOM      5  C   UNL     1       2.481   4.915 -12.343  1.00  0.00     0.006 C 
BRANCH   5   6
ATOM      6  C   UNL     1       2.716   6.347 -12.847  1.00  0.00    -0.003 C 
ATOM      7  C   UNL     1       1.425   7.160 -12.939  1.00  0.00     0.004 C 
ENDBRANCH   5   6
ENDBRANCH   1   5
TORSDOF 3
ENDMDL
MODEL 4
REMARK VINA RESULT:    -2.638     17.890     18.785
REMARK INTER + INTRA:          -3.208
REMARK INTER:                  -3.162
REMARK INTRA:                  -0.045
REMARK UNBOUND:                -0.107
REMARK SMILES CCCCC(=O)[O-]
REMARK SMILES IDX 4 1 5 2 6 3 7 4 3 5 2 6 1 7
REMARK H PARENT
REMARK Flexibility Score: inf
ROOT
ATOM      1  C   UNL     1     -15.091  13.917  -9.213  1.00  0.00     0.053 C 
ENDROOT
BRANCH   1   2
ATOM      2  C   UNL     1     -15.054  13.359  -7.825  1.00  0.00     0.041 C 
ATOM      3  O   UNL     1     -16.052  13.478  -7.068  1.00  0.00    -0.550 OA
ATOM      4  O   UNL     1     -13.899  12.749  -7.352  1.00  0.00    -0.550 OA
ENDBRANCH   1   2
BRANCH   1   5
ATOM      5  C   UNL     1     -15.596  12.859 -10.202  1.00  0.00     0.006 C 
BRANCH   5   6
ATOM      6  C   UNL     1     -14.477  11.929 -10.693  1.00  0.00    -0.003 C 
ATOM      7  C   UNL     1     -13.875  12.381 -12.023  1.00  0.00     0.004 C 
ENDBRANCH   5   6
ENDBRANCH   1   5
TORSDOF 3
ENDMDL
MODEL 5
REMARK VINA RESULT:    -2.634     18.425     19.260
REMARK INTER + INTRA:          -3.202
REMARK INTER:                  -3.185
REMARK INTRA:                  -0.017
REMARK UNBOUND:                -0.107
REMARK SMILES CCCCC(=O)[O-]
REMARK SMILES IDX 4 1 5 2 6 3 7 4 3 5 2 6 1 7
REMARK H PARENT
REMARK Flexibility Score: inf
ROOT
ATOM      1  C   UNL     1     -14.579  13.119  -8.121  1.00  0.00     0.053 C 
ENDROOT
BRANCH   1   2
ATOM      2  C   UNL     1     -15.645  13.698  -7.245  1.00  0.00     0.041 C 
ATOM      3  O   UNL     1     -16.169  12.998  -6.339  1.00  0.00    -0.550 OA
ATOM      4  O   UNL     1     -16.093  14.995  -7.460  1.00  0.00    -0.550 OA
ENDBRANCH   1   2
BRANCH   1   5
ATOM      5  C   UNL     1     -14.987  13.221  -9.597  1.00  0.00     0.006 C 
BRANCH   5   6
ATOM      6  C   UNL     1     -14.519  12.012 -10.422  1.00  0.00    -0.003 C 
ATOM      7  C   UNL     1     -13.941  12.412 -11.779  1.00  0.00     0.004 C 
ENDBRANCH   5   6
ENDBRANCH   1   5
TORSDOF 3
ENDMDL
MODEL 6
REMARK VINA RESULT:    -2.400     18.001     18.920
REMARK INTER + INTRA:          -2.928
REMARK INTER:                  -2.867
REMARK INTRA:                  -0.061
REMARK UNBOUND:                -0.107
REMARK SMILES CCCCC(=O)[O-]
REMARK SMILES IDX 4 1 5 2 6 3 7 4 3 5 2 6 1 7
REMARK H PARENT
REMARK Flexibility Score: inf
ROOT
ATOM      1  C   UNL     1     -15.786  13.275 -10.194  1.00  0.00     0.053 C 
ENDROOT
BRANCH   1   2
ATOM      2  C   UNL     1     -14.707  12.526 -10.910  1.00  0.00     0.041 C 
ATOM      3  O   UNL     1     -14.260  11.450 -10.434  1.00  0.00    -0.550 OA
ATOM      4  O   UNL     1     -14.163  13.041 -12.080  1.00  0.00    -0.550 OA
ENDBRANCH   1   2
BRANCH   1   5
ATOM      5  C   UNL     1     -15.196  14.073  -9.023  1.00  0.00     0.006 C 
BRANCH   5   6
ATOM      6  C   UNL     1     -15.816  13.684  -7.673  1.00  0.00    -0.003 C 
ATOM      7  C   UNL     1     -14.787  13.135  -6.686  1.00  0.00     0.004 C 
ENDBRANCH   5   6
ENDBRANCH   1   5
TORSDOF 3
ENDMDL
MODEL 7
REMARK VINA RESULT:    -2.394     18.477     19.399
REMARK INTER + INTRA:          -2.920
REMARK INTER:                  -2.837
REMARK INTRA:                  -0.083
REMARK UNBOUND:                -0.107
REMARK SMILES CCCCC(=O)[O-]
REMARK SMILES IDX 4 1 5 2 6 3 7 4 3 5 2 6 1 7
REMARK H PARENT
REMARK Flexibility Score: inf
ROOT
ATOM      1  C   UNL     1     -15.170  13.910  -9.128  1.00  0.00     0.053 C 
ENDROOT
BRANCH   1   2
ATOM      2  C   UNL     1     -15.312  13.037 -10.335  1.00  0.00     0.041 C 
ATOM      3  O   UNL     1     -16.385  12.413 -10.542  1.00  0.00    -0.550 OA
ATOM      4  O   UNL     1     -14.242  12.876 -11.205  1.00  0.00    -0.550 OA
ENDBRANCH   1   2
BRANCH   1   5
ATOM      5  C   UNL     1     -14.489  13.140  -7.988  1.00  0.00     0.006 C 
BRANCH   5   6
ATOM      6  C   UNL     1     -15.267  13.234  -6.667  1.00  0.00    -0.003 C 
ATOM      7  C   UNL     1     -16.760  13.484  -6.877  1.00  0.00     0.004 C 
ENDBRANCH   5   6
ENDBRANCH   1   5
TORSDOF 3
ENDMDL
MODEL 8
REMARK VINA RESULT:    -2.276     19.810     20.895
REMARK INTER + INTRA:          -2.782
REMARK INTER:                  -2.673
REMARK INTRA:                  -0.108
REMARK UNBOUND:                -0.107
REMARK SMILES CCCCC(=O)[O-]
REMARK SMILES IDX 4 1 5 2 6 3 7 4 3 5 2 6 1 7
REMARK H PARENT
REMARK Flexibility Score: inf
ROOT
ATOM      1  C   UNL     1     -16.767  14.141  -7.440  1.00  0.00     0.053 C 
ENDROOT
BRANCH   1   2
ATOM      2  C   UNL     1     -15.395  13.562  -7.583  1.00  0.00     0.041 C 
ATOM      3  O   UNL     1     -14.844  13.511  -8.714  1.00  0.00    -0.550 OA
ATOM      4  O   UNL     1     -14.744  13.035  -6.475  1.00  0.00    -0.550 OA
ENDBRANCH   1   2
BRANCH   1   5
ATOM      5  C   UNL     1     -16.685  15.648  -7.158  1.00  0.00     0.006 C 
BRANCH   5   6
ATOM      6  C   UNL     1     -16.939  16.496  -8.413  1.00  0.00    -0.003 C 
ATOM      7  C   UNL     1     -15.677  17.198  -8.916  1.00  0.00     0.004 C 
ENDBRANCH   5   6
ENDBRANCH   1   5
TORSDOF 3
ENDMDL
