MODEL 1
REMARK VINA RESULT:    -3.742      0.000      0.000
REMARK INTER + INTRA:          -4.509
REMARK INTER:                  -4.398
REMARK INTRA:                  -0.111
REMARK UNBOUND:                -0.111
REMARK SMILES CCCCC(=O)[O-]
REMARK SMILES IDX 4 1 5 2 6 3 7 4 3 5 2 6 1 7
REMARK H PARENT
REMARK Flexibility Score: inf
ROOT
ATOM      1  C   UNL     1     126.132 145.010 139.809  1.00  0.00     0.053 C 
ENDROOT
BRANCH   1   2
ATOM      2  C   UNL     1     125.917 145.334 138.362  1.00  0.00     0.041 C 
ATOM      3  O   UNL     1     125.799 146.531 137.990  1.00  0.00    -0.550 OA
ATOM      4  O   UNL     1     125.877 144.314 137.420  1.00  0.00    -0.550 OA
ENDBRANCH   1   2
BRANCH   1   5
ATOM      5  C   UNL     1     126.201 143.496 140.047  1.00  0.00     0.006 C 
BRANCH   5   6
ATOM      6  C   UNL     1     127.621 143.026 140.391  1.00  0.00    -0.003 C 
ATOM      7  C   UNL     1     128.284 142.356 139.191  1.00  0.00     0.004 C 
ENDBRANCH   5   6
ENDBRANCH   1   5
TORSDOF 3
ENDMDL
MODEL 2
REMARK VINA RESULT:    -3.629      3.077      4.099
REMARK INTER + INTRA:          -4.376
REMARK INTER:                  -4.322
REMARK INTRA:                  -0.054
REMARK UNBOUND:                -0.111
REMARK SMILES CCCCC(=O)[O-]
REMARK SMILES IDX 4 1 5 2 6 3 7 4 3 5 2 6 1 7
REMARK H PARENT
REMARK Flexibility Score: inf
ROOT
ATOM      1  C   UNL     1     127.596 142.980 139.660  1.00  0.00     0.053 C 
ENDROOT
BRANCH   1   2
ATOM      2  C   UNL     1     128.039 142.558 141.027  1.00  0.00     0.041 C 
ATOM      3  O   UNL     1     127.250 141.938 141.786  1.00  0.00    -0.550 OA
ATOM      4  O   UNL     1     129.336 142.823 141.450  1.00  0.00    -0.550 OA
ENDBRANCH   1   2
BRANCH   1   5
ATOM      5  C   UNL     1     126.146 143.481 139.661  1.00  0.00     0.006 C 
BRANCH   5   6
ATOM      6  C   UNL     1     126.053 144.991 139.924  1.00  0.00    -0.003 C 
ATOM      7  C   UNL     1     125.993 145.774 138.616  1.00  0.00     0.004 C 
ENDBRANCH   5   6
ENDBRANCH   1   5
TORSDOF 3
ENDMDL
MODEL 3
REMARK VINA RESULT:    -3.422      1.313      1.662
REMARK INTER + INTRA:          -4.133
REMARK INTER:                  -4.118
REMARK INTRA:                  -0.015
REMARK UNBOUND:                -0.111
REMARK SMILES CCCCC(=O)[O-]
REMARK SMILES IDX 4 1 5 2 6 3 7 4 3 5 2 6 1 7
REMARK H PARENT
REMARK Flexibility Score: inf
ROOT
ATOM      1  C   UNL     1     126.450 143.553 140.125  1.00  0.00     0.053 C 
ENDROOT
BRANCH   1   2
ATOM      2  C   UNL     1     126.181 144.336 138.877  1.00  0.00     0.041 C 
ATOM      3  O   UNL     1     126.001 145.581 138.935  1.00  0.00    -0.550 OA
ATOM      4  O   UNL     1     126.159 143.694 137.646  1.00  0.00    -0.550 OA
ENDBRANCH   1   2
BRANCH   1   5
ATOM      5  C   UNL     1     127.776 142.785 140.039  1.00  0.00     0.006 C 
BRANCH   5   6
ATOM      6  C   UNL     1     128.178 142.167 141.386  1.00  0.00    -0.003 C 
ATOM      7  C   UNL     1     129.622 142.508 141.739  1.00  0.00     0.004 C 
ENDBRANCH   5   6
ENDBRANCH   1   5
TORSDOF 3
ENDMDL
MODEL 4
REMARK VINA RESULT:    -3.381     16.502     16.900
REMARK INTER + INTRA:          -4.085
REMARK INTER:                  -4.030
REMARK INTRA:                  -0.055
REMARK UNBOUND:                -0.111
REMARK SMILES CCCCC(=O)[O-]
REMARK SMILES IDX 4 1 5 2 6 3 7 4 3 5 2 6 1 7
REMARK H PARENT
REMARK Flexibility Score: inf
ROOT
ATOM      1  C   UNL     1     140.164 133.385 139.096  1.00  0.00     0.053 C 
ENDROOT
BRANCH   1   2
ATOM      2  C   UNL     1     139.066 133.466 138.079  1.00  0.00     0.041 C 
ATOM      3  O   UNL     1     139.310 133.872 136.913  1.00  0.00    -0.550 OA
ATOM      4  O   UNL     1     137.780 133.061 138.412  1.00  0.00    -0.550 OA
ENDBRANCH   1   2
BRANCH   1   5
ATOM      5  C   UNL     1     139.637 133.613 140.519  1.00  0.00     0.006 C 
BRANCH   5   6
ATOM      6  C   UNL     1     140.349 134.777 141.223  1.00  0.00    -0.003 C 
ATOM      7  C   UNL     1     141.604 135.194 140.462  1.00  0.00     0.004 C 
ENDBRANCH   5   6
ENDBRANCH   1   5
TORSDOF 3
ENDMDL
MODEL 5
REMARK VINA RESULT:    -3.376      1.774      3.007
REMARK INTER + INTRA:          -4.079
REMARK INTER:                  -4.032
REMARK INTRA:                  -0.047
REMARK UNBOUND:                -0.111
REMARK SMILES CCCCC(=O)[O-]
REMARK SMILES IDX 4 1 5 2 6 3 7 4 3 5 2 6 1 7
REMARK H PARENT
REMARK Flexibility Score: inf
ROOT
ATOM      1  C   UNL     1     127.094 143.099 138.621  1.00  0.00     0.053 C 
ENDROOT
BRANCH   1   2
ATOM      2  C   UNL     1     126.440 142.487 137.420  1.00  0.00     0.041 C 
ATOM      3  O   UNL     1     125.953 143.221 136.521  1.00  0.00    -0.550 OA
ATOM      4  O   UNL     1     126.396 141.106 137.280  1.00  0.00    -0.550 OA
ENDBRANCH   1   2
BRANCH   1   5
ATOM      5  C   UNL     1     126.063 143.530 139.672  1.00  0.00     0.006 C 
BRANCH   5   6
ATOM      6  C   UNL     1     126.139 145.033 139.978  1.00  0.00    -0.003 C 
ATOM      7  C   UNL     1     125.995 145.861 138.706  1.00  0.00     0.004 C 
ENDBRANCH   5   6
ENDBRANCH   1   5
TORSDOF 3
ENDMDL
MODEL 6
REMARK VINA RESULT:    -3.359     16.670     17.154
REMARK INTER + INTRA:          -4.060
REMARK INTER:                  -4.029
REMARK INTRA:                  -0.030
REMARK UNBOUND:                -0.111
REMARK SMILES CCCCC(=O)[O-]
REMARK SMILES IDX 4 1 5 2 6 3 7 4 3 5 2 6 1 7
REMARK H PARENT
REMARK Flexibility Score: inf
ROOT
ATOM      1  C   UNL     1     140.034 134.232 141.006  1.00  0.00     0.053 C 
ENDROOT
BRANCH   1   2
ATOM      2  C   UNL     1     140.845 135.354 140.435  1.00  0.00     0.041 C 
ATOM      3  O   UNL     1     140.276 136.335 139.889  1.00  0.00    -0.550 OA
ATOM      4  O   UNL     1     142.231 135.330 140.533  1.00  0.00    -0.550 OA
ENDBRANCH   1   2
BRANCH   1   5
ATOM      5  C   UNL     1     139.412 133.362 139.906  1.00  0.00     0.006 C 
BRANCH   5   6
ATOM      6  C   UNL     1     140.344 133.202 138.696  1.00  0.00    -0.003 C 
ATOM      7  C   UNL     1     139.646 133.618 137.406  1.00  0.00     0.004 C 
ENDBRANCH   5   6
ENDBRANCH   1   5
TORSDOF 3
ENDMDL
MODEL 7
REMARK VINA RESULT:    -3.312     15.582     16.452
REMARK INTER + INTRA:          -4.003
REMARK INTER:                  -3.890
REMARK INTRA:                  -0.114
REMARK UNBOUND:                -0.111
REMARK SMILES CCCCC(=O)[O-]
REMARK SMILES IDX 4 1 5 2 6 3 7 4 3 5 2 6 1 7
REMARK H PARENT
REMARK Flexibility Score: inf
ROOT
ATOM      1  C   UNL     1     140.735 134.931 140.302  1.00  0.00     0.053 C 
ENDROOT
BRANCH   1   2
ATOM      2  C   UNL     1     139.905 136.169 140.153  1.00  0.00     0.041 C 
ATOM      3  O   UNL     1     139.905 136.806 139.067  1.00  0.00    -0.550 OA
ATOM      4  O   UNL     1     139.108 136.601 141.205  1.00  0.00    -0.550 OA
ENDBRANCH   1   2
BRANCH   1   5
ATOM      5  C   UNL     1     140.013 133.694 139.751  1.00  0.00     0.006 C 
BRANCH   5   6
ATOM      6  C   UNL     1     140.479 133.332 138.334  1.00  0.00    -0.003 C 
ATOM      7  C   UNL     1     139.426 133.706 137.297  1.00  0.00     0.004 C 
ENDBRANCH   5   6
ENDBRANCH   1   5
TORSDOF 3
ENDMDL
MODEL 8
REMARK VINA RESULT:    -3.256     16.566     17.256
REMARK INTER + INTRA:          -3.938
REMARK INTER:                  -3.857
REMARK INTRA:                  -0.081
REMARK UNBOUND:                -0.111
REMARK SMILES CCCCC(=O)[O-]
REMARK SMILES IDX 4 1 5 2 6 3 7 4 3 5 2 6 1 7
REMARK H PARENT
REMARK Flexibility Score: inf
ROOT
ATOM      1  C   UNL     1     140.256 135.051 139.628  1.00  0.00     0.053 C 
ENDROOT
BRANCH   1   2
ATOM      2  C   UNL     1     140.046 133.681 139.059  1.00  0.00     0.041 C 
ATOM      3  O   UNL     1     139.626 132.747 139.790  1.00  0.00    -0.550 OA
ATOM      4  O   UNL     1     140.286 133.445 137.711  1.00  0.00    -0.550 OA
ENDBRANCH   1   2
BRANCH   1   5
ATOM      5  C   UNL     1     141.594 135.158 140.372  1.00  0.00     0.006 C 
BRANCH   5   6
ATOM      6  C   UNL     1     141.412 135.576 141.838  1.00  0.00    -0.003 C 
ATOM      7  C   UNL     1     139.994 136.074 142.095  1.00  0.00     0.004 C 
ENDBRANCH   5   6
ENDBRANCH   1   5
TORSDOF 3
ENDMDL
MODEL 9
REMARK VINA RESULT:    -3.137     16.408     17.430
REMARK INTER + INTRA:          -3.798
REMARK INTER:                  -3.719
REMARK INTRA:                  -0.079
REMARK UNBOUND:                -0.111
REMARK SMILES CCCCC(=O)[O-]
REMARK SMILES IDX 4 1 5 2 6 3 7 4 3 5 2 6 1 7
REMARK H PARENT
REMARK Flexibility Score: inf
ROOT
ATOM      1  C   UNL     1     144.027 144.777 134.884  1.00  0.00     0.053 C 
ENDROOT
BRANCH   1   2
ATOM      2  C   UNL     1     143.760 144.023 136.151  1.00  0.00     0.041 C 
ATOM      3  O   UNL     1     143.588 144.642 137.233  1.00  0.00    -0.550 OA
ATOM      4  O   UNL     1     143.669 142.637 136.128  1.00  0.00    -0.550 OA
ENDBRANCH   1   2
BRANCH   1   5
ATOM      5  C   UNL     1     143.659 146.261 135.017  1.00  0.00     0.006 C 
BRANCH   5   6
ATOM      6  C   UNL     1     142.239 146.555 134.513  1.00  0.00    -0.003 C 
ATOM      7  C   UNL     1     141.536 147.568 135.410  1.00  0.00     0.004 C 
ENDBRANCH   5   6
ENDBRANCH   1   5
TORSDOF 3
ENDMDL
