MODEL 1
REMARK VINA RESULT:    -5.705      0.000      0.000
REMARK INTER + INTRA:          -9.658
REMARK INTER:                  -7.872
REMARK INTRA:                  -1.786
REMARK UNBOUND:                -1.786
REMARK SMILES CC[C@@H](CC[C@H](C)[C@H]1CC[C@H]2C3=CC[C@H]4C[C@@H](O)CC[C@]4(C)[C@@H]3CC[C@@]12C)C(C)C
REMARK SMILES IDX 5 1 4 2 3 3 2 4 1 5 28 6 29 7 30 8 6 9 7 10 8 11 9 12 26 13
REMARK SMILES IDX 10 14 11 15 25 16 27 17 12 18 24 19 23 20 13 21 21 22 14 23
REMARK SMILES IDX 15 24 20 25 22 26 16 27 19 28 17 29 18 30
REMARK H PARENT 18 31
REMARK Flexibility Score: inf
ROOT
ATOM      1  C   UNL     1     127.842 120.808 142.593  1.00  0.00     0.004 C 
ENDROOT
BRANCH   1   2
ATOM      2  C   UNL     1     127.561 121.936 143.609  1.00  0.00     0.004 C 
BRANCH   2   3
ATOM      3  C   UNL     1     128.681 122.120 144.676  1.00  0.00    -0.009 C 
BRANCH   3   4
ATOM      4  C   UNL     1     128.537 121.114 145.858  1.00  0.00     0.000 C 
ATOM      5  C   UNL     1     129.574 121.291 146.970  1.00  0.00     0.004 C 
ENDBRANCH   3   4
BRANCH   3   6
ATOM      6  C   UNL     1     128.779 123.614 145.149  1.00  0.00    -0.014 C 
ATOM      7  C   UNL     1     130.008 124.335 144.559  1.00  0.00     0.007 C 
ATOM      8  C   UNL     1     127.517 124.419 144.782  1.00  0.00     0.007 C 
ENDBRANCH   3   6
ENDBRANCH   2   3
ENDBRANCH   1   2
BRANCH   1   9
ATOM      9  C   UNL     1     128.291 121.308 141.194  1.00  0.00    -0.011 C 
ATOM     10  C   UNL     1     128.747 120.112 140.326  1.00  0.00     0.008 C 
BRANCH   9  11
ATOM     11  C   UNL     1     129.443 122.375 141.288  1.00  0.00    -0.002 C 
ATOM     12  C   UNL     1     130.804 121.794 140.844  1.00  0.00     0.005 C 
ATOM     13  C   UNL     1     129.308 123.707 140.477  1.00  0.00    -0.023 C 
ATOM     14  C   UNL     1     131.635 122.936 140.267  1.00  0.00     0.009 C 
ATOM     15  C   UNL     1     130.778 124.188 140.415  1.00  0.00     0.021 C 
ATOM     16  C   UNL     1     128.745 123.456 139.041  1.00  0.00     0.008 C 
ATOM     17  C   UNL     1     128.467 124.782 141.218  1.00  0.00     0.012 C 
ATOM     18  C   UNL     1     131.017 125.225 139.327  1.00  0.00    -0.067 C 
ATOM     19  C   UNL     1     128.981 124.622 138.065  1.00  0.00     0.009 C 
ATOM     20  C   UNL     1     130.488 124.925 137.925  1.00  0.00     0.021 C 
ATOM     21  C   UNL     1     131.467 126.451 139.687  1.00  0.00    -0.027 C 
ATOM     22  C   UNL     1     130.881 126.027 136.862  1.00  0.00    -0.023 C 
ATOM     23  C   UNL     1     131.597 127.607 138.736  1.00  0.00     0.031 C 
ATOM     24  C   UNL     1     130.701 127.440 137.501  1.00  0.00     0.002 C 
ATOM     25  C   UNL     1     129.993 125.948 135.580  1.00  0.00     0.010 C 
ATOM     26  C   UNL     1     132.364 125.763 136.454  1.00  0.00     0.012 C 
ATOM     27  C   UNL     1     130.945 128.595 136.501  1.00  0.00     0.036 C 
ATOM     28  C   UNL     1     130.274 127.085 134.585  1.00  0.00     0.032 C 
ATOM     29  C   UNL     1     130.068 128.455 135.250  1.00  0.00     0.114 C 
BRANCH  29  30
ATOM     30  O   UNL     1     130.392 129.477 134.345  1.00  0.00    -0.393 OA
ATOM     31  H   UNL     1     129.541 129.767 133.923  1.00  0.00     0.210 HD
ENDBRANCH  29  30
ENDBRANCH   9  11
ENDBRANCH   1   9
TORSDOF 7
ENDMDL
MODEL 2
REMARK VINA RESULT:    -5.655     11.459     14.817
REMARK INTER + INTRA:          -9.590
REMARK INTER:                  -8.009
REMARK INTRA:                  -1.581
REMARK UNBOUND:                -1.786
REMARK SMILES CC[C@@H](CC[C@H](C)[C@H]1CC[C@H]2C3=CC[C@H]4C[C@@H](O)CC[C@]4(C)[C@@H]3CC[C@@]12C)C(C)C
REMARK SMILES IDX 5 1 4 2 3 3 2 4 1 5 28 6 29 7 30 8 6 9 7 10 8 11 9 12 26 13
REMARK SMILES IDX 10 14 11 15 25 16 27 17 12 18 24 19 23 20 13 21 21 22 14 23
REMARK SMILES IDX 15 24 20 25 22 26 16 27 19 28 17 29 18 30
REMARK H PARENT 18 31
REMARK Flexibility Score: inf
ROOT
ATOM      1  C   UNL     1     136.529 131.244 136.288  1.00  0.00     0.004 C 
ENDROOT
BRANCH   1   2
ATOM      2  C   UNL     1     136.379 130.962 134.778  1.00  0.00     0.004 C 
BRANCH   2   3
ATOM      3  C   UNL     1     137.387 129.910 134.227  1.00  0.00    -0.009 C 
BRANCH   3   4
ATOM      4  C   UNL     1     138.644 129.768 135.138  1.00  0.00     0.000 C 
ATOM      5  C   UNL     1     139.754 130.781 134.849  1.00  0.00     0.004 C 
ENDBRANCH   3   4
BRANCH   3   6
ATOM      6  C   UNL     1     137.748 130.196 132.725  1.00  0.00    -0.014 C 
ATOM      7  C   UNL     1     137.313 129.048 131.792  1.00  0.00     0.007 C 
ATOM      8  C   UNL     1     137.112 131.506 132.219  1.00  0.00     0.007 C 
ENDBRANCH   3   6
ENDBRANCH   2   3
ENDBRANCH   1   2
BRANCH   1   9
ATOM      9  C   UNL     1     136.790 132.735 136.635  1.00  0.00    -0.011 C 
ATOM     10  C   UNL     1     136.730 133.595 135.351  1.00  0.00     0.008 C 
BRANCH   9  11
ATOM     11  C   UNL     1     138.173 132.942 137.357  1.00  0.00    -0.002 C 
ATOM     12  C   UNL     1     138.957 134.136 136.768  1.00  0.00     0.005 C 
ATOM     13  C   UNL     1     138.189 133.193 138.902  1.00  0.00    -0.023 C 
ATOM     14  C   UNL     1     139.824 134.720 137.879  1.00  0.00     0.009 C 
ATOM     15  C   UNL     1     139.580 133.841 139.100  1.00  0.00     0.021 C 
ATOM     16  C   UNL     1     137.052 134.170 139.341  1.00  0.00     0.008 C 
ATOM     17  C   UNL     1     138.134 131.877 139.727  1.00  0.00     0.012 C 
ATOM     18  C   UNL     1     139.705 134.584 140.423  1.00  0.00    -0.067 C 
ATOM     19  C   UNL     1     137.263 134.785 140.736  1.00  0.00     0.009 C 
ATOM     20  C   UNL     1     138.594 135.564 140.799  1.00  0.00     0.021 C 
ATOM     21  C   UNL     1     140.648 134.182 141.307  1.00  0.00    -0.027 C 
ATOM     22  C   UNL     1     138.881 136.345 142.144  1.00  0.00    -0.023 C 
ATOM     23  C   UNL     1     140.775 134.726 142.701  1.00  0.00     0.031 C 
ATOM     24  C   UNL     1     139.463 135.352 143.197  1.00  0.00     0.002 C 
ATOM     25  C   UNL     1     137.587 136.989 142.735  1.00  0.00     0.010 C 
ATOM     26  C   UNL     1     139.891 137.485 141.804  1.00  0.00     0.012 C 
ATOM     27  C   UNL     1     139.666 135.993 144.590  1.00  0.00     0.036 C 
ATOM     28  C   UNL     1     137.818 137.650 144.103  1.00  0.00     0.032 C 
ATOM     29  C   UNL     1     138.374 136.633 145.112  1.00  0.00     0.114 C 
BRANCH  29  30
ATOM     30  O   UNL     1     138.638 137.270 146.334  1.00  0.00    -0.393 OA
ATOM     31  H   UNL     1     137.897 137.912 146.489  1.00  0.00     0.210 HD
ENDBRANCH  29  30
ENDBRANCH   9  11
ENDBRANCH   1   9
TORSDOF 7
ENDMDL
MODEL 3
REMARK VINA RESULT:    -5.608      8.734     12.415
REMARK INTER + INTRA:          -9.524
REMARK INTER:                  -8.266
REMARK INTRA:                  -1.259
REMARK UNBOUND:                -1.786
REMARK SMILES CC[C@@H](CC[C@H](C)[C@H]1CC[C@H]2C3=CC[C@H]4C[C@@H](O)CC[C@]4(C)[C@@H]3CC[C@@]12C)C(C)C
REMARK SMILES IDX 5 1 4 2 3 3 2 4 1 5 28 6 29 7 30 8 6 9 7 10 8 11 9 12 26 13
REMARK SMILES IDX 10 14 11 15 25 16 27 17 12 18 24 19 23 20 13 21 21 22 14 23
REMARK SMILES IDX 15 24 20 25 22 26 16 27 19 28 17 29 18 30
REMARK H PARENT 18 31
REMARK Flexibility Score: inf
ROOT
ATOM      1  C   UNL     1     134.585 128.756 139.532  1.00  0.00     0.004 C 
ENDROOT
BRANCH   1   2
ATOM      2  C   UNL     1     133.989 129.523 138.332  1.00  0.00     0.004 C 
BRANCH   2   3
ATOM      3  C   UNL     1     134.350 128.909 136.946  1.00  0.00    -0.009 C 
BRANCH   3   4
ATOM      4  C   UNL     1     134.975 129.963 135.982  1.00  0.00     0.000 C 
ATOM      5  C   UNL     1     136.275 130.591 136.489  1.00  0.00     0.004 C 
ENDBRANCH   3   4
BRANCH   3   6
ATOM      6  C   UNL     1     133.124 128.154 136.319  1.00  0.00    -0.014 C 
ATOM      7  C   UNL     1     133.334 126.627 136.285  1.00  0.00     0.007 C 
ATOM      8  C   UNL     1     131.814 128.452 137.076  1.00  0.00     0.007 C 
ENDBRANCH   3   6
ENDBRANCH   2   3
ENDBRANCH   1   2
BRANCH   1   9
ATOM      9  C   UNL     1     135.658 129.551 140.325  1.00  0.00    -0.011 C 
ATOM     10  C   UNL     1     136.192 128.693 141.497  1.00  0.00     0.008 C 
BRANCH   9  11
ATOM     11  C   UNL     1     135.101 130.918 140.869  1.00  0.00    -0.002 C 
ATOM     12  C   UNL     1     134.708 130.827 142.360  1.00  0.00     0.005 C 
ATOM     13  C   UNL     1     136.009 132.191 140.785  1.00  0.00    -0.023 C 
ATOM     14  C   UNL     1     134.896 132.210 142.978  1.00  0.00     0.009 C 
ATOM     15  C   UNL     1     135.354 133.114 141.840  1.00  0.00     0.021 C 
ATOM     16  C   UNL     1     137.490 131.871 141.168  1.00  0.00     0.008 C 
ATOM     17  C   UNL     1     135.937 132.892 139.401  1.00  0.00     0.012 C 
ATOM     18  C   UNL     1     136.270 134.244 142.288  1.00  0.00    -0.067 C 
ATOM     19  C   UNL     1     138.327 133.115 141.516  1.00  0.00     0.009 C 
ATOM     20  C   UNL     1     137.699 133.887 142.696  1.00  0.00     0.021 C 
ATOM     21  C   UNL     1     135.870 135.522 142.086  1.00  0.00    -0.027 C 
ATOM     22  C   UNL     1     138.521 135.126 143.233  1.00  0.00    -0.023 C 
ATOM     23  C   UNL     1     136.739 136.721 142.339  1.00  0.00     0.031 C 
ATOM     24  C   UNL     1     138.232 136.363 142.327  1.00  0.00     0.002 C 
ATOM     25  C   UNL     1     140.060 134.857 143.225  1.00  0.00     0.010 C 
ATOM     26  C   UNL     1     138.070 135.371 144.706  1.00  0.00     0.012 C 
ATOM     27  C   UNL     1     139.084 137.601 142.697  1.00  0.00     0.036 C 
ATOM     28  C   UNL     1     140.886 136.088 143.628  1.00  0.00     0.032 C 
ATOM     29  C   UNL     1     140.583 137.275 142.699  1.00  0.00     0.114 C 
BRANCH  29  30
ATOM     30  O   UNL     1     141.298 138.406 143.123  1.00  0.00    -0.393 OA
ATOM     31  H   UNL     1     140.834 139.197 142.742  1.00  0.00     0.210 HD
ENDBRANCH  29  30
ENDBRANCH   9  11
ENDBRANCH   1   9
TORSDOF 7
ENDMDL
MODEL 4
REMARK VINA RESULT:    -5.601      9.913     12.980
REMARK INTER + INTRA:          -9.515
REMARK INTER:                  -8.474
REMARK INTRA:                  -1.041
REMARK UNBOUND:                -1.786
REMARK SMILES CC[C@@H](CC[C@H](C)[C@H]1CC[C@H]2C3=CC[C@H]4C[C@@H](O)CC[C@]4(C)[C@@H]3CC[C@@]12C)C(C)C
REMARK SMILES IDX 5 1 4 2 3 3 2 4 1 5 28 6 29 7 30 8 6 9 7 10 8 11 9 12 26 13
REMARK SMILES IDX 10 14 11 15 25 16 27 17 12 18 24 19 23 20 13 21 21 22 14 23
REMARK SMILES IDX 15 24 20 25 22 26 16 27 19 28 17 29 18 30
REMARK H PARENT 18 31
REMARK Flexibility Score: inf
ROOT
ATOM      1  C   UNL     1     138.283 135.618 140.559  1.00  0.00     0.004 C 
ENDROOT
BRANCH   1   2
ATOM      2  C   UNL     1     137.768 136.339 141.823  1.00  0.00     0.004 C 
BRANCH   2   3
ATOM      3  C   UNL     1     138.821 136.441 142.967  1.00  0.00    -0.009 C 
BRANCH   3   4
ATOM      4  C   UNL     1     138.380 137.435 144.084  1.00  0.00     0.000 C 
ATOM      5  C   UNL     1     137.045 138.134 143.818  1.00  0.00     0.004 C 
ENDBRANCH   3   4
BRANCH   3   6
ATOM      6  C   UNL     1     140.253 136.753 142.399  1.00  0.00    -0.014 C 
ATOM      7  C   UNL     1     140.503 138.266 142.244  1.00  0.00     0.007 C 
ATOM      8  C   UNL     1     141.366 136.160 143.286  1.00  0.00     0.007 C 
ENDBRANCH   3   6
ENDBRANCH   2   3
ENDBRANCH   1   2
BRANCH   1   9
ATOM      9  C   UNL     1     137.274 134.612 139.944  1.00  0.00    -0.011 C 
ATOM     10  C   UNL     1     136.173 134.270 140.976  1.00  0.00     0.008 C 
BRANCH   9  11
ATOM     11  C   UNL     1     137.977 133.294 139.451  1.00  0.00    -0.002 C 
ATOM     12  C   UNL     1     137.374 132.036 140.115  1.00  0.00     0.005 C 
ATOM     13  C   UNL     1     137.974 132.963 137.920  1.00  0.00    -0.023 C 
ATOM     14  C   UNL     1     137.527 130.873 139.139  1.00  0.00     0.009 C 
ATOM     15  C   UNL     1     138.257 131.441 137.928  1.00  0.00     0.021 C 
ATOM     16  C   UNL     1     136.589 133.268 137.265  1.00  0.00     0.008 C 
ATOM     17  C   UNL     1     139.118 133.675 137.147  1.00  0.00     0.012 C 
ATOM     18  C   UNL     1     137.887 130.763 136.616  1.00  0.00    -0.067 C 
ATOM     19  C   UNL     1     136.380 132.586 135.901  1.00  0.00     0.009 C 
ATOM     20  C   UNL     1     136.506 131.053 136.028  1.00  0.00     0.021 C 
ATOM     21  C   UNL     1     138.858 130.134 135.914  1.00  0.00    -0.027 C 
ATOM     22  C   UNL     1     136.199 130.219 134.720  1.00  0.00    -0.023 C 
ATOM     23  C   UNL     1     138.660 129.561 134.539  1.00  0.00     0.031 C 
ATOM     24  C   UNL     1     137.469 130.204 133.814  1.00  0.00     0.002 C 
ATOM     25  C   UNL     1     135.016 130.825 133.902  1.00  0.00     0.010 C 
ATOM     26  C   UNL     1     135.799 128.781 135.177  1.00  0.00     0.012 C 
ATOM     27  C   UNL     1     137.235 129.513 132.450  1.00  0.00     0.036 C 
ATOM     28  C   UNL     1     134.778 130.104 132.566  1.00  0.00     0.032 C 
ATOM     29  C   UNL     1     136.047 130.130 131.700  1.00  0.00     0.114 C 
BRANCH  29  30
ATOM     30  O   UNL     1     135.830 129.410 130.515  1.00  0.00    -0.393 OA
ATOM     31  H   UNL     1     136.368 128.578 130.581  1.00  0.00     0.210 HD
ENDBRANCH  29  30
ENDBRANCH   9  11
ENDBRANCH   1   9
TORSDOF 7
ENDMDL
MODEL 5
REMARK VINA RESULT:    -5.537      9.705     12.778
REMARK INTER + INTRA:          -9.427
REMARK INTER:                  -7.565
REMARK INTRA:                  -1.862
REMARK UNBOUND:                -1.786
REMARK SMILES CC[C@@H](CC[C@H](C)[C@H]1CC[C@H]2C3=CC[C@H]4C[C@@H](O)CC[C@]4(C)[C@@H]3CC[C@@]12C)C(C)C
REMARK SMILES IDX 5 1 4 2 3 3 2 4 1 5 28 6 29 7 30 8 6 9 7 10 8 11 9 12 26 13
REMARK SMILES IDX 10 14 11 15 25 16 27 17 12 18 24 19 23 20 13 21 21 22 14 23
REMARK SMILES IDX 15 24 20 25 22 26 16 27 19 28 17 29 18 30
REMARK H PARENT 18 31
REMARK Flexibility Score: inf
ROOT
ATOM      1  C   UNL     1     133.195 130.294 142.399  1.00  0.00     0.004 C 
ENDROOT
BRANCH   1   2
ATOM      2  C   UNL     1     133.862 129.207 141.529  1.00  0.00     0.004 C 
BRANCH   2   3
ATOM      3  C   UNL     1     134.827 129.769 140.443  1.00  0.00    -0.009 C 
BRANCH   3   4
ATOM      4  C   UNL     1     134.284 129.538 139.000  1.00  0.00     0.000 C 
ATOM      5  C   UNL     1     133.651 128.163 138.774  1.00  0.00     0.004 C 
ENDBRANCH   3   4
BRANCH   3   6
ATOM      6  C   UNL     1     136.289 129.230 140.643  1.00  0.00    -0.014 C 
ATOM      7  C   UNL     1     137.344 130.348 140.531  1.00  0.00     0.007 C 
ATOM      8  C   UNL     1     136.462 128.527 142.004  1.00  0.00     0.007 C 
ENDBRANCH   3   6
ENDBRANCH   2   3
ENDBRANCH   1   2
BRANCH   1   9
ATOM      9  C   UNL     1     134.099 130.844 143.535  1.00  0.00    -0.011 C 
ATOM     10  C   UNL     1     133.703 130.198 144.884  1.00  0.00     0.008 C 
BRANCH   9  11
ATOM     11  C   UNL     1     134.024 132.411 143.647  1.00  0.00    -0.002 C 
ATOM     12  C   UNL     1     133.973 132.882 145.118  1.00  0.00     0.005 C 
ATOM     13  C   UNL     1     135.163 133.271 143.004  1.00  0.00    -0.023 C 
ATOM     14  C   UNL     1     134.621 134.262 145.189  1.00  0.00     0.009 C 
ATOM     15  C   UNL     1     135.007 134.614 143.757  1.00  0.00     0.021 C 
ATOM     16  C   UNL     1     136.573 132.648 143.263  1.00  0.00     0.008 C 
ATOM     17  C   UNL     1     134.944 133.525 141.487  1.00  0.00     0.012 C 
ATOM     18  C   UNL     1     136.243 135.497 143.656  1.00  0.00    -0.067 C 
ATOM     19  C   UNL     1     137.738 133.629 143.041  1.00  0.00     0.009 C 
ATOM     20  C   UNL     1     137.600 134.863 143.958  1.00  0.00     0.021 C 
ATOM     21  C   UNL     1     136.123 136.718 143.084  1.00  0.00    -0.027 C 
ATOM     22  C   UNL     1     138.794 135.899 143.915  1.00  0.00    -0.023 C 
ATOM     23  C   UNL     1     137.286 137.620 142.784  1.00  0.00     0.031 C 
ATOM     24  C   UNL     1     138.607 136.844 142.689  1.00  0.00     0.002 C 
ATOM     25  C   UNL     1     140.180 135.191 143.786  1.00  0.00     0.010 C 
ATOM     26  C   UNL     1     138.765 136.687 145.262  1.00  0.00     0.012 C 
ATOM     27  C   UNL     1     139.790 137.821 142.487  1.00  0.00     0.036 C 
ATOM     28  C   UNL     1     141.345 136.179 143.621  1.00  0.00     0.032 C 
ATOM     29  C   UNL     1     141.128 137.076 142.392  1.00  0.00     0.114 C 
BRANCH  29  30
ATOM     30  O   UNL     1     142.168 138.014 142.296  1.00  0.00    -0.393 OA
ATOM     31  H   UNL     1     142.903 137.687 142.880  1.00  0.00     0.210 HD
ENDBRANCH  29  30
ENDBRANCH   9  11
ENDBRANCH   1   9
TORSDOF 7
ENDMDL
MODEL 6
REMARK VINA RESULT:    -5.424     10.802     12.617
REMARK INTER + INTRA:          -9.272
REMARK INTER:                  -7.407
REMARK INTRA:                  -1.865
REMARK UNBOUND:                -1.786
REMARK SMILES CC[C@@H](CC[C@H](C)[C@H]1CC[C@H]2C3=CC[C@H]4C[C@@H](O)CC[C@]4(C)[C@@H]3CC[C@@]12C)C(C)C
REMARK SMILES IDX 5 1 4 2 3 3 2 4 1 5 28 6 29 7 30 8 6 9 7 10 8 11 9 12 26 13
REMARK SMILES IDX 10 14 11 15 25 16 27 17 12 18 24 19 23 20 13 21 21 22 14 23
REMARK SMILES IDX 15 24 20 25 22 26 16 27 19 28 17 29 18 30
REMARK H PARENT 18 31
REMARK Flexibility Score: inf
ROOT
ATOM      1  C   UNL     1     137.068 133.306 142.767  1.00  0.00     0.004 C 
ENDROOT
BRANCH   1   2
ATOM      2  C   UNL     1     137.448 134.652 143.419  1.00  0.00     0.004 C 
BRANCH   2   3
ATOM      3  C   UNL     1     136.415 135.791 143.169  1.00  0.00    -0.009 C 
BRANCH   3   4
ATOM      4  C   UNL     1     135.252 135.334 142.238  1.00  0.00     0.000 C 
ATOM      5  C   UNL     1     134.831 136.372 141.195  1.00  0.00     0.004 C 
ENDBRANCH   3   4
BRANCH   3   6
ATOM      6  C   UNL     1     137.121 137.103 142.672  1.00  0.00    -0.014 C 
ATOM      7  C   UNL     1     137.096 138.219 143.736  1.00  0.00     0.007 C 
ATOM      8  C   UNL     1     138.585 136.851 142.262  1.00  0.00     0.007 C 
ENDBRANCH   3   6
ENDBRANCH   2   3
ENDBRANCH   1   2
BRANCH   1   9
ATOM      9  C   UNL     1     138.162 132.717 141.837  1.00  0.00    -0.011 C 
ATOM     10  C   UNL     1     139.525 132.700 142.568  1.00  0.00     0.008 C 
BRANCH   9  11
ATOM     11  C   UNL     1     138.286 133.516 140.487  1.00  0.00    -0.002 C 
ATOM     12  C   UNL     1     139.751 133.615 140.009  1.00  0.00     0.005 C 
ATOM     13  C   UNL     1     137.503 133.005 139.232  1.00  0.00    -0.023 C 
ATOM     14  C   UNL     1     139.742 133.699 138.486  1.00  0.00     0.009 C 
ATOM     15  C   UNL     1     138.273 133.694 138.079  1.00  0.00     0.021 C 
ATOM     16  C   UNL     1     137.576 131.450 139.097  1.00  0.00     0.008 C 
ATOM     17  C   UNL     1     136.028 133.492 139.202  1.00  0.00     0.012 C 
ATOM     18  C   UNL     1     138.014 133.049 136.725  1.00  0.00    -0.067 C 
ATOM     19  C   UNL     1     137.207 130.927 137.698  1.00  0.00     0.009 C 
ATOM     20  C   UNL     1     138.137 131.529 136.623  1.00  0.00     0.021 C 
ATOM     21  C   UNL     1     137.465 133.801 135.742  1.00  0.00    -0.027 C 
ATOM     22  C   UNL     1     137.943 130.986 135.151  1.00  0.00    -0.023 C 
ATOM     23  C   UNL     1     137.020 133.251 134.417  1.00  0.00     0.031 C 
ATOM     24  C   UNL     1     136.752 131.741 134.481  1.00  0.00     0.002 C 
ATOM     25  C   UNL     1     137.634 129.456 135.126  1.00  0.00     0.010 C 
ATOM     26  C   UNL     1     139.283 131.233 134.391  1.00  0.00     0.012 C 
ATOM     27  C   UNL     1     136.401 131.198 133.076  1.00  0.00     0.036 C 
ATOM     28  C   UNL     1     137.321 128.930 133.717  1.00  0.00     0.032 C 
ATOM     29  C   UNL     1     136.133 129.687 133.104  1.00  0.00     0.114 C 
BRANCH  29  30
ATOM     30  O   UNL     1     135.906 129.237 131.794  1.00  0.00    -0.393 OA
ATOM     31  H   UNL     1     136.561 129.706 131.212  1.00  0.00     0.210 HD
ENDBRANCH  29  30
ENDBRANCH   9  11
ENDBRANCH   1   9
TORSDOF 7
ENDMDL
MODEL 7
REMARK VINA RESULT:    -5.416     10.417     14.013
REMARK INTER + INTRA:          -9.259
REMARK INTER:                  -7.526
REMARK INTRA:                  -1.734
REMARK UNBOUND:                -1.786
REMARK SMILES CC[C@@H](CC[C@H](C)[C@H]1CC[C@H]2C3=CC[C@H]4C[C@@H](O)CC[C@]4(C)[C@@H]3CC[C@@]12C)C(C)C
REMARK SMILES IDX 5 1 4 2 3 3 2 4 1 5 28 6 29 7 30 8 6 9 7 10 8 11 9 12 26 13
REMARK SMILES IDX 10 14 11 15 25 16 27 17 12 18 24 19 23 20 13 21 21 22 14 23
REMARK SMILES IDX 15 24 20 25 22 26 16 27 19 28 17 29 18 30
REMARK H PARENT 18 31
REMARK Flexibility Score: inf
ROOT
ATOM      1  C   UNL     1     139.611 131.084 134.942  1.00  0.00     0.004 C 
ENDROOT
BRANCH   1   2
ATOM      2  C   UNL     1     138.675 129.878 135.171  1.00  0.00     0.004 C 
BRANCH   2   3
ATOM      3  C   UNL     1     137.407 129.879 134.267  1.00  0.00    -0.009 C 
BRANCH   3   4
ATOM      4  C   UNL     1     137.729 130.319 132.806  1.00  0.00     0.000 C 
ATOM      5  C   UNL     1     137.465 129.244 131.749  1.00  0.00     0.004 C 
ENDBRANCH   3   4
BRANCH   3   6
ATOM      6  C   UNL     1     136.243 130.710 134.916  1.00  0.00    -0.014 C 
ATOM      7  C   UNL     1     135.020 130.827 133.984  1.00  0.00     0.007 C 
ATOM      8  C   UNL     1     135.781 130.105 136.257  1.00  0.00     0.007 C 
ENDBRANCH   3   6
ENDBRANCH   2   3
ENDBRANCH   1   2
BRANCH   1   9
ATOM      9  C   UNL     1     139.965 131.870 136.233  1.00  0.00    -0.011 C 
ATOM     10  C   UNL     1     141.386 131.487 136.711  1.00  0.00     0.008 C 
BRANCH   9  11
ATOM     11  C   UNL     1     138.924 131.618 137.385  1.00  0.00    -0.002 C 
ATOM     12  C   UNL     1     139.532 130.791 138.541  1.00  0.00     0.005 C 
ATOM     13  C   UNL     1     138.268 132.850 138.094  1.00  0.00    -0.023 C 
ATOM     14  C   UNL     1     138.822 131.196 139.829  1.00  0.00     0.009 C 
ATOM     15  C   UNL     1     137.772 132.222 139.419  1.00  0.00     0.021 C 
ATOM     16  C   UNL     1     139.310 133.981 138.370  1.00  0.00     0.008 C 
ATOM     17  C   UNL     1     137.041 133.407 137.321  1.00  0.00     0.012 C 
ATOM     18  C   UNL     1     137.480 133.261 140.493  1.00  0.00    -0.067 C 
ATOM     19  C   UNL     1     138.850 135.011 139.416  1.00  0.00     0.009 C 
ATOM     20  C   UNL     1     138.541 134.326 140.764  1.00  0.00     0.021 C 
ATOM     21  C   UNL     1     136.223 133.345 140.989  1.00  0.00    -0.027 C 
ATOM     22  C   UNL     1     138.168 135.286 141.964  1.00  0.00    -0.023 C 
ATOM     23  C   UNL     1     135.766 134.420 141.934  1.00  0.00     0.031 C 
ATOM     24  C   UNL     1     136.658 135.667 141.862  1.00  0.00     0.002 C 
ATOM     25  C   UNL     1     139.011 136.601 141.947  1.00  0.00     0.010 C 
ATOM     26  C   UNL     1     138.481 134.514 143.283  1.00  0.00     0.012 C 
ATOM     27  C   UNL     1     136.219 136.703 142.924  1.00  0.00     0.036 C 
ATOM     28  C   UNL     1     138.582 137.602 143.031  1.00  0.00     0.032 C 
ATOM     29  C   UNL     1     137.095 137.962 142.882  1.00  0.00     0.114 C 
BRANCH  29  30
ATOM     30  O   UNL     1     136.708 138.825 143.918  1.00  0.00    -0.393 OA
ATOM     31  H   UNL     1     136.735 139.747 143.549  1.00  0.00     0.210 HD
ENDBRANCH  29  30
ENDBRANCH   9  11
ENDBRANCH   1   9
TORSDOF 7
ENDMDL
MODEL 8
REMARK VINA RESULT:    -5.401     10.908     12.746
REMARK INTER + INTRA:          -9.240
REMARK INTER:                  -8.002
REMARK INTRA:                  -1.237
REMARK UNBOUND:                -1.786
REMARK SMILES CC[C@@H](CC[C@H](C)[C@H]1CC[C@H]2C3=CC[C@H]4C[C@@H](O)CC[C@]4(C)[C@@H]3CC[C@@]12C)C(C)C
REMARK SMILES IDX 5 1 4 2 3 3 2 4 1 5 28 6 29 7 30 8 6 9 7 10 8 11 9 12 26 13
REMARK SMILES IDX 10 14 11 15 25 16 27 17 12 18 24 19 23 20 13 21 21 22 14 23
REMARK SMILES IDX 15 24 20 25 22 26 16 27 19 28 17 29 18 30
REMARK H PARENT 18 31
REMARK Flexibility Score: inf
ROOT
ATOM      1  C   UNL     1     138.364 135.170 140.854  1.00  0.00     0.004 C 
ENDROOT
BRANCH   1   2
ATOM      2  C   UNL     1     137.574 135.496 142.139  1.00  0.00     0.004 C 
BRANCH   2   3
ATOM      3  C   UNL     1     136.871 136.886 142.114  1.00  0.00    -0.009 C 
BRANCH   3   4
ATOM      4  C   UNL     1     137.431 137.847 143.207  1.00  0.00     0.000 C 
ATOM      5  C   UNL     1     137.918 137.146 144.477  1.00  0.00     0.004 C 
ENDBRANCH   3   4
BRANCH   3   6
ATOM      6  C   UNL     1     135.308 136.737 142.170  1.00  0.00    -0.014 C 
ATOM      7  C   UNL     1     134.677 136.671 140.765  1.00  0.00     0.007 C 
ATOM      8  C   UNL     1     134.877 135.485 142.960  1.00  0.00     0.007 C 
ENDBRANCH   3   6
ENDBRANCH   2   3
ENDBRANCH   1   2
BRANCH   1   9
ATOM      9  C   UNL     1     137.598 134.268 139.848  1.00  0.00    -0.011 C 
ATOM     10  C   UNL     1     136.562 133.400 140.599  1.00  0.00     0.008 C 
BRANCH   9  11
ATOM     11  C   UNL     1     138.569 133.350 139.017  1.00  0.00    -0.002 C 
ATOM     12  C   UNL     1     138.556 131.890 139.525  1.00  0.00     0.005 C 
ATOM     13  C   UNL     1     138.353 133.224 137.472  1.00  0.00    -0.023 C 
ATOM     14  C   UNL     1     138.867 130.981 138.340  1.00  0.00     0.009 C 
ATOM     15  C   UNL     1     139.106 131.909 137.155  1.00  0.00     0.021 C 
ATOM     16  C   UNL     1     136.839 133.100 137.107  1.00  0.00     0.008 C 
ATOM     17  C   UNL     1     139.019 134.380 136.675  1.00  0.00     0.012 C 
ATOM     18  C   UNL     1     138.708 131.307 135.815  1.00  0.00    -0.067 C 
ATOM     19  C   UNL     1     136.581 132.557 135.691  1.00  0.00     0.009 C 
ATOM     20  C   UNL     1     137.217 131.162 135.512  1.00  0.00     0.021 C 
ATOM     21  C   UNL     1     139.661 131.147 134.867  1.00  0.00    -0.027 C 
ATOM     22  C   UNL     1     136.929 130.436 134.137  1.00  0.00    -0.023 C 
ATOM     23  C   UNL     1     139.375 130.711 133.458  1.00  0.00     0.031 C 
ATOM     24  C   UNL     1     137.918 130.977 133.057  1.00  0.00     0.002 C 
ATOM     25  C   UNL     1     135.470 130.683 133.638  1.00  0.00     0.010 C 
ATOM     26  C   UNL     1     137.118 128.906 134.378  1.00  0.00     0.012 C 
ATOM     27  C   UNL     1     137.639 130.416 131.642  1.00  0.00     0.036 C 
ATOM     28  C   UNL     1     135.204 130.089 132.246  1.00  0.00     0.032 C 
ATOM     29  C   UNL     1     136.187 130.662 131.213  1.00  0.00     0.114 C 
BRANCH  29  30
ATOM     30  O   UNL     1     135.970 130.060 129.964  1.00  0.00    -0.393 OA
ATOM     31  H   UNL     1     135.119 130.431 129.611  1.00  0.00     0.210 HD
ENDBRANCH  29  30
ENDBRANCH   9  11
ENDBRANCH   1   9
TORSDOF 7
ENDMDL
MODEL 9
REMARK VINA RESULT:    -5.397      9.584     13.635
REMARK INTER + INTRA:          -9.233
REMARK INTER:                  -7.257
REMARK INTRA:                  -1.976
REMARK UNBOUND:                -1.786
REMARK SMILES CC[C@@H](CC[C@H](C)[C@H]1CC[C@H]2C3=CC[C@H]4C[C@@H](O)CC[C@]4(C)[C@@H]3CC[C@@]12C)C(C)C
REMARK SMILES IDX 5 1 4 2 3 3 2 4 1 5 28 6 29 7 30 8 6 9 7 10 8 11 9 12 26 13
REMARK SMILES IDX 10 14 11 15 25 16 27 17 12 18 24 19 23 20 13 21 21 22 14 23
REMARK SMILES IDX 15 24 20 25 22 26 16 27 19 28 17 29 18 30
REMARK H PARENT 18 31
REMARK Flexibility Score: inf
ROOT
ATOM      1  C   UNL     1     137.706 137.527 144.110  1.00  0.00     0.004 C 
ENDROOT
BRANCH   1   2
ATOM      2  C   UNL     1     138.132 137.355 142.636  1.00  0.00     0.004 C 
BRANCH   2   3
ATOM      3  C   UNL     1     139.638 137.001 142.450  1.00  0.00    -0.009 C 
BRANCH   3   4
ATOM      4  C   UNL     1     140.520 138.272 142.257  1.00  0.00     0.000 C 
ATOM      5  C   UNL     1     141.991 138.084 142.633  1.00  0.00     0.004 C 
ENDBRANCH   3   4
BRANCH   3   6
ATOM      6  C   UNL     1     139.837 135.936 141.312  1.00  0.00    -0.014 C 
ATOM      7  C   UNL     1     140.403 134.606 141.850  1.00  0.00     0.007 C 
ATOM      8  C   UNL     1     138.524 135.642 140.561  1.00  0.00     0.007 C 
ENDBRANCH   3   6
ENDBRANCH   2   3
ENDBRANCH   1   2
BRANCH   1   9
ATOM      9  C   UNL     1     136.952 136.305 144.701  1.00  0.00    -0.011 C 
ATOM     10  C   UNL     1     137.430 136.038 146.148  1.00  0.00     0.008 C 
BRANCH   9  11
ATOM     11  C   UNL     1     137.139 135.012 143.825  1.00  0.00    -0.002 C 
ATOM     12  C   UNL     1     138.013 133.955 144.537  1.00  0.00     0.005 C 
ATOM     13  C   UNL     1     135.870 134.219 143.366  1.00  0.00    -0.023 C 
ATOM     14  C   UNL     1     137.569 132.578 144.053  1.00  0.00     0.009 C 
ATOM     15  C   UNL     1     136.470 132.833 143.028  1.00  0.00     0.021 C 
ATOM     16  C   UNL     1     134.814 134.104 144.512  1.00  0.00     0.008 C 
ATOM     17  C   UNL     1     135.225 134.806 142.080  1.00  0.00     0.012 C 
ATOM     18  C   UNL     1     135.421 131.732 142.968  1.00  0.00    -0.067 C 
ATOM     19  C   UNL     1     133.761 133.005 144.282  1.00  0.00     0.009 C 
ATOM     20  C   UNL     1     134.433 131.623 144.128  1.00  0.00     0.021 C 
ATOM     21  C   UNL     1     135.254 131.057 141.806  1.00  0.00    -0.027 C 
ATOM     22  C   UNL     1     133.457 130.386 144.002  1.00  0.00    -0.023 C 
ATOM     23  C   UNL     1     134.157 130.059 141.568  1.00  0.00     0.031 C 
ATOM     24  C   UNL     1     132.973 130.266 142.523  1.00  0.00     0.002 C 
ATOM     25  C   UNL     1     132.203 130.530 144.922  1.00  0.00     0.010 C 
ATOM     26  C   UNL     1     134.257 129.124 144.451  1.00  0.00     0.012 C 
ATOM     27  C   UNL     1     131.916 129.155 142.317  1.00  0.00     0.036 C 
ATOM     28  C   UNL     1     131.182 129.400 144.726  1.00  0.00     0.032 C 
ATOM     29  C   UNL     1     130.720 129.330 143.261  1.00  0.00     0.114 C 
BRANCH  29  30
ATOM     30  O   UNL     1     129.839 128.251 143.090  1.00  0.00    -0.393 OA
ATOM     31  H   UNL     1     130.381 127.489 142.754  1.00  0.00     0.210 HD
ENDBRANCH  29  30
ENDBRANCH   9  11
ENDBRANCH   1   9
TORSDOF 7
ENDMDL
