MODEL 1
REMARK VINA RESULT:    -5.342      0.000      0.000
REMARK INTER + INTRA:         -12.844
REMARK INTER:                 -10.340
REMARK INTRA:                  -2.505
REMARK UNBOUND:                -2.505
REMARK SMILES CCCCCC=CCC=CCCCCCCCCOC(C)=O
REMARK SMILES IDX 12 1 11 2 10 3 9 4 8 5 7 6 6 7 5 8 4 9 3 10 2 11 1 12 13 13
REMARK SMILES IDX 14 14 15 15 16 16 17 17 18 18 19 19 20 20 22 21 21 22
REMARK H PARENT
REMARK Flexibility Score: inf
ROOT
ATOM      1  C   UNL     1       1.280  34.236  65.557  1.00  0.00     0.004 C 
ENDROOT
BRANCH   1   2
ATOM      2  C   UNL     1       1.410  32.752  65.181  1.00  0.00     0.027 C 
BRANCH   2   3
ATOM      3  C   UNL     1       1.071  31.854  66.340  1.00  0.00    -0.031 C 
ATOM      4  C   UNL     1       0.177  32.214  67.273  1.00  0.00    -0.027 C 
BRANCH   4   5
ATOM      5  C   UNL     1      -0.174  31.311  68.423  1.00  0.00     0.054 C 
BRANCH   5   6
ATOM      6  C   UNL     1       0.970  31.237  69.393  1.00  0.00    -0.027 C 
ATOM      7  C   UNL     1       1.763  30.158  69.457  1.00  0.00    -0.031 C 
BRANCH   7   8
ATOM      8  C   UNL     1       2.914  30.107  70.424  1.00  0.00     0.027 C 
BRANCH   8   9
ATOM      9  C   UNL     1       4.094  30.955  69.930  1.00  0.00     0.004 C 
BRANCH   9  10
ATOM     10  C   UNL     1       4.342  30.784  68.417  1.00  0.00     0.000 C 
BRANCH  10  11
ATOM     11  C   UNL     1       4.517  32.116  67.667  1.00  0.00    -0.003 C 
ATOM     12  C   UNL     1       3.885  33.300  68.394  1.00  0.00     0.004 C 
ENDBRANCH  10  11
ENDBRANCH   9  10
ENDBRANCH   8   9
ENDBRANCH   7   8
ENDBRANCH   5   6
ENDBRANCH   4   5
ENDBRANCH   2   3
ENDBRANCH   1   2
BRANCH   1  13
ATOM     13  C   UNL     1       0.246  35.015  64.719  1.00  0.00     0.000 C 
BRANCH  13  14
ATOM     14  C   UNL     1      -1.161  35.112  65.343  1.00  0.00     0.000 C 
BRANCH  14  15
ATOM     15  C   UNL     1      -2.176  34.071  64.830  1.00  0.00     0.000 C 
BRANCH  15  16
ATOM     16  C   UNL     1      -1.738  33.300  63.569  1.00  0.00     0.003 C 
BRANCH  16  17
ATOM     17  C   UNL     1      -2.694  33.421  62.370  1.00  0.00     0.042 C 
BRANCH  17  18
ATOM     18  C   UNL     1      -2.455  34.690  61.543  1.00  0.00     0.233 C 
BRANCH  18  19
ATOM     19  O   UNL     1      -1.063  35.003  61.503  1.00  0.00    -0.466 OA
BRANCH  19  20
ATOM     20  C   UNL     1      -0.238  34.710  60.412  1.00  0.00     0.302 C 
ATOM     21  O   UNL     1       0.145  33.530  60.189  1.00  0.00    -0.253 OA
ATOM     22  C   UNL     1       0.160  35.803  59.479  1.00  0.00     0.139 C 
ENDBRANCH  19  20
ENDBRANCH  18  19
ENDBRANCH  17  18
ENDBRANCH  16  17
ENDBRANCH  15  16
ENDBRANCH  14  15
ENDBRANCH  13  14
ENDBRANCH   1  13
TORSDOF 16
ENDMDL
MODEL 2
REMARK VINA RESULT:    -5.320      3.254      7.872
REMARK INTER + INTRA:         -12.800
REMARK INTER:                 -10.281
REMARK INTRA:                  -2.519
REMARK UNBOUND:                -2.505
REMARK SMILES CCCCCC=CCC=CCCCCCCCCOC(C)=O
REMARK SMILES IDX 12 1 11 2 10 3 9 4 8 5 7 6 6 7 5 8 4 9 3 10 2 11 1 12 13 13
REMARK SMILES IDX 14 14 15 15 16 16 17 17 18 18 19 19 20 20 22 21 21 22
REMARK H PARENT
REMARK Flexibility Score: inf
ROOT
ATOM      1  C   UNL     1       0.356  32.738  66.247  1.00  0.00     0.004 C 
ENDROOT
BRANCH   1   2
ATOM      2  C   UNL     1       1.345  33.761  65.668  1.00  0.00     0.027 C 
BRANCH   2   3
ATOM      3  C   UNL     1       1.006  34.119  64.246  1.00  0.00    -0.031 C 
ATOM      4  C   UNL     1       0.723  33.180  63.331  1.00  0.00    -0.027 C 
BRANCH   4   5
ATOM      5  C   UNL     1       0.369  33.536  61.914  1.00  0.00     0.054 C 
BRANCH   5   6
ATOM      6  C   UNL     1      -1.046  34.033  61.842  1.00  0.00    -0.027 C 
ATOM      7  C   UNL     1      -2.052  33.367  62.427  1.00  0.00    -0.031 C 
BRANCH   7   8
ATOM      8  C   UNL     1      -3.461  33.888  62.357  1.00  0.00     0.027 C 
BRANCH   8   9
ATOM      9  C   UNL     1      -3.893  34.507  63.693  1.00  0.00     0.004 C 
BRANCH   9  10
ATOM     10  C   UNL     1      -2.915  34.165  64.837  1.00  0.00     0.000 C 
BRANCH  10  11
ATOM     11  C   UNL     1      -2.269  35.401  65.485  1.00  0.00    -0.003 C 
ATOM     12  C   UNL     1      -2.458  36.676  64.665  1.00  0.00     0.004 C 
ENDBRANCH  10  11
ENDBRANCH   9  10
ENDBRANCH   8   9
ENDBRANCH   7   8
ENDBRANCH   5   6
ENDBRANCH   4   5
ENDBRANCH   2   3
ENDBRANCH   1   2
BRANCH   1  13
ATOM     13  C   UNL     1       0.361  32.652  67.786  1.00  0.00     0.000 C 
BRANCH  13  14
ATOM     14  C   UNL     1       0.272  31.224  68.361  1.00  0.00     0.000 C 
BRANCH  14  15
ATOM     15  C   UNL     1       0.949  30.133  67.509  1.00  0.00     0.000 C 
BRANCH  15  16
ATOM     16  C   UNL     1       1.713  29.060  68.310  1.00  0.00     0.003 C 
BRANCH  16  17
ATOM     17  C   UNL     1       3.225  28.998  68.033  1.00  0.00     0.042 C 
BRANCH  17  18
ATOM     18  C   UNL     1       3.743  30.225  67.273  1.00  0.00     0.233 C 
BRANCH  18  19
ATOM     19  O   UNL     1       4.485  31.075  68.147  1.00  0.00    -0.466 OA
BRANCH  19  20
ATOM     20  C   UNL     1       3.899  32.071  68.935  1.00  0.00     0.302 C 
ATOM     21  O   UNL     1       3.427  31.802  70.072  1.00  0.00    -0.253 OA
ATOM     22  C   UNL     1       3.870  33.476  68.438  1.00  0.00     0.139 C 
ENDBRANCH  19  20
ENDBRANCH  18  19
ENDBRANCH  17  18
ENDBRANCH  16  17
ENDBRANCH  15  16
ENDBRANCH  14  15
ENDBRANCH  13  14
ENDBRANCH   1  13
TORSDOF 16
ENDMDL
MODEL 3
REMARK VINA RESULT:    -5.258      2.034      3.314
REMARK INTER + INTRA:         -12.680
REMARK INTER:                 -10.338
REMARK INTRA:                  -2.342
REMARK UNBOUND:                -2.505
REMARK SMILES CCCCCC=CCC=CCCCCCCCCOC(C)=O
REMARK SMILES IDX 12 1 11 2 10 3 9 4 8 5 7 6 6 7 5 8 4 9 3 10 2 11 1 12 13 13
REMARK SMILES IDX 14 14 15 15 16 16 17 17 18 18 19 19 20 20 22 21 21 22
REMARK H PARENT
REMARK Flexibility Score: inf
ROOT
ATOM      1  C   UNL     1       1.266  33.801  65.152  1.00  0.00     0.004 C 
ENDROOT
BRANCH   1   2
ATOM      2  C   UNL     1       0.625  33.569  66.528  1.00  0.00     0.027 C 
BRANCH   2   3
ATOM      3  C   UNL     1       1.659  33.508  67.620  1.00  0.00    -0.031 C 
ATOM      4  C   UNL     1       2.968  33.404  67.346  1.00  0.00    -0.027 C 
BRANCH   4   5
ATOM      5  C   UNL     1       4.003  33.359  68.435  1.00  0.00     0.054 C 
BRANCH   5   6
ATOM      6  C   UNL     1       3.841  32.112  69.255  1.00  0.00    -0.027 C 
ATOM      7  C   UNL     1       4.288  30.925  68.819  1.00  0.00    -0.031 C 
BRANCH   7   8
ATOM      8  C   UNL     1       4.130  29.689  69.661  1.00  0.00     0.027 C 
BRANCH   8   9
ATOM      9  C   UNL     1       2.869  28.906  69.269  1.00  0.00     0.004 C 
BRANCH   9  10
ATOM     10  C   UNL     1       2.465  29.147  67.799  1.00  0.00     0.000 C 
BRANCH  10  11
ATOM     11  C   UNL     1       1.072  29.777  67.639  1.00  0.00    -0.003 C 
ATOM     12  C   UNL     1       0.510  30.331  68.947  1.00  0.00     0.004 C 
ENDBRANCH  10  11
ENDBRANCH   9  10
ENDBRANCH   8   9
ENDBRANCH   7   8
ENDBRANCH   5   6
ENDBRANCH   4   5
ENDBRANCH   2   3
ENDBRANCH   1   2
BRANCH   1  13
ATOM     13  C   UNL     1       0.901  32.740  64.094  1.00  0.00     0.000 C 
BRANCH  13  14
ATOM     14  C   UNL     1      -0.132  33.195  63.043  1.00  0.00     0.000 C 
BRANCH  14  15
ATOM     15  C   UNL     1      -1.606  33.018  63.456  1.00  0.00     0.000 C 
BRANCH  15  16
ATOM     16  C   UNL     1      -2.633  33.298  62.341  1.00  0.00     0.003 C 
BRANCH  16  17
ATOM     17  C   UNL     1      -3.454  34.586  62.524  1.00  0.00     0.042 C 
BRANCH  17  18
ATOM     18  C   UNL     1      -2.620  35.858  62.325  1.00  0.00     0.233 C 
BRANCH  18  19
ATOM     19  O   UNL     1      -2.626  36.648  63.513  1.00  0.00    -0.466 OA
BRANCH  19  20
ATOM     20  C   UNL     1      -1.746  36.442  64.580  1.00  0.00     0.302 C 
ATOM     21  O   UNL     1      -0.532  36.771  64.491  1.00  0.00    -0.253 OA
ATOM     22  C   UNL     1      -2.261  35.862  65.854  1.00  0.00     0.139 C 
ENDBRANCH  19  20
ENDBRANCH  18  19
ENDBRANCH  17  18
ENDBRANCH  16  17
ENDBRANCH  15  16
ENDBRANCH  14  15
ENDBRANCH  13  14
ENDBRANCH   1  13
TORSDOF 16
ENDMDL
MODEL 4
REMARK VINA RESULT:    -5.257      4.091      9.001
REMARK INTER + INTRA:         -12.679
REMARK INTER:                 -10.693
REMARK INTRA:                  -1.986
REMARK UNBOUND:                -2.505
REMARK SMILES CCCCCC=CCC=CCCCCCCCCOC(C)=O
REMARK SMILES IDX 12 1 11 2 10 3 9 4 8 5 7 6 6 7 5 8 4 9 3 10 2 11 1 12 13 13
REMARK SMILES IDX 14 14 15 15 16 16 17 17 18 18 19 19 20 20 22 21 21 22
REMARK H PARENT
REMARK Flexibility Score: inf
ROOT
ATOM      1  C   UNL     1       0.753  30.288  68.508  1.00  0.00     0.004 C 
ENDROOT
BRANCH   1   2
ATOM      2  C   UNL     1       0.304  31.734  68.243  1.00  0.00     0.027 C 
BRANCH   2   3
ATOM      3  C   UNL     1       0.326  32.063  66.774  1.00  0.00    -0.031 C 
ATOM      4  C   UNL     1       0.995  33.125  66.301  1.00  0.00    -0.027 C 
BRANCH   4   5
ATOM      5  C   UNL     1       1.032  33.446  64.832  1.00  0.00     0.054 C 
BRANCH   5   6
ATOM      6  C   UNL     1      -0.354  33.722  64.326  1.00  0.00    -0.027 C 
ATOM      7  C   UNL     1      -0.898  32.992  63.342  1.00  0.00    -0.031 C 
BRANCH   7   8
ATOM      8  C   UNL     1      -2.294  33.274  62.858  1.00  0.00     0.027 C 
BRANCH   8   9
ATOM      9  C   UNL     1      -3.165  33.855  63.980  1.00  0.00     0.004 C 
BRANCH   9  10
ATOM     10  C   UNL     1      -4.137  34.936  63.462  1.00  0.00     0.000 C 
BRANCH  10  11
ATOM     11  C   UNL     1      -4.016  36.279  64.203  1.00  0.00    -0.003 C 
ATOM     12  C   UNL     1      -2.954  36.264  65.300  1.00  0.00     0.004 C 
ENDBRANCH  10  11
ENDBRANCH   9  10
ENDBRANCH   8   9
ENDBRANCH   7   8
ENDBRANCH   5   6
ENDBRANCH   4   5
ENDBRANCH   2   3
ENDBRANCH   1   2
BRANCH   1  13
ATOM     13  C   UNL     1       1.467  29.619  67.317  1.00  0.00     0.000 C 
BRANCH  13  14
ATOM     14  C   UNL     1       2.998  29.500  67.456  1.00  0.00     0.000 C 
BRANCH  14  15
ATOM     15  C   UNL     1       3.772  30.826  67.316  1.00  0.00     0.000 C 
BRANCH  15  16
ATOM     16  C   UNL     1       4.667  31.189  68.517  1.00  0.00     0.003 C 
BRANCH  16  17
ATOM     17  C   UNL     1       3.907  31.582  69.796  1.00  0.00     0.042 C 
BRANCH  17  18
ATOM     18  C   UNL     1       3.808  30.433  70.807  1.00  0.00     0.233 C 
BRANCH  18  19
ATOM     19  O   UNL     1       4.852  29.485  70.589  1.00  0.00    -0.466 OA
BRANCH  19  20
ATOM     20  C   UNL     1       4.663  28.101  70.658  1.00  0.00     0.302 C 
ATOM     21  O   UNL     1       5.466  27.310  70.093  1.00  0.00    -0.253 OA
ATOM     22  C   UNL     1       3.520  27.555  71.443  1.00  0.00     0.139 C 
ENDBRANCH  19  20
ENDBRANCH  18  19
ENDBRANCH  17  18
ENDBRANCH  16  17
ENDBRANCH  15  16
ENDBRANCH  14  15
ENDBRANCH  13  14
ENDBRANCH   1  13
TORSDOF 16
ENDMDL
MODEL 5
REMARK VINA RESULT:    -5.254      3.209      8.322
REMARK INTER + INTRA:         -12.672
REMARK INTER:                 -10.623
REMARK INTRA:                  -2.049
REMARK UNBOUND:                -2.505
REMARK SMILES CCCCCC=CCC=CCCCCCCCCOC(C)=O
REMARK SMILES IDX 12 1 11 2 10 3 9 4 8 5 7 6 6 7 5 8 4 9 3 10 2 11 1 12 13 13
REMARK SMILES IDX 14 14 15 15 16 16 17 17 18 18 19 19 20 20 22 21 21 22
REMARK H PARENT
REMARK Flexibility Score: inf
ROOT
ATOM      1  C   UNL     1       2.184  33.629  65.784  1.00  0.00     0.004 C 
ENDROOT
BRANCH   1   2
ATOM      2  C   UNL     1       0.664  33.848  65.810  1.00  0.00     0.027 C 
BRANCH   2   3
ATOM      3  C   UNL     1      -0.022  33.118  64.686  1.00  0.00    -0.031 C 
ATOM      4  C   UNL     1      -0.374  33.742  63.552  1.00  0.00    -0.027 C 
BRANCH   4   5
ATOM      5  C   UNL     1      -1.045  33.011  62.422  1.00  0.00     0.054 C 
BRANCH   5   6
ATOM      6  C   UNL     1      -2.355  33.664  62.087  1.00  0.00    -0.027 C 
ATOM      7  C   UNL     1      -3.115  34.233  63.034  1.00  0.00    -0.031 C 
BRANCH   7   8
ATOM      8  C   UNL     1      -4.418  34.895  62.677  1.00  0.00     0.027 C 
BRANCH   8   9
ATOM      9  C   UNL     1      -4.652  36.155  63.522  1.00  0.00     0.004 C 
BRANCH   9  10
ATOM     10  C   UNL     1      -3.469  36.451  64.468  1.00  0.00     0.000 C 
BRANCH  10  11
ATOM     11  C   UNL     1      -2.601  37.638  64.016  1.00  0.00    -0.003 C 
ATOM     12  C   UNL     1      -1.104  37.350  64.096  1.00  0.00     0.004 C 
ENDBRANCH  10  11
ENDBRANCH   9  10
ENDBRANCH   8   9
ENDBRANCH   7   8
ENDBRANCH   5   6
ENDBRANCH   4   5
ENDBRANCH   2   3
ENDBRANCH   1   2
BRANCH   1  13
ATOM     13  C   UNL     1       2.756  32.995  67.068  1.00  0.00     0.000 C 
BRANCH  13  14
ATOM     14  C   UNL     1       3.750  31.838  66.839  1.00  0.00     0.000 C 
BRANCH  14  15
ATOM     15  C   UNL     1       4.351  31.230  68.121  1.00  0.00     0.000 C 
BRANCH  15  16
ATOM     16  C   UNL     1       3.946  31.936  69.430  1.00  0.00     0.003 C 
BRANCH  16  17
ATOM     17  C   UNL     1       3.185  31.054  70.434  1.00  0.00     0.042 C 
BRANCH  17  18
ATOM     18  C   UNL     1       2.744  29.713  69.834  1.00  0.00     0.233 C 
BRANCH  18  19
ATOM     19  O   UNL     1       1.335  29.710  69.606  1.00  0.00    -0.466 OA
BRANCH  19  20
ATOM     20  C   UNL     1       0.747  30.140  68.412  1.00  0.00     0.302 C 
ATOM     21  O   UNL     1       0.982  29.547  67.324  1.00  0.00    -0.253 OA
ATOM     22  C   UNL     1      -0.201  31.291  68.434  1.00  0.00     0.139 C 
ENDBRANCH  19  20
ENDBRANCH  18  19
ENDBRANCH  17  18
ENDBRANCH  16  17
ENDBRANCH  15  16
ENDBRANCH  14  15
ENDBRANCH  13  14
ENDBRANCH   1  13
TORSDOF 16
ENDMDL
MODEL 6
REMARK VINA RESULT:    -5.227      1.241      2.371
REMARK INTER + INTRA:         -12.620
REMARK INTER:                 -10.608
REMARK INTRA:                  -2.013
REMARK UNBOUND:                -2.505
REMARK SMILES CCCCCC=CCC=CCCCCCCCCOC(C)=O
REMARK SMILES IDX 12 1 11 2 10 3 9 4 8 5 7 6 6 7 5 8 4 9 3 10 2 11 1 12 13 13
REMARK SMILES IDX 14 14 15 15 16 16 17 17 18 18 19 19 20 20 22 21 21 22
REMARK H PARENT
REMARK Flexibility Score: inf
ROOT
ATOM      1  C   UNL     1       0.423  33.862  66.195  1.00  0.00     0.004 C 
ENDROOT
BRANCH   1   2
ATOM      2  C   UNL     1       1.611  33.145  65.536  1.00  0.00     0.027 C 
BRANCH   2   3
ATOM      3  C   UNL     1       2.670  32.784  66.543  1.00  0.00    -0.031 C 
ATOM      4  C   UNL     1       2.974  33.595  67.567  1.00  0.00    -0.027 C 
BRANCH   4   5
ATOM      5  C   UNL     1       4.021  33.228  68.583  1.00  0.00     0.054 C 
BRANCH   5   6
ATOM      6  C   UNL     1       3.549  32.076  69.422  1.00  0.00    -0.027 C 
ATOM      7  C   UNL     1       4.002  30.831  69.218  1.00  0.00    -0.031 C 
BRANCH   7   8
ATOM      8  C   UNL     1       3.529  29.692  70.079  1.00  0.00     0.027 C 
BRANCH   8   9
ATOM      9  C   UNL     1       2.307  28.998  69.462  1.00  0.00     0.004 C 
BRANCH   9  10
ATOM     10  C   UNL     1       2.233  29.195  67.933  1.00  0.00     0.000 C 
BRANCH  10  11
ATOM     11  C   UNL     1       0.892  29.772  67.450  1.00  0.00    -0.003 C 
ATOM     12  C   UNL     1       0.245  30.714  68.464  1.00  0.00     0.004 C 
ENDBRANCH  10  11
ENDBRANCH   9  10
ENDBRANCH   8   9
ENDBRANCH   7   8
ENDBRANCH   5   6
ENDBRANCH   4   5
ENDBRANCH   2   3
ENDBRANCH   1   2
BRANCH   1  13
ATOM     13  C   UNL     1      -0.288  34.882  65.283  1.00  0.00     0.000 C 
BRANCH  13  14
ATOM     14  C   UNL     1      -1.594  35.471  65.854  1.00  0.00     0.000 C 
BRANCH  14  15
ATOM     15  C   UNL     1      -2.819  35.367  64.924  1.00  0.00     0.000 C 
BRANCH  15  16
ATOM     16  C   UNL     1      -3.129  33.947  64.410  1.00  0.00     0.003 C 
BRANCH  16  17
ATOM     17  C   UNL     1      -2.937  33.749  62.897  1.00  0.00     0.042 C 
BRANCH  17  18
ATOM     18  C   UNL     1      -1.768  32.815  62.561  1.00  0.00     0.233 C 
BRANCH  18  19
ATOM     19  O   UNL     1      -1.245  33.118  61.268  1.00  0.00    -0.466 OA
BRANCH  19  20
ATOM     20  C   UNL     1      -0.175  33.994  61.056  1.00  0.00     0.302 C 
ATOM     21  O   UNL     1       0.809  34.016  61.843  1.00  0.00    -0.253 OA
ATOM     22  C   UNL     1      -0.184  34.886  59.862  1.00  0.00     0.139 C 
ENDBRANCH  19  20
ENDBRANCH  18  19
ENDBRANCH  17  18
ENDBRANCH  16  17
ENDBRANCH  15  16
ENDBRANCH  14  15
ENDBRANCH  13  14
ENDBRANCH   1  13
TORSDOF 16
ENDMDL
MODEL 7
REMARK VINA RESULT:    -5.221      4.024      8.799
REMARK INTER + INTRA:         -12.609
REMARK INTER:                 -10.395
REMARK INTRA:                  -2.214
REMARK UNBOUND:                -2.505
REMARK SMILES CCCCCC=CCC=CCCCCCCCCOC(C)=O
REMARK SMILES IDX 12 1 11 2 10 3 9 4 8 5 7 6 6 7 5 8 4 9 3 10 2 11 1 12 13 13
REMARK SMILES IDX 14 14 15 15 16 16 17 17 18 18 19 19 20 20 22 21 21 22
REMARK H PARENT
REMARK Flexibility Score: inf
ROOT
ATOM      1  C   UNL     1       2.709  33.505  68.000  1.00  0.00     0.004 C 
ENDROOT
BRANCH   1   2
ATOM      2  C   UNL     1       1.212  33.160  68.008  1.00  0.00     0.027 C 
BRANCH   2   3
ATOM      3  C   UNL     1       0.736  32.718  66.650  1.00  0.00    -0.031 C 
ATOM      4  C   UNL     1       1.320  33.152  65.524  1.00  0.00    -0.027 C 
BRANCH   4   5
ATOM      5  C   UNL     1       0.856  32.699  64.167  1.00  0.00     0.054 C 
BRANCH   5   6
ATOM      6  C   UNL     1      -0.550  33.162  63.917  1.00  0.00    -0.027 C 
ATOM      7  C   UNL     1      -1.175  32.909  62.759  1.00  0.00    -0.031 C 
BRANCH   7   8
ATOM      8  C   UNL     1      -2.589  33.368  62.532  1.00  0.00     0.027 C 
BRANCH   8   9
ATOM      9  C   UNL     1      -2.628  34.672  61.724  1.00  0.00     0.004 C 
BRANCH   9  10
ATOM     10  C   UNL     1      -2.890  35.904  62.616  1.00  0.00     0.000 C 
BRANCH  10  11
ATOM     11  C   UNL     1      -1.630  36.741  62.895  1.00  0.00    -0.003 C 
ATOM     12  C   UNL     1      -1.191  36.693  64.357  1.00  0.00     0.004 C 
ENDBRANCH  10  11
ENDBRANCH   9  10
ENDBRANCH   8   9
ENDBRANCH   7   8
ENDBRANCH   5   6
ENDBRANCH   4   5
ENDBRANCH   2   3
ENDBRANCH   1   2
BRANCH   1  13
ATOM     13  C   UNL     1       3.627  32.355  68.461  1.00  0.00     0.000 C 
BRANCH  13  14
ATOM     14  C   UNL     1       4.222  31.498  67.325  1.00  0.00     0.000 C 
BRANCH  14  15
ATOM     15  C   UNL     1       3.923  29.989  67.420  1.00  0.00     0.000 C 
BRANCH  15  16
ATOM     16  C   UNL     1       2.427  29.623  67.479  1.00  0.00     0.003 C 
BRANCH  16  17
ATOM     17  C   UNL     1       1.965  28.991  68.803  1.00  0.00     0.042 C 
BRANCH  17  18
ATOM     18  C   UNL     1       3.129  28.680  69.753  1.00  0.00     0.233 C 
BRANCH  18  19
ATOM     19  O   UNL     1       3.085  29.537  70.893  1.00  0.00    -0.466 OA
BRANCH  19  20
ATOM     20  C   UNL     1       4.223  29.941  71.599  1.00  0.00     0.302 C 
ATOM     21  O   UNL     1       4.171  30.160  72.839  1.00  0.00    -0.253 OA
ATOM     22  C   UNL     1       5.523  30.074  70.881  1.00  0.00     0.139 C 
ENDBRANCH  19  20
ENDBRANCH  18  19
ENDBRANCH  17  18
ENDBRANCH  16  17
ENDBRANCH  15  16
ENDBRANCH  14  15
ENDBRANCH  13  14
ENDBRANCH   1  13
TORSDOF 16
ENDMDL
MODEL 8
REMARK VINA RESULT:    -5.211      2.819      7.950
REMARK INTER + INTRA:         -12.589
REMARK INTER:                  -9.153
REMARK INTRA:                  -3.435
REMARK UNBOUND:                -2.505
REMARK SMILES CCCCCC=CCC=CCCCCCCCCOC(C)=O
REMARK SMILES IDX 12 1 11 2 10 3 9 4 8 5 7 6 6 7 5 8 4 9 3 10 2 11 1 12 13 13
REMARK SMILES IDX 14 14 15 15 16 16 17 17 18 18 19 19 20 20 22 21 21 22
REMARK H PARENT
REMARK Flexibility Score: inf
ROOT
ATOM      1  C   UNL     1      -3.126  34.060  64.262  1.00  0.00     0.004 C 
ENDROOT
BRANCH   1   2
ATOM      2  C   UNL     1      -3.504  34.191  62.779  1.00  0.00     0.027 C 
BRANCH   2   3
ATOM      3  C   UNL     1      -2.290  34.381  61.910  1.00  0.00    -0.031 C 
ATOM      4  C   UNL     1      -1.600  33.337  61.426  1.00  0.00    -0.027 C 
BRANCH   4   5
ATOM      5  C   UNL     1      -0.396  33.525  60.545  1.00  0.00     0.054 C 
BRANCH   5   6
ATOM      6  C   UNL     1       0.137  34.921  60.684  1.00  0.00    -0.027 C 
ATOM      7  C   UNL     1       0.104  35.788  59.661  1.00  0.00    -0.031 C 
BRANCH   7   8
ATOM      8  C   UNL     1       0.629  37.188  59.823  1.00  0.00     0.027 C 
BRANCH   8   9
ATOM      9  C   UNL     1       0.657  37.604  61.300  1.00  0.00     0.004 C 
BRANCH   9  10
ATOM     10  C   UNL     1      -0.443  38.632  61.638  1.00  0.00     0.000 C 
BRANCH  10  11
ATOM     11  C   UNL     1      -1.750  37.994  62.137  1.00  0.00    -0.003 C 
ATOM     12  C   UNL     1      -2.822  37.897  61.054  1.00  0.00     0.004 C 
ENDBRANCH  10  11
ENDBRANCH   9  10
ENDBRANCH   8   9
ENDBRANCH   7   8
ENDBRANCH   5   6
ENDBRANCH   4   5
ENDBRANCH   2   3
ENDBRANCH   1   2
BRANCH   1  13
ATOM     13  C   UNL     1      -2.652  35.374  64.915  1.00  0.00     0.000 C 
BRANCH  13  14
ATOM     14  C   UNL     1      -1.223  35.339  65.492  1.00  0.00     0.000 C 
BRANCH  14  15
ATOM     15  C   UNL     1      -0.114  35.785  64.519  1.00  0.00     0.000 C 
BRANCH  15  16
ATOM     16  C   UNL     1       0.960  34.719  64.222  1.00  0.00     0.003 C 
BRANCH  16  17
ATOM     17  C   UNL     1       0.497  33.264  64.406  1.00  0.00     0.042 C 
BRANCH  17  18
ATOM     18  C   UNL     1       1.433  32.449  65.306  1.00  0.00     0.233 C 
BRANCH  18  19
ATOM     19  O   UNL     1       2.182  33.314  66.159  1.00  0.00    -0.466 OA
BRANCH  19  20
ATOM     20  C   UNL     1       1.968  33.410  67.538  1.00  0.00     0.302 C 
ATOM     21  O   UNL     1       2.933  33.577  68.332  1.00  0.00    -0.253 OA
ATOM     22  C   UNL     1       0.577  33.353  68.071  1.00  0.00     0.139 C 
ENDBRANCH  19  20
ENDBRANCH  18  19
ENDBRANCH  17  18
ENDBRANCH  16  17
ENDBRANCH  15  16
ENDBRANCH  14  15
ENDBRANCH  13  14
ENDBRANCH   1  13
TORSDOF 16
ENDMDL
MODEL 9
REMARK VINA RESULT:    -5.187      3.531      8.357
REMARK INTER + INTRA:         -12.544
REMARK INTER:                 -10.183
REMARK INTRA:                  -2.360
REMARK UNBOUND:                -2.505
REMARK SMILES CCCCCC=CCC=CCCCCCCCCOC(C)=O
REMARK SMILES IDX 12 1 11 2 10 3 9 4 8 5 7 6 6 7 5 8 4 9 3 10 2 11 1 12 13 13
REMARK SMILES IDX 14 14 15 15 16 16 17 17 18 18 19 19 20 20 22 21 21 22
REMARK H PARENT
REMARK Flexibility Score: inf
ROOT
ATOM      1  C   UNL     1       0.685  33.204  64.575  1.00  0.00     0.004 C 
ENDROOT
BRANCH   1   2
ATOM      2  C   UNL     1       0.939  34.718  64.510  1.00  0.00     0.027 C 
BRANCH   2   3
ATOM      3  C   UNL     1      -0.338  35.502  64.648  1.00  0.00    -0.031 C 
ATOM      4  C   UNL     1      -1.217  35.251  65.629  1.00  0.00    -0.027 C 
BRANCH   4   5
ATOM      5  C   UNL     1      -2.486  36.044  65.778  1.00  0.00     0.054 C 
BRANCH   5   6
ATOM      6  C   UNL     1      -3.472  35.651  64.716  1.00  0.00    -0.027 C 
ATOM      7  C   UNL     1      -4.007  36.559  63.888  1.00  0.00    -0.031 C 
BRANCH   7   8
ATOM      8  C   UNL     1      -4.982  36.145  62.821  1.00  0.00     0.027 C 
BRANCH   8   9
ATOM      9  C   UNL     1      -4.501  34.886  62.086  1.00  0.00     0.004 C 
BRANCH   9  10
ATOM     10  C   UNL     1      -3.364  35.192  61.087  1.00  0.00     0.000 C 
BRANCH  10  11
ATOM     11  C   UNL     1      -2.025  34.532  61.457  1.00  0.00    -0.003 C 
ATOM     12  C   UNL     1      -2.194  33.177  62.140  1.00  0.00     0.004 C 
ENDBRANCH  10  11
ENDBRANCH   9  10
ENDBRANCH   8   9
ENDBRANCH   7   8
ENDBRANCH   5   6
ENDBRANCH   4   5
ENDBRANCH   2   3
ENDBRANCH   1   2
BRANCH   1  13
ATOM     13  C   UNL     1       1.529  32.464  65.631  1.00  0.00     0.000 C 
BRANCH  13  14
ATOM     14  C   UNL     1       1.720  33.219  66.962  1.00  0.00     0.000 C 
BRANCH  14  15
ATOM     15  C   UNL     1       0.558  33.081  67.964  1.00  0.00     0.000 C 
BRANCH  15  16
ATOM     16  C   UNL     1       0.059  31.640  68.191  1.00  0.00     0.003 C 
BRANCH  16  17
ATOM     17  C   UNL     1       1.162  30.615  68.507  1.00  0.00     0.042 C 
BRANCH  17  18
ATOM     18  C   UNL     1       1.745  30.782  69.916  1.00  0.00     0.233 C 
BRANCH  18  19
ATOM     19  O   UNL     1       2.962  31.527  69.866  1.00  0.00    -0.466 OA
BRANCH  19  20
ATOM     20  C   UNL     1       4.180  30.985  69.443  1.00  0.00     0.302 C 
ATOM     21  O   UNL     1       4.798  30.148  70.155  1.00  0.00    -0.253 OA
ATOM     22  C   UNL     1       4.734  31.373  68.115  1.00  0.00     0.139 C 
ENDBRANCH  19  20
ENDBRANCH  18  19
ENDBRANCH  17  18
ENDBRANCH  16  17
ENDBRANCH  15  16
ENDBRANCH  14  15
ENDBRANCH  13  14
ENDBRANCH   1  13
TORSDOF 16
ENDMDL
