MODEL 1
REMARK VINA RESULT:    -5.076      0.000      0.000
REMARK INTER + INTRA:          -6.244
REMARK INTER:                  -5.966
REMARK INTRA:                  -0.278
REMARK UNBOUND:                -0.278
REMARK SMILES O=c1cc(-c2ccc(O)c(O)c2)oc2cc(O)cc(O)c12
REMARK SMILES IDX 4 1 3 2 2 3 1 4 21 5 19 6 18 7 16 8 15 9 14 10 13 11 5 12
REMARK SMILES IDX 6 13 7 14 8 15 12 16 10 17 9 18 11 20 20 22 17 24
REMARK H PARENT 9 19 11 21 20 23 17 25
REMARK Flexibility Score: inf
ROOT
ATOM      1  C   UNL     1     103.410 102.161  92.740  1.00  0.00     0.138 A 
ATOM      2  C   UNL     1     104.667 102.015  92.141  1.00  0.00     0.100 A 
ATOM      3  C   UNL     1     105.250 100.750  92.057  1.00  0.00     0.197 A 
ATOM      4  O   UNL     1     106.354 100.643  91.463  1.00  0.00    -0.289 OA
ATOM      5  C   UNL     1     104.584  99.630  92.612  1.00  0.00     0.107 A 
ATOM      6  C   UNL     1     105.097  98.298  92.617  1.00  0.00     0.134 A 
ATOM      7  C   UNL     1     104.302  97.255  93.109  1.00  0.00     0.093 A 
ATOM      8  C   UNL     1     103.038  97.504  93.647  1.00  0.00     0.123 A 
ATOM      9  C   UNL     1     102.549  98.807  93.693  1.00  0.00     0.094 A 
ATOM     10  C   UNL     1     103.303  99.865  93.179  1.00  0.00     0.146 A 
ATOM     11  O   UNL     1     102.791 101.090  93.226  1.00  0.00    -0.456 OA
ENDROOT
BRANCH   1  12
ATOM     12  C   UNL     1     102.745 103.484  92.859  1.00  0.00     0.021 A 
ATOM     13  C   UNL     1     102.390 104.238  91.724  1.00  0.00     0.016 A 
ATOM     14  C   UNL     1     101.756 105.476  91.866  1.00  0.00     0.051 A 
ATOM     15  C   UNL     1     101.459 105.976  93.139  1.00  0.00     0.157 A 
ATOM     16  C   UNL     1     102.430 103.988  94.134  1.00  0.00     0.062 A 
ATOM     17  C   UNL     1     101.794 105.230  94.275  1.00  0.00     0.158 A 
BRANCH  15  18
ATOM     18  O   UNL     1     100.827 107.209  93.284  1.00  0.00    -0.504 OA
ATOM     19  H   UNL     1     100.319 107.449  94.128  1.00  0.00     0.293 HD
ENDBRANCH  15  18
BRANCH  17  20
ATOM     20  O   UNL     1     101.494 105.728  95.542  1.00  0.00    -0.504 OA
ATOM     21  H   UNL     1     101.623 106.707  95.771  1.00  0.00     0.293 HD
ENDBRANCH  17  20
ENDBRANCH   1  12
BRANCH   6  22
ATOM     22  O   UNL     1     106.378  97.949  92.178  1.00  0.00    -0.507 OA
ATOM     23  H   UNL     1     106.734  97.008  92.116  1.00  0.00     0.293 HD
ENDBRANCH   6  22
BRANCH   8  24
ATOM     24  O   UNL     1     102.261  96.461  94.148  1.00  0.00    -0.508 OA
ATOM     25  H   UNL     1     101.287  96.596  94.393  1.00  0.00     0.293 HD
ENDBRANCH   8  24
TORSDOF 5
ENDMDL
MODEL 2
REMARK VINA RESULT:    -5.050      4.336      7.408
REMARK INTER + INTRA:          -6.213
REMARK INTER:                  -5.905
REMARK INTRA:                  -0.308
REMARK UNBOUND:                -0.278
REMARK SMILES O=c1cc(-c2ccc(O)c(O)c2)oc2cc(O)cc(O)c12
REMARK SMILES IDX 4 1 3 2 2 3 1 4 21 5 19 6 18 7 16 8 15 9 14 10 13 11 5 12
REMARK SMILES IDX 6 13 7 14 8 15 12 16 10 17 9 18 11 20 20 22 17 24
REMARK H PARENT 9 19 11 21 20 23 17 25
REMARK Flexibility Score: inf
ROOT
ATOM      1  C   UNL     1     100.330 108.401  93.137  1.00  0.00     0.138 A 
ATOM      2  C   UNL     1      99.033 107.988  92.806  1.00  0.00     0.100 A 
ATOM      3  C   UNL     1      98.719 106.628  92.809  1.00  0.00     0.197 A 
ATOM      4  O   UNL     1      97.532 106.292  92.562  1.00  0.00    -0.289 OA
ATOM      5  C   UNL     1      99.722 105.675  93.110  1.00  0.00     0.107 A 
ATOM      6  C   UNL     1      99.528 104.260  93.110  1.00  0.00     0.134 A 
ATOM      7  C   UNL     1     100.572 103.421  93.520  1.00  0.00     0.093 A 
ATOM      8  C   UNL     1     101.818 103.942  93.875  1.00  0.00     0.123 A 
ATOM      9  C   UNL     1     102.034 105.316  93.830  1.00  0.00     0.094 A 
ATOM     10  C   UNL     1     101.003 106.182  93.458  1.00  0.00     0.146 A 
ATOM     11  O   UNL     1     101.246 107.489  93.446  1.00  0.00    -0.456 OA
ENDROOT
BRANCH   1  12
ATOM     12  C   UNL     1     100.719 109.834  93.146  1.00  0.00     0.021 A 
ATOM     13  C   UNL     1     100.052 110.787  92.352  1.00  0.00     0.016 A 
ATOM     14  C   UNL     1     100.434 112.132  92.389  1.00  0.00     0.051 A 
ATOM     15  C   UNL     1     101.478 112.548  93.223  1.00  0.00     0.157 A 
ATOM     16  C   UNL     1     101.758 110.264  93.992  1.00  0.00     0.062 A 
ATOM     17  C   UNL     1     102.140 111.612  94.029  1.00  0.00     0.158 A 
BRANCH  15  18
ATOM     18  O   UNL     1     101.861 113.887  93.262  1.00  0.00    -0.504 OA
ATOM     19  H   UNL     1     102.808 114.160  93.496  1.00  0.00     0.293 HD
ENDBRANCH  15  18
BRANCH  17  20
ATOM     20  O   UNL     1     103.177 112.029  94.861  1.00  0.00    -0.504 OA
ATOM     21  H   UNL     1     103.756 112.826  94.628  1.00  0.00     0.293 HD
ENDBRANCH  17  20
ENDBRANCH   1  12
BRANCH   6  22
ATOM     22  O   UNL     1      98.350 103.631  92.698  1.00  0.00    -0.507 OA
ATOM     23  H   UNL     1      97.417 103.957  92.899  1.00  0.00     0.293 HD
ENDBRANCH   6  22
BRANCH   8  24
ATOM     24  O   UNL     1     102.855 103.097  94.267  1.00  0.00    -0.508 OA
ATOM     25  H   UNL     1     102.672 102.193  94.687  1.00  0.00     0.293 HD
ENDBRANCH   8  24
TORSDOF 5
ENDMDL
MODEL 3
REMARK VINA RESULT:    -4.922      1.699      6.513
REMARK INTER + INTRA:          -6.063
REMARK INTER:                  -5.748
REMARK INTRA:                  -0.315
REMARK UNBOUND:                -0.278
REMARK SMILES O=c1cc(-c2ccc(O)c(O)c2)oc2cc(O)cc(O)c12
REMARK SMILES IDX 4 1 3 2 2 3 1 4 21 5 19 6 18 7 16 8 15 9 14 10 13 11 5 12
REMARK SMILES IDX 6 13 7 14 8 15 12 16 10 17 9 18 11 20 20 22 17 24
REMARK H PARENT 9 19 11 21 20 23 17 25
REMARK Flexibility Score: inf
ROOT
ATOM      1  C   UNL     1     104.137 100.663  92.741  1.00  0.00     0.138 A 
ATOM      2  C   UNL     1     105.339 100.819  92.039  1.00  0.00     0.100 A 
ATOM      3  C   UNL     1     105.797 102.101  91.729  1.00  0.00     0.197 A 
ATOM      4  O   UNL     1     106.907 102.210  91.147  1.00  0.00    -0.289 OA
ATOM      5  C   UNL     1     105.025 103.231  92.093  1.00  0.00     0.107 A 
ATOM      6  C   UNL     1     105.374 104.584  91.800  1.00  0.00     0.134 A 
ATOM      7  C   UNL     1     104.580 105.624  92.298  1.00  0.00     0.093 A 
ATOM      8  C   UNL     1     103.420 105.359  93.030  1.00  0.00     0.123 A 
ATOM      9  C   UNL     1     103.043 104.042  93.278  1.00  0.00     0.094 A 
ATOM     10  C   UNL     1     103.832 102.982  92.824  1.00  0.00     0.146 A 
ATOM     11  O   UNL     1     103.447 101.741  93.099  1.00  0.00    -0.456 OA
ENDROOT
BRANCH   1  12
ATOM     12  C   UNL     1     103.602  99.323  93.094  1.00  0.00     0.021 A 
ATOM     13  C   UNL     1     104.406  98.168  93.042  1.00  0.00     0.016 A 
ATOM     14  C   UNL     1     103.877  96.921  93.389  1.00  0.00     0.051 A 
ATOM     15  C   UNL     1     102.545  96.808  93.802  1.00  0.00     0.157 A 
ATOM     16  C   UNL     1     102.268  99.202  93.523  1.00  0.00     0.062 A 
ATOM     17  C   UNL     1     101.739  97.951  93.871  1.00  0.00     0.158 A 
BRANCH  15  18
ATOM     18  O   UNL     1     102.015  95.567  94.149  1.00  0.00    -0.504 OA
ATOM     19  H   UNL     1     102.107  95.196  95.088  1.00  0.00     0.293 HD
ENDBRANCH  15  18
BRANCH  17  20
ATOM     20  O   UNL     1     100.413  97.837  94.286  1.00  0.00    -0.504 OA
ATOM     21  H   UNL     1      99.711  97.395  93.704  1.00  0.00     0.293 HD
ENDBRANCH  17  20
ENDBRANCH   1  12
BRANCH   6  22
ATOM     22  O   UNL     1     106.466 104.959  91.012  1.00  0.00    -0.507 OA
ATOM     23  H   UNL     1     106.513 104.874  90.008  1.00  0.00     0.293 HD
ENDBRANCH   6  22
BRANCH   8  24
ATOM     24  O   UNL     1     102.628 106.401  93.508  1.00  0.00    -0.508 OA
ATOM     25  H   UNL     1     101.628 106.293  93.633  1.00  0.00     0.293 HD
ENDBRANCH   8  24
TORSDOF 5
ENDMDL
MODEL 4
REMARK VINA RESULT:    -4.877      1.693      3.216
REMARK INTER + INTRA:          -6.010
REMARK INTER:                  -5.736
REMARK INTRA:                  -0.273
REMARK UNBOUND:                -0.278
REMARK SMILES O=c1cc(-c2ccc(O)c(O)c2)oc2cc(O)cc(O)c12
REMARK SMILES IDX 4 1 3 2 2 3 1 4 21 5 19 6 18 7 16 8 15 9 14 10 13 11 5 12
REMARK SMILES IDX 6 13 7 14 8 15 12 16 10 17 9 18 11 20 20 22 17 24
REMARK H PARENT 9 19 11 21 20 23 17 25
REMARK Flexibility Score: inf
ROOT
ATOM      1  C   UNL     1     101.028 101.398  93.458  1.00  0.00     0.138 A 
ATOM      2  C   UNL     1     100.076 100.400  93.703  1.00  0.00     0.100 A 
ATOM      3  C   UNL     1     100.466  99.060  93.710  1.00  0.00     0.197 A 
ATOM      4  O   UNL     1      99.600  98.192  93.989  1.00  0.00    -0.289 OA
ATOM      5  C   UNL     1     101.812  98.717  93.433  1.00  0.00     0.107 A 
ATOM      6  C   UNL     1     102.317  97.383  93.379  1.00  0.00     0.134 A 
ATOM      7  C   UNL     1     103.689  97.173  93.192  1.00  0.00     0.093 A 
ATOM      8  C   UNL     1     104.564  98.245  93.002  1.00  0.00     0.123 A 
ATOM      9  C   UNL     1     104.073  99.548  93.003  1.00  0.00     0.094 A 
ATOM     10  C   UNL     1     102.715  99.793  93.220  1.00  0.00     0.146 A 
ATOM     11  O   UNL     1     102.291 101.053  93.232  1.00  0.00    -0.456 OA
ENDROOT
BRANCH   1  12
ATOM     12  C   UNL     1     100.668 102.839  93.436  1.00  0.00     0.021 A 
ATOM     13  C   UNL     1      99.787 103.367  92.473  1.00  0.00     0.016 A 
ATOM     14  C   UNL     1      99.458 104.725  92.483  1.00  0.00     0.051 A 
ATOM     15  C   UNL     1      99.995 105.576  93.457  1.00  0.00     0.157 A 
ATOM     16  C   UNL     1     101.192 103.698  94.419  1.00  0.00     0.062 A 
ATOM     17  C   UNL     1     100.861 105.061  94.429  1.00  0.00     0.158 A 
BRANCH  15  18
ATOM     18  O   UNL     1      99.669 106.930  93.469  1.00  0.00    -0.504 OA
ATOM     19  H   UNL     1     100.104 107.574  94.119  1.00  0.00     0.293 HD
ENDBRANCH  15  18
BRANCH  17  20
ATOM     20  O   UNL     1     101.391 105.908  95.400  1.00  0.00    -0.504 OA
ATOM     21  H   UNL     1     102.360 106.203  95.375  1.00  0.00     0.293 HD
ENDBRANCH  17  20
ENDBRANCH   1  12
BRANCH   6  22
ATOM     22  O   UNL     1     101.521  96.239  93.477  1.00  0.00    -0.507 OA
ATOM     23  H   UNL     1     101.848  95.325  93.754  1.00  0.00     0.293 HD
ENDBRANCH   6  22
BRANCH   8  24
ATOM     24  O   UNL     1     105.925  98.025  92.801  1.00  0.00    -0.508 OA
ATOM     25  H   UNL     1     106.359  98.173  91.898  1.00  0.00     0.293 HD
ENDBRANCH   8  24
TORSDOF 5
ENDMDL
MODEL 5
REMARK VINA RESULT:    -4.874      4.266      9.795
REMARK INTER + INTRA:          -6.006
REMARK INTER:                  -5.689
REMARK INTRA:                  -0.317
REMARK UNBOUND:                -0.278
REMARK SMILES O=c1cc(-c2ccc(O)c(O)c2)oc2cc(O)cc(O)c12
REMARK SMILES IDX 4 1 3 2 2 3 1 4 21 5 19 6 18 7 16 8 15 9 14 10 13 11 5 12
REMARK SMILES IDX 6 13 7 14 8 15 12 16 10 17 9 18 11 20 20 22 17 24
REMARK H PARENT 9 19 11 21 20 23 17 25
REMARK Flexibility Score: inf
ROOT
ATOM      1  C   UNL     1     100.538 107.504  93.131  1.00  0.00     0.138 A 
ATOM      2  C   UNL     1      99.435 108.058  92.469  1.00  0.00     0.100 A 
ATOM      3  C   UNL     1      99.373 109.437  92.264  1.00  0.00     0.197 A 
ATOM      4  O   UNL     1      98.398 109.898  91.617  1.00  0.00    -0.289 OA
ATOM      5  C   UNL     1     100.407 110.269  92.759  1.00  0.00     0.107 A 
ATOM      6  C   UNL     1     100.435 111.692  92.639  1.00  0.00     0.134 A 
ATOM      7  C   UNL     1     101.560 112.399  93.083  1.00  0.00     0.093 A 
ATOM      8  C   UNL     1     102.631 111.741  93.691  1.00  0.00     0.123 A 
ATOM      9  C   UNL     1     102.592 110.360  93.858  1.00  0.00     0.094 A 
ATOM     10  C   UNL     1     101.499 109.622  93.396  1.00  0.00     0.146 A 
ATOM     11  O   UNL     1     101.510 108.303  93.559  1.00  0.00    -0.456 OA
ENDROOT
BRANCH   1  12
ATOM     12  C   UNL     1     100.653 106.045  93.379  1.00  0.00     0.021 A 
ATOM     13  C   UNL     1      99.588 105.162  93.112  1.00  0.00     0.016 A 
ATOM     14  C   UNL     1      99.729 103.791  93.346  1.00  0.00     0.051 A 
ATOM     15  C   UNL     1     100.934 103.278  93.841  1.00  0.00     0.157 A 
ATOM     16  C   UNL     1     101.865 105.518  93.863  1.00  0.00     0.062 A 
ATOM     17  C   UNL     1     102.005 104.143  94.097  1.00  0.00     0.158 A 
BRANCH  15  18
ATOM     18  O   UNL     1     101.077 101.912  94.075  1.00  0.00    -0.504 OA
ATOM     19  H   UNL     1     101.475 101.562  94.939  1.00  0.00     0.293 HD
ENDBRANCH  15  18
BRANCH  17  20
ATOM     20  O   UNL     1     103.205 103.630  94.586  1.00  0.00    -0.504 OA
ATOM     21  H   UNL     1     104.100 104.002  94.292  1.00  0.00     0.293 HD
ENDBRANCH  17  20
ENDBRANCH   1  12
BRANCH   6  22
ATOM     22  O   UNL     1      99.386 112.455  92.120  1.00  0.00    -0.507 OA
ATOM     23  H   UNL     1      99.120 112.492  91.148  1.00  0.00     0.293 HD
ENDBRANCH   6  22
BRANCH   8  24
ATOM     24  O   UNL     1     103.739 112.456  94.143  1.00  0.00    -0.508 OA
ATOM     25  H   UNL     1     104.647 112.358  93.705  1.00  0.00     0.293 HD
ENDBRANCH   8  24
TORSDOF 5
ENDMDL
MODEL 6
REMARK VINA RESULT:    -4.755      6.920      9.105
REMARK INTER + INTRA:          -5.866
REMARK INTER:                  -5.575
REMARK INTRA:                  -0.291
REMARK UNBOUND:                -0.278
REMARK SMILES O=c1cc(-c2ccc(O)c(O)c2)oc2cc(O)cc(O)c12
REMARK SMILES IDX 4 1 3 2 2 3 1 4 21 5 19 6 18 7 16 8 15 9 14 10 13 11 5 12
REMARK SMILES IDX 6 13 7 14 8 15 12 16 10 17 9 18 11 20 20 22 17 24
REMARK H PARENT 9 19 11 21 20 23 17 25
REMARK Flexibility Score: inf
ROOT
ATOM      1  C   UNL     1     101.283 108.571  92.981  1.00  0.00     0.138 A 
ATOM      2  C   UNL     1     101.300 109.714  93.789  1.00  0.00     0.100 A 
ATOM      3  C   UNL     1     102.465 110.476  93.885  1.00  0.00     0.197 A 
ATOM      4  O   UNL     1     102.432 111.528  94.574  1.00  0.00    -0.289 OA
ATOM      5  C   UNL     1     103.632 110.068  93.194  1.00  0.00     0.107 A 
ATOM      6  C   UNL     1     104.887 110.746  93.243  1.00  0.00     0.134 A 
ATOM      7  C   UNL     1     105.943 110.301  92.438  1.00  0.00     0.093 A 
ATOM      8  C   UNL     1     105.807 109.171  91.629  1.00  0.00     0.123 A 
ATOM      9  C   UNL     1     104.603 108.472  91.612  1.00  0.00     0.094 A 
ATOM     10  C   UNL     1     103.519 108.910  92.378  1.00  0.00     0.146 A 
ATOM     11  O   UNL     1     102.382 108.225  92.317  1.00  0.00    -0.456 OA
ENDROOT
BRANCH   1  12
ATOM     12  C   UNL     1     100.072 107.722  92.846  1.00  0.00     0.021 A 
ATOM     13  C   UNL     1     100.144 106.402  92.362  1.00  0.00     0.016 A 
ATOM     14  C   UNL     1      98.988 105.623  92.255  1.00  0.00     0.051 A 
ATOM     15  C   UNL     1      97.746 106.144  92.637  1.00  0.00     0.157 A 
ATOM     16  C   UNL     1      98.822 108.233  93.240  1.00  0.00     0.062 A 
ATOM     17  C   UNL     1      97.663 107.452  93.132  1.00  0.00     0.158 A 
BRANCH  15  18
ATOM     18  O   UNL     1      96.592 105.371  92.531  1.00  0.00    -0.504 OA
ATOM     19  H   UNL     1      96.198 105.127  91.630  1.00  0.00     0.293 HD
ENDBRANCH  15  18
BRANCH  17  20
ATOM     20  O   UNL     1      96.426 107.967  93.515  1.00  0.00    -0.504 OA
ATOM     21  H   UNL     1      95.682 108.113  92.844  1.00  0.00     0.293 HD
ENDBRANCH  17  20
ENDBRANCH   1  12
BRANCH   6  22
ATOM     22  O   UNL     1     105.157 111.836  94.075  1.00  0.00    -0.507 OA
ATOM     23  H   UNL     1     105.104 111.825  95.083  1.00  0.00     0.293 HD
ENDBRANCH   6  22
BRANCH   8  24
ATOM     24  O   UNL     1     106.869 108.727  90.844  1.00  0.00    -0.508 OA
ATOM     25  H   UNL     1     106.909 108.918  89.849  1.00  0.00     0.293 HD
ENDBRANCH   8  24
TORSDOF 5
ENDMDL
MODEL 7
REMARK VINA RESULT:    -4.680      3.472      7.827
REMARK INTER + INTRA:          -5.779
REMARK INTER:                  -5.484
REMARK INTRA:                  -0.295
REMARK UNBOUND:                -0.278
REMARK SMILES O=c1cc(-c2ccc(O)c(O)c2)oc2cc(O)cc(O)c12
REMARK SMILES IDX 4 1 3 2 2 3 1 4 21 5 19 6 18 7 16 8 15 9 14 10 13 11 5 12
REMARK SMILES IDX 6 13 7 14 8 15 12 16 10 17 9 18 11 20 20 22 17 24
REMARK H PARENT 9 19 11 21 20 23 17 25
REMARK Flexibility Score: inf
ROOT
ATOM      1  C   UNL     1      99.796 102.357  93.533  1.00  0.00     0.138 A 
ATOM      2  C   UNL     1     101.004 102.858  94.035  1.00  0.00     0.100 A 
ATOM      3  C   UNL     1     101.248 104.232  94.004  1.00  0.00     0.197 A 
ATOM      4  O   UNL     1     102.317 104.656  94.514  1.00  0.00    -0.289 OA
ATOM      5  C   UNL     1     100.291 105.104  93.432  1.00  0.00     0.107 A 
ATOM      6  C   UNL     1     100.446 106.519  93.314  1.00  0.00     0.134 A 
ATOM      7  C   UNL     1      99.387 107.289  92.818  1.00  0.00     0.093 A 
ATOM      8  C   UNL     1      98.202 106.691  92.384  1.00  0.00     0.123 A 
ATOM      9  C   UNL     1      98.060 105.308  92.447  1.00  0.00     0.094 A 
ATOM     10  C   UNL     1      99.084 104.514  92.969  1.00  0.00     0.146 A 
ATOM     11  O   UNL     1      98.900 103.199  93.029  1.00  0.00    -0.456 OA
ENDROOT
BRANCH   1  12
ATOM     12  C   UNL     1      99.486 100.905  93.538  1.00  0.00     0.021 A 
ATOM     13  C   UNL     1      98.234 100.414  93.120  1.00  0.00     0.016 A 
ATOM     14  C   UNL     1      97.974  99.040  93.126  1.00  0.00     0.051 A 
ATOM     15  C   UNL     1      98.959  98.136  93.541  1.00  0.00     0.157 A 
ATOM     16  C   UNL     1     100.474  99.987  93.940  1.00  0.00     0.062 A 
ATOM     17  C   UNL     1     100.212  98.610  93.946  1.00  0.00     0.158 A 
BRANCH  15  18
ATOM     18  O   UNL     1      98.702  96.766  93.548  1.00  0.00    -0.504 OA
ATOM     19  H   UNL     1      99.031  96.162  92.804  1.00  0.00     0.293 HD
ENDBRANCH  15  18
BRANCH  17  20
ATOM     20  O   UNL     1     101.193  97.708  94.354  1.00  0.00    -0.504 OA
ATOM     21  H   UNL     1     102.057  98.020  94.781  1.00  0.00     0.293 HD
ENDBRANCH  17  20
ENDBRANCH   1  12
BRANCH   6  22
ATOM     22  O   UNL     1     101.616 107.209  93.643  1.00  0.00    -0.507 OA
ATOM     23  H   UNL     1     102.422 107.304  93.044  1.00  0.00     0.293 HD
ENDBRANCH   6  22
BRANCH   8  24
ATOM     24  O   UNL     1      97.160 107.466  91.877  1.00  0.00    -0.508 OA
ATOM     25  H   UNL     1      96.657 108.125  92.460  1.00  0.00     0.293 HD
ENDBRANCH   8  24
TORSDOF 5
ENDMDL
MODEL 8
REMARK VINA RESULT:    -4.609      8.801      9.335
REMARK INTER + INTRA:          -5.695
REMARK INTER:                  -5.415
REMARK INTRA:                  -0.281
REMARK UNBOUND:                -0.278
REMARK SMILES O=c1cc(-c2ccc(O)c(O)c2)oc2cc(O)cc(O)c12
REMARK SMILES IDX 4 1 3 2 2 3 1 4 21 5 19 6 18 7 16 8 15 9 14 10 13 11 5 12
REMARK SMILES IDX 6 13 7 14 8 15 12 16 10 17 9 18 11 20 20 22 17 24
REMARK H PARENT 9 19 11 21 20 23 17 25
REMARK Flexibility Score: inf
ROOT
ATOM      1  C   UNL     1     108.265 103.627 100.341  1.00  0.00     0.138 A 
ATOM      2  C   UNL     1     109.234 102.622 100.444  1.00  0.00     0.100 A 
ATOM      3  C   UNL     1     108.837 101.292 100.595  1.00  0.00     0.197 A 
ATOM      4  O   UNL     1     109.729 100.406 100.628  1.00  0.00    -0.289 OA
ATOM      5  C   UNL     1     107.459 100.975 100.681  1.00  0.00     0.107 A 
ATOM      6  C   UNL     1     106.937  99.659 100.870  1.00  0.00     0.134 A 
ATOM      7  C   UNL     1     105.552  99.457 100.841  1.00  0.00     0.093 A 
ATOM      8  C   UNL     1     104.669 100.529 100.686  1.00  0.00     0.123 A 
ATOM      9  C   UNL     1     105.167 101.822 100.552  1.00  0.00     0.094 A 
ATOM     10  C   UNL     1     106.545 102.053 100.543  1.00  0.00     0.146 A 
ATOM     11  O   UNL     1     106.978 103.301 100.393  1.00  0.00    -0.456 OA
ENDROOT
BRANCH   1  12
ATOM     12  C   UNL     1     108.632 105.058 100.182  1.00  0.00     0.021 A 
ATOM     13  C   UNL     1     107.906 106.083 100.817  1.00  0.00     0.016 A 
ATOM     14  C   UNL     1     108.280 107.421 100.657  1.00  0.00     0.051 A 
ATOM     15  C   UNL     1     109.388 107.755  99.870  1.00  0.00     0.157 A 
ATOM     16  C   UNL     1     109.752 105.402  99.404  1.00  0.00     0.062 A 
ATOM     17  C   UNL     1     110.127 106.744  99.244  1.00  0.00     0.158 A 
BRANCH  15  18
ATOM     18  O   UNL     1     109.764 109.087  99.709  1.00  0.00    -0.504 OA
ATOM     19  H   UNL     1     109.429 109.811 100.333  1.00  0.00     0.293 HD
ENDBRANCH  15  18
BRANCH  17  20
ATOM     20  O   UNL     1     111.233 107.079  98.464  1.00  0.00    -0.504 OA
ATOM     21  H   UNL     1     111.979 107.661  98.824  1.00  0.00     0.293 HD
ENDBRANCH  17  20
ENDBRANCH   1  12
BRANCH   6  22
ATOM     22  O   UNL     1     107.725  98.531 101.112  1.00  0.00    -0.507 OA
ATOM     23  H   UNL     1     108.100  97.921 100.401  1.00  0.00     0.293 HD
ENDBRANCH   6  22
BRANCH   8  24
ATOM     24  O   UNL     1     103.292 100.319 100.674  1.00  0.00    -0.508 OA
ATOM     25  H   UNL     1     102.832  99.775 101.396  1.00  0.00     0.293 HD
ENDBRANCH   8  24
TORSDOF 5
ENDMDL
MODEL 9
REMARK VINA RESULT:    -4.601      4.695      6.324
REMARK INTER + INTRA:          -5.686
REMARK INTER:                  -5.369
REMARK INTRA:                  -0.316
REMARK UNBOUND:                -0.278
REMARK SMILES O=c1cc(-c2ccc(O)c(O)c2)oc2cc(O)cc(O)c12
REMARK SMILES IDX 4 1 3 2 2 3 1 4 21 5 19 6 18 7 16 8 15 9 14 10 13 11 5 12
REMARK SMILES IDX 6 13 7 14 8 15 12 16 10 17 9 18 11 20 20 22 17 24
REMARK H PARENT 9 19 11 21 20 23 17 25
REMARK Flexibility Score: inf
ROOT
ATOM      1  C   UNL     1     105.254 107.914  92.120  1.00  0.00     0.138 A 
ATOM      2  C   UNL     1     105.978 107.323  91.077  1.00  0.00     0.100 A 
ATOM      3  C   UNL     1     105.885 105.947  90.866  1.00  0.00     0.197 A 
ATOM      4  O   UNL     1     106.502 105.454  89.887  1.00  0.00    -0.289 OA
ATOM      5  C   UNL     1     105.090 105.154  91.729  1.00  0.00     0.107 A 
ATOM      6  C   UNL     1     104.947 103.737  91.631  1.00  0.00     0.134 A 
ATOM      7  C   UNL     1     104.054 103.073  92.482  1.00  0.00     0.093 A 
ATOM      8  C   UNL     1     103.343 103.768  93.464  1.00  0.00     0.123 A 
ATOM      9  C   UNL     1     103.514 105.143  93.601  1.00  0.00     0.094 A 
ATOM     10  C   UNL     1     104.371 105.839  92.745  1.00  0.00     0.146 A 
ATOM     11  O   UNL     1     104.490 107.153  92.898  1.00  0.00    -0.456 OA
ENDROOT
BRANCH   1  12
ATOM     12  C   UNL     1     105.318 109.373  92.393  1.00  0.00     0.021 A 
ATOM     13  C   UNL     1     106.270 110.202  91.767  1.00  0.00     0.016 A 
ATOM     14  C   UNL     1     106.300 111.573  92.035  1.00  0.00     0.051 A 
ATOM     15  C   UNL     1     105.379 112.141  92.923  1.00  0.00     0.157 A 
ATOM     16  C   UNL     1     104.388 109.954  93.273  1.00  0.00     0.062 A 
ATOM     17  C   UNL     1     104.419 111.330  93.541  1.00  0.00     0.158 A 
BRANCH  15  18
ATOM     18  O   UNL     1     105.406 113.507  93.192  1.00  0.00    -0.504 OA
ATOM     19  H   UNL     1     105.111 113.877  94.088  1.00  0.00     0.293 HD
ENDBRANCH  15  18
BRANCH  17  20
ATOM     20  O   UNL     1     103.500 111.898  94.422  1.00  0.00    -0.504 OA
ATOM     21  H   UNL     1     102.757 112.505  94.095  1.00  0.00     0.293 HD
ENDBRANCH  17  20
ENDBRANCH   1  12
BRANCH   6  22
ATOM     22  O   UNL     1     105.668 102.936  90.741  1.00  0.00    -0.507 OA
ATOM     23  H   UNL     1     105.303 102.126  90.262  1.00  0.00     0.293 HD
ENDBRANCH   6  22
BRANCH   8  24
ATOM     24  O   UNL     1     102.469 103.096  94.317  1.00  0.00    -0.508 OA
ATOM     25  H   UNL     1     101.882 103.596  94.974  1.00  0.00     0.293 HD
ENDBRANCH   8  24
TORSDOF 5
ENDMDL
