MODEL 1
REMARK VINA RESULT:     0.521      0.000      0.000
REMARK INTER + INTRA:           0.913
REMARK INTER:                   0.643
REMARK INTRA:                   0.269
REMARK UNBOUND:                 0.269
REMARK SMILES C=C1[C@H]2CC[C@@H]3[C@@H]2C(C)(C)CCC[C@]13C
REMARK SMILES IDX 14 1 6 2 7 3 3 4 2 5 1 6 4 7 5 8 15 9 8 10 9 11 10 12 11 13
REMARK SMILES IDX 13 15 12 16
REMARK H PARENT
REMARK Flexibility Score: 80.00
ROOT
ATOM      1  C   UNL     1       7.549   7.108  12.538  1.00  0.00    -0.008 C 
ATOM      2  C   UNL     1       6.459   7.154  13.606  1.00  0.00     0.003 C 
ATOM      3  C   UNL     1       5.453   6.219  12.916  1.00  0.00     0.006 C 
ATOM      4  C   UNL     1       6.336   4.989  13.056  1.00  0.00     0.019 C 
ATOM      5  C   UNL     1       7.594   5.577  12.373  1.00  0.00    -0.068 C 
ATOM      6  C   UNL     1       8.509   4.875  11.697  1.00  0.00     0.009 C 
ATOM      7  C   UNL     1       6.625   4.924  14.546  1.00  0.00     0.008 C 
ATOM      8  C   UNL     1       6.777   6.398  14.921  1.00  0.00     0.005 C 
ATOM      9  C   UNL     1       8.891   7.695  13.015  1.00  0.00     0.016 C 
ENDROOT
BRANCH   3  10
ATOM     10  C   UNL     1       4.070   6.885  12.751  1.00  0.00    -0.032 C 
ATOM     11  C   UNL     1       3.539   7.500  14.070  1.00  0.00     0.011 C 
ATOM     12  C   UNL     1       3.038   5.825  12.295  1.00  0.00     0.011 C 
BRANCH  10  13
ATOM     13  C   UNL     1       4.237   8.012  11.623  1.00  0.00     0.007 CG0
ATOM     14  G   UNL     1       5.644   8.735  11.432  1.00  0.00     0.000 G0
ENDBRANCH  10  13
ENDBRANCH   3  10
BRANCH   1  15
ATOM     15  C   UNL     1       6.985   7.886  11.254  1.00  0.00     0.011 C 
BRANCH  15  16
ATOM     16  C   UNL     1       5.645   8.737  11.432  1.00  0.00     0.001 CG0
ATOM     17  G   UNL     1       4.237   8.015  11.626  1.00  0.00     0.000 G0
ENDBRANCH  15  16
ENDBRANCH   1  15
TORSDOF 0
ENDMDL
MODEL 2
REMARK VINA RESULT:     0.974      1.491      3.937
REMARK INTER + INTRA:           1.471
REMARK INTER:                   1.166
REMARK INTRA:                   0.305
REMARK UNBOUND:                 0.269
REMARK SMILES C=C1[C@H]2CC[C@@H]3[C@@H]2C(C)(C)CCC[C@]13C
REMARK SMILES IDX 14 1 6 2 7 3 3 4 2 5 1 6 4 7 5 8 15 9 8 10 9 11 10 12 11 13
REMARK SMILES IDX 13 15 12 16
REMARK H PARENT
REMARK Flexibility Score: 80.00
ROOT
ATOM      1  C   UNL     1       4.929   8.313  12.180  1.00  0.00    -0.008 C 
ATOM      2  C   UNL     1       5.435   6.921  11.805  1.00  0.00     0.003 C 
ATOM      3  C   UNL     1       5.571   6.359  13.228  1.00  0.00     0.006 C 
ATOM      4  C   UNL     1       4.073   6.369  13.492  1.00  0.00     0.019 C 
ATOM      5  C   UNL     1       3.830   7.861  13.160  1.00  0.00    -0.068 C 
ATOM      6  C   UNL     1       2.877   8.629  13.697  1.00  0.00     0.009 C 
ATOM      7  C   UNL     1       3.502   5.557  12.341  1.00  0.00     0.008 C 
ATOM      8  C   UNL     1       4.384   5.977  11.166  1.00  0.00     0.005 C 
ATOM      9  C   UNL     1       4.370   9.099  10.979  1.00  0.00     0.016 C 
ENDROOT
BRANCH   3  10
ATOM     10  C   UNL     1       6.993   5.823  13.501  1.00  0.00    -0.032 C 
ATOM     11  C   UNL     1       7.500   4.875  12.385  1.00  0.00     0.011 C 
ATOM     12  C   UNL     1       6.996   5.015  14.822  1.00  0.00     0.011 C 
BRANCH  10  13
ATOM     13  C   UNL     1       7.946   7.105  13.637  1.00  0.00     0.007 CG0
ATOM     14  G   UNL     1       7.623   8.421  12.799  1.00  0.00     0.000 G0
ENDBRANCH  10  13
ENDBRANCH   3  10
BRANCH   1  15
ATOM     15  C   UNL     1       6.149   9.085  12.878  1.00  0.00     0.011 C 
BRANCH  15  16
ATOM     16  C   UNL     1       7.595   8.411  12.801  1.00  0.00     0.001 CG0
ATOM     17  G   UNL     1       7.931   7.097  13.638  1.00  0.00     0.000 G0
ENDBRANCH  15  16
ENDBRANCH   1  15
TORSDOF 0
ENDMDL
MODEL 3
REMARK VINA RESULT:     2.096      5.639      7.325
REMARK INTER + INTRA:           2.855
REMARK INTER:                   2.603
REMARK INTRA:                   0.252
REMARK UNBOUND:                 0.269
REMARK SMILES C=C1[C@H]2CC[C@@H]3[C@@H]2C(C)(C)CCC[C@]13C
REMARK SMILES IDX 14 1 6 2 7 3 3 4 2 5 1 6 4 7 5 8 15 9 8 10 9 11 10 12 11 13
REMARK SMILES IDX 13 15 12 16
REMARK H PARENT
REMARK Flexibility Score: 80.00
ROOT
ATOM      1  C   UNL     1       3.953  13.362  13.839  1.00  0.00    -0.008 C 
ATOM      2  C   UNL     1       3.610  12.001  13.237  1.00  0.00     0.003 C 
ATOM      3  C   UNL     1       2.285  12.399  12.568  1.00  0.00     0.006 C 
ATOM      4  C   UNL     1       2.948  13.319  11.555  1.00  0.00     0.019 C 
ATOM      5  C   UNL     1       3.714  14.202  12.570  1.00  0.00    -0.068 C 
ATOM      6  C   UNL     1       4.036  15.486  12.392  1.00  0.00     0.009 C 
ATOM      7  C   UNL     1       3.973  12.426  10.876  1.00  0.00     0.008 C 
ATOM      8  C   UNL     1       4.481  11.564  12.031  1.00  0.00     0.005 C 
ATOM      9  C   UNL     1       5.404  13.452  14.348  1.00  0.00     0.016 C 
ENDROOT
BRANCH   3  10
ATOM     10  C   UNL     1       1.120  11.491  13.018  1.00  0.00    -0.032 C 
ATOM     11  C   UNL     1       1.446   9.983  12.879  1.00  0.00     0.011 C 
ATOM     12  C   UNL     1      -0.123  11.772  12.137  1.00  0.00     0.011 C 
BRANCH  10  13
ATOM     13  C   UNL     1       0.809  11.870  14.544  1.00  0.00     0.007 CG0
ATOM     14  G   UNL     1       1.980  12.422  15.475  1.00  0.00     0.000 G0
ENDBRANCH  10  13
ENDBRANCH   3  10
BRANCH   1  15
ATOM     15  C   UNL     1       2.895  13.638  15.012  1.00  0.00     0.011 C 
BRANCH  15  16
ATOM     16  C   UNL     1       1.981  12.418  15.490  1.00  0.00     0.001 CG0
ATOM     17  G   UNL     1       0.806  11.866  14.566  1.00  0.00     0.000 G0
ENDBRANCH  15  16
ENDBRANCH   1  15
TORSDOF 0
ENDMDL
MODEL 4
REMARK VINA RESULT:     2.129      4.424      6.686
REMARK INTER + INTRA:           2.896
REMARK INTER:                   2.649
REMARK INTRA:                   0.248
REMARK UNBOUND:                 0.269
REMARK SMILES C=C1[C@H]2CC[C@@H]3[C@@H]2C(C)(C)CCC[C@]13C
REMARK SMILES IDX 14 1 6 2 7 3 3 4 2 5 1 6 4 7 5 8 15 9 8 10 9 11 10 12 11 13
REMARK SMILES IDX 13 15 12 16
REMARK H PARENT
REMARK Flexibility Score: 80.00
ROOT
ATOM      1  C   UNL     1       3.096  13.370  12.626  1.00  0.00    -0.008 C 
ATOM      2  C   UNL     1       2.134  12.342  12.036  1.00  0.00     0.003 C 
ATOM      3  C   UNL     1       2.624  11.120  12.827  1.00  0.00     0.006 C 
ATOM      4  C   UNL     1       2.137  11.654  14.165  1.00  0.00     0.019 C 
ATOM      5  C   UNL     1       2.874  13.014  14.108  1.00  0.00    -0.068 C 
ATOM      6  C   UNL     1       3.305  13.707  15.167  1.00  0.00     0.009 C 
ATOM      7  C   UNL     1       0.663  11.935  13.921  1.00  0.00     0.008 C 
ATOM      8  C   UNL     1       0.657  12.469  12.490  1.00  0.00     0.005 C 
ATOM      9  C   UNL     1       2.708  14.823  12.298  1.00  0.00     0.016 C 
ENDROOT
BRANCH   3  10
ATOM     10  C   UNL     1       3.024   9.954  11.896  1.00  0.00    -0.032 C 
ATOM     11  C   UNL     1       1.913   9.592  10.879  1.00  0.00     0.011 C 
ATOM     12  C   UNL     1       3.298   8.687  12.743  1.00  0.00     0.011 C 
BRANCH  10  13
ATOM     13  C   UNL     1       4.362  10.411  11.141  1.00  0.00     0.007 CG0
ATOM     14  G   UNL     1       4.648  11.962  10.910  1.00  0.00     0.000 G0
ENDBRANCH  10  13
ENDBRANCH   3  10
BRANCH   1  15
ATOM     15  C   UNL     1       4.561  13.011  12.082  1.00  0.00     0.011 C 
BRANCH  15  16
ATOM     16  C   UNL     1       4.672  11.951  10.891  1.00  0.00     0.001 CG0
ATOM     17  G   UNL     1       4.356  10.409  11.138  1.00  0.00     0.000 G0
ENDBRANCH  15  16
ENDBRANCH   1  15
TORSDOF 0
ENDMDL
MODEL 5
REMARK VINA RESULT:     2.198      1.531      3.798
REMARK INTER + INTRA:           2.982
REMARK INTER:                   2.709
REMARK INTRA:                   0.273
REMARK UNBOUND:                 0.269
REMARK SMILES C=C1[C@H]2CC[C@@H]3[C@@H]2C(C)(C)CCC[C@]13C
REMARK SMILES IDX 14 1 6 2 7 3 3 4 2 5 1 6 4 7 5 8 15 9 8 10 9 11 10 12 11 13
REMARK SMILES IDX 13 15 12 16
REMARK H PARENT
REMARK Flexibility Score: 80.00
ROOT
ATOM      1  C   UNL     1       4.569   8.352  12.722  1.00  0.00    -0.008 C 
ATOM      2  C   UNL     1       5.556   7.681  13.675  1.00  0.00     0.003 C 
ATOM      3  C   UNL     1       6.479   7.062  12.615  1.00  0.00     0.006 C 
ATOM      4  C   UNL     1       6.990   8.406  12.119  1.00  0.00     0.019 C 
ATOM      5  C   UNL     1       5.610   9.036  11.816  1.00  0.00    -0.068 C 
ATOM      6  C   UNL     1       5.366   9.955  10.877  1.00  0.00     0.009 C 
ATOM      7  C   UNL     1       7.520   9.073  13.378  1.00  0.00     0.008 C 
ATOM      8  C   UNL     1       6.507   8.638  14.437  1.00  0.00     0.005 C 
ATOM      9  C   UNL     1       3.637   9.358  13.424  1.00  0.00     0.016 C 
ENDROOT
BRANCH   3  10
ATOM     10  C   UNL     1       6.637   5.538  12.809  1.00  0.00    -0.032 C 
ATOM     11  C   UNL     1       6.993   5.153  14.267  1.00  0.00     0.011 C 
ATOM     12  C   UNL     1       7.783   5.019  11.907  1.00  0.00     0.011 C 
BRANCH  10  13
ATOM     13  C   UNL     1       5.245   4.875  12.368  1.00  0.00     0.007 CG0
ATOM     14  G   UNL     1       3.884   5.674  12.591  1.00  0.00     0.000 G0
ENDBRANCH  10  13
ENDBRANCH   3  10
BRANCH   1  15
ATOM     15  C   UNL     1       3.742   7.183  12.000  1.00  0.00     0.011 C 
BRANCH  15  16
ATOM     16  C   UNL     1       3.888   5.703  12.581  1.00  0.00     0.001 CG0
ATOM     17  G   UNL     1       5.234   4.874  12.379  1.00  0.00     0.000 G0
ENDBRANCH  15  16
ENDBRANCH   1  15
TORSDOF 0
ENDMDL
MODEL 6
REMARK VINA RESULT:     2.309      1.983      3.946
REMARK INTER + INTRA:           3.118
REMARK INTER:                   2.840
REMARK INTRA:                   0.278
REMARK UNBOUND:                 0.269
REMARK SMILES C=C1[C@H]2CC[C@@H]3[C@@H]2C(C)(C)CCC[C@]13C
REMARK SMILES IDX 14 1 6 2 7 3 3 4 2 5 1 6 4 7 5 8 15 9 8 10 9 11 10 12 11 13
REMARK SMILES IDX 13 15 12 16
REMARK H PARENT
REMARK Flexibility Score: 80.00
ROOT
ATOM      1  C   UNL     1       4.713   7.093  13.228  1.00  0.00    -0.008 C 
ATOM      2  C   UNL     1       4.614   7.950  11.969  1.00  0.00     0.003 C 
ATOM      3  C   UNL     1       5.095   9.275  12.581  1.00  0.00     0.006 C 
ATOM      4  C   UNL     1       6.511   8.775  12.820  1.00  0.00     0.019 C 
ATOM      5  C   UNL     1       6.136   7.517  13.640  1.00  0.00    -0.068 C 
ATOM      6  C   UNL     1       6.891   6.956  14.589  1.00  0.00     0.009 C 
ATOM      7  C   UNL     1       6.958   8.297  11.448  1.00  0.00     0.008 C 
ATOM      8  C   UNL     1       5.684   7.671  10.882  1.00  0.00     0.005 C 
ATOM      9  C   UNL     1       4.601   5.583  12.944  1.00  0.00     0.016 C 
ENDROOT
BRANCH   3  10
ATOM     10  C   UNL     1       4.078  10.415  12.356  1.00  0.00    -0.032 C 
ATOM     11  C   UNL     1       3.640  10.543  10.876  1.00  0.00     0.011 C 
ATOM     12  C   UNL     1       4.720  11.765  12.759  1.00  0.00     0.011 C 
BRANCH  10  13
ATOM     13  C   UNL     1       2.821  10.099  13.299  1.00  0.00     0.007 CG0
ATOM     14  G   UNL     1       2.450   8.587  13.639  1.00  0.00     0.000 G0
ENDBRANCH  10  13
ENDBRANCH   3  10
BRANCH   1  15
ATOM     15  C   UNL     1       3.567   7.593  14.231  1.00  0.00     0.011 C 
BRANCH  15  16
ATOM     16  C   UNL     1       2.463   8.595  13.656  1.00  0.00     0.001 CG0
ATOM     17  G   UNL     1       2.830  10.107  13.313  1.00  0.00     0.000 G0
ENDBRANCH  15  16
ENDBRANCH   1  15
TORSDOF 0
ENDMDL
MODEL 7
REMARK VINA RESULT:     2.407      1.258      2.790
REMARK INTER + INTRA:           3.239
REMARK INTER:                   2.947
REMARK INTRA:                   0.292
REMARK UNBOUND:                 0.269
REMARK SMILES C=C1[C@H]2CC[C@@H]3[C@@H]2C(C)(C)CCC[C@]13C
REMARK SMILES IDX 14 1 6 2 7 3 3 4 2 5 1 6 4 7 5 8 15 9 8 10 9 11 10 12 11 13
REMARK SMILES IDX 13 15 12 16
REMARK H PARENT
REMARK Flexibility Score: 80.00
ROOT
ATOM      1  C   UNL     1       6.698   5.699  12.856  1.00  0.00    -0.008 C 
ATOM      2  C   UNL     1       6.632   7.111  12.279  1.00  0.00     0.003 C 
ATOM      3  C   UNL     1       5.606   7.691  13.264  1.00  0.00     0.006 C 
ATOM      4  C   UNL     1       6.543   7.607  14.459  1.00  0.00     0.019 C 
ATOM      5  C   UNL     1       6.881   6.101  14.332  1.00  0.00    -0.068 C 
ATOM      6  C   UNL     1       7.198   5.290  15.345  1.00  0.00     0.009 C 
ATOM      7  C   UNL     1       7.770   8.380  14.005  1.00  0.00     0.008 C 
ATOM      8  C   UNL     1       7.880   7.995  12.530  1.00  0.00     0.005 C 
ATOM      9  C   UNL     1       7.880   4.875  12.313  1.00  0.00     0.016 C 
ENDROOT
BRANCH   3  10
ATOM     10  C   UNL     1       4.390   8.301  12.534  1.00  0.00    -0.032 C 
ATOM     11  C   UNL     1       4.798   9.270  11.397  1.00  0.00     0.011 C 
ATOM     12  C   UNL     1       3.537   9.112  13.541  1.00  0.00     0.011 C 
BRANCH  10  13
ATOM     13  C   UNL     1       3.538   7.071  11.957  1.00  0.00     0.007 CG0
ATOM     14  G   UNL     1       4.283   5.729  11.528  1.00  0.00     0.000 G0
ENDBRANCH  10  13
ENDBRANCH   3  10
BRANCH   1  15
ATOM     15  C   UNL     1       5.291   4.995  12.542  1.00  0.00     0.011 C 
BRANCH  15  16
ATOM     16  C   UNL     1       4.299   5.738  11.535  1.00  0.00     0.001 CG0
ATOM     17  G   UNL     1       3.537   7.069  11.969  1.00  0.00     0.000 G0
ENDBRANCH  15  16
ENDBRANCH   1  15
TORSDOF 0
ENDMDL
