MODEL 1
REMARK VINA RESULT:    -7.440      0.000      0.000
REMARK INTER + INTRA:          -8.250
REMARK INTER:                  -8.092
REMARK INTRA:                  -0.157
REMARK UNBOUND:                -0.157
REMARK SMILES C[C@@H]1[C@H]2C3=CC[C@@H]4[C@@]5(C)CC[C@@H](O)C(C)(C)[C@@H]5CC[C@@]4(C)[C@]3(C)CC[C@@]2(C(=O)[O-])CC[C@@H]1C
REMARK SMILES IDX 26 1 30 2 25 3 3 4 31 5 24 6 4 7 2 8 32 9 22 10 5 11 1 12
REMARK SMILES IDX 33 13 23 14 20 15 6 16 7 17 19 18 21 19 8 20 18 21 17 22
REMARK SMILES IDX 10 23 9 24 14 25 11 26 12 27 15 28 16 29 27 30 28 31 29 32
REMARK SMILES IDX 13 33
REMARK H PARENT 13 34
REMARK Flexibility Score: inf
ROOT
ATOM      1  C   UNL     1      17.474 -12.665  12.880  1.00  0.00     0.017 C 
ATOM      2  C   UNL     1      18.903 -13.069  12.394  1.00  0.00     0.014 C 
ATOM      3  C   UNL     1      17.436 -12.771  14.430  1.00  0.00     0.014 C 
ATOM      4  C   UNL     1      16.365 -13.567  12.189  1.00  0.00     0.030 C 
ATOM      5  C   UNL     1      18.998 -13.129  10.863  1.00  0.00     0.004 C 
ATOM      6  C   UNL     1      17.141 -14.192  14.943  1.00  0.00     0.013 C 
ATOM      7  C   UNL     1      15.315 -14.105  13.190  1.00  0.00    -0.063 C 
ATOM      8  C   UNL     1      16.960 -14.676  11.264  1.00  0.00    -0.003 C 
ATOM      9  C   UNL     1      17.954 -14.081  10.217  1.00  0.00    -0.011 C 
ATOM     10  C   UNL     1      15.734 -14.758  14.525  1.00  0.00    -0.006 C 
ATOM     11  C   UNL     1      14.011 -14.010  12.837  1.00  0.00    -0.027 C 
ATOM     12  C   UNL     1      15.876 -15.547  10.597  1.00  0.00     0.008 C 
ATOM     13  C   UNL     1      17.264 -13.383   9.029  1.00  0.00     0.008 C 
ATOM     14  C   UNL     1      15.948 -16.282  14.237  1.00  0.00     0.017 C 
ATOM     15  C   UNL     1      14.595 -14.521  15.658  1.00  0.00    -0.020 C 
ATOM     16  C   UNL     1      12.845 -14.244  13.754  1.00  0.00     0.032 C 
ATOM     17  C   UNL     1      13.190 -14.970  15.077  1.00  0.00     0.006 C 
ATOM     18  C   UNL     1      14.891 -15.347  16.959  1.00  0.00     0.008 C 
ATOM     19  C   UNL     1      14.571 -13.018  16.063  1.00  0.00     0.012 C 
ATOM     20  C   UNL     1      11.974 -15.076  16.105  1.00  0.00    -0.025 C 
ATOM     21  C   UNL     1      13.730 -15.396  17.965  1.00  0.00     0.005 C 
ATOM     22  C   UNL     1      12.461 -15.983  17.299  1.00  0.00     0.003 C 
ATOM     23  C   UNL     1      10.787 -15.811  15.398  1.00  0.00     0.010 C 
ATOM     24  C   UNL     1      11.464 -13.668  16.573  1.00  0.00     0.012 C 
ATOM     25  C   UNL     1      11.345 -16.486  18.299  1.00  0.00    -0.006 C 
ATOM     26  C   UNL     1       9.667 -16.260  16.352  1.00  0.00     0.033 C 
ATOM     27  C   UNL     1      10.192 -17.157  17.484  1.00  0.00     0.120 C 
ATOM     28  C   UNL     1      11.930 -17.565  19.256  1.00  0.00     0.014 C 
ATOM     29  C   UNL     1      10.776 -15.362  19.203  1.00  0.00     0.014 C 
ENDROOT
BRANCH   1  30
ATOM     30  C   UNL     1      17.230 -11.190  12.548  1.00  0.00     0.048 C 
ATOM     31  O   UNL     1      16.053 -10.745  12.463  1.00  0.00    -0.550 OA
ATOM     32  O   UNL     1      18.289 -10.293  12.448  1.00  0.00    -0.550 OA
ENDBRANCH   1  30
BRANCH  27  33
ATOM     33  O   UNL     1      10.629 -18.378  16.934  1.00  0.00    -0.393 OA
ATOM     34  H   UNL     1      11.197 -18.820  17.617  1.00  0.00     0.210 HD
ENDBRANCH  27  33
TORSDOF 2
ENDMDL
MODEL 2
REMARK VINA RESULT:    -7.147      1.204      8.061
REMARK INTER + INTRA:          -7.931
REMARK INTER:                  -7.646
REMARK INTRA:                  -0.286
REMARK UNBOUND:                -0.157
REMARK SMILES C[C@@H]1[C@H]2C3=CC[C@@H]4[C@@]5(C)CC[C@@H](O)C(C)(C)[C@@H]5CC[C@@]4(C)[C@]3(C)CC[C@@]2(C(=O)[O-])CC[C@@H]1C
REMARK SMILES IDX 26 1 30 2 25 3 3 4 31 5 24 6 4 7 2 8 32 9 22 10 5 11 1 12
REMARK SMILES IDX 33 13 23 14 20 15 6 16 7 17 19 18 21 19 8 20 18 21 17 22
REMARK SMILES IDX 10 23 9 24 14 25 11 26 12 27 15 28 16 29 27 30 28 31 29 32
REMARK SMILES IDX 13 33
REMARK H PARENT 13 34
REMARK Flexibility Score: inf
ROOT
ATOM      1  C   UNL     1      12.211 -15.986  17.588  1.00  0.00     0.017 C 
ATOM      2  C   UNL     1      11.487 -15.475  18.874  1.00  0.00     0.014 C 
ATOM      3  C   UNL     1      13.741 -16.004  17.861  1.00  0.00     0.014 C 
ATOM      4  C   UNL     1      11.836 -15.090  16.332  1.00  0.00     0.030 C 
ATOM      5  C   UNL     1       9.979 -15.291  18.655  1.00  0.00     0.004 C 
ATOM      6  C   UNL     1      14.423 -14.644  17.629  1.00  0.00     0.013 C 
ATOM      7  C   UNL     1      13.069 -14.685  15.490  1.00  0.00    -0.063 C 
ATOM      8  C   UNL     1      10.910 -13.883  16.690  1.00  0.00    -0.003 C 
ATOM      9  C   UNL     1       9.639 -14.344  17.471  1.00  0.00    -0.011 C 
ATOM     10  C   UNL     1      14.344 -14.118  16.149  1.00  0.00    -0.006 C 
ATOM     11  C   UNL     1      12.976 -14.817  14.146  1.00  0.00    -0.027 C 
ATOM     12  C   UNL     1      10.551 -13.018  15.465  1.00  0.00     0.008 C 
ATOM     13  C   UNL     1       8.556 -14.981  16.578  1.00  0.00     0.008 C 
ATOM     14  C   UNL     1      14.153 -12.567  16.249  1.00  0.00     0.017 C 
ATOM     15  C   UNL     1      15.657 -14.499  15.271  1.00  0.00    -0.020 C 
ATOM     16  C   UNL     1      14.123 -14.714  13.182  1.00  0.00     0.032 C 
ATOM     17  C   UNL     1      15.408 -14.076  13.763  1.00  0.00     0.006 C 
ATOM     18  C   UNL     1      16.940 -13.763  15.797  1.00  0.00     0.008 C 
ATOM     19  C   UNL     1      15.927 -16.028  15.380  1.00  0.00     0.012 C 
ATOM     20  C   UNL     1      16.663 -14.112  12.778  1.00  0.00    -0.025 C 
ATOM     21  C   UNL     1      18.157 -13.851  14.862  1.00  0.00     0.005 C 
ATOM     22  C   UNL     1      17.810 -13.278  13.466  1.00  0.00     0.003 C 
ATOM     23  C   UNL     1      16.273 -13.384  11.448  1.00  0.00     0.010 C 
ATOM     24  C   UNL     1      17.099 -15.576  12.420  1.00  0.00     0.012 C 
ATOM     25  C   UNL     1      19.052 -12.911  12.559  1.00  0.00    -0.006 C 
ATOM     26  C   UNL     1      17.466 -13.067  10.530  1.00  0.00     0.033 C 
ATOM     27  C   UNL     1      18.544 -12.237  11.244  1.00  0.00     0.120 C 
ATOM     28  C   UNL     1      19.963 -11.883  13.291  1.00  0.00     0.014 C 
ATOM     29  C   UNL     1      19.951 -14.129  12.224  1.00  0.00     0.014 C 
ENDROOT
BRANCH   1  30
ATOM     30  C   UNL     1      11.809 -17.441  17.331  1.00  0.00     0.048 C 
ATOM     31  O   UNL     1      12.229 -18.359  18.087  1.00  0.00    -0.550 OA
ATOM     32  O   UNL     1      10.889 -17.766  16.339  1.00  0.00    -0.550 OA
ENDBRANCH   1  30
BRANCH  27  33
ATOM     33  O   UNL     1      18.026 -10.956  11.520  1.00  0.00    -0.393 OA
ATOM     34  H   UNL     1      18.636 -10.528  12.176  1.00  0.00     0.210 HD
ENDBRANCH  27  33
TORSDOF 2
ENDMDL
MODEL 3
REMARK VINA RESULT:    -7.066      2.938      8.361
REMARK INTER + INTRA:          -7.843
REMARK INTER:                  -7.555
REMARK INTRA:                  -0.288
REMARK UNBOUND:                -0.157
REMARK SMILES C[C@@H]1[C@H]2C3=CC[C@@H]4[C@@]5(C)CC[C@@H](O)C(C)(C)[C@@H]5CC[C@@]4(C)[C@]3(C)CC[C@@]2(C(=O)[O-])CC[C@@H]1C
REMARK SMILES IDX 26 1 30 2 25 3 3 4 31 5 24 6 4 7 2 8 32 9 22 10 5 11 1 12
REMARK SMILES IDX 33 13 23 14 20 15 6 16 7 17 19 18 21 19 8 20 18 21 17 22
REMARK SMILES IDX 10 23 9 24 14 25 11 26 12 27 15 28 16 29 27 30 28 31 29 32
REMARK SMILES IDX 13 33
REMARK H PARENT 13 34
REMARK Flexibility Score: inf
ROOT
ATOM      1  C   UNL     1      15.125 -13.341  15.565  1.00  0.00     0.017 C 
ATOM      2  C   UNL     1      14.972 -12.213  16.635  1.00  0.00     0.014 C 
ATOM      3  C   UNL     1      16.628 -13.454  15.183  1.00  0.00     0.014 C 
ATOM      4  C   UNL     1      14.206 -13.051  14.302  1.00  0.00     0.030 C 
ATOM      5  C   UNL     1      13.502 -11.931  16.973  1.00  0.00     0.004 C 
ATOM      6  C   UNL     1      17.065 -12.453  14.100  1.00  0.00     0.013 C 
ATOM      7  C   UNL     1      14.948 -13.244  12.958  1.00  0.00    -0.063 C 
ATOM      8  C   UNL     1      13.441 -11.692  14.395  1.00  0.00    -0.003 C 
ATOM      9  C   UNL     1      12.642 -11.571  15.731  1.00  0.00    -0.011 C 
ATOM     10  C   UNL     1      16.345 -12.633  12.714  1.00  0.00    -0.006 C 
ATOM     11  C   UNL     1      14.312 -13.945  11.990  1.00  0.00    -0.027 C 
ATOM     12  C   UNL     1      12.551 -11.420  13.165  1.00  0.00     0.008 C 
ATOM     13  C   UNL     1      11.327 -12.375  15.745  1.00  0.00     0.008 C 
ATOM     14  C   UNL     1      16.117 -11.190  12.153  1.00  0.00     0.017 C 
ATOM     15  C   UNL     1      17.193 -13.548  11.675  1.00  0.00    -0.020 C 
ATOM     16  C   UNL     1      14.945 -14.447  10.724  1.00  0.00     0.032 C 
ATOM     17  C   UNL     1      16.313 -13.809  10.382  1.00  0.00     0.006 C 
ATOM     18  C   UNL     1      18.530 -12.848  11.243  1.00  0.00     0.008 C 
ATOM     19  C   UNL     1      17.578 -14.892  12.361  1.00  0.00     0.012 C 
ATOM     20  C   UNL     1      17.044 -14.459   9.120  1.00  0.00    -0.025 C 
ATOM     21  C   UNL     1      19.250 -13.516  10.061  1.00  0.00     0.005 C 
ATOM     22  C   UNL     1      18.319 -13.579   8.825  1.00  0.00     0.003 C 
ATOM     23  C   UNL     1      16.091 -14.349   7.883  1.00  0.00     0.010 C 
ATOM     24  C   UNL     1      17.381 -15.975   9.340  1.00  0.00     0.012 C 
ATOM     25  C   UNL     1      19.045 -13.836   7.445  1.00  0.00    -0.006 C 
ATOM     26  C   UNL     1      16.771 -14.648   6.535  1.00  0.00     0.033 C 
ATOM     27  C   UNL     1      17.995 -13.751   6.290  1.00  0.00     0.120 C 
ATOM     28  C   UNL     1      20.112 -12.733   7.188  1.00  0.00     0.014 C 
ATOM     29  C   UNL     1      19.796 -15.192   7.387  1.00  0.00     0.014 C 
ENDROOT
BRANCH   1  30
ATOM     30  C   UNL     1      14.743 -14.684  16.193  1.00  0.00     0.048 C 
ATOM     31  O   UNL     1      13.776 -15.348  15.731  1.00  0.00    -0.550 OA
ATOM     32  O   UNL     1      15.516 -15.248  17.203  1.00  0.00    -0.550 OA
ENDBRANCH   1  30
BRANCH  27  33
ATOM     33  O   UNL     1      17.560 -12.422   6.122  1.00  0.00    -0.393 OA
ATOM     34  H   UNL     1      18.372 -11.856   6.046  1.00  0.00     0.210 HD
ENDBRANCH  27  33
TORSDOF 2
ENDMDL
MODEL 4
REMARK VINA RESULT:    -6.716      3.437      6.174
REMARK INTER + INTRA:          -7.462
REMARK INTER:                  -7.224
REMARK INTRA:                  -0.238
REMARK UNBOUND:                -0.157
REMARK SMILES C[C@@H]1[C@H]2C3=CC[C@@H]4[C@@]5(C)CC[C@@H](O)C(C)(C)[C@@H]5CC[C@@]4(C)[C@]3(C)CC[C@@]2(C(=O)[O-])CC[C@@H]1C
REMARK SMILES IDX 26 1 30 2 25 3 3 4 31 5 24 6 4 7 2 8 32 9 22 10 5 11 1 12
REMARK SMILES IDX 33 13 23 14 20 15 6 16 7 17 19 18 21 19 8 20 18 21 17 22
REMARK SMILES IDX 10 23 9 24 14 25 11 26 12 27 15 28 16 29 27 30 28 31 29 32
REMARK SMILES IDX 13 33
REMARK H PARENT 13 34
REMARK Flexibility Score: inf
ROOT
ATOM      1  C   UNL     1      16.344 -15.804  15.647  1.00  0.00     0.017 C 
ATOM      2  C   UNL     1      17.901 -15.685  15.584  1.00  0.00     0.014 C 
ATOM      3  C   UNL     1      15.748 -15.111  14.391  1.00  0.00     0.014 C 
ATOM      4  C   UNL     1      15.783 -15.184  16.998  1.00  0.00     0.030 C 
ATOM      5  C   UNL     1      18.574 -16.220  16.855  1.00  0.00     0.004 C 
ATOM      6  C   UNL     1      15.576 -13.590  14.550  1.00  0.00     0.013 C 
ATOM      7  C   UNL     1      14.566 -14.255  16.775  1.00  0.00    -0.063 C 
ATOM      8  C   UNL     1      16.893 -14.543  17.890  1.00  0.00    -0.003 C 
ATOM      9  C   UNL     1      18.066 -15.540  18.156  1.00  0.00    -0.011 C 
ATOM     10  C   UNL     1      14.576 -13.161  15.685  1.00  0.00    -0.006 C 
ATOM     11  C   UNL     1      13.501 -14.417  17.594  1.00  0.00    -0.027 C 
ATOM     12  C   UNL     1      16.340 -13.944  19.198  1.00  0.00     0.008 C 
ATOM     13  C   UNL     1      17.747 -16.606  19.222  1.00  0.00     0.008 C 
ATOM     14  C   UNL     1      15.186 -11.876  16.338  1.00  0.00     0.017 C 
ATOM     15  C   UNL     1      13.072 -12.892  15.135  1.00  0.00    -0.020 C 
ATOM     16  C   UNL     1      12.148 -13.795  17.393  1.00  0.00     0.032 C 
ATOM     17  C   UNL     1      12.110 -12.635  16.369  1.00  0.00     0.006 C 
ATOM     18  C   UNL     1      13.017 -11.646  14.183  1.00  0.00     0.008 C 
ATOM     19  C   UNL     1      12.594 -14.122  14.309  1.00  0.00     0.012 C 
ATOM     20  C   UNL     1      10.645 -12.086  16.051  1.00  0.00    -0.025 C 
ATOM     21  C   UNL     1      11.599 -11.162  13.842  1.00  0.00     0.005 C 
ATOM     22  C   UNL     1      10.820 -10.815  15.136  1.00  0.00     0.003 C 
ATOM     23  C   UNL     1       9.986 -11.622  17.393  1.00  0.00     0.010 C 
ATOM     24  C   UNL     1       9.724 -13.182  15.411  1.00  0.00     0.012 C 
ATOM     25  C   UNL     1       9.537  -9.915  14.931  1.00  0.00    -0.006 C 
ATOM     26  C   UNL     1       8.705 -10.790  17.211  1.00  0.00     0.033 C 
ATOM     27  C   UNL     1       8.936  -9.554  16.328  1.00  0.00     0.120 C 
ATOM     28  C   UNL     1       9.924  -8.581  14.229  1.00  0.00     0.014 C 
ATOM     29  C   UNL     1       8.455 -10.579  14.039  1.00  0.00     0.014 C 
ENDROOT
BRANCH   1  30
ATOM     30  C   UNL     1      15.950 -17.280  15.546  1.00  0.00     0.048 C 
ATOM     31  O   UNL     1      16.543 -18.041  14.733  1.00  0.00    -0.550 OA
ATOM     32  O   UNL     1      15.019 -17.835  16.419  1.00  0.00    -0.550 OA
ENDBRANCH   1  30
BRANCH  27  33
ATOM     33  O   UNL     1       9.785  -8.659  17.008  1.00  0.00    -0.393 OA
ATOM     34  H   UNL     1      10.711  -9.003  16.912  1.00  0.00     0.210 HD
ENDBRANCH  27  33
TORSDOF 2
ENDMDL
MODEL 5
REMARK VINA RESULT:    -6.702      2.519      8.093
REMARK INTER + INTRA:          -7.447
REMARK INTER:                  -7.188
REMARK INTRA:                  -0.259
REMARK UNBOUND:                -0.157
REMARK SMILES C[C@@H]1[C@H]2C3=CC[C@@H]4[C@@]5(C)CC[C@@H](O)C(C)(C)[C@@H]5CC[C@@]4(C)[C@]3(C)CC[C@@]2(C(=O)[O-])CC[C@@H]1C
REMARK SMILES IDX 26 1 30 2 25 3 3 4 31 5 24 6 4 7 2 8 32 9 22 10 5 11 1 12
REMARK SMILES IDX 33 13 23 14 20 15 6 16 7 17 19 18 21 19 8 20 18 21 17 22
REMARK SMILES IDX 10 23 9 24 14 25 11 26 12 27 15 28 16 29 27 30 28 31 29 32
REMARK SMILES IDX 13 33
REMARK H PARENT 13 34
REMARK Flexibility Score: inf
ROOT
ATOM      1  C   UNL     1      14.115 -13.678  16.149  1.00  0.00     0.017 C 
ATOM      2  C   UNL     1      13.321 -14.626  17.103  1.00  0.00     0.014 C 
ATOM      3  C   UNL     1      13.466 -13.745  14.738  1.00  0.00     0.014 C 
ATOM      4  C   UNL     1      15.656 -14.064  16.119  1.00  0.00     0.030 C 
ATOM      5  C   UNL     1      13.974 -14.734  18.488  1.00  0.00     0.004 C 
ATOM      6  C   UNL     1      13.969 -14.923  13.885  1.00  0.00     0.013 C 
ATOM      7  C   UNL     1      16.235 -14.126  14.686  1.00  0.00    -0.063 C 
ATOM      8  C   UNL     1      15.991 -15.328  16.975  1.00  0.00    -0.003 C 
ATOM      9  C   UNL     1      15.458 -15.192  18.436  1.00  0.00    -0.011 C 
ATOM     10  C   UNL     1      15.506 -14.880  13.554  1.00  0.00    -0.006 C 
ATOM     11  C   UNL     1      17.425 -13.518  14.468  1.00  0.00    -0.027 C 
ATOM     12  C   UNL     1      17.488 -15.695  16.940  1.00  0.00     0.008 C 
ATOM     13  C   UNL     1      16.324 -14.286  19.334  1.00  0.00     0.008 C 
ATOM     14  C   UNL     1      16.002 -16.364  13.604  1.00  0.00     0.017 C 
ATOM     15  C   UNL     1      15.824 -14.195  12.116  1.00  0.00    -0.020 C 
ATOM     16  C   UNL     1      18.031 -13.255  13.120  1.00  0.00     0.032 C 
ATOM     17  C   UNL     1      17.394 -14.047  11.952  1.00  0.00     0.006 C 
ATOM     18  C   UNL     1      15.272 -15.059  10.927  1.00  0.00     0.008 C 
ATOM     19  C   UNL     1      15.126 -12.806  12.037  1.00  0.00     0.012 C 
ATOM     20  C   UNL     1      17.943 -13.645  10.508  1.00  0.00    -0.025 C 
ATOM     21  C   UNL     1      15.767 -14.627   9.538  1.00  0.00     0.005 C 
ATOM     22  C   UNL     1      17.314 -14.661   9.480  1.00  0.00     0.003 C 
ATOM     23  C   UNL     1      19.495 -13.848  10.493  1.00  0.00     0.010 C 
ATOM     24  C   UNL     1      17.645 -12.147  10.152  1.00  0.00     0.012 C 
ATOM     25  C   UNL     1      17.936 -14.663   8.026  1.00  0.00    -0.006 C 
ATOM     26  C   UNL     1      20.123 -13.800   9.089  1.00  0.00     0.033 C 
ATOM     27  C   UNL     1      19.487 -14.822   8.133  1.00  0.00     0.120 C 
ATOM     28  C   UNL     1      17.396 -15.878   7.216  1.00  0.00     0.014 C 
ATOM     29  C   UNL     1      17.583 -13.397   7.203  1.00  0.00     0.014 C 
ENDROOT
BRANCH   1  30
ATOM     30  C   UNL     1      13.948 -12.233  16.626  1.00  0.00     0.048 C 
ATOM     31  O   UNL     1      14.935 -11.448  16.633  1.00  0.00    -0.550 OA
ATOM     32  O   UNL     1      12.693 -11.725  16.949  1.00  0.00    -0.550 OA
ENDBRANCH   1  30
BRANCH  27  33
ATOM     33  O   UNL     1      19.817 -16.121   8.568  1.00  0.00    -0.393 OA
ATOM     34  H   UNL     1      19.605 -16.168   9.537  1.00  0.00     0.210 HD
ENDBRANCH  27  33
TORSDOF 2
ENDMDL
MODEL 6
REMARK VINA RESULT:    -6.627      2.375      3.579
REMARK INTER + INTRA:          -7.366
REMARK INTER:                  -7.075
REMARK INTRA:                  -0.291
REMARK UNBOUND:                -0.157
REMARK SMILES C[C@@H]1[C@H]2C3=CC[C@@H]4[C@@]5(C)CC[C@@H](O)C(C)(C)[C@@H]5CC[C@@]4(C)[C@]3(C)CC[C@@]2(C(=O)[O-])CC[C@@H]1C
REMARK SMILES IDX 26 1 30 2 25 3 3 4 31 5 24 6 4 7 2 8 32 9 22 10 5 11 1 12
REMARK SMILES IDX 33 13 23 14 20 15 6 16 7 17 19 18 21 19 8 20 18 21 17 22
REMARK SMILES IDX 10 23 9 24 14 25 11 26 12 27 15 28 16 29 27 30 28 31 29 32
REMARK SMILES IDX 13 33
REMARK H PARENT 13 34
REMARK Flexibility Score: inf
ROOT
ATOM      1  C   UNL     1      18.130 -14.647  13.041  1.00  0.00     0.017 C 
ATOM      2  C   UNL     1      18.745 -14.954  11.637  1.00  0.00     0.014 C 
ATOM      3  C   UNL     1      17.092 -15.754  13.373  1.00  0.00     0.014 C 
ATOM      4  C   UNL     1      17.490 -13.194  13.074  1.00  0.00     0.030 C 
ATOM      5  C   UNL     1      19.683 -13.837  11.160  1.00  0.00     0.004 C 
ATOM      6  C   UNL     1      15.698 -15.491  12.775  1.00  0.00     0.013 C 
ATOM      7  C   UNL     1      16.081 -13.170  13.712  1.00  0.00    -0.063 C 
ATOM      8  C   UNL     1      17.556 -12.460  11.696  1.00  0.00    -0.003 C 
ATOM      9  C   UNL     1      19.009 -12.438  11.124  1.00  0.00    -0.011 C 
ATOM     10  C   UNL     1      14.995 -14.189  13.306  1.00  0.00    -0.006 C 
ATOM     11  C   UNL     1      15.825 -12.200  14.621  1.00  0.00    -0.027 C 
ATOM     12  C   UNL     1      16.932 -11.051  11.738  1.00  0.00     0.008 C 
ATOM     13  C   UNL     1      19.924 -11.391  11.788  1.00  0.00     0.008 C 
ATOM     14  C   UNL     1      14.233 -13.578  12.083  1.00  0.00     0.017 C 
ATOM     15  C   UNL     1      13.990 -14.476  14.549  1.00  0.00    -0.020 C 
ATOM     16  C   UNL     1      14.625 -12.149  15.522  1.00  0.00     0.032 C 
ATOM     17  C   UNL     1      13.466 -13.092  15.118  1.00  0.00     0.006 C 
ATOM     18  C   UNL     1      12.756 -15.341  14.110  1.00  0.00     0.008 C 
ATOM     19  C   UNL     1      14.743 -15.276  15.652  1.00  0.00     0.012 C 
ATOM     20  C   UNL     1      12.262 -13.141  16.166  1.00  0.00    -0.025 C 
ATOM     21  C   UNL     1      11.628 -15.424  15.151  1.00  0.00     0.005 C 
ATOM     22  C   UNL     1      11.119 -14.006  15.510  1.00  0.00     0.003 C 
ATOM     23  C   UNL     1      11.712 -11.688  16.360  1.00  0.00     0.010 C 
ATOM     24  C   UNL     1      12.714 -13.681  17.568  1.00  0.00     0.012 C 
ATOM     25  C   UNL     1       9.707 -13.955  16.219  1.00  0.00    -0.006 C 
ATOM     26  C   UNL     1      10.363 -11.619  17.095  1.00  0.00     0.033 C 
ATOM     27  C   UNL     1       9.280 -12.463  16.405  1.00  0.00     0.120 C 
ATOM     28  C   UNL     1       8.634 -14.640  15.324  1.00  0.00     0.014 C 
ATOM     29  C   UNL     1       9.675 -14.694  17.582  1.00  0.00     0.014 C 
ENDROOT
BRANCH   1  30
ATOM     30  C   UNL     1      19.227 -14.760  14.104  1.00  0.00     0.048 C 
ATOM     31  O   UNL     1      19.625 -13.732  14.716  1.00  0.00    -0.550 OA
ATOM     32  O   UNL     1      19.722 -16.000  14.494  1.00  0.00    -0.550 OA
ENDBRANCH   1  30
BRANCH  27  33
ATOM     33  O   UNL     1       8.975 -11.883  15.158  1.00  0.00    -0.393 OA
ATOM     34  H   UNL     1       9.833 -11.595  14.751  1.00  0.00     0.210 HD
ENDBRANCH  27  33
TORSDOF 2
ENDMDL
MODEL 7
REMARK VINA RESULT:    -6.490      1.987      7.941
REMARK INTER + INTRA:          -7.216
REMARK INTER:                  -7.261
REMARK INTRA:                   0.045
REMARK UNBOUND:                -0.157
REMARK SMILES C[C@@H]1[C@H]2C3=CC[C@@H]4[C@@]5(C)CC[C@@H](O)C(C)(C)[C@@H]5CC[C@@]4(C)[C@]3(C)CC[C@@]2(C(=O)[O-])CC[C@@H]1C
REMARK SMILES IDX 26 1 30 2 25 3 3 4 31 5 24 6 4 7 2 8 32 9 22 10 5 11 1 12
REMARK SMILES IDX 33 13 23 14 20 15 6 16 7 17 19 18 21 19 8 20 18 21 17 22
REMARK SMILES IDX 10 23 9 24 14 25 11 26 12 27 15 28 16 29 27 30 28 31 29 32
REMARK SMILES IDX 13 33
REMARK H PARENT 13 34
REMARK Flexibility Score: inf
ROOT
ATOM      1  C   UNL     1      10.566 -14.286  16.516  1.00  0.00     0.017 C 
ATOM      2  C   UNL     1       9.745 -13.750  17.732  1.00  0.00     0.014 C 
ATOM      3  C   UNL     1      11.856 -14.965  17.056  1.00  0.00     0.014 C 
ATOM      4  C   UNL     1      10.889 -13.117  15.490  1.00  0.00     0.030 C 
ATOM      5  C   UNL     1       8.519 -12.939  17.290  1.00  0.00     0.004 C 
ATOM      6  C   UNL     1      13.007 -13.978  17.319  1.00  0.00     0.013 C 
ATOM      7  C   UNL     1      12.366 -13.108  15.029  1.00  0.00    -0.063 C 
ATOM      8  C   UNL     1      10.385 -11.718  15.971  1.00  0.00    -0.003 C 
ATOM      9  C   UNL     1       8.871 -11.751  16.352  1.00  0.00    -0.011 C 
ATOM     10  C   UNL     1      13.526 -13.224  16.040  1.00  0.00    -0.006 C 
ATOM     11  C   UNL     1      12.604 -12.964  13.704  1.00  0.00    -0.027 C 
ATOM     12  C   UNL     1      10.702 -10.590  14.970  1.00  0.00     0.008 C 
ATOM     13  C   UNL     1       7.923 -11.736  15.137  1.00  0.00     0.008 C 
ATOM     14  C   UNL     1      13.871 -11.769  16.504  1.00  0.00     0.017 C 
ATOM     15  C   UNL     1      14.808 -13.949  15.356  1.00  0.00    -0.020 C 
ATOM     16  C   UNL     1      13.931 -13.172  13.033  1.00  0.00     0.032 C 
ATOM     17  C   UNL     1      15.147 -13.215  13.992  1.00  0.00     0.006 C 
ATOM     18  C   UNL     1      16.071 -13.893  16.286  1.00  0.00     0.008 C 
ATOM     19  C   UNL     1      14.484 -15.452  15.110  1.00  0.00     0.012 C 
ATOM     20  C   UNL     1      16.528 -13.589  13.284  1.00  0.00    -0.025 C 
ATOM     21  C   UNL     1      17.386 -14.307  15.606  1.00  0.00     0.005 C 
ATOM     22  C   UNL     1      17.659 -13.417  14.368  1.00  0.00     0.003 C 
ATOM     23  C   UNL     1      16.798 -12.553  12.142  1.00  0.00     0.010 C 
ATOM     24  C   UNL     1      16.503 -15.021  12.645  1.00  0.00     0.012 C 
ATOM     25  C   UNL     1      19.148 -13.436  13.839  1.00  0.00    -0.006 C 
ATOM     26  C   UNL     1      18.229 -12.595  11.579  1.00  0.00     0.033 C 
ATOM     27  C   UNL     1      19.291 -12.403  12.673  1.00  0.00     0.120 C 
ATOM     28  C   UNL     1      20.125 -13.002  14.970  1.00  0.00     0.014 C 
ATOM     29  C   UNL     1      19.618 -14.838  13.371  1.00  0.00     0.014 C 
ENDROOT
BRANCH   1  30
ATOM     30  C   UNL     1       9.766 -15.388  15.817  1.00  0.00     0.048 C 
ATOM     31  O   UNL     1      10.113 -16.595  15.933  1.00  0.00    -0.550 OA
ATOM     32  O   UNL     1       8.585 -15.098  15.141  1.00  0.00    -0.550 OA
ENDBRANCH   1  30
BRANCH  27  33
ATOM     33  O   UNL     1      19.200 -11.089  13.172  1.00  0.00    -0.393 OA
ATOM     34  H   UNL     1      20.097 -10.845  13.521  1.00  0.00     0.210 HD
ENDBRANCH  27  33
TORSDOF 2
ENDMDL
MODEL 8
REMARK VINA RESULT:    -6.324      1.912      3.492
REMARK INTER + INTRA:          -7.036
REMARK INTER:                  -6.851
REMARK INTRA:                  -0.185
REMARK UNBOUND:                -0.157
REMARK SMILES C[C@@H]1[C@H]2C3=CC[C@@H]4[C@@]5(C)CC[C@@H](O)C(C)(C)[C@@H]5CC[C@@]4(C)[C@]3(C)CC[C@@]2(C(=O)[O-])CC[C@@H]1C
REMARK SMILES IDX 26 1 30 2 25 3 3 4 31 5 24 6 4 7 2 8 32 9 22 10 5 11 1 12
REMARK SMILES IDX 33 13 23 14 20 15 6 16 7 17 19 18 21 19 8 20 18 21 17 22
REMARK SMILES IDX 10 23 9 24 14 25 11 26 12 27 15 28 16 29 27 30 28 31 29 32
REMARK SMILES IDX 13 33
REMARK H PARENT 13 34
REMARK Flexibility Score: inf
ROOT
ATOM      1  C   UNL     1      15.843 -12.878  12.629  1.00  0.00     0.017 C 
ATOM      2  C   UNL     1      16.401 -11.460  12.286  1.00  0.00     0.014 C 
ATOM      3  C   UNL     1      14.307 -12.763  12.838  1.00  0.00     0.014 C 
ATOM      4  C   UNL     1      16.578 -13.484  13.900  1.00  0.00     0.030 C 
ATOM      5  C   UNL     1      17.933 -11.447  12.198  1.00  0.00     0.004 C 
ATOM      6  C   UNL     1      13.910 -12.330  14.261  1.00  0.00     0.013 C 
ATOM      7  C   UNL     1      15.598 -14.096  14.929  1.00  0.00    -0.063 C 
ATOM      8  C   UNL     1      17.611 -12.503  14.541  1.00  0.00    -0.003 C 
ATOM      9  C   UNL     1      18.630 -11.968  13.485  1.00  0.00    -0.011 C 
ATOM     10  C   UNL     1      14.336 -13.336  15.392  1.00  0.00    -0.006 C 
ATOM     11  C   UNL     1      15.905 -15.315  15.433  1.00  0.00    -0.027 C 
ATOM     12  C   UNL     1      18.319 -13.099  15.774  1.00  0.00     0.008 C 
ATOM     13  C   UNL     1      19.734 -12.979  13.118  1.00  0.00     0.008 C 
ATOM     14  C   UNL     1      14.760 -12.458  16.617  1.00  0.00     0.017 C 
ATOM     15  C   UNL     1      13.156 -14.379  15.788  1.00  0.00    -0.020 C 
ATOM     16  C   UNL     1      14.980 -16.177  16.243  1.00  0.00     0.032 C 
ATOM     17  C   UNL     1      13.735 -15.449  16.805  1.00  0.00     0.006 C 
ATOM     18  C   UNL     1      11.939 -13.650  16.460  1.00  0.00     0.008 C 
ATOM     19  C   UNL     1      12.623 -15.072  14.501  1.00  0.00     0.012 C 
ATOM     20  C   UNL     1      12.686 -16.408  17.532  1.00  0.00    -0.025 C 
ATOM     21  C   UNL     1      10.910 -14.589  17.110  1.00  0.00     0.005 C 
ATOM     22  C   UNL     1      11.588 -15.480  18.180  1.00  0.00     0.003 C 
ATOM     23  C   UNL     1      13.420 -17.161  18.692  1.00  0.00     0.010 C 
ATOM     24  C   UNL     1      12.085 -17.482  16.560  1.00  0.00     0.012 C 
ATOM     25  C   UNL     1      10.605 -16.167  19.208  1.00  0.00    -0.006 C 
ATOM     26  C   UNL     1      12.478 -17.880  19.672  1.00  0.00     0.033 C 
ATOM     27  C   UNL     1      11.442 -16.927  20.288  1.00  0.00     0.120 C 
ATOM     28  C   UNL     1       9.760 -15.087  19.945  1.00  0.00     0.014 C 
ATOM     29  C   UNL     1       9.592 -17.133  18.540  1.00  0.00     0.014 C 
ENDROOT
BRANCH   1  30
ATOM     30  C   UNL     1      16.039 -13.800  11.422  1.00  0.00     0.048 C 
ATOM     31  O   UNL     1      17.088 -14.491  11.317  1.00  0.00    -0.550 OA
ATOM     32  O   UNL     1      15.027 -13.980  10.485  1.00  0.00    -0.550 OA
ENDBRANCH   1  30
BRANCH  27  33
ATOM     33  O   UNL     1      12.107 -16.009  21.125  1.00  0.00    -0.393 OA
ATOM     34  H   UNL     1      11.636 -16.015  21.999  1.00  0.00     0.210 HD
ENDBRANCH  27  33
TORSDOF 2
ENDMDL
MODEL 9
REMARK VINA RESULT:    -6.212      2.508      7.846
REMARK INTER + INTRA:          -6.914
REMARK INTER:                  -6.693
REMARK INTRA:                  -0.221
REMARK UNBOUND:                -0.157
REMARK SMILES C[C@@H]1[C@H]2C3=CC[C@@H]4[C@@]5(C)CC[C@@H](O)C(C)(C)[C@@H]5CC[C@@]4(C)[C@]3(C)CC[C@@]2(C(=O)[O-])CC[C@@H]1C
REMARK SMILES IDX 26 1 30 2 25 3 3 4 31 5 24 6 4 7 2 8 32 9 22 10 5 11 1 12
REMARK SMILES IDX 33 13 23 14 20 15 6 16 7 17 19 18 21 19 8 20 18 21 17 22
REMARK SMILES IDX 10 23 9 24 14 25 11 26 12 27 15 28 16 29 27 30 28 31 29 32
REMARK SMILES IDX 13 33
REMARK H PARENT 13 34
REMARK Flexibility Score: inf
ROOT
ATOM      1  C   UNL     1      11.379 -12.400  15.460  1.00  0.00     0.017 C 
ATOM      2  C   UNL     1       9.900 -12.775  15.123  1.00  0.00     0.014 C 
ATOM      3  C   UNL     1      12.008 -11.718  14.214  1.00  0.00     0.014 C 
ATOM      4  C   UNL     1      12.197 -13.682  15.920  1.00  0.00     0.030 C 
ATOM      5  C   UNL     1       9.236 -13.581  16.247  1.00  0.00     0.004 C 
ATOM      6  C   UNL     1      12.562 -12.714  13.180  1.00  0.00     0.013 C 
ATOM      7  C   UNL     1      13.579 -13.793  15.232  1.00  0.00    -0.063 C 
ATOM      8  C   UNL     1      11.365 -15.002  15.851  1.00  0.00    -0.003 C 
ATOM      9  C   UNL     1      10.014 -14.873  16.622  1.00  0.00    -0.011 C 
ATOM     10  C   UNL     1      13.737 -13.616  13.707  1.00  0.00    -0.006 C 
ATOM     11  C   UNL     1      14.643 -14.084  16.017  1.00  0.00    -0.027 C 
ATOM     12  C   UNL     1      12.167 -16.240  16.298  1.00  0.00     0.008 C 
ATOM     13  C   UNL     1      10.159 -14.979  18.153  1.00  0.00     0.008 C 
ATOM     14  C   UNL     1      13.524 -15.027  13.062  1.00  0.00     0.017 C 
ATOM     15  C   UNL     1      15.204 -13.016  13.352  1.00  0.00    -0.020 C 
ATOM     16  C   UNL     1      16.082 -13.998  15.595  1.00  0.00     0.032 C 
ATOM     17  C   UNL     1      16.309 -13.900  14.067  1.00  0.00     0.006 C 
ATOM     18  C   UNL     1      15.474 -13.021  11.806  1.00  0.00     0.008 C 
ATOM     19  C   UNL     1      15.287 -11.536  13.828  1.00  0.00     0.012 C 
ATOM     20  C   UNL     1      17.828 -13.655  13.642  1.00  0.00    -0.025 C 
ATOM     21  C   UNL     1      16.931 -12.730  11.410  1.00  0.00     0.005 C 
ATOM     22  C   UNL     1      17.886 -13.755  12.070  1.00  0.00     0.003 C 
ATOM     23  C   UNL     1      18.702 -14.814  14.228  1.00  0.00     0.010 C 
ATOM     24  C   UNL     1      18.389 -12.297  14.192  1.00  0.00     0.012 C 
ATOM     25  C   UNL     1      19.327 -13.848  11.426  1.00  0.00    -0.006 C 
ATOM     26  C   UNL     1      20.125 -14.884  13.649  1.00  0.00     0.033 C 
ATOM     27  C   UNL     1      20.124 -15.001  12.117  1.00  0.00     0.120 C 
ATOM     28  C   UNL     1      19.215 -14.197   9.913  1.00  0.00     0.014 C 
ATOM     29  C   UNL     1      20.125 -12.521  11.509  1.00  0.00     0.014 C 
ENDROOT
BRANCH   1  30
ATOM     30  C   UNL     1      11.388 -11.347  16.572  1.00  0.00     0.048 C 
ATOM     31  O   UNL     1      12.338 -11.307  17.400  1.00  0.00    -0.550 OA
ATOM     32  O   UNL     1      10.418 -10.351  16.623  1.00  0.00    -0.550 OA
ENDBRANCH   1  30
BRANCH  27  33
ATOM     33  O   UNL     1      19.587 -16.251  11.754  1.00  0.00    -0.393 OA
ATOM     34  H   UNL     1      20.343 -16.893  11.709  1.00  0.00     0.210 HD
ENDBRANCH  27  33
TORSDOF 2
ENDMDL
