MODEL 1
REMARK VINA RESULT:    -3.899      0.000      0.000
REMARK INTER + INTRA:          -4.564
REMARK INTER:                  -4.469
REMARK INTRA:                  -0.095
REMARK UNBOUND:                -0.095
REMARK SMILES COc1cc(C(=O)[O-])ccc1O
REMARK SMILES IDX 5 1 9 2 4 3 10 4 3 5 11 6 6 7 7 8 8 9 2 10 1 11 12 12
REMARK H PARENT 12 13
REMARK Flexibility Score: inf
ROOT
ATOM      1  C   UNL     1      32.307   2.190  29.036  1.00  0.00     0.001 A 
ATOM      2  C   UNL     1      33.398   1.602  29.696  1.00  0.00     0.014 A 
ATOM      3  C   UNL     1      31.459   1.378  28.262  1.00  0.00     0.060 A 
ATOM      4  C   UNL     1      33.637   0.232  29.585  1.00  0.00     0.051 A 
ATOM      5  C   UNL     1      31.696  -0.008  28.146  1.00  0.00     0.161 A 
ATOM      6  C   UNL     1      32.795  -0.575  28.815  1.00  0.00     0.157 A 
ENDROOT
BRANCH   1   7
ATOM      7  C   UNL     1      32.058   3.643  29.158  1.00  0.00     0.072 C 
ATOM      8  O   UNL     1      32.982   4.473  28.945  1.00  0.00    -0.545 OA
ATOM      9  O   UNL     1      30.798   4.115  29.511  1.00  0.00    -0.545 OA
ENDBRANCH   1   7
BRANCH   5  10
ATOM     10  O   UNL     1      30.866  -0.843  27.380  1.00  0.00    -0.493 OA
ATOM     11  C   UNL     1      29.516  -1.162  27.706  1.00  0.00     0.278 C 
ENDBRANCH   5  10
BRANCH   6  12
ATOM     12  O   UNL     1      33.065  -1.941  28.728  1.00  0.00    -0.504 OA
ATOM     13  H   UNL     1      33.055  -2.547  29.540  1.00  0.00     0.293 HD
ENDBRANCH   6  12
TORSDOF 3
ENDMDL
MODEL 2
REMARK VINA RESULT:    -3.683      2.382      3.778
REMARK INTER + INTRA:          -4.316
REMARK INTER:                  -4.223
REMARK INTRA:                  -0.093
REMARK UNBOUND:                -0.095
REMARK SMILES COc1cc(C(=O)[O-])ccc1O
REMARK SMILES IDX 5 1 9 2 4 3 10 4 3 5 11 6 6 7 7 8 8 9 2 10 1 11 12 12
REMARK H PARENT 12 13
REMARK Flexibility Score: inf
ROOT
ATOM      1  C   UNL     1      31.845   4.900  28.778  1.00  0.00     0.001 A 
ATOM      2  C   UNL     1      30.488   4.977  29.128  1.00  0.00     0.014 A 
ATOM      3  C   UNL     1      32.494   3.653  28.830  1.00  0.00     0.060 A 
ATOM      4  C   UNL     1      29.793   3.833  29.522  1.00  0.00     0.051 A 
ATOM      5  C   UNL     1      31.797   2.493  29.227  1.00  0.00     0.161 A 
ATOM      6  C   UNL     1      30.438   2.594  29.574  1.00  0.00     0.157 A 
ENDROOT
BRANCH   1   7
ATOM      7  C   UNL     1      32.577   6.116  28.361  1.00  0.00     0.072 C 
ATOM      8  O   UNL     1      33.822   6.082  28.169  1.00  0.00    -0.545 OA
ATOM      9  O   UNL     1      31.901   7.317  28.176  1.00  0.00    -0.545 OA
ENDBRANCH   1   7
BRANCH   5  10
ATOM     10  O   UNL     1      32.419   1.235  29.288  1.00  0.00    -0.493 OA
ATOM     11  C   UNL     1      33.596   0.950  30.038  1.00  0.00     0.278 C 
ENDBRANCH   5  10
BRANCH   6  12
ATOM     12  O   UNL     1      29.710   1.473  29.972  1.00  0.00    -0.504 OA
ATOM     13  H   UNL     1      29.024   1.033  29.371  1.00  0.00     0.293 HD
ENDBRANCH   6  12
TORSDOF 3
ENDMDL
MODEL 3
REMARK VINA RESULT:    -3.657      1.859      5.123
REMARK INTER + INTRA:          -4.286
REMARK INTER:                  -4.210
REMARK INTRA:                  -0.077
REMARK UNBOUND:                -0.095
REMARK SMILES COc1cc(C(=O)[O-])ccc1O
REMARK SMILES IDX 5 1 9 2 4 3 10 4 3 5 11 6 6 7 7 8 8 9 2 10 1 11 12 12
REMARK H PARENT 12 13
REMARK Flexibility Score: inf
ROOT
ATOM      1  C   UNL     1      32.237   2.049  29.298  1.00  0.00     0.001 A 
ATOM      2  C   UNL     1      30.857   1.846  29.449  1.00  0.00     0.014 A 
ATOM      3  C   UNL     1      32.717   3.354  29.085  1.00  0.00     0.060 A 
ATOM      4  C   UNL     1      29.972   2.924  29.390  1.00  0.00     0.051 A 
ATOM      5  C   UNL     1      31.828   4.447  29.023  1.00  0.00     0.161 A 
ATOM      6  C   UNL     1      30.448   4.221  29.177  1.00  0.00     0.157 A 
ENDROOT
BRANCH   1   7
ATOM      7  C   UNL     1      33.170   0.902  29.363  1.00  0.00     0.072 C 
ATOM      8  O   UNL     1      33.164   0.018  28.464  1.00  0.00    -0.545 OA
ATOM      9  O   UNL     1      34.067   0.782  30.418  1.00  0.00    -0.545 OA
ENDBRANCH   1   7
BRANCH   5  10
ATOM     10  O   UNL     1      32.278   5.761  28.812  1.00  0.00    -0.493 OA
ATOM     11  C   UNL     1      33.432   6.108  28.053  1.00  0.00     0.278 C 
ENDBRANCH   5  10
BRANCH   6  12
ATOM     12  O   UNL     1      29.535   5.273  29.123  1.00  0.00    -0.504 OA
ATOM     13  H   UNL     1      28.874   5.377  28.363  1.00  0.00     0.293 HD
ENDBRANCH   6  12
TORSDOF 3
ENDMDL
MODEL 4
REMARK VINA RESULT:    -3.629      2.226      4.493
REMARK INTER + INTRA:          -4.254
REMARK INTER:                  -4.181
REMARK INTRA:                  -0.073
REMARK UNBOUND:                -0.095
REMARK SMILES COc1cc(C(=O)[O-])ccc1O
REMARK SMILES IDX 5 1 9 2 4 3 10 4 3 5 11 6 6 7 7 8 8 9 2 10 1 11 12 12
REMARK H PARENT 12 13
REMARK Flexibility Score: inf
ROOT
ATOM      1  C   UNL     1      32.100   2.393  29.251  1.00  0.00     0.001 A 
ATOM      2  C   UNL     1      32.607   3.696  29.143  1.00  0.00     0.014 A 
ATOM      3  C   UNL     1      30.728   2.212  29.506  1.00  0.00     0.060 A 
ATOM      4  C   UNL     1      31.763   4.799  29.286  1.00  0.00     0.051 A 
ATOM      5  C   UNL     1      29.870   3.322  29.652  1.00  0.00     0.161 A 
ATOM      6  C   UNL     1      30.400   4.620  29.540  1.00  0.00     0.157 A 
ENDROOT
BRANCH   1   7
ATOM      7  C   UNL     1      32.999   1.228  29.098  1.00  0.00     0.072 C 
ATOM      8  O   UNL     1      33.803   0.913  30.016  1.00  0.00    -0.545 OA
ATOM      9  O   UNL     1      32.971   0.463  27.937  1.00  0.00    -0.545 OA
ENDBRANCH   1   7
BRANCH   5  10
ATOM     10  O   UNL     1      28.497   3.173  29.907  1.00  0.00    -0.493 OA
ATOM     11  C   UNL     1      27.824   1.921  30.007  1.00  0.00     0.278 C 
ENDBRANCH   5  10
BRANCH   6  12
ATOM     12  O   UNL     1      29.588   5.745  29.677  1.00  0.00    -0.504 OA
ATOM     13  H   UNL     1      28.644   5.778  29.311  1.00  0.00     0.293 HD
ENDBRANCH   6  12
TORSDOF 3
ENDMDL
MODEL 5
REMARK VINA RESULT:    -3.533      1.588      2.714
REMARK INTER + INTRA:          -4.144
REMARK INTER:                  -4.054
REMARK INTRA:                  -0.090
REMARK UNBOUND:                -0.095
REMARK SMILES COc1cc(C(=O)[O-])ccc1O
REMARK SMILES IDX 5 1 9 2 4 3 10 4 3 5 11 6 6 7 7 8 8 9 2 10 1 11 12 12
REMARK H PARENT 12 13
REMARK Flexibility Score: inf
ROOT
ATOM      1  C   UNL     1      30.930   2.710  29.081  1.00  0.00     0.001 A 
ATOM      2  C   UNL     1      29.568   2.662  29.418  1.00  0.00     0.014 A 
ATOM      3  C   UNL     1      31.551   1.551  28.580  1.00  0.00     0.060 A 
ATOM      4  C   UNL     1      28.841   1.482  29.257  1.00  0.00     0.051 A 
ATOM      5  C   UNL     1      30.820   0.356  28.415  1.00  0.00     0.161 A 
ATOM      6  C   UNL     1      29.457   0.331  28.760  1.00  0.00     0.157 A 
ENDROOT
BRANCH   1   7
ATOM      7  C   UNL     1      31.696   3.964  29.253  1.00  0.00     0.072 C 
ATOM      8  O   UNL     1      32.915   4.020  28.937  1.00  0.00    -0.545 OA
ATOM      9  O   UNL     1      31.082   5.100  29.768  1.00  0.00    -0.545 OA
ENDBRANCH   1   7
BRANCH   5  10
ATOM     10  O   UNL     1      31.414  -0.816  27.917  1.00  0.00    -0.493 OA
ATOM     11  C   UNL     1      32.614  -1.393  28.422  1.00  0.00     0.278 C 
ENDBRANCH   5  10
BRANCH   6  12
ATOM     12  O   UNL     1      28.698  -0.830  28.613  1.00  0.00    -0.504 OA
ATOM     13  H   UNL     1      28.611  -1.310  27.725  1.00  0.00     0.293 HD
ENDBRANCH   6  12
TORSDOF 3
ENDMDL
MODEL 6
REMARK VINA RESULT:    -3.514      2.999      4.290
REMARK INTER + INTRA:          -4.122
REMARK INTER:                  -4.021
REMARK INTRA:                  -0.101
REMARK UNBOUND:                -0.095
REMARK SMILES COc1cc(C(=O)[O-])ccc1O
REMARK SMILES IDX 5 1 9 2 4 3 10 4 3 5 11 6 6 7 7 8 8 9 2 10 1 11 12 12
REMARK H PARENT 12 13
REMARK Flexibility Score: inf
ROOT
ATOM      1  C   UNL     1      31.578   4.801  28.850  1.00  0.00     0.001 A 
ATOM      2  C   UNL     1      32.018   3.490  28.607  1.00  0.00     0.014 A 
ATOM      3  C   UNL     1      30.347   4.999  29.500  1.00  0.00     0.060 A 
ATOM      4  C   UNL     1      31.244   2.399  29.005  1.00  0.00     0.051 A 
ATOM      5  C   UNL     1      29.561   3.900  29.905  1.00  0.00     0.161 A 
ATOM      6  C   UNL     1      30.020   2.596  29.651  1.00  0.00     0.157 A 
ENDROOT
BRANCH   1   7
ATOM      7  C   UNL     1      32.403   5.953  28.426  1.00  0.00     0.072 C 
ATOM      8  O   UNL     1      31.879   7.084  28.241  1.00  0.00    -0.545 OA
ATOM      9  O   UNL     1      33.771   5.805  28.223  1.00  0.00    -0.545 OA
ENDBRANCH   1   7
BRANCH   5  10
ATOM     10  O   UNL     1      28.327   4.068  30.556  1.00  0.00    -0.493 OA
ATOM     11  C   UNL     1      27.124   4.484  29.916  1.00  0.00     0.278 C 
ENDBRANCH   5  10
BRANCH   6  12
ATOM     12  O   UNL     1      29.274   1.481  30.034  1.00  0.00    -0.504 OA
ATOM     13  H   UNL     1      29.320   1.096  30.970  1.00  0.00     0.293 HD
ENDBRANCH   6  12
TORSDOF 3
ENDMDL
MODEL 7
REMARK VINA RESULT:    -3.477      8.436      9.785
REMARK INTER + INTRA:          -4.080
REMARK INTER:                  -3.982
REMARK INTRA:                  -0.099
REMARK UNBOUND:                -0.095
REMARK SMILES COc1cc(C(=O)[O-])ccc1O
REMARK SMILES IDX 5 1 9 2 4 3 10 4 3 5 11 6 6 7 7 8 8 9 2 10 1 11 12 12
REMARK H PARENT 12 13
REMARK Flexibility Score: inf
ROOT
ATOM      1  C   UNL     1      30.713  -2.920  36.329  1.00  0.00     0.001 A 
ATOM      2  C   UNL     1      29.534  -2.179  36.502  1.00  0.00     0.014 A 
ATOM      3  C   UNL     1      31.954  -2.276  36.483  1.00  0.00     0.060 A 
ATOM      4  C   UNL     1      29.592  -0.821  36.823  1.00  0.00     0.051 A 
ATOM      5  C   UNL     1      32.019  -0.905  36.807  1.00  0.00     0.161 A 
ATOM      6  C   UNL     1      30.825  -0.181  36.975  1.00  0.00     0.157 A 
ENDROOT
BRANCH   1   7
ATOM      7  C   UNL     1      30.645  -4.359  35.990  1.00  0.00     0.072 C 
ATOM      8  O   UNL     1      31.558  -5.147  36.354  1.00  0.00    -0.545 OA
ATOM      9  O   UNL     1      29.572  -4.862  35.263  1.00  0.00    -0.545 OA
ENDBRANCH   1   7
BRANCH   5  10
ATOM     10  O   UNL     1      33.244  -0.235  36.967  1.00  0.00    -0.493 OA
ATOM     11  C   UNL     1      33.992  -0.195  38.178  1.00  0.00     0.278 C 
ENDBRANCH   5  10
BRANCH   6  12
ATOM     12  O   UNL     1      30.844   1.176  37.295  1.00  0.00    -0.504 OA
ATOM     13  H   UNL     1      30.899   1.505  38.252  1.00  0.00     0.293 HD
ENDBRANCH   6  12
TORSDOF 3
ENDMDL
MODEL 8
REMARK VINA RESULT:    -3.473      2.896      4.924
REMARK INTER + INTRA:          -4.075
REMARK INTER:                  -3.979
REMARK INTRA:                  -0.096
REMARK UNBOUND:                -0.095
REMARK SMILES COc1cc(C(=O)[O-])ccc1O
REMARK SMILES IDX 5 1 9 2 4 3 10 4 3 5 11 6 6 7 7 8 8 9 2 10 1 11 12 12
REMARK H PARENT 12 13
REMARK Flexibility Score: inf
ROOT
ATOM      1  C   UNL     1      28.898   3.671  29.982  1.00  0.00     0.001 A 
ATOM      2  C   UNL     1      29.262   5.026  30.013  1.00  0.00     0.014 A 
ATOM      3  C   UNL     1      29.841   2.719  29.557  1.00  0.00     0.060 A 
ATOM      4  C   UNL     1      30.544   5.422  29.627  1.00  0.00     0.051 A 
ATOM      5  C   UNL     1      31.137   3.113  29.166  1.00  0.00     0.161 A 
ATOM      6  C   UNL     1      31.481   4.476  29.203  1.00  0.00     0.157 A 
ENDROOT
BRANCH   1   7
ATOM      7  C   UNL     1      27.538   3.257  30.394  1.00  0.00     0.072 C 
ATOM      8  O   UNL     1      26.664   4.118  30.682  1.00  0.00    -0.545 OA
ATOM      9  O   UNL     1      27.204   1.909  30.469  1.00  0.00    -0.545 OA
ENDBRANCH   1   7
BRANCH   5  10
ATOM     10  O   UNL     1      32.100   2.184  28.737  1.00  0.00    -0.493 OA
ATOM     11  C   UNL     1      33.000   1.495  29.599  1.00  0.00     0.278 C 
ENDBRANCH   5  10
BRANCH   6  12
ATOM     12  O   UNL     1      32.752   4.910  28.825  1.00  0.00    -0.504 OA
ATOM     13  H   UNL     1      32.937   5.867  28.550  1.00  0.00     0.293 HD
ENDBRANCH   6  12
TORSDOF 3
ENDMDL
MODEL 9
REMARK VINA RESULT:    -3.429      1.533      4.420
REMARK INTER + INTRA:          -4.024
REMARK INTER:                  -3.932
REMARK INTRA:                  -0.092
REMARK UNBOUND:                -0.095
REMARK SMILES COc1cc(C(=O)[O-])ccc1O
REMARK SMILES IDX 5 1 9 2 4 3 10 4 3 5 11 6 6 7 7 8 8 9 2 10 1 11 12 12
REMARK H PARENT 12 13
REMARK Flexibility Score: inf
ROOT
ATOM      1  C   UNL     1      31.462   0.811  28.475  1.00  0.00     0.001 A 
ATOM      2  C   UNL     1      32.729   1.379  28.678  1.00  0.00     0.014 A 
ATOM      3  C   UNL     1      30.318   1.609  28.659  1.00  0.00     0.060 A 
ATOM      4  C   UNL     1      32.852   2.717  29.056  1.00  0.00     0.051 A 
ATOM      5  C   UNL     1      30.436   2.961  29.042  1.00  0.00     0.161 A 
ATOM      6  C   UNL     1      31.716   3.509  29.240  1.00  0.00     0.157 A 
ENDROOT
BRANCH   1   7
ATOM      7  C   UNL     1      31.337  -0.607  28.073  1.00  0.00     0.072 C 
ATOM      8  O   UNL     1      32.205  -1.452  28.422  1.00  0.00    -0.545 OA
ATOM      9  O   UNL     1      30.260  -1.030  27.302  1.00  0.00    -0.545 OA
ENDBRANCH   1   7
BRANCH   5  10
ATOM     10  O   UNL     1      29.312   3.781  29.233  1.00  0.00    -0.493 OA
ATOM     11  C   UNL     1      28.255   3.505  30.148  1.00  0.00     0.278 C 
ENDBRANCH   5  10
BRANCH   6  12
ATOM     12  O   UNL     1      31.878   4.842  29.619  1.00  0.00    -0.504 OA
ATOM     13  H   UNL     1      32.789   5.282  29.668  1.00  0.00     0.293 HD
ENDBRANCH   6  12
TORSDOF 3
ENDMDL
