MODEL 1
REMARK VINA RESULT:    -5.846      0.000      0.000
REMARK INTER + INTRA:          -5.846
REMARK INTER:                  -5.846
REMARK INTRA:                   0.000
REMARK UNBOUND:                 0.000
REMARK SMILES O=c1ccc2ccccc2o1
REMARK SMILES IDX 7 1 8 2 9 3 10 4 5 5 6 6 4 7 3 8 2 9 1 10 11 11
REMARK H PARENT
REMARK Flexibility Score: inf
ROOT
ATOM      1  C   UNL     1       9.953  -6.962  20.055  1.00  0.00     0.001 A 
ATOM      2  C   UNL     1      11.178  -6.293  19.947  1.00  0.00     0.004 A 
ATOM      3  C   UNL     1      11.210  -4.908  19.754  1.00  0.00     0.048 A 
ATOM      4  C   UNL     1      10.014  -4.185  19.669  1.00  0.00     0.138 A 
ATOM      5  C   UNL     1       8.778  -4.859  19.778  1.00  0.00     0.018 A 
ATOM      6  C   UNL     1       8.753  -6.249  19.972  1.00  0.00     0.012 A 
ATOM      7  C   UNL     1       7.600  -4.110  19.690  1.00  0.00     0.019 A 
ATOM      8  C   UNL     1       7.679  -2.732  19.498  1.00  0.00     0.094 A 
ATOM      9  C   UNL     1       8.939  -2.131  19.399  1.00  0.00     0.336 A 
ATOM     10  O   UNL     1       9.031  -0.888  19.226  1.00  0.00    -0.246 OA
ATOM     11  O   UNL     1      10.044  -2.867  19.487  1.00  0.00    -0.423 OA
ENDROOT
TORSDOF 0
ENDMDL
MODEL 2
REMARK VINA RESULT:    -5.772      1.151      2.451
REMARK INTER + INTRA:          -5.772
REMARK INTER:                  -5.772
REMARK INTRA:                   0.000
REMARK UNBOUND:                 0.000
REMARK SMILES O=c1ccc2ccccc2o1
REMARK SMILES IDX 7 1 8 2 9 3 10 4 5 5 6 6 4 7 3 8 2 9 1 10 11 11
REMARK H PARENT
REMARK Flexibility Score: inf
ROOT
ATOM      1  C   UNL     1      10.015  -6.761  20.056  1.00  0.00     0.001 A 
ATOM      2  C   UNL     1       8.738  -6.193  20.125  1.00  0.00     0.004 A 
ATOM      3  C   UNL     1       8.562  -4.826  19.889  1.00  0.00     0.048 A 
ATOM      4  C   UNL     1       9.664  -4.020  19.581  1.00  0.00     0.138 A 
ATOM      5  C   UNL     1      10.953  -4.593  19.511  1.00  0.00     0.018 A 
ATOM      6  C   UNL     1      11.124  -5.965  19.750  1.00  0.00     0.012 A 
ATOM      7  C   UNL     1      12.036  -3.763  19.202  1.00  0.00     0.019 A 
ATOM      8  C   UNL     1      11.814  -2.406  18.974  1.00  0.00     0.094 A 
ATOM      9  C   UNL     1      10.508  -1.908  19.060  1.00  0.00     0.336 A 
ATOM     10  O   UNL     1      10.288  -0.685  18.856  1.00  0.00    -0.246 OA
ATOM     11  O   UNL     1       9.496  -2.720  19.355  1.00  0.00    -0.423 OA
ENDROOT
TORSDOF 0
ENDMDL
MODEL 3
REMARK VINA RESULT:    -5.731     11.087     12.470
REMARK INTER + INTRA:          -5.731
REMARK INTER:                  -5.731
REMARK INTRA:                   0.000
REMARK UNBOUND:                 0.000
REMARK SMILES O=c1ccc2ccccc2o1
REMARK SMILES IDX 7 1 8 2 9 3 10 4 5 5 6 6 4 7 3 8 2 9 1 10 11 11
REMARK H PARENT
REMARK Flexibility Score: inf
ROOT
ATOM      1  C   UNL     1       8.074   1.120  10.900  1.00  0.00     0.001 A 
ATOM      2  C   UNL     1       7.001   1.092  10.003  1.00  0.00     0.004 A 
ATOM      3  C   UNL     1       6.348   2.277   9.649  1.00  0.00     0.048 A 
ATOM      4  C   UNL     1       6.767   3.498  10.192  1.00  0.00     0.138 A 
ATOM      5  C   UNL     1       7.851   3.526  11.097  1.00  0.00     0.018 A 
ATOM      6  C   UNL     1       8.502   2.334  11.448  1.00  0.00     0.012 A 
ATOM      7  C   UNL     1       8.249   4.760  11.623  1.00  0.00     0.019 A 
ATOM      8  C   UNL     1       7.569   5.916  11.242  1.00  0.00     0.094 A 
ATOM      9  C   UNL     1       6.504   5.811  10.340  1.00  0.00     0.336 A 
ATOM     10  O   UNL     1       5.879   6.844   9.984  1.00  0.00    -0.246 OA
ATOM     11  O   UNL     1       6.147   4.625   9.854  1.00  0.00    -0.423 OA
ENDROOT
TORSDOF 0
ENDMDL
MODEL 4
REMARK VINA RESULT:    -5.694      1.003      2.089
REMARK INTER + INTRA:          -5.694
REMARK INTER:                  -5.694
REMARK INTRA:                   0.000
REMARK UNBOUND:                 0.000
REMARK SMILES O=c1ccc2ccccc2o1
REMARK SMILES IDX 7 1 8 2 9 3 10 4 5 5 6 6 4 7 3 8 2 9 1 10 11 11
REMARK H PARENT
REMARK Flexibility Score: inf
ROOT
ATOM      1  C   UNL     1      11.067  -6.450  19.924  1.00  0.00     0.001 A 
ATOM      2  C   UNL     1       9.714  -6.774  20.072  1.00  0.00     0.004 A 
ATOM      3  C   UNL     1       8.738  -5.776  19.983  1.00  0.00     0.048 A 
ATOM      4  C   UNL     1       9.112  -4.448  19.744  1.00  0.00     0.138 A 
ATOM      5  C   UNL     1      10.479  -4.121  19.595  1.00  0.00     0.018 A 
ATOM      6  C   UNL     1      11.453  -5.127  19.685  1.00  0.00     0.012 A 
ATOM      7  C   UNL     1      10.823  -2.787  19.357  1.00  0.00     0.019 A 
ATOM      8  C   UNL     1       9.816  -1.825  19.275  1.00  0.00     0.094 A 
ATOM      9  C   UNL     1       8.483  -2.223  19.434  1.00  0.00     0.336 A 
ATOM     10  O   UNL     1       7.561  -1.369  19.363  1.00  0.00    -0.246 OA
ATOM     11  O   UNL     1       8.184  -3.499  19.659  1.00  0.00    -0.423 OA
ENDROOT
TORSDOF 0
ENDMDL
MODEL 5
REMARK VINA RESULT:    -5.677      1.770      2.504
REMARK INTER + INTRA:          -5.677
REMARK INTER:                  -5.677
REMARK INTRA:                   0.000
REMARK UNBOUND:                 0.000
REMARK SMILES O=c1ccc2ccccc2o1
REMARK SMILES IDX 7 1 8 2 9 3 10 4 5 5 6 6 4 7 3 8 2 9 1 10 11 11
REMARK H PARENT
REMARK Flexibility Score: inf
ROOT
ATOM      1  C   UNL     1       8.741  -6.105  20.125  1.00  0.00     0.001 A 
ATOM      2  C   UNL     1       9.958  -6.791  20.050  1.00  0.00     0.004 A 
ATOM      3  C   UNL     1      11.138  -6.100  19.754  1.00  0.00     0.048 A 
ATOM      4  C   UNL     1      11.105  -4.718  19.532  1.00  0.00     0.138 A 
ATOM      5  C   UNL     1       9.875  -4.025  19.608  1.00  0.00     0.018 A 
ATOM      6  C   UNL     1       8.695  -4.724  19.906  1.00  0.00     0.012 A 
ATOM      7  C   UNL     1       9.873  -2.645  19.382  1.00  0.00     0.019 A 
ATOM      8  C   UNL     1      11.072  -1.998  19.090  1.00  0.00     0.094 A 
ATOM      9  C   UNL     1      12.252  -2.749  19.032  1.00  0.00     0.336 A 
ATOM     10  O   UNL     1      13.345  -2.181  18.771  1.00  0.00    -0.246 OA
ATOM     11  O   UNL     1      12.227  -4.061  19.251  1.00  0.00    -0.423 OA
ENDROOT
TORSDOF 0
ENDMDL
MODEL 6
REMARK VINA RESULT:    -5.514     10.477     12.472
REMARK INTER + INTRA:          -5.514
REMARK INTER:                  -5.514
REMARK INTRA:                   0.000
REMARK UNBOUND:                 0.000
REMARK SMILES O=c1ccc2ccccc2o1
REMARK SMILES IDX 7 1 8 2 9 3 10 4 5 5 6 6 4 7 3 8 2 9 1 10 11 11
REMARK H PARENT
REMARK Flexibility Score: inf
ROOT
ATOM      1  C   UNL     1       6.173   5.770   9.998  1.00  0.00     0.001 A 
ATOM      2  C   UNL     1       7.146   6.090  10.951  1.00  0.00     0.004 A 
ATOM      3  C   UNL     1       7.944   5.085  11.508  1.00  0.00     0.048 A 
ATOM      4  C   UNL     1       7.771   3.753  11.113  1.00  0.00     0.138 A 
ATOM      5  C   UNL     1       6.789   3.430  10.151  1.00  0.00     0.018 A 
ATOM      6  C   UNL     1       5.991   4.443   9.596  1.00  0.00     0.012 A 
ATOM      7  C   UNL     1       6.639   2.091   9.775  1.00  0.00     0.019 A 
ATOM      8  C   UNL     1       7.456   1.122  10.356  1.00  0.00     0.094 A 
ATOM      9  C   UNL     1       8.409   1.517  11.303  1.00  0.00     0.336 A 
ATOM     10  O   UNL     1       9.156   0.656  11.837  1.00  0.00    -0.246 OA
ATOM     11  O   UNL     1       8.530   2.797  11.642  1.00  0.00    -0.423 OA
ENDROOT
TORSDOF 0
ENDMDL
MODEL 7
REMARK VINA RESULT:    -5.426      1.916      3.796
REMARK INTER + INTRA:          -5.426
REMARK INTER:                  -5.426
REMARK INTRA:                   0.000
REMARK UNBOUND:                 0.000
REMARK SMILES O=c1ccc2ccccc2o1
REMARK SMILES IDX 7 1 8 2 9 3 10 4 5 5 6 6 4 7 3 8 2 9 1 10 11 11
REMARK H PARENT
REMARK Flexibility Score: inf
ROOT
ATOM      1  C   UNL     1      11.980  -2.545  19.202  1.00  0.00     0.001 A 
ATOM      2  C   UNL     1      10.790  -1.810  19.244  1.00  0.00     0.004 A 
ATOM      3  C   UNL     1       9.567  -2.460  19.440  1.00  0.00     0.048 A 
ATOM      4  C   UNL     1       9.529  -3.851  19.595  1.00  0.00     0.138 A 
ATOM      5  C   UNL     1      10.731  -4.594  19.552  1.00  0.00     0.018 A 
ATOM      6  C   UNL     1      11.954  -3.935  19.356  1.00  0.00     0.012 A 
ATOM      7  C   UNL     1      10.662  -5.981  19.710  1.00  0.00     0.019 A 
ATOM      8  C   UNL     1       9.421  -6.587  19.903  1.00  0.00     0.094 A 
ATOM      9  C   UNL     1       8.273  -5.788  19.934  1.00  0.00     0.336 A 
ATOM     10  O   UNL     1       7.144  -6.317  20.108  1.00  0.00    -0.246 OA
ATOM     11  O   UNL     1       8.366  -4.469  19.782  1.00  0.00    -0.423 OA
ENDROOT
TORSDOF 0
ENDMDL
MODEL 8
REMARK VINA RESULT:    -5.376      1.131      2.861
REMARK INTER + INTRA:          -5.376
REMARK INTER:                  -5.376
REMARK INTRA:                   0.000
REMARK UNBOUND:                 0.000
REMARK SMILES O=c1ccc2ccccc2o1
REMARK SMILES IDX 7 1 8 2 9 3 10 4 5 5 6 6 4 7 3 8 2 9 1 10 11 11
REMARK H PARENT
REMARK Flexibility Score: inf
ROOT
ATOM      1  C   UNL     1       7.457  -6.130  19.974  1.00  0.00     0.001 A 
ATOM      2  C   UNL     1       6.898  -4.848  20.007  1.00  0.00     0.004 A 
ATOM      3  C   UNL     1       7.716  -3.719  19.888  1.00  0.00     0.048 A 
ATOM      4  C   UNL     1       9.099  -3.869  19.733  1.00  0.00     0.138 A 
ATOM      5  C   UNL     1       9.664  -5.164  19.699  1.00  0.00     0.018 A 
ATOM      6  C   UNL     1       8.838  -6.292  19.819  1.00  0.00     0.012 A 
ATOM      7  C   UNL     1      11.048  -5.283  19.542  1.00  0.00     0.019 A 
ATOM      8  C   UNL     1      11.825  -4.131  19.426  1.00  0.00     0.094 A 
ATOM      9  C   UNL     1      11.196  -2.881  19.468  1.00  0.00     0.336 A 
ATOM     10  O   UNL     1      11.881  -1.830  19.365  1.00  0.00    -0.246 OA
ATOM     11  O   UNL     1       9.877  -2.796  19.618  1.00  0.00    -0.423 OA
ENDROOT
TORSDOF 0
ENDMDL
MODEL 9
REMARK VINA RESULT:    -5.200      2.333      3.989
REMARK INTER + INTRA:          -5.200
REMARK INTER:                  -5.200
REMARK INTRA:                   0.000
REMARK UNBOUND:                 0.000
REMARK SMILES O=c1ccc2ccccc2o1
REMARK SMILES IDX 7 1 8 2 9 3 10 4 5 5 6 6 4 7 3 8 2 9 1 10 11 11
REMARK H PARENT
REMARK Flexibility Score: inf
ROOT
ATOM      1  C   UNL     1      11.468  -1.148  18.542  1.00  0.00     0.001 A 
ATOM      2  C   UNL     1      12.595  -1.930  18.262  1.00  0.00     0.004 A 
ATOM      3  C   UNL     1      12.581  -3.304  18.521  1.00  0.00     0.048 A 
ATOM      4  C   UNL     1      11.437  -3.904  19.061  1.00  0.00     0.138 A 
ATOM      5  C   UNL     1      10.299  -3.116  19.344  1.00  0.00     0.018 A 
ATOM      6  C   UNL     1      10.320  -1.737  19.082  1.00  0.00     0.012 A 
ATOM      7  C   UNL     1       9.171  -3.742  19.883  1.00  0.00     0.019 A 
ATOM      8  C   UNL     1       9.202  -5.115  20.125  1.00  0.00     0.094 A 
ATOM      9  C   UNL     1      10.364  -5.833  19.819  1.00  0.00     0.336 A 
ATOM     10  O   UNL     1      10.410  -7.073  20.030  1.00  0.00    -0.246 OA
ATOM     11  O   UNL     1      11.423  -5.212  19.306  1.00  0.00    -0.423 OA
ENDROOT
TORSDOF 0
ENDMDL
