MODEL 1
REMARK VINA RESULT:    -6.396      0.000      0.000
REMARK INTER + INTRA:          -9.695
REMARK INTER:                  -9.013
REMARK INTRA:                  -0.681
REMARK UNBOUND:                -0.681
REMARK SMILES COc1ccc(-c2cc(=O)c3c(OC)c(OC)c(OC)c(OC)c3o2)cc1OC
REMARK SMILES IDX 7 1 8 2 9 3 10 4 11 5 24 6 25 7 21 8 18 9 15 10 12 11 6 12
REMARK SMILES IDX 3 13 27 14 4 15 26 16 5 17 2 18 1 19 28 20 29 21 22 22 23 23
REMARK SMILES IDX 13 24 14 25 19 26 20 27 16 28 17 29
REMARK H PARENT
REMARK Flexibility Score: inf
ROOT
ATOM      1  C   UNL     1       1.996   4.130 -24.328  1.00  0.00     0.138 A 
ATOM      2  C   UNL     1       2.624   4.823 -23.288  1.00  0.00     0.100 A 
ATOM      3  C   UNL     1       2.363   4.459 -21.970  1.00  0.00     0.197 A 
ATOM      4  O   UNL     1       2.937   5.092 -21.043  1.00  0.00    -0.289 OA
ATOM      5  C   UNL     1       1.470   3.399 -21.701  1.00  0.00     0.115 A 
ATOM      6  C   UNL     1       0.848   2.759 -22.802  1.00  0.00     0.188 A 
ATOM      7  O   UNL     1       1.139   3.154 -24.040  1.00  0.00    -0.452 OA
ATOM      8  C   UNL     1      -0.072   1.700 -22.591  1.00  0.00     0.209 A 
ATOM      9  C   UNL     1      -0.312   1.248 -21.268  1.00  0.00     0.211 A 
ATOM     10  C   UNL     1       0.330   1.867 -20.188  1.00  0.00     0.208 A 
ATOM     11  C   UNL     1       1.173   2.976 -20.388  1.00  0.00     0.179 A 
ENDROOT
BRANCH   1  12
ATOM     12  C   UNL     1       2.258   4.462 -25.752  1.00  0.00     0.021 A 
ATOM     13  C   UNL     1       2.797   5.157 -28.440  1.00  0.00     0.160 A 
ATOM     14  C   UNL     1       1.464   4.890 -28.034  1.00  0.00     0.161 A 
ATOM     15  C   UNL     1       3.826   5.080 -27.497  1.00  0.00     0.051 A 
ATOM     16  C   UNL     1       1.211   4.549 -26.688  1.00  0.00     0.062 A 
ATOM     17  C   UNL     1       3.564   4.738 -26.171  1.00  0.00     0.016 A 
BRANCH  13  18
ATOM     18  O   UNL     1       3.166   5.507 -29.752  1.00  0.00    -0.493 OA
ATOM     19  C   UNL     1       4.124   6.490 -30.125  1.00  0.00     0.278 C 
ENDBRANCH  13  18
BRANCH  14  20
ATOM     20  O   UNL     1       0.417   4.975 -28.965  1.00  0.00    -0.493 OA
ATOM     21  C   UNL     1      -0.874   4.396 -28.801  1.00  0.00     0.278 C 
ENDBRANCH  14  20
ENDBRANCH   1  12
BRANCH   8  22
ATOM     22  O   UNL     1      -0.747   1.064 -23.649  1.00  0.00    -0.490 OA
ATOM     23  C   UNL     1      -1.984   1.456 -24.233  1.00  0.00     0.278 C 
ENDBRANCH   8  22
BRANCH  11  24
ATOM     24  O   UNL     1       1.717   3.658 -19.293  1.00  0.00    -0.492 OA
ATOM     25  C   UNL     1       0.921   4.421 -18.390  1.00  0.00     0.278 C 
ENDBRANCH  11  24
BRANCH   9  26
ATOM     26  O   UNL     1      -1.172   0.178 -20.949  1.00  0.00    -0.490 OA
ATOM     27  C   UNL     1      -2.574   0.244 -20.713  1.00  0.00     0.279 C 
ENDBRANCH   9  26
BRANCH  10  28
ATOM     28  O   UNL     1       0.120   1.346 -18.907  1.00  0.00    -0.490 OA
ATOM     29  C   UNL     1       1.146   0.669 -18.189  1.00  0.00     0.278 C 
ENDBRANCH  10  28
TORSDOF 7
ENDMDL
MODEL 2
REMARK VINA RESULT:    -6.031      1.955      7.708
REMARK INTER + INTRA:          -9.181
REMARK INTER:                  -8.555
REMARK INTRA:                  -0.626
REMARK UNBOUND:                -0.681
REMARK SMILES COc1ccc(-c2cc(=O)c3c(OC)c(OC)c(OC)c(OC)c3o2)cc1OC
REMARK SMILES IDX 7 1 8 2 9 3 10 4 11 5 24 6 25 7 21 8 18 9 15 10 12 11 6 12
REMARK SMILES IDX 3 13 27 14 4 15 26 16 5 17 2 18 1 19 28 20 29 21 22 22 23 23
REMARK SMILES IDX 13 24 14 25 19 26 20 27 16 28 17 29
REMARK H PARENT
REMARK Flexibility Score: inf
ROOT
ATOM      1  C   UNL     1      -0.006   2.395 -22.826  1.00  0.00     0.138 A 
ATOM      2  C   UNL     1       0.971   3.148 -22.166  1.00  0.00     0.100 A 
ATOM      3  C   UNL     1       1.791   3.998 -22.903  1.00  0.00     0.197 A 
ATOM      4  O   UNL     1       2.666   4.671 -22.295  1.00  0.00    -0.289 OA
ATOM      5  C   UNL     1       1.626   4.090 -24.303  1.00  0.00     0.115 A 
ATOM      6  C   UNL     1       0.635   3.277 -24.909  1.00  0.00     0.188 A 
ATOM      7  O   UNL     1      -0.117   2.484 -24.149  1.00  0.00    -0.452 OA
ATOM      8  C   UNL     1       0.437   3.314 -26.314  1.00  0.00     0.209 A 
ATOM      9  C   UNL     1       1.200   4.219 -27.094  1.00  0.00     0.211 A 
ATOM     10  C   UNL     1       2.157   5.039 -26.482  1.00  0.00     0.208 A 
ATOM     11  C   UNL     1       2.417   4.940 -25.103  1.00  0.00     0.179 A 
ENDROOT
BRANCH   1  12
ATOM     12  C   UNL     1      -0.922   1.491 -22.085  1.00  0.00     0.021 A 
ATOM     13  C   UNL     1      -2.605  -0.265 -20.641  1.00  0.00     0.160 A 
ATOM     14  C   UNL     1      -2.780  -0.111 -22.041  1.00  0.00     0.161 A 
ATOM     15  C   UNL     1      -1.591   0.452 -19.997  1.00  0.00     0.051 A 
ATOM     16  C   UNL     1      -1.929   0.766 -22.747  1.00  0.00     0.062 A 
ATOM     17  C   UNL     1      -0.760   1.318 -20.705  1.00  0.00     0.016 A 
BRANCH  13  18
ATOM     18  O   UNL     1      -3.391  -1.109 -19.836  1.00  0.00    -0.493 OA
ATOM     19  C   UNL     1      -4.649  -0.790 -19.254  1.00  0.00     0.278 C 
ENDBRANCH  13  18
BRANCH  14  20
ATOM     20  O   UNL     1      -3.785  -0.832 -22.705  1.00  0.00    -0.493 OA
ATOM     21  C   UNL     1      -5.035  -0.296 -23.125  1.00  0.00     0.278 C 
ENDBRANCH  14  20
ENDBRANCH   1  12
BRANCH   8  22
ATOM     22  O   UNL     1      -0.503   2.495 -26.965  1.00  0.00    -0.490 OA
ATOM     23  C   UNL     1      -0.275   1.204 -27.519  1.00  0.00     0.278 C 
ENDBRANCH   8  22
BRANCH  11  24
ATOM     24  O   UNL     1       3.454   5.681 -24.523  1.00  0.00    -0.492 OA
ATOM     25  C   UNL     1       3.380   7.093 -24.339  1.00  0.00     0.278 C 
ENDBRANCH  11  24
BRANCH   9  26
ATOM     26  O   UNL     1       1.056   4.368 -28.489  1.00  0.00    -0.490 OA
ATOM     27  C   UNL     1      -0.088   4.847 -29.186  1.00  0.00     0.279 C 
ENDBRANCH   9  26
BRANCH  10  28
ATOM     28  O   UNL     1       2.837   5.967 -27.278  1.00  0.00    -0.490 OA
ATOM     29  C   UNL     1       4.123   5.694 -27.826  1.00  0.00     0.278 C 
ENDBRANCH  10  28
TORSDOF 7
ENDMDL
MODEL 3
REMARK VINA RESULT:    -6.026      1.767      7.965
REMARK INTER + INTRA:          -9.174
REMARK INTER:                  -8.624
REMARK INTRA:                  -0.550
REMARK UNBOUND:                -0.681
REMARK SMILES COc1ccc(-c2cc(=O)c3c(OC)c(OC)c(OC)c(OC)c3o2)cc1OC
REMARK SMILES IDX 7 1 8 2 9 3 10 4 11 5 24 6 25 7 21 8 18 9 15 10 12 11 6 12
REMARK SMILES IDX 3 13 27 14 4 15 26 16 5 17 2 18 1 19 28 20 29 21 22 22 23 23
REMARK SMILES IDX 13 24 14 25 19 26 20 27 16 28 17 29
REMARK H PARENT
REMARK Flexibility Score: inf
ROOT
ATOM      1  C   UNL     1       0.466   2.764 -23.216  1.00  0.00     0.138 A 
ATOM      2  C   UNL     1       1.425   3.615 -22.656  1.00  0.00     0.100 A 
ATOM      3  C   UNL     1       2.149   4.465 -23.486  1.00  0.00     0.197 A 
ATOM      4  O   UNL     1       3.010   5.227 -22.968  1.00  0.00    -0.289 OA
ATOM      5  C   UNL     1       1.908   4.459 -24.878  1.00  0.00     0.115 A 
ATOM      6  C   UNL     1       0.941   3.551 -25.379  1.00  0.00     0.188 A 
ATOM      7  O   UNL     1       0.282   2.762 -24.533  1.00  0.00    -0.452 OA
ATOM      8  C   UNL     1       0.670   3.488 -26.770  1.00  0.00     0.209 A 
ATOM      9  C   UNL     1       1.332   4.388 -27.643  1.00  0.00     0.211 A 
ATOM     10  C   UNL     1       2.264   5.301 -27.135  1.00  0.00     0.208 A 
ATOM     11  C   UNL     1       2.601   5.304 -25.769  1.00  0.00     0.179 A 
ENDROOT
BRANCH   1  12
ATOM     12  C   UNL     1      -0.351   1.853 -22.373  1.00  0.00     0.021 A 
ATOM     13  C   UNL     1      -1.952   0.181 -20.749  1.00  0.00     0.160 A 
ATOM     14  C   UNL     1      -0.543   0.188 -20.581  1.00  0.00     0.161 A 
ATOM     15  C   UNL     1      -2.529   1.013 -21.714  1.00  0.00     0.051 A 
ATOM     16  C   UNL     1       0.241   1.032 -21.397  1.00  0.00     0.062 A 
ATOM     17  C   UNL     1      -1.743   1.839 -22.516  1.00  0.00     0.016 A 
BRANCH  13  18
ATOM     18  O   UNL     1      -2.832  -0.616 -19.994  1.00  0.00    -0.493 OA
ATOM     19  C   UNL     1      -4.167  -0.287 -19.630  1.00  0.00     0.278 C 
ENDBRANCH  13  18
BRANCH  14  20
ATOM     20  O   UNL     1       0.051  -0.631 -19.609  1.00  0.00    -0.493 OA
ATOM     21  C   UNL     1       1.442  -0.664 -19.305  1.00  0.00     0.278 C 
ENDBRANCH  14  20
ENDBRANCH   1  12
BRANCH   8  22
ATOM     22  O   UNL     1      -0.247   2.574 -27.319  1.00  0.00    -0.490 OA
ATOM     23  C   UNL     1       0.053   1.338 -27.957  1.00  0.00     0.278 C 
ENDBRANCH   8  22
BRANCH  11  24
ATOM     24  O   UNL     1       3.616   6.142 -25.292  1.00  0.00    -0.492 OA
ATOM     25  C   UNL     1       3.473   7.559 -25.220  1.00  0.00     0.278 C 
ENDBRANCH  11  24
BRANCH   9  26
ATOM     26  O   UNL     1       1.107   4.439 -29.035  1.00  0.00    -0.490 OA
ATOM     27  C   UNL     1       0.011   5.050 -29.704  1.00  0.00     0.279 C 
ENDBRANCH   9  26
BRANCH  10  28
ATOM     28  O   UNL     1       2.842   6.217 -28.020  1.00  0.00    -0.490 OA
ATOM     29  C   UNL     1       4.125   6.003 -28.600  1.00  0.00     0.278 C 
ENDBRANCH  10  28
TORSDOF 7
ENDMDL
MODEL 4
REMARK VINA RESULT:    -6.007      1.689      2.754
REMARK INTER + INTRA:          -9.147
REMARK INTER:                  -8.564
REMARK INTRA:                  -0.583
REMARK UNBOUND:                -0.681
REMARK SMILES COc1ccc(-c2cc(=O)c3c(OC)c(OC)c(OC)c(OC)c3o2)cc1OC
REMARK SMILES IDX 7 1 8 2 9 3 10 4 11 5 24 6 25 7 21 8 18 9 15 10 12 11 6 12
REMARK SMILES IDX 3 13 27 14 4 15 26 16 5 17 2 18 1 19 28 20 29 21 22 22 23 23
REMARK SMILES IDX 13 24 14 25 19 26 20 27 16 28 17 29
REMARK H PARENT
REMARK Flexibility Score: inf
ROOT
ATOM      1  C   UNL     1       1.481   3.356 -24.299  1.00  0.00     0.138 A 
ATOM      2  C   UNL     1       1.779   3.701 -22.976  1.00  0.00     0.100 A 
ATOM      3  C   UNL     1       1.132   3.039 -21.936  1.00  0.00     0.197 A 
ATOM      4  O   UNL     1       1.411   3.361 -20.750  1.00  0.00    -0.289 OA
ATOM      5  C   UNL     1       0.187   2.031 -22.229  1.00  0.00     0.115 A 
ATOM      6  C   UNL     1      -0.086   1.752 -23.592  1.00  0.00     0.188 A 
ATOM      7  O   UNL     1       0.566   2.420 -24.541  1.00  0.00    -0.452 OA
ATOM      8  C   UNL     1      -1.039   0.762 -23.944  1.00  0.00     0.209 A 
ATOM      9  C   UNL     1      -1.667   0.013 -22.918  1.00  0.00     0.211 A 
ATOM     10  C   UNL     1      -1.370   0.276 -21.574  1.00  0.00     0.208 A 
ATOM     11  C   UNL     1      -0.493   1.317 -21.220  1.00  0.00     0.179 A 
ENDROOT
BRANCH   1  12
ATOM     12  C   UNL     1       2.160   4.014 -25.445  1.00  0.00     0.021 A 
ATOM     13  C   UNL     1       3.492   5.201 -27.639  1.00  0.00     0.160 A 
ATOM     14  C   UNL     1       3.457   5.870 -26.388  1.00  0.00     0.161 A 
ATOM     15  C   UNL     1       2.870   3.954 -27.764  1.00  0.00     0.051 A 
ATOM     16  C   UNL     1       2.792   5.262 -25.302  1.00  0.00     0.062 A 
ATOM     17  C   UNL     1       2.213   3.366 -26.684  1.00  0.00     0.016 A 
BRANCH  13  18
ATOM     18  O   UNL     1       4.125   5.709 -28.788  1.00  0.00    -0.493 OA
ATOM     19  C   UNL     1       3.499   6.028 -30.025  1.00  0.00     0.278 C 
ENDBRANCH  13  18
BRANCH  14  20
ATOM     20  O   UNL     1       4.087   7.116 -26.242  1.00  0.00    -0.493 OA
ATOM     21  C   UNL     1       3.763   8.086 -25.251  1.00  0.00     0.278 C 
ENDBRANCH  14  20
ENDBRANCH   1  12
BRANCH   8  22
ATOM     22  O   UNL     1      -1.375   0.481 -25.281  1.00  0.00    -0.490 OA
ATOM     23  C   UNL     1      -2.329   1.164 -26.086  1.00  0.00     0.278 C 
ENDBRANCH   8  22
BRANCH  11  24
ATOM     24  O   UNL     1      -0.292   1.646 -19.874  1.00  0.00    -0.492 OA
ATOM     25  C   UNL     1       0.491   0.842 -18.994  1.00  0.00     0.278 C 
ENDBRANCH  11  24
BRANCH   9  26
ATOM     26  O   UNL     1      -2.596  -1.021 -23.157  1.00  0.00    -0.490 OA
ATOM     27  C   UNL     1      -3.972  -0.877 -23.490  1.00  0.00     0.279 C 
ENDBRANCH   9  26
BRANCH  10  28
ATOM     28  O   UNL     1      -1.959  -0.533 -20.597  1.00  0.00    -0.490 OA
ATOM     29  C   UNL     1      -3.190  -0.187 -19.971  1.00  0.00     0.278 C 
ENDBRANCH  10  28
TORSDOF 7
ENDMDL
MODEL 5
REMARK VINA RESULT:    -5.933      2.045      4.403
REMARK INTER + INTRA:          -9.042
REMARK INTER:                  -8.342
REMARK INTRA:                  -0.700
REMARK UNBOUND:                -0.681
REMARK SMILES COc1ccc(-c2cc(=O)c3c(OC)c(OC)c(OC)c(OC)c3o2)cc1OC
REMARK SMILES IDX 7 1 8 2 9 3 10 4 11 5 24 6 25 7 21 8 18 9 15 10 12 11 6 12
REMARK SMILES IDX 3 13 27 14 4 15 26 16 5 17 2 18 1 19 28 20 29 21 22 22 23 23
REMARK SMILES IDX 13 24 14 25 19 26 20 27 16 28 17 29
REMARK H PARENT
REMARK Flexibility Score: inf
ROOT
ATOM      1  C   UNL     1      -0.101   3.524 -25.778  1.00  0.00     0.138 A 
ATOM      2  C   UNL     1      -1.359   3.339 -26.361  1.00  0.00     0.100 A 
ATOM      3  C   UNL     1      -2.358   2.693 -25.637  1.00  0.00     0.197 A 
ATOM      4  O   UNL     1      -3.486   2.534 -26.175  1.00  0.00    -0.289 OA
ATOM      5  C   UNL     1      -2.089   2.236 -24.328  1.00  0.00     0.115 A 
ATOM      6  C   UNL     1      -0.784   2.433 -23.811  1.00  0.00     0.188 A 
ATOM      7  O   UNL     1       0.128   3.057 -24.553  1.00  0.00    -0.452 OA
ATOM      8  C   UNL     1      -0.452   1.978 -22.509  1.00  0.00     0.209 A 
ATOM      9  C   UNL     1      -1.460   1.381 -21.709  1.00  0.00     0.211 A 
ATOM     10  C   UNL     1      -2.754   1.217 -22.218  1.00  0.00     0.208 A 
ATOM     11  C   UNL     1      -3.062   1.585 -23.540  1.00  0.00     0.179 A 
ENDROOT
BRANCH   1  12
ATOM     12  C   UNL     1       0.992   4.227 -26.497  1.00  0.00     0.021 A 
ATOM     13  C   UNL     1       3.102   5.497 -27.888  1.00  0.00     0.160 A 
ATOM     14  C   UNL     1       2.834   5.848 -26.540  1.00  0.00     0.161 A 
ATOM     15  C   UNL     1       2.319   4.517 -28.507  1.00  0.00     0.051 A 
ATOM     16  C   UNL     1       1.780   5.202 -25.859  1.00  0.00     0.062 A 
ATOM     17  C   UNL     1       1.279   3.889 -27.825  1.00  0.00     0.016 A 
BRANCH  13  18
ATOM     18  O   UNL     1       4.125   6.072 -28.664  1.00  0.00    -0.493 OA
ATOM     19  C   UNL     1       4.069   6.358 -30.057  1.00  0.00     0.278 C 
ENDBRANCH  13  18
BRANCH  14  20
ATOM     20  O   UNL     1       3.617   6.820 -25.900  1.00  0.00    -0.493 OA
ATOM     21  C   UNL     1       3.401   7.307 -24.579  1.00  0.00     0.278 C 
ENDBRANCH  14  20
ENDBRANCH   1  12
BRANCH   8  22
ATOM     22  O   UNL     1       0.840   2.112 -21.970  1.00  0.00    -0.490 OA
ATOM     23  C   UNL     1       1.393   3.266 -21.348  1.00  0.00     0.278 C 
ENDBRANCH   8  22
BRANCH  11  24
ATOM     24  O   UNL     1      -4.326   1.311 -24.076  1.00  0.00    -0.492 OA
ATOM     25  C   UNL     1      -4.746  -0.007 -24.420  1.00  0.00     0.278 C 
ENDBRANCH  11  24
BRANCH   9  26
ATOM     26  O   UNL     1      -1.250   0.933 -20.389  1.00  0.00    -0.490 OA
ATOM     27  C   UNL     1      -0.644  -0.289 -19.983  1.00  0.00     0.279 C 
ENDBRANCH   9  26
BRANCH  10  28
ATOM     28  O   UNL     1      -3.734   0.688 -21.372  1.00  0.00    -0.490 OA
ATOM     29  C   UNL     1      -4.758   1.497 -20.802  1.00  0.00     0.278 C 
ENDBRANCH  10  28
TORSDOF 7
ENDMDL
MODEL 6
REMARK VINA RESULT:    -5.799      2.062      8.808
REMARK INTER + INTRA:          -8.853
REMARK INTER:                  -8.241
REMARK INTRA:                  -0.613
REMARK UNBOUND:                -0.681
REMARK SMILES COc1ccc(-c2cc(=O)c3c(OC)c(OC)c(OC)c(OC)c3o2)cc1OC
REMARK SMILES IDX 7 1 8 2 9 3 10 4 11 5 24 6 25 7 21 8 18 9 15 10 12 11 6 12
REMARK SMILES IDX 3 13 27 14 4 15 26 16 5 17 2 18 1 19 28 20 29 21 22 22 23 23
REMARK SMILES IDX 13 24 14 25 19 26 20 27 16 28 17 29
REMARK H PARENT
REMARK Flexibility Score: inf
ROOT
ATOM      1  C   UNL     1      -1.889   2.582 -24.366  1.00  0.00     0.138 A 
ATOM      2  C   UNL     1      -2.366   2.084 -25.583  1.00  0.00     0.100 A 
ATOM      3  C   UNL     1      -1.725   2.444 -26.766  1.00  0.00     0.197 A 
ATOM      4  O   UNL     1      -2.166   1.987 -27.855  1.00  0.00    -0.289 OA
ATOM      5  C   UNL     1      -0.607   3.305 -26.722  1.00  0.00     0.115 A 
ATOM      6  C   UNL     1      -0.195   3.795 -25.456  1.00  0.00     0.188 A 
ATOM      7  O   UNL     1      -0.850   3.413 -24.362  1.00  0.00    -0.452 OA
ATOM      8  C   UNL     1       0.911   4.677 -25.353  1.00  0.00     0.209 A 
ATOM      9  C   UNL     1       1.637   5.012 -26.525  1.00  0.00     0.211 A 
ATOM     10  C   UNL     1       1.241   4.501 -27.767  1.00  0.00     0.208 A 
ATOM     11  C   UNL     1       0.091   3.698 -27.883  1.00  0.00     0.179 A 
ENDROOT
BRANCH   1  12
ATOM     12  C   UNL     1      -2.520   2.210 -23.074  1.00  0.00     0.021 A 
ATOM     13  C   UNL     1      -3.762   1.569 -20.616  1.00  0.00     0.160 A 
ATOM     14  C   UNL     1      -2.350   1.500 -20.732  1.00  0.00     0.161 A 
ATOM     15  C   UNL     1      -4.520   1.963 -21.723  1.00  0.00     0.051 A 
ATOM     16  C   UNL     1      -1.745   1.828 -21.964  1.00  0.00     0.062 A 
ATOM     17  C   UNL     1      -3.911   2.280 -22.936  1.00  0.00     0.016 A 
BRANCH  13  18
ATOM     18  O   UNL     1      -4.472   1.267 -19.439  1.00  0.00    -0.493 OA
ATOM     19  C   UNL     1      -4.889  -0.025 -19.013  1.00  0.00     0.278 C 
ENDBRANCH  13  18
BRANCH  14  20
ATOM     20  O   UNL     1      -1.573   1.117 -19.627  1.00  0.00    -0.493 OA
ATOM     21  C   UNL     1      -0.446   1.833 -19.132  1.00  0.00     0.278 C 
ENDBRANCH  14  20
ENDBRANCH   1  12
BRANCH   8  22
ATOM     22  O   UNL     1       1.328   5.223 -24.126  1.00  0.00    -0.490 OA
ATOM     23  C   UNL     1       2.252   4.654 -23.206  1.00  0.00     0.278 C 
ENDBRANCH   8  22
BRANCH  11  24
ATOM     24  O   UNL     1      -0.361   3.287 -29.143  1.00  0.00    -0.492 OA
ATOM     25  C   UNL     1      -1.115   4.138 -30.004  1.00  0.00     0.278 C 
ENDBRANCH  11  24
BRANCH   9  26
ATOM     26  O   UNL     1       2.775   5.845 -26.530  1.00  0.00    -0.490 OA
ATOM     27  C   UNL     1       4.125   5.455 -26.309  1.00  0.00     0.279 C 
ENDBRANCH   9  26
BRANCH  10  28
ATOM     28  O   UNL     1       2.026   4.799 -28.885  1.00  0.00    -0.490 OA
ATOM     29  C   UNL     1       1.862   6.006 -29.623  1.00  0.00     0.278 C 
ENDBRANCH  10  28
TORSDOF 7
ENDMDL
MODEL 7
REMARK VINA RESULT:    -5.712      1.852      7.878
REMARK INTER + INTRA:          -8.730
REMARK INTER:                  -7.999
REMARK INTRA:                  -0.731
REMARK UNBOUND:                -0.681
REMARK SMILES COc1ccc(-c2cc(=O)c3c(OC)c(OC)c(OC)c(OC)c3o2)cc1OC
REMARK SMILES IDX 7 1 8 2 9 3 10 4 11 5 24 6 25 7 21 8 18 9 15 10 12 11 6 12
REMARK SMILES IDX 3 13 27 14 4 15 26 16 5 17 2 18 1 19 28 20 29 21 22 22 23 23
REMARK SMILES IDX 13 24 14 25 19 26 20 27 16 28 17 29
REMARK H PARENT
REMARK Flexibility Score: inf
ROOT
ATOM      1  C   UNL     1       1.914   4.134 -23.237  1.00  0.00     0.138 A 
ATOM      2  C   UNL     1       2.649   5.247 -23.659  1.00  0.00     0.100 A 
ATOM      3  C   UNL     1       2.718   5.544 -25.018  1.00  0.00     0.197 A 
ATOM      4  O   UNL     1       3.383   6.550 -25.383  1.00  0.00    -0.289 OA
ATOM      5  C   UNL     1       2.046   4.721 -25.949  1.00  0.00     0.115 A 
ATOM      6  C   UNL     1       1.343   3.594 -25.453  1.00  0.00     0.188 A 
ATOM      7  O   UNL     1       1.315   3.364 -24.142  1.00  0.00    -0.452 OA
ATOM      8  C   UNL     1       0.664   2.723 -26.343  1.00  0.00     0.209 A 
ATOM      9  C   UNL     1       0.647   3.029 -27.728  1.00  0.00     0.211 A 
ATOM     10  C   UNL     1       1.320   4.161 -28.205  1.00  0.00     0.208 A 
ATOM     11  C   UNL     1       2.067   4.976 -27.336  1.00  0.00     0.179 A 
ENDROOT
BRANCH   1  12
ATOM     12  C   UNL     1       1.790   3.786 -21.798  1.00  0.00     0.021 A 
ATOM     13  C   UNL     1       1.476   3.116 -19.069  1.00  0.00     0.160 A 
ATOM     14  C   UNL     1       2.181   4.293 -19.430  1.00  0.00     0.161 A 
ATOM     15  C   UNL     1       0.937   2.307 -20.075  1.00  0.00     0.051 A 
ATOM     16  C   UNL     1       2.325   4.615 -20.796  1.00  0.00     0.062 A 
ATOM     17  C   UNL     1       1.089   2.635 -21.421  1.00  0.00     0.016 A 
BRANCH  13  18
ATOM     18  O   UNL     1       1.269   2.695 -17.742  1.00  0.00    -0.493 OA
ATOM     19  C   UNL     1       1.193   1.350 -17.285  1.00  0.00     0.278 C 
ENDBRANCH  13  18
BRANCH  14  20
ATOM     20  O   UNL     1       2.717   5.122 -18.432  1.00  0.00    -0.493 OA
ATOM     21  C   UNL     1       3.335   6.384 -18.662  1.00  0.00     0.278 C 
ENDBRANCH  14  20
ENDBRANCH   1  12
BRANCH   8  22
ATOM     22  O   UNL     1      -0.009   1.569 -25.903  1.00  0.00    -0.490 OA
ATOM     23  C   UNL     1      -1.363   1.479 -25.476  1.00  0.00     0.278 C 
ENDBRANCH   8  22
BRANCH  11  24
ATOM     24  O   UNL     1       2.830   6.037 -27.840  1.00  0.00    -0.492 OA
ATOM     25  C   UNL     1       4.057   5.838 -28.539  1.00  0.00     0.278 C 
ENDBRANCH  11  24
BRANCH   9  26
ATOM     26  O   UNL     1      -0.031   2.256 -28.693  1.00  0.00    -0.490 OA
ATOM     27  C   UNL     1      -1.413   2.315 -29.024  1.00  0.00     0.279 C 
ENDBRANCH   9  26
BRANCH  10  28
ATOM     28  O   UNL     1       1.218   4.464 -29.567  1.00  0.00    -0.490 OA
ATOM     29  C   UNL     1       0.286   5.420 -30.061  1.00  0.00     0.278 C 
ENDBRANCH  10  28
TORSDOF 7
ENDMDL
MODEL 8
REMARK VINA RESULT:    -5.655      1.028      3.300
REMARK INTER + INTRA:          -8.651
REMARK INTER:                  -8.589
REMARK INTRA:                  -0.062
REMARK UNBOUND:                -0.681
REMARK SMILES COc1ccc(-c2cc(=O)c3c(OC)c(OC)c(OC)c(OC)c3o2)cc1OC
REMARK SMILES IDX 7 1 8 2 9 3 10 4 11 5 24 6 25 7 21 8 18 9 15 10 12 11 6 12
REMARK SMILES IDX 3 13 27 14 4 15 26 16 5 17 2 18 1 19 28 20 29 21 22 22 23 23
REMARK SMILES IDX 13 24 14 25 19 26 20 27 16 28 17 29
REMARK H PARENT
REMARK Flexibility Score: inf
ROOT
ATOM      1  C   UNL     1       1.369   3.030 -24.980  1.00  0.00     0.138 A 
ATOM      2  C   UNL     1       0.678   1.818 -24.876  1.00  0.00     0.100 A 
ATOM      3  C   UNL     1       0.359   1.321 -23.615  1.00  0.00     0.197 A 
ATOM      4  O   UNL     1      -0.265   0.229 -23.536  1.00  0.00    -0.289 OA
ATOM      5  C   UNL     1       0.737   2.044 -22.462  1.00  0.00     0.115 A 
ATOM      6  C   UNL     1       1.460   3.250 -22.642  1.00  0.00     0.188 A 
ATOM      7  O   UNL     1       1.734   3.672 -23.874  1.00  0.00    -0.452 OA
ATOM      8  C   UNL     1       1.881   4.008 -21.519  1.00  0.00     0.209 A 
ATOM      9  C   UNL     1       1.515   3.576 -20.219  1.00  0.00     0.211 A 
ATOM     10  C   UNL     1       0.775   2.399 -20.052  1.00  0.00     0.208 A 
ATOM     11  C   UNL     1       0.434   1.599 -21.158  1.00  0.00     0.179 A 
ENDROOT
BRANCH   1  12
ATOM     12  C   UNL     1       1.713   3.616 -26.301  1.00  0.00     0.021 A 
ATOM     13  C   UNL     1       2.409   4.786 -28.779  1.00  0.00     0.160 A 
ATOM     14  C   UNL     1       1.046   4.535 -28.476  1.00  0.00     0.161 A 
ATOM     15  C   UNL     1       3.390   4.458 -27.839  1.00  0.00     0.051 A 
ATOM     16  C   UNL     1       0.715   3.954 -27.233  1.00  0.00     0.062 A 
ATOM     17  C   UNL     1       3.050   3.881 -26.616  1.00  0.00     0.016 A 
BRANCH  13  18
ATOM     18  O   UNL     1       2.855   5.361 -29.984  1.00  0.00    -0.493 OA
ATOM     19  C   UNL     1       3.873   6.346 -30.123  1.00  0.00     0.278 C 
ENDBRANCH  13  18
BRANCH  14  20
ATOM     20  O   UNL     1       0.048   4.870 -29.404  1.00  0.00    -0.493 OA
ATOM     21  C   UNL     1      -1.160   4.143 -29.606  1.00  0.00     0.278 C 
ENDBRANCH  14  20
ENDBRANCH   1  12
BRANCH   8  22
ATOM     22  O   UNL     1       2.638   5.187 -21.646  1.00  0.00    -0.490 OA
ATOM     23  C   UNL     1       2.627   6.098 -22.738  1.00  0.00     0.278 C 
ENDBRANCH   8  22
BRANCH  11  24
ATOM     24  O   UNL     1      -0.205   0.367 -20.970  1.00  0.00    -0.492 OA
ATOM     25  C   UNL     1      -1.556   0.261 -20.530  1.00  0.00     0.278 C 
ENDBRANCH  11  24
BRANCH   9  26
ATOM     26  O   UNL     1       1.844   4.275 -19.039  1.00  0.00    -0.490 OA
ATOM     27  C   UNL     1       3.103   4.296 -18.377  1.00  0.00     0.279 C 
ENDBRANCH   9  26
BRANCH  10  28
ATOM     28  O   UNL     1       0.375   2.047 -18.759  1.00  0.00    -0.490 OA
ATOM     29  C   UNL     1       1.121   1.137 -17.958  1.00  0.00     0.278 C 
ENDBRANCH  10  28
TORSDOF 7
ENDMDL
MODEL 9
REMARK VINA RESULT:    -5.583      1.735      2.657
REMARK INTER + INTRA:          -8.549
REMARK INTER:                  -7.945
REMARK INTRA:                  -0.604
REMARK UNBOUND:                -0.681
REMARK SMILES COc1ccc(-c2cc(=O)c3c(OC)c(OC)c(OC)c(OC)c3o2)cc1OC
REMARK SMILES IDX 7 1 8 2 9 3 10 4 11 5 24 6 25 7 21 8 18 9 15 10 12 11 6 12
REMARK SMILES IDX 3 13 27 14 4 15 26 16 5 17 2 18 1 19 28 20 29 21 22 22 23 23
REMARK SMILES IDX 13 24 14 25 19 26 20 27 16 28 17 29
REMARK H PARENT
REMARK Flexibility Score: inf
ROOT
ATOM      1  C   UNL     1       0.739   3.077 -24.710  1.00  0.00     0.138 A 
ATOM      2  C   UNL     1       1.468   2.914 -23.527  1.00  0.00     0.100 A 
ATOM      3  C   UNL     1       0.836   2.392 -22.402  1.00  0.00     0.197 A 
ATOM      4  O   UNL     1       1.506   2.251 -21.344  1.00  0.00    -0.289 OA
ATOM      5  C   UNL     1      -0.529   2.034 -22.469  1.00  0.00     0.115 A 
ATOM      6  C   UNL     1      -1.213   2.252 -23.692  1.00  0.00     0.188 A 
ATOM      7  O   UNL     1      -0.552   2.756 -24.732  1.00  0.00    -0.452 OA
ATOM      8  C   UNL     1      -2.589   1.928 -23.811  1.00  0.00     0.209 A 
ATOM      9  C   UNL     1      -3.254   1.326 -22.713  1.00  0.00     0.211 A 
ATOM     10  C   UNL     1      -2.562   1.088 -21.518  1.00  0.00     0.208 A 
ATOM     11  C   UNL     1      -1.223   1.490 -21.368  1.00  0.00     0.179 A 
ENDROOT
BRANCH   1  12
ATOM     12  C   UNL     1       1.371   3.607 -25.945  1.00  0.00     0.021 A 
ATOM     13  C   UNL     1       2.617   4.665 -28.253  1.00  0.00     0.160 A 
ATOM     14  C   UNL     1       1.202   4.588 -28.187  1.00  0.00     0.161 A 
ATOM     15  C   UNL     1       3.376   4.222 -27.165  1.00  0.00     0.051 A 
ATOM     16  C   UNL     1       0.595   4.062 -27.027  1.00  0.00     0.062 A 
ATOM     17  C   UNL     1       2.765   3.700 -26.026  1.00  0.00     0.016 A 
BRANCH  13  18
ATOM     18  O   UNL     1       3.329   5.171 -29.356  1.00  0.00    -0.493 OA
ATOM     19  C   UNL     1       4.125   6.350 -29.378  1.00  0.00     0.278 C 
ENDBRANCH  13  18
BRANCH  14  20
ATOM     20  O   UNL     1       0.424   5.040 -29.265  1.00  0.00    -0.493 OA
ATOM     21  C   UNL     1      -0.827   4.488 -29.660  1.00  0.00     0.278 C 
ENDBRANCH  14  20
ENDBRANCH   1  12
BRANCH   8  22
ATOM     22  O   UNL     1      -3.320   2.167 -24.989  1.00  0.00    -0.490 OA
ATOM     23  C   UNL     1      -3.344   1.361 -26.161  1.00  0.00     0.278 C 
ENDBRANCH   8  22
BRANCH  11  24
ATOM     24  O   UNL     1      -0.576   1.352 -20.133  1.00  0.00    -0.492 OA
ATOM     25  C   UNL     1      -0.107   0.096 -19.648  1.00  0.00     0.278 C 
ENDBRANCH  11  24
BRANCH   9  26
ATOM     26  O   UNL     1      -4.606   0.927 -22.738  1.00  0.00    -0.490 OA
ATOM     27  C   UNL     1      -5.130  -0.297 -23.240  1.00  0.00     0.279 C 
ENDBRANCH   9  26
BRANCH  10  28
ATOM     28  O   UNL     1      -3.236   0.429 -20.485  1.00  0.00    -0.490 OA
ATOM     29  C   UNL     1      -3.955   1.136 -19.479  1.00  0.00     0.278 C 
ENDBRANCH  10  28
TORSDOF 7
ENDMDL
