MODEL 1
REMARK VINA RESULT:    -3.446      0.000      0.000
REMARK INTER + INTRA:         -14.583
REMARK INTER:                  -8.683
REMARK INTRA:                  -5.900
REMARK UNBOUND:                -5.900
REMARK SMILES CCCCCCCCCCCCCCCCCCCCCCCCCCCC(=O)[O-]
REMARK SMILES IDX 15 1 16 2 17 3 18 4 19 5 20 6 21 7 22 8 23 9 24 10 25 11
REMARK SMILES IDX 26 12 27 13 28 14 29 15 30 16 14 17 13 18 12 19 11 20 10 21
REMARK SMILES IDX 9 22 8 23 7 24 6 25 5 26 4 27 3 28 2 29 1 30
REMARK H PARENT
REMARK Flexibility Score: inf
ROOT
ATOM      1  C   UNL     1      -2.633  26.544  -1.800  1.00  0.00     0.000 C 
ENDROOT
BRANCH   1   2
ATOM      2  C   UNL     1      -1.134  26.631  -2.133  1.00  0.00     0.000 C 
BRANCH   2   3
ATOM      3  C   UNL     1      -0.252  25.973  -1.061  1.00  0.00     0.000 C 
BRANCH   3   4
ATOM      4  C   UNL     1      -1.100  25.485   0.123  1.00  0.00     0.000 C 
BRANCH   4   5
ATOM      5  C   UNL     1      -0.781  24.037   0.531  1.00  0.00     0.000 C 
BRANCH   5   6
ATOM      6  C   UNL     1      -0.062  23.255  -0.581  1.00  0.00     0.000 C 
BRANCH   6   7
ATOM      7  C   UNL     1      -0.977  22.232  -1.278  1.00  0.00     0.000 C 
BRANCH   7   8
ATOM      8  C   UNL     1      -1.829  21.367  -0.328  1.00  0.00     0.000 C 
BRANCH   8   9
ATOM      9  C   UNL     1      -3.347  21.638  -0.371  1.00  0.00     0.000 C 
BRANCH   9  10
ATOM     10  C   UNL     1      -3.735  22.899  -1.175  1.00  0.00     0.000 C 
BRANCH  10  11
ATOM     11  C   UNL     1      -4.704  23.811  -0.403  1.00  0.00     0.000 C 
BRANCH  11  12
ATOM     12  C   UNL     1      -4.750  23.491   1.099  1.00  0.00     0.006 C 
BRANCH  12  13
ATOM     13  C   UNL     1      -4.771  24.756   1.969  1.00  0.00     0.053 C 
BRANCH  13  14
ATOM     14  C   UNL     1      -6.131  24.977   2.554  1.00  0.00     0.041 C 
ATOM     15  O   UNL     1      -7.001  24.068   2.499  1.00  0.00    -0.550 OA
ATOM     16  O   UNL     1      -6.433  26.183   3.176  1.00  0.00    -0.550 OA
ENDBRANCH  13  14
ENDBRANCH  12  13
ENDBRANCH  11  12
ENDBRANCH  10  11
ENDBRANCH   9  10
ENDBRANCH   8   9
ENDBRANCH   7   8
ENDBRANCH   6   7
ENDBRANCH   5   6
ENDBRANCH   4   5
ENDBRANCH   3   4
ENDBRANCH   2   3
ENDBRANCH   1   2
BRANCH   1  17
ATOM     17  C   UNL     1      -3.454  27.673  -2.448  1.00  0.00     0.000 C 
BRANCH  17  18
ATOM     18  C   UNL     1      -4.176  28.547  -1.401  1.00  0.00     0.000 C 
BRANCH  18  19
ATOM     19  C   UNL     1      -4.857  27.741  -0.281  1.00  0.00     0.000 C 
BRANCH  19  20
ATOM     20  C   UNL     1      -4.706  28.393   1.103  1.00  0.00     0.000 C 
BRANCH  20  21
ATOM     21  C   UNL     1      -3.313  28.176   1.713  1.00  0.00     0.000 C 
BRANCH  21  22
ATOM     22  C   UNL     1      -2.824  29.388   2.522  1.00  0.00    -0.000 C 
BRANCH  22  23
ATOM     23  C   UNL     1      -1.504  29.930   1.952  1.00  0.00    -0.000 C 
BRANCH  23  24
ATOM     24  C   UNL     1      -1.053  29.178   0.688  1.00  0.00    -0.000 C 
BRANCH  24  25
ATOM     25  C   UNL     1      -0.783  30.125  -0.494  1.00  0.00    -0.000 C 
BRANCH  25  26
ATOM     26  C   UNL     1      -1.413  31.512  -0.280  1.00  0.00    -0.000 C 
BRANCH  26  27
ATOM     27  C   UNL     1      -2.770  31.689  -1.001  1.00  0.00    -0.000 C 
BRANCH  27  28
ATOM     28  C   UNL     1      -3.930  32.031  -0.047  1.00  0.00    -0.000 C 
BRANCH  28  29
ATOM     29  C   UNL     1      -5.301  32.140  -0.734  1.00  0.00    -0.003 C 
ATOM     30  C   UNL     1      -6.411  31.429   0.042  1.00  0.00     0.004 C 
ENDBRANCH  28  29
ENDBRANCH  27  28
ENDBRANCH  26  27
ENDBRANCH  25  26
ENDBRANCH  24  25
ENDBRANCH  23  24
ENDBRANCH  22  23
ENDBRANCH  21  22
ENDBRANCH  20  21
ENDBRANCH  19  20
ENDBRANCH  18  19
ENDBRANCH  17  18
ENDBRANCH   1  17
TORSDOF 26
ENDMDL
MODEL 2
REMARK VINA RESULT:    -3.379      1.563      4.261
REMARK INTER + INTRA:         -14.414
REMARK INTER:                  -9.031
REMARK INTRA:                  -5.383
REMARK UNBOUND:                -5.900
REMARK SMILES CCCCCCCCCCCCCCCCCCCCCCCCCCCC(=O)[O-]
REMARK SMILES IDX 15 1 16 2 17 3 18 4 19 5 20 6 21 7 22 8 23 9 24 10 25 11
REMARK SMILES IDX 26 12 27 13 28 14 29 15 30 16 14 17 13 18 12 19 11 20 10 21
REMARK SMILES IDX 9 22 8 23 7 24 6 25 5 26 4 27 3 28 2 29 1 30
REMARK H PARENT
REMARK Flexibility Score: inf
ROOT
ATOM      1  C   UNL     1      -3.385  22.043  -0.010  1.00  0.00     0.000 C 
ENDROOT
BRANCH   1   2
ATOM      2  C   UNL     1      -1.967  21.448  -0.050  1.00  0.00     0.000 C 
BRANCH   2   3
ATOM      3  C   UNL     1      -1.090  22.084  -1.140  1.00  0.00     0.000 C 
BRANCH   3   4
ATOM      4  C   UNL     1      -0.269  23.251  -0.571  1.00  0.00     0.000 C 
BRANCH   4   5
ATOM      5  C   UNL     1      -0.408  24.540  -1.398  1.00  0.00     0.000 C 
BRANCH   5   6
ATOM      6  C   UNL     1      -1.150  25.652  -0.637  1.00  0.00     0.000 C 
BRANCH   6   7
ATOM      7  C   UNL     1      -1.445  25.279   0.828  1.00  0.00     0.000 C 
BRANCH   7   8
ATOM      8  C   UNL     1      -2.876  25.597   1.304  1.00  0.00     0.000 C 
BRANCH   8   9
ATOM      9  C   UNL     1      -3.115  25.448   2.821  1.00  0.00     0.000 C 
BRANCH   9  10
ATOM     10  C   UNL     1      -4.241  26.352   3.369  1.00  0.00     0.000 C 
BRANCH  10  11
ATOM     11  C   UNL     1      -5.052  27.022   2.247  1.00  0.00     0.000 C 
BRANCH  11  12
ATOM     12  C   UNL     1      -6.526  26.589   2.241  1.00  0.00     0.006 C 
BRANCH  12  13
ATOM     13  C   UNL     1      -6.891  25.768   0.996  1.00  0.00     0.053 C 
BRANCH  13  14
ATOM     14  C   UNL     1      -7.316  24.384   1.377  1.00  0.00     0.041 C 
ATOM     15  O   UNL     1      -8.082  23.725   0.626  1.00  0.00    -0.550 OA
ATOM     16  O   UNL     1      -6.851  23.814   2.558  1.00  0.00    -0.550 OA
ENDBRANCH  13  14
ENDBRANCH  12  13
ENDBRANCH  11  12
ENDBRANCH  10  11
ENDBRANCH   9  10
ENDBRANCH   8   9
ENDBRANCH   7   8
ENDBRANCH   6   7
ENDBRANCH   5   6
ENDBRANCH   4   5
ENDBRANCH   3   4
ENDBRANCH   2   3
ENDBRANCH   1   2
BRANCH   1  17
ATOM     17  C   UNL     1      -3.843  22.581  -1.377  1.00  0.00     0.000 C 
BRANCH  17  18
ATOM     18  C   UNL     1      -4.622  23.909  -1.252  1.00  0.00     0.000 C 
BRANCH  18  19
ATOM     19  C   UNL     1      -5.192  24.422  -2.586  1.00  0.00     0.000 C 
BRANCH  19  20
ATOM     20  C   UNL     1      -5.359  25.950  -2.617  1.00  0.00     0.000 C 
BRANCH  20  21
ATOM     21  C   UNL     1      -4.478  26.664  -1.581  1.00  0.00     0.000 C 
BRANCH  21  22
ATOM     22  C   UNL     1      -3.716  27.860  -2.174  1.00  0.00    -0.000 C 
BRANCH  22  23
ATOM     23  C   UNL     1      -4.691  28.894  -2.757  1.00  0.00    -0.000 C 
BRANCH  23  24
ATOM     24  C   UNL     1      -5.437  29.684  -1.668  1.00  0.00    -0.000 C 
BRANCH  24  25
ATOM     25  C   UNL     1      -4.490  30.550  -0.818  1.00  0.00    -0.000 C 
BRANCH  25  26
ATOM     26  C   UNL     1      -4.691  30.317   0.690  1.00  0.00    -0.000 C 
BRANCH  26  27
ATOM     27  C   UNL     1      -3.369  30.312   1.493  1.00  0.00    -0.000 C 
BRANCH  27  28
ATOM     28  C   UNL     1      -2.341  29.290   0.971  1.00  0.00    -0.000 C 
BRANCH  28  29
ATOM     29  C   UNL     1      -1.345  28.797   2.034  1.00  0.00    -0.003 C 
ATOM     30  C   UNL     1      -0.274  29.836   2.370  1.00  0.00     0.004 C 
ENDBRANCH  28  29
ENDBRANCH  27  28
ENDBRANCH  26  27
ENDBRANCH  25  26
ENDBRANCH  24  25
ENDBRANCH  23  24
ENDBRANCH  22  23
ENDBRANCH  21  22
ENDBRANCH  20  21
ENDBRANCH  19  20
ENDBRANCH  18  19
ENDBRANCH  17  18
ENDBRANCH   1  17
TORSDOF 26
ENDMDL
MODEL 3
REMARK VINA RESULT:    -3.337      2.338      4.205
REMARK INTER + INTRA:         -14.308
REMARK INTER:                  -9.589
REMARK INTRA:                  -4.719
REMARK UNBOUND:                -5.900
REMARK SMILES CCCCCCCCCCCCCCCCCCCCCCCCCCCC(=O)[O-]
REMARK SMILES IDX 15 1 16 2 17 3 18 4 19 5 20 6 21 7 22 8 23 9 24 10 25 11
REMARK SMILES IDX 26 12 27 13 28 14 29 15 30 16 14 17 13 18 12 19 11 20 10 21
REMARK SMILES IDX 9 22 8 23 7 24 6 25 5 26 4 27 3 28 2 29 1 30
REMARK H PARENT
REMARK Flexibility Score: inf
ROOT
ATOM      1  C   UNL     1      -1.950  29.259   3.048  1.00  0.00     0.000 C 
ENDROOT
BRANCH   1   2
ATOM      2  C   UNL     1      -0.493  29.633   2.726  1.00  0.00     0.000 C 
BRANCH   2   3
ATOM      3  C   UNL     1      -0.375  30.534   1.487  1.00  0.00     0.000 C 
BRANCH   3   4
ATOM      4  C   UNL     1       0.405  29.828   0.368  1.00  0.00     0.000 C 
BRANCH   4   5
ATOM      5  C   UNL     1      -0.511  29.170  -0.677  1.00  0.00     0.000 C 
BRANCH   5   6
ATOM      6  C   UNL     1      -0.266  27.657  -0.808  1.00  0.00     0.000 C 
BRANCH   6   7
ATOM      7  C   UNL     1      -1.507  26.818  -0.452  1.00  0.00     0.000 C 
BRANCH   7   8
ATOM      8  C   UNL     1      -1.580  26.357   1.017  1.00  0.00     0.000 C 
BRANCH   8   9
ATOM      9  C   UNL     1      -2.867  25.600   1.407  1.00  0.00     0.000 C 
BRANCH   9  10
ATOM     10  C   UNL     1      -3.299  25.817   2.874  1.00  0.00     0.000 C 
BRANCH  10  11
ATOM     11  C   UNL     1      -4.827  25.912   3.026  1.00  0.00     0.000 C 
BRANCH  11  12
ATOM     12  C   UNL     1      -5.580  25.089   1.970  1.00  0.00     0.006 C 
BRANCH  12  13
ATOM     13  C   UNL     1      -7.045  24.839   2.356  1.00  0.00     0.053 C 
BRANCH  13  14
ATOM     14  C   UNL     1      -7.583  25.977   3.166  1.00  0.00     0.041 C 
ATOM     15  O   UNL     1      -7.815  27.090   2.623  1.00  0.00    -0.550 OA
ATOM     16  O   UNL     1      -7.845  25.805   4.521  1.00  0.00    -0.550 OA
ENDBRANCH  13  14
ENDBRANCH  12  13
ENDBRANCH  11  12
ENDBRANCH  10  11
ENDBRANCH   9  10
ENDBRANCH   8   9
ENDBRANCH   7   8
ENDBRANCH   6   7
ENDBRANCH   5   6
ENDBRANCH   4   5
ENDBRANCH   3   4
ENDBRANCH   2   3
ENDBRANCH   1   2
BRANCH   1  17
ATOM     17  C   UNL     1      -2.969  30.123   2.284  1.00  0.00     0.000 C 
BRANCH  17  18
ATOM     18  C   UNL     1      -3.963  29.270   1.467  1.00  0.00     0.000 C 
BRANCH  18  19
ATOM     19  C   UNL     1      -4.004  29.627  -0.030  1.00  0.00     0.000 C 
BRANCH  19  20
ATOM     20  C   UNL     1      -4.718  28.563  -0.879  1.00  0.00     0.000 C 
BRANCH  20  21
ATOM     21  C   UNL     1      -4.457  28.731  -2.383  1.00  0.00     0.000 C 
BRANCH  21  22
ATOM     22  C   UNL     1      -3.446  29.848  -2.689  1.00  0.00    -0.000 C 
BRANCH  22  23
ATOM     23  C   UNL     1      -3.957  30.753  -3.821  1.00  0.00    -0.000 C 
BRANCH  23  24
ATOM     24  C   UNL     1      -3.059  31.981  -4.046  1.00  0.00    -0.000 C 
BRANCH  24  25
ATOM     25  C   UNL     1      -3.171  33.007  -2.905  1.00  0.00    -0.000 C 
BRANCH  25  26
ATOM     26  C   UNL     1      -4.595  33.573  -2.772  1.00  0.00    -0.000 C 
BRANCH  26  27
ATOM     27  C   UNL     1      -5.425  32.895  -1.657  1.00  0.00    -0.000 C 
BRANCH  27  28
ATOM     28  C   UNL     1      -6.825  32.450  -2.121  1.00  0.00    -0.000 C 
BRANCH  28  29
ATOM     29  C   UNL     1      -7.658  31.750  -1.035  1.00  0.00    -0.003 C 
ATOM     30  C   UNL     1      -6.919  31.642   0.300  1.00  0.00     0.004 C 
ENDBRANCH  28  29
ENDBRANCH  27  28
ENDBRANCH  26  27
ENDBRANCH  25  26
ENDBRANCH  24  25
ENDBRANCH  23  24
ENDBRANCH  22  23
ENDBRANCH  21  22
ENDBRANCH  20  21
ENDBRANCH  19  20
ENDBRANCH  18  19
ENDBRANCH  17  18
ENDBRANCH   1  17
TORSDOF 26
ENDMDL
MODEL 4
REMARK VINA RESULT:    -3.320      2.298      4.739
REMARK INTER + INTRA:         -14.266
REMARK INTER:                  -9.071
REMARK INTRA:                  -5.195
REMARK UNBOUND:                -5.900
REMARK SMILES CCCCCCCCCCCCCCCCCCCCCCCCCCCC(=O)[O-]
REMARK SMILES IDX 15 1 16 2 17 3 18 4 19 5 20 6 21 7 22 8 23 9 24 10 25 11
REMARK SMILES IDX 26 12 27 13 28 14 29 15 30 16 14 17 13 18 12 19 11 20 10 21
REMARK SMILES IDX 9 22 8 23 7 24 6 25 5 26 4 27 3 28 2 29 1 30
REMARK H PARENT
REMARK Flexibility Score: inf
ROOT
ATOM      1  C   UNL     1      -2.884  30.368   2.538  1.00  0.00     0.000 C 
ENDROOT
BRANCH   1   2
ATOM      2  C   UNL     1      -1.930  29.418   3.282  1.00  0.00     0.000 C 
BRANCH   2   3
ATOM      3  C   UNL     1      -0.492  29.485   2.744  1.00  0.00     0.000 C 
BRANCH   3   4
ATOM      4  C   UNL     1      -0.306  30.702   1.826  1.00  0.00     0.000 C 
BRANCH   4   5
ATOM      5  C   UNL     1       0.140  30.318   0.406  1.00  0.00     0.000 C 
BRANCH   5   6
ATOM      6  C   UNL     1      -0.045  28.819   0.114  1.00  0.00     0.000 C 
BRANCH   6   7
ATOM      7  C   UNL     1      -1.166  28.543  -0.905  1.00  0.00     0.000 C 
BRANCH   7   8
ATOM      8  C   UNL     1      -2.169  27.450  -0.487  1.00  0.00     0.000 C 
BRANCH   8   9
ATOM      9  C   UNL     1      -1.671  26.479   0.604  1.00  0.00     0.000 C 
BRANCH   9  10
ATOM     10  C   UNL     1      -2.687  26.243   1.743  1.00  0.00     0.000 C 
BRANCH  10  11
ATOM     11  C   UNL     1      -3.453  24.919   1.580  1.00  0.00     0.000 C 
BRANCH  11  12
ATOM     12  C   UNL     1      -4.917  25.021   2.036  1.00  0.00     0.006 C 
BRANCH  12  13
ATOM     13  C   UNL     1      -5.862  25.408   0.890  1.00  0.00     0.053 C 
BRANCH  13  14
ATOM     14  C   UNL     1      -7.289  25.163   1.271  1.00  0.00     0.041 C 
ATOM     15  O   UNL     1      -7.927  26.025   1.932  1.00  0.00    -0.550 OA
ATOM     16  O   UNL     1      -7.921  23.987   0.883  1.00  0.00    -0.550 OA
ENDBRANCH  13  14
ENDBRANCH  12  13
ENDBRANCH  11  12
ENDBRANCH  10  11
ENDBRANCH   9  10
ENDBRANCH   8   9
ENDBRANCH   7   8
ENDBRANCH   6   7
ENDBRANCH   5   6
ENDBRANCH   4   5
ENDBRANCH   3   4
ENDBRANCH   2   3
ENDBRANCH   1   2
BRANCH   1  17
ATOM     17  C   UNL     1      -3.893  29.622   1.647  1.00  0.00     0.000 C 
BRANCH  17  18
ATOM     18  C   UNL     1      -4.539  30.547   0.593  1.00  0.00     0.000 C 
BRANCH  18  19
ATOM     19  C   UNL     1      -3.731  31.825   0.309  1.00  0.00     0.000 C 
BRANCH  19  20
ATOM     20  C   UNL     1      -2.868  31.718  -0.958  1.00  0.00     0.000 C 
BRANCH  20  21
ATOM     21  C   UNL     1      -2.703  33.065  -1.679  1.00  0.00     0.000 C 
BRANCH  21  22
ATOM     22  C   UNL     1      -2.441  32.904  -3.185  1.00  0.00    -0.000 C 
BRANCH  22  23
ATOM     23  C   UNL     1      -2.404  31.419  -3.578  1.00  0.00    -0.000 C 
BRANCH  23  24
ATOM     24  C   UNL     1      -3.070  31.151  -4.938  1.00  0.00    -0.000 C 
BRANCH  24  25
ATOM     25  C   UNL     1      -4.605  31.105  -4.841  1.00  0.00    -0.000 C 
BRANCH  25  26
ATOM     26  C   UNL     1      -5.089  30.084  -3.795  1.00  0.00    -0.000 C 
BRANCH  26  27
ATOM     27  C   UNL     1      -5.896  30.722  -2.641  1.00  0.00    -0.000 C 
BRANCH  27  28
ATOM     28  C   UNL     1      -6.114  32.238  -2.811  1.00  0.00    -0.000 C 
BRANCH  28  29
ATOM     29  C   UNL     1      -7.001  32.873  -1.728  1.00  0.00    -0.003 C 
ATOM     30  C   UNL     1      -7.662  31.836  -0.819  1.00  0.00     0.004 C 
ENDBRANCH  28  29
ENDBRANCH  27  28
ENDBRANCH  26  27
ENDBRANCH  25  26
ENDBRANCH  24  25
ENDBRANCH  23  24
ENDBRANCH  22  23
ENDBRANCH  21  22
ENDBRANCH  20  21
ENDBRANCH  19  20
ENDBRANCH  18  19
ENDBRANCH  17  18
ENDBRANCH   1  17
TORSDOF 26
ENDMDL
MODEL 5
REMARK VINA RESULT:    -3.297      1.711      3.698
REMARK INTER + INTRA:         -14.209
REMARK INTER:                  -9.310
REMARK INTRA:                  -4.899
REMARK UNBOUND:                -5.900
REMARK SMILES CCCCCCCCCCCCCCCCCCCCCCCCCCCC(=O)[O-]
REMARK SMILES IDX 15 1 16 2 17 3 18 4 19 5 20 6 21 7 22 8 23 9 24 10 25 11
REMARK SMILES IDX 26 12 27 13 28 14 29 15 30 16 14 17 13 18 12 19 11 20 10 21
REMARK SMILES IDX 9 22 8 23 7 24 6 25 5 26 4 27 3 28 2 29 1 30
REMARK H PARENT
REMARK Flexibility Score: inf
ROOT
ATOM      1  C   UNL     1      -3.761  22.203  -0.238  1.00  0.00     0.000 C 
ENDROOT
BRANCH   1   2
ATOM      2  C   UNL     1      -2.525  22.144  -1.150  1.00  0.00     0.000 C 
BRANCH   2   3
ATOM      3  C   UNL     1      -1.217  21.973  -0.362  1.00  0.00     0.000 C 
BRANCH   3   4
ATOM      4  C   UNL     1      -0.317  23.208  -0.517  1.00  0.00     0.000 C 
BRANCH   4   5
ATOM      5  C   UNL     1      -0.742  24.376   0.388  1.00  0.00     0.000 C 
BRANCH   5   6
ATOM      6  C   UNL     1      -0.836  25.709  -0.374  1.00  0.00     0.000 C 
BRANCH   6   7
ATOM      7  C   UNL     1      -1.191  25.523  -1.861  1.00  0.00     0.000 C 
BRANCH   7   8
ATOM      8  C   UNL     1      -2.554  26.106  -2.282  1.00  0.00     0.000 C 
BRANCH   8   9
ATOM      9  C   UNL     1      -3.296  26.905  -1.190  1.00  0.00     0.000 C 
BRANCH   9  10
ATOM     10  C   UNL     1      -4.164  28.059  -1.739  1.00  0.00     0.000 C 
BRANCH  10  11
ATOM     11  C   UNL     1      -5.650  27.896  -1.380  1.00  0.00     0.000 C 
BRANCH  11  12
ATOM     12  C   UNL     1      -6.012  26.454  -0.992  1.00  0.00     0.006 C 
BRANCH  12  13
ATOM     13  C   UNL     1      -6.566  25.649  -2.176  1.00  0.00     0.053 C 
BRANCH  13  14
ATOM     14  C   UNL     1      -7.119  24.337  -1.716  1.00  0.00     0.041 C 
ATOM     15  O   UNL     1      -6.867  23.282  -2.356  1.00  0.00    -0.550 OA
ATOM     16  O   UNL     1      -7.900  24.276  -0.567  1.00  0.00    -0.550 OA
ENDBRANCH  13  14
ENDBRANCH  12  13
ENDBRANCH  11  12
ENDBRANCH  10  11
ENDBRANCH   9  10
ENDBRANCH   8   9
ENDBRANCH   7   8
ENDBRANCH   6   7
ENDBRANCH   5   6
ENDBRANCH   4   5
ENDBRANCH   3   4
ENDBRANCH   2   3
ENDBRANCH   1   2
BRANCH   1  17
ATOM     17  C   UNL     1      -4.190  23.643   0.092  1.00  0.00     0.000 C 
BRANCH  17  18
ATOM     18  C   UNL     1      -4.762  23.772   1.520  1.00  0.00     0.000 C 
BRANCH  18  19
ATOM     19  C   UNL     1      -4.750  25.210   2.068  1.00  0.00     0.000 C 
BRANCH  19  20
ATOM     20  C   UNL     1      -3.541  25.496   2.972  1.00  0.00     0.000 C 
BRANCH  20  21
ATOM     21  C   UNL     1      -2.726  26.712   2.506  1.00  0.00     0.000 C 
BRANCH  21  22
ATOM     22  C   UNL     1      -2.892  27.928   3.430  1.00  0.00    -0.000 C 
BRANCH  22  23
ATOM     23  C   UNL     1      -2.061  29.118   2.924  1.00  0.00    -0.000 C 
BRANCH  23  24
ATOM     24  C   UNL     1      -1.977  29.169   1.389  1.00  0.00    -0.000 C 
BRANCH  24  25
ATOM     25  C   UNL     1      -2.425  30.527   0.821  1.00  0.00    -0.000 C 
BRANCH  25  26
ATOM     26  C   UNL     1      -3.893  30.840   1.160  1.00  0.00    -0.000 C 
BRANCH  26  27
ATOM     27  C   UNL     1      -4.652  31.544   0.011  1.00  0.00    -0.000 C 
BRANCH  27  28
ATOM     28  C   UNL     1      -6.180  31.359   0.083  1.00  0.00    -0.000 C 
BRANCH  28  29
ATOM     29  C   UNL     1      -6.882  31.361  -1.284  1.00  0.00    -0.003 C 
ATOM     30  C   UNL     1      -5.925  31.648  -2.442  1.00  0.00     0.004 C 
ENDBRANCH  28  29
ENDBRANCH  27  28
ENDBRANCH  26  27
ENDBRANCH  25  26
ENDBRANCH  24  25
ENDBRANCH  23  24
ENDBRANCH  22  23
ENDBRANCH  21  22
ENDBRANCH  20  21
ENDBRANCH  19  20
ENDBRANCH  18  19
ENDBRANCH  17  18
ENDBRANCH   1  17
TORSDOF 26
ENDMDL
MODEL 6
REMARK VINA RESULT:    -3.282      2.335      6.539
REMARK INTER + INTRA:         -14.171
REMARK INTER:                  -8.772
REMARK INTRA:                  -5.399
REMARK UNBOUND:                -5.900
REMARK SMILES CCCCCCCCCCCCCCCCCCCCCCCCCCCC(=O)[O-]
REMARK SMILES IDX 15 1 16 2 17 3 18 4 19 5 20 6 21 7 22 8 23 9 24 10 25 11
REMARK SMILES IDX 26 12 27 13 28 14 29 15 30 16 14 17 13 18 12 19 11 20 10 21
REMARK SMILES IDX 9 22 8 23 7 24 6 25 5 26 4 27 3 28 2 29 1 30
REMARK H PARENT
REMARK Flexibility Score: inf
ROOT
ATOM      1  C   UNL     1      -2.407  25.948   1.517  1.00  0.00     0.000 C 
ENDROOT
BRANCH   1   2
ATOM      2  C   UNL     1      -3.028  26.171   2.907  1.00  0.00     0.000 C 
BRANCH   2   3
ATOM      3  C   UNL     1      -3.510  27.615   3.113  1.00  0.00     0.000 C 
BRANCH   3   4
ATOM      4  C   UNL     1      -2.327  28.551   3.408  1.00  0.00     0.000 C 
BRANCH   4   5
ATOM      5  C   UNL     1      -2.516  29.958   2.820  1.00  0.00     0.000 C 
BRANCH   5   6
ATOM      6  C   UNL     1      -1.333  30.394   1.940  1.00  0.00     0.000 C 
BRANCH   6   7
ATOM      7  C   UNL     1      -1.780  31.023   0.608  1.00  0.00     0.000 C 
BRANCH   7   8
ATOM      8  C   UNL     1      -1.587  30.127  -0.632  1.00  0.00     0.000 C 
BRANCH   8   9
ATOM      9  C   UNL     1      -2.560  28.934  -0.742  1.00  0.00     0.000 C 
BRANCH   9  10
ATOM     10  C   UNL     1      -3.995  29.333  -1.149  1.00  0.00     0.000 C 
BRANCH  10  11
ATOM     11  C   UNL     1      -5.028  28.999  -0.059  1.00  0.00     0.000 C 
BRANCH  11  12
ATOM     12  C   UNL     1      -5.490  30.240   0.719  1.00  0.00     0.006 C 
BRANCH  12  13
ATOM     13  C   UNL     1      -5.663  31.469  -0.185  1.00  0.00     0.053 C 
BRANCH  13  14
ATOM     14  C   UNL     1      -7.112  31.759  -0.418  1.00  0.00     0.041 C 
ATOM     15  O   UNL     1      -7.969  31.459   0.456  1.00  0.00    -0.550 OA
ATOM     16  O   UNL     1      -7.518  32.377  -1.596  1.00  0.00    -0.550 OA
ENDBRANCH  13  14
ENDBRANCH  12  13
ENDBRANCH  11  12
ENDBRANCH  10  11
ENDBRANCH   9  10
ENDBRANCH   8   9
ENDBRANCH   7   8
ENDBRANCH   6   7
ENDBRANCH   5   6
ENDBRANCH   4   5
ENDBRANCH   3   4
ENDBRANCH   2   3
ENDBRANCH   1   2
BRANCH   1  17
ATOM     17  C   UNL     1      -3.453  25.588   0.448  1.00  0.00     0.000 C 
BRANCH  17  18
ATOM     18  C   UNL     1      -4.626  24.770   1.029  1.00  0.00     0.000 C 
BRANCH  18  19
ATOM     19  C   UNL     1      -4.499  23.253   0.803  1.00  0.00     0.000 C 
BRANCH  19  20
ATOM     20  C   UNL     1      -3.642  22.902  -0.423  1.00  0.00     0.000 C 
BRANCH  20  21
ATOM     21  C   UNL     1      -2.591  21.822  -0.123  1.00  0.00     0.000 C 
BRANCH  21  22
ATOM     22  C   UNL     1      -1.212  22.153  -0.716  1.00  0.00    -0.000 C 
BRANCH  22  23
ATOM     23  C   UNL     1      -0.515  23.251   0.102  1.00  0.00    -0.000 C 
BRANCH  23  24
ATOM     24  C   UNL     1      -0.048  24.430  -0.767  1.00  0.00    -0.000 C 
BRANCH  24  25
ATOM     25  C   UNL     1      -0.761  24.473  -2.131  1.00  0.00    -0.000 C 
BRANCH  25  26
ATOM     26  C   UNL     1      -1.089  25.912  -2.567  1.00  0.00    -0.000 C 
BRANCH  26  27
ATOM     27  C   UNL     1      -2.282  26.000  -3.547  1.00  0.00    -0.000 C 
BRANCH  27  28
ATOM     28  C   UNL     1      -3.650  26.067  -2.843  1.00  0.00    -0.000 C 
BRANCH  28  29
ATOM     29  C   UNL     1      -4.617  24.936  -3.230  1.00  0.00    -0.003 C 
ATOM     30  C   UNL     1      -6.058  25.215  -2.799  1.00  0.00     0.004 C 
ENDBRANCH  28  29
ENDBRANCH  27  28
ENDBRANCH  26  27
ENDBRANCH  25  26
ENDBRANCH  24  25
ENDBRANCH  23  24
ENDBRANCH  22  23
ENDBRANCH  21  22
ENDBRANCH  20  21
ENDBRANCH  19  20
ENDBRANCH  18  19
ENDBRANCH  17  18
ENDBRANCH   1  17
TORSDOF 26
ENDMDL
MODEL 7
REMARK VINA RESULT:    -3.280      1.989      4.216
REMARK INTER + INTRA:         -14.165
REMARK INTER:                  -9.200
REMARK INTRA:                  -4.966
REMARK UNBOUND:                -5.900
REMARK SMILES CCCCCCCCCCCCCCCCCCCCCCCCCCCC(=O)[O-]
REMARK SMILES IDX 15 1 16 2 17 3 18 4 19 5 20 6 21 7 22 8 23 9 24 10 25 11
REMARK SMILES IDX 26 12 27 13 28 14 29 15 30 16 14 17 13 18 12 19 11 20 10 21
REMARK SMILES IDX 9 22 8 23 7 24 6 25 5 26 4 27 3 28 2 29 1 30
REMARK H PARENT
REMARK Flexibility Score: inf
ROOT
ATOM      1  C   UNL     1      -0.452  28.652   0.600  1.00  0.00     0.000 C 
ENDROOT
BRANCH   1   2
ATOM      2  C   UNL     1      -0.698  29.450   1.891  1.00  0.00     0.000 C 
BRANCH   2   3
ATOM      3  C   UNL     1      -1.597  28.701   2.886  1.00  0.00     0.000 C 
BRANCH   3   4
ATOM      4  C   UNL     1      -3.071  28.776   2.457  1.00  0.00     0.000 C 
BRANCH   4   5
ATOM      5  C   UNL     1      -3.709  27.391   2.264  1.00  0.00     0.000 C 
BRANCH   5   6
ATOM      6  C   UNL     1      -2.718  26.243   2.523  1.00  0.00     0.000 C 
BRANCH   6   7
ATOM      7  C   UNL     1      -2.298  25.515   1.232  1.00  0.00     0.000 C 
BRANCH   7   8
ATOM      8  C   UNL     1      -3.144  25.855  -0.011  1.00  0.00     0.000 C 
BRANCH   8   9
ATOM      9  C   UNL     1      -4.190  24.792  -0.408  1.00  0.00     0.000 C 
BRANCH   9  10
ATOM     10  C   UNL     1      -4.323  23.635   0.606  1.00  0.00     0.000 C 
BRANCH  10  11
ATOM     11  C   UNL     1      -5.518  23.824   1.557  1.00  0.00     0.000 C 
BRANCH  11  12
ATOM     12  C   UNL     1      -6.526  24.864   1.043  1.00  0.00     0.006 C 
BRANCH  12  13
ATOM     13  C   UNL     1      -7.752  24.993   1.958  1.00  0.00     0.053 C 
BRANCH  13  14
ATOM     14  C   UNL     1      -7.686  26.254   2.761  1.00  0.00     0.041 C 
ATOM     15  O   UNL     1      -8.090  26.269   3.954  1.00  0.00    -0.550 OA
ATOM     16  O   UNL     1      -7.162  27.412   2.197  1.00  0.00    -0.550 OA
ENDBRANCH  13  14
ENDBRANCH  12  13
ENDBRANCH  11  12
ENDBRANCH  10  11
ENDBRANCH   9  10
ENDBRANCH   8   9
ENDBRANCH   7   8
ENDBRANCH   6   7
ENDBRANCH   5   6
ENDBRANCH   4   5
ENDBRANCH   3   4
ENDBRANCH   2   3
ENDBRANCH   1   2
BRANCH   1  17
ATOM     17  C   UNL     1      -0.444  29.540  -0.657  1.00  0.00     0.000 C 
BRANCH  17  18
ATOM     18  C   UNL     1      -1.005  30.952  -0.379  1.00  0.00     0.000 C 
BRANCH  18  19
ATOM     19  C   UNL     1      -2.379  31.211  -1.022  1.00  0.00     0.000 C 
BRANCH  19  20
ATOM     20  C   UNL     1      -3.242  32.192  -0.213  1.00  0.00     0.000 C 
BRANCH  20  21
ATOM     21  C   UNL     1      -4.163  31.481   0.791  1.00  0.00     0.000 C 
BRANCH  21  22
ATOM     22  C   UNL     1      -5.255  30.644   0.106  1.00  0.00    -0.000 C 
BRANCH  22  23
ATOM     23  C   UNL     1      -6.538  31.468  -0.082  1.00  0.00    -0.000 C 
BRANCH  23  24
ATOM     24  C   UNL     1      -7.012  31.500  -1.545  1.00  0.00    -0.000 C 
BRANCH  24  25
ATOM     25  C   UNL     1      -6.198  32.483  -2.405  1.00  0.00    -0.000 C 
BRANCH  25  26
ATOM     26  C   UNL     1      -5.253  31.755  -3.377  1.00  0.00    -0.000 C 
BRANCH  26  27
ATOM     27  C   UNL     1      -5.535  30.239  -3.489  1.00  0.00    -0.000 C 
BRANCH  27  28
ATOM     28  C   UNL     1      -4.282  29.367  -3.281  1.00  0.00    -0.000 C 
BRANCH  28  29
ATOM     29  C   UNL     1      -4.583  27.909  -2.897  1.00  0.00    -0.003 C 
ATOM     30  C   UNL     1      -5.883  27.762  -2.104  1.00  0.00     0.004 C 
ENDBRANCH  28  29
ENDBRANCH  27  28
ENDBRANCH  26  27
ENDBRANCH  25  26
ENDBRANCH  24  25
ENDBRANCH  23  24
ENDBRANCH  22  23
ENDBRANCH  21  22
ENDBRANCH  20  21
ENDBRANCH  19  20
ENDBRANCH  18  19
ENDBRANCH  17  18
ENDBRANCH   1  17
TORSDOF 26
ENDMDL
MODEL 8
REMARK VINA RESULT:    -3.269      2.362      6.468
REMARK INTER + INTRA:         -14.139
REMARK INTER:                  -9.364
REMARK INTRA:                  -4.774
REMARK UNBOUND:                -5.900
REMARK SMILES CCCCCCCCCCCCCCCCCCCCCCCCCCCC(=O)[O-]
REMARK SMILES IDX 15 1 16 2 17 3 18 4 19 5 20 6 21 7 22 8 23 9 24 10 25 11
REMARK SMILES IDX 26 12 27 13 28 14 29 15 30 16 14 17 13 18 12 19 11 20 10 21
REMARK SMILES IDX 9 22 8 23 7 24 6 25 5 26 4 27 3 28 2 29 1 30
REMARK H PARENT
REMARK Flexibility Score: inf
ROOT
ATOM      1  C   UNL     1      -4.837  25.377   2.144  1.00  0.00     0.000 C 
ENDROOT
BRANCH   1   2
ATOM      2  C   UNL     1      -3.456  25.519   2.806  1.00  0.00     0.000 C 
BRANCH   2   3
ATOM      3  C   UNL     1      -2.881  26.937   2.675  1.00  0.00     0.000 C 
BRANCH   3   4
ATOM      4  C   UNL     1      -1.870  27.014   1.520  1.00  0.00     0.000 C 
BRANCH   4   5
ATOM      5  C   UNL     1      -1.035  28.305   1.541  1.00  0.00     0.000 C 
BRANCH   5   6
ATOM      6  C   UNL     1      -0.436  28.642   0.165  1.00  0.00     0.000 C 
BRANCH   6   7
ATOM      7  C   UNL     1      -0.809  30.055  -0.319  1.00  0.00     0.000 C 
BRANCH   7   8
ATOM      8  C   UNL     1      -1.838  30.793   0.560  1.00  0.00     0.000 C 
BRANCH   8   9
ATOM      9  C   UNL     1      -3.261  30.196   0.554  1.00  0.00     0.000 C 
BRANCH   9  10
ATOM     10  C   UNL     1      -4.383  31.250   0.670  1.00  0.00     0.000 C 
BRANCH  10  11
ATOM     11  C   UNL     1      -4.401  32.221  -0.523  1.00  0.00     0.000 C 
BRANCH  11  12
ATOM     12  C   UNL     1      -4.945  31.574  -1.805  1.00  0.00     0.006 C 
BRANCH  12  13
ATOM     13  C   UNL     1      -6.290  30.867  -1.580  1.00  0.00     0.053 C 
BRANCH  13  14
ATOM     14  C   UNL     1      -7.379  31.862  -1.334  1.00  0.00     0.041 C 
ATOM     15  O   UNL     1      -7.500  32.870  -2.080  1.00  0.00    -0.550 OA
ATOM     16  O   UNL     1      -8.275  31.669  -0.288  1.00  0.00    -0.550 OA
ENDBRANCH  13  14
ENDBRANCH  12  13
ENDBRANCH  11  12
ENDBRANCH  10  11
ENDBRANCH   9  10
ENDBRANCH   8   9
ENDBRANCH   7   8
ENDBRANCH   6   7
ENDBRANCH   5   6
ENDBRANCH   4   5
ENDBRANCH   3   4
ENDBRANCH   2   3
ENDBRANCH   1   2
BRANCH   1  17
ATOM     17  C   UNL     1      -4.957  24.108   1.282  1.00  0.00     0.000 C 
BRANCH  17  18
ATOM     18  C   UNL     1      -3.685  23.844   0.448  1.00  0.00     0.000 C 
BRANCH  18  19
ATOM     19  C   UNL     1      -3.487  22.366   0.066  1.00  0.00     0.000 C 
BRANCH  19  20
ATOM     20  C   UNL     1      -2.032  22.032  -0.299  1.00  0.00     0.000 C 
BRANCH  20  21
ATOM     21  C   UNL     1      -1.030  23.050   0.267  1.00  0.00     0.000 C 
BRANCH  21  22
ATOM     22  C   UNL     1      -0.059  23.582  -0.799  1.00  0.00    -0.000 C 
BRANCH  22  23
ATOM     23  C   UNL     1      -0.251  25.092  -1.009  1.00  0.00    -0.000 C 
BRANCH  23  24
ATOM     24  C   UNL     1      -0.906  25.422  -2.361  1.00  0.00    -0.000 C 
BRANCH  24  25
ATOM     25  C   UNL     1      -2.361  25.901  -2.207  1.00  0.00    -0.000 C 
BRANCH  25  26
ATOM     26  C   UNL     1      -2.511  27.401  -2.516  1.00  0.00    -0.000 C 
BRANCH  26  27
ATOM     27  C   UNL     1      -3.908  27.964  -2.165  1.00  0.00    -0.000 C 
BRANCH  27  28
ATOM     28  C   UNL     1      -4.548  27.292  -0.935  1.00  0.00    -0.000 C 
BRANCH  28  29
ATOM     29  C   UNL     1      -5.958  26.732  -1.183  1.00  0.00    -0.003 C 
ATOM     30  C   UNL     1      -6.428  26.926  -2.625  1.00  0.00     0.004 C 
ENDBRANCH  28  29
ENDBRANCH  27  28
ENDBRANCH  26  27
ENDBRANCH  25  26
ENDBRANCH  24  25
ENDBRANCH  23  24
ENDBRANCH  22  23
ENDBRANCH  21  22
ENDBRANCH  20  21
ENDBRANCH  19  20
ENDBRANCH  18  19
ENDBRANCH  17  18
ENDBRANCH   1  17
TORSDOF 26
ENDMDL
MODEL 9
REMARK VINA RESULT:    -3.240      2.321      7.041
REMARK INTER + INTRA:         -14.065
REMARK INTER:                  -9.148
REMARK INTRA:                  -4.917
REMARK UNBOUND:                -5.900
REMARK SMILES CCCCCCCCCCCCCCCCCCCCCCCCCCCC(=O)[O-]
REMARK SMILES IDX 15 1 16 2 17 3 18 4 19 5 20 6 21 7 22 8 23 9 24 10 25 11
REMARK SMILES IDX 26 12 27 13 28 14 29 15 30 16 14 17 13 18 12 19 11 20 10 21
REMARK SMILES IDX 9 22 8 23 7 24 6 25 5 26 4 27 3 28 2 29 1 30
REMARK H PARENT
REMARK Flexibility Score: inf
ROOT
ATOM      1  C   UNL     1      -3.127  26.159   2.958  1.00  0.00     0.000 C 
ENDROOT
BRANCH   1   2
ATOM      2  C   UNL     1      -2.339  27.381   2.458  1.00  0.00     0.000 C 
BRANCH   2   3
ATOM      3  C   UNL     1      -2.989  28.711   2.868  1.00  0.00     0.000 C 
BRANCH   3   4
ATOM      4  C   UNL     1      -1.976  29.864   2.786  1.00  0.00     0.000 C 
BRANCH   4   5
ATOM      5  C   UNL     1      -0.552  29.388   2.459  1.00  0.00     0.000 C 
BRANCH   5   6
ATOM      6  C   UNL     1      -0.051  29.913   1.103  1.00  0.00     0.000 C 
BRANCH   6   7
ATOM      7  C   UNL     1       0.004  28.818   0.022  1.00  0.00     0.000 C 
BRANCH   7   8
ATOM      8  C   UNL     1      -0.773  29.140  -1.270  1.00  0.00     0.000 C 
BRANCH   8   9
ATOM      9  C   UNL     1      -1.620  30.429  -1.227  1.00  0.00     0.000 C 
BRANCH   9  10
ATOM     10  C   UNL     1      -3.090  30.226  -1.654  1.00  0.00     0.000 C 
BRANCH  10  11
ATOM     11  C   UNL     1      -4.013  29.932  -0.459  1.00  0.00     0.000 C 
BRANCH  11  12
ATOM     12  C   UNL     1      -4.407  31.201   0.312  1.00  0.00     0.006 C 
BRANCH  12  13
ATOM     13  C   UNL     1      -5.928  31.393   0.388  1.00  0.00     0.053 C 
BRANCH  13  14
ATOM     14  C   UNL     1      -6.515  31.535  -0.982  1.00  0.00     0.041 C 
ATOM     15  O   UNL     1      -6.210  32.520  -1.705  1.00  0.00    -0.550 OA
ATOM     16  O   UNL     1      -7.387  30.567  -1.469  1.00  0.00    -0.550 OA
ENDBRANCH  13  14
ENDBRANCH  12  13
ENDBRANCH  11  12
ENDBRANCH  10  11
ENDBRANCH   9  10
ENDBRANCH   8   9
ENDBRANCH   7   8
ENDBRANCH   6   7
ENDBRANCH   5   6
ENDBRANCH   4   5
ENDBRANCH   3   4
ENDBRANCH   2   3
ENDBRANCH   1   2
BRANCH   1  17
ATOM     17  C   UNL     1      -4.420  26.546   3.697  1.00  0.00     0.000 C 
BRANCH  17  18
ATOM     18  C   UNL     1      -5.686  26.101   2.933  1.00  0.00     0.000 C 
BRANCH  18  19
ATOM     19  C   UNL     1      -6.014  26.978   1.711  1.00  0.00     0.000 C 
BRANCH  19  20
ATOM     20  C   UNL     1      -5.982  26.196   0.388  1.00  0.00     0.000 C 
BRANCH  20  21
ATOM     21  C   UNL     1      -4.721  26.486  -0.442  1.00  0.00     0.000 C 
BRANCH  21  22
ATOM     22  C   UNL     1      -3.710  25.329  -0.409  1.00  0.00    -0.000 C 
BRANCH  22  23
ATOM     23  C   UNL     1      -2.457  25.674  -1.228  1.00  0.00    -0.000 C 
BRANCH  23  24
ATOM     24  C   UNL     1      -1.154  25.326  -0.489  1.00  0.00    -0.000 C 
BRANCH  24  25
ATOM     25  C   UNL     1      -1.262  24.013   0.307  1.00  0.00    -0.000 C 
BRANCH  25  26
ATOM     26  C   UNL     1      -1.053  22.777  -0.585  1.00  0.00    -0.000 C 
BRANCH  26  27
ATOM     27  C   UNL     1      -1.791  21.518  -0.074  1.00  0.00    -0.000 C 
BRANCH  27  28
ATOM     28  C   UNL     1      -3.324  21.614  -0.201  1.00  0.00    -0.000 C 
BRANCH  28  29
ATOM     29  C   UNL     1      -3.823  21.888  -1.629  1.00  0.00    -0.003 C 
ATOM     30  C   UNL     1      -3.693  20.671  -2.546  1.00  0.00     0.004 C 
ENDBRANCH  28  29
ENDBRANCH  27  28
ENDBRANCH  26  27
ENDBRANCH  25  26
ENDBRANCH  24  25
ENDBRANCH  23  24
ENDBRANCH  22  23
ENDBRANCH  21  22
ENDBRANCH  20  21
ENDBRANCH  19  20
ENDBRANCH  18  19
ENDBRANCH  17  18
ENDBRANCH   1  17
TORSDOF 26
ENDMDL
