MODEL 1
REMARK VINA RESULT:    -3.873      0.000      0.000
REMARK INTER + INTRA:          -5.590
REMARK INTER:                  -5.232
REMARK INTRA:                  -0.358
REMARK UNBOUND:                -0.358
REMARK SMILES CCCCCCC=CC(=O)[O-]
REMARK SMILES IDX 5 1 6 2 7 3 8 4 9 5 10 6 11 7 4 8 3 9 2 10 1 11
REMARK H PARENT
REMARK Flexibility Score: inf
ROOT
ATOM      1  C   UNL     1     -46.427 -27.815   2.634  1.00  0.00     0.004 C 
ENDROOT
BRANCH   1   2
ATOM      2  C   UNL     1     -46.077 -26.374   2.232  1.00  0.00     0.027 C 
BRANCH   2   3
ATOM      3  C   UNL     1     -44.899 -26.307   1.300  1.00  0.00    -0.025 C 
ATOM      4  C   UNL     1     -44.608 -27.311   0.467  1.00  0.00     0.020 C 
BRANCH   4   5
ATOM      5  C   UNL     1     -43.455 -27.260  -0.444  1.00  0.00     0.064 C 
ATOM      6  O   UNL     1     -42.387 -27.846  -0.126  1.00  0.00    -0.545 OA
ATOM      7  O   UNL     1     -43.524 -26.575  -1.651  1.00  0.00    -0.545 OA
ENDBRANCH   4   5
ENDBRANCH   2   3
ENDBRANCH   1   2
BRANCH   1   8
ATOM      8  C   UNL     1     -46.327 -28.032   4.153  1.00  0.00     0.000 C 
BRANCH   8   9
ATOM      9  C   UNL     1     -46.112 -26.722   4.932  1.00  0.00    -0.000 C 
BRANCH   9  10
ATOM     10  C   UNL     1     -45.717 -26.903   6.408  1.00  0.00    -0.003 C 
ATOM     11  C   UNL     1     -45.233 -28.317   6.728  1.00  0.00     0.004 C 
ENDBRANCH   9  10
ENDBRANCH   8   9
ENDBRANCH   1   8
TORSDOF 6
ENDMDL
MODEL 2
REMARK VINA RESULT:    -3.789      3.470      5.978
REMARK INTER + INTRA:          -5.476
REMARK INTER:                  -5.304
REMARK INTRA:                  -0.172
REMARK UNBOUND:                -0.358
REMARK SMILES CCCCCCC=CC(=O)[O-]
REMARK SMILES IDX 5 1 6 2 7 3 8 4 9 5 10 6 11 7 4 8 3 9 2 10 1 11
REMARK H PARENT
REMARK Flexibility Score: inf
ROOT
ATOM      1  C   UNL     1     -45.529 -26.241   1.579  1.00  0.00     0.004 C 
ENDROOT
BRANCH   1   2
ATOM      2  C   UNL     1     -46.618 -26.677   2.570  1.00  0.00     0.027 C 
BRANCH   2   3
ATOM      3  C   UNL     1     -46.050 -27.113   3.893  1.00  0.00    -0.025 C 
ATOM      4  C   UNL     1     -46.335 -26.460   5.025  1.00  0.00     0.020 C 
BRANCH   4   5
ATOM      5  C   UNL     1     -45.781 -26.872   6.323  1.00  0.00     0.064 C 
ATOM      6  O   UNL     1     -45.711 -26.036   7.262  1.00  0.00    -0.545 OA
ATOM      7  O   UNL     1     -45.334 -28.171   6.532  1.00  0.00    -0.545 OA
ENDBRANCH   4   5
ENDBRANCH   2   3
ENDBRANCH   1   2
BRANCH   1   8
ATOM      8  C   UNL     1     -45.138 -27.373   0.613  1.00  0.00     0.000 C 
BRANCH   8   9
ATOM      9  C   UNL     1     -43.756 -27.160  -0.031  1.00  0.00    -0.000 C 
BRANCH   9  10
ATOM     10  C   UNL     1     -42.911 -28.436  -0.187  1.00  0.00    -0.003 C 
ATOM     11  C   UNL     1     -41.411 -28.154  -0.268  1.00  0.00     0.004 C 
ENDBRANCH   9  10
ENDBRANCH   8   9
ENDBRANCH   1   8
TORSDOF 6
ENDMDL
MODEL 3
REMARK VINA RESULT:    -3.538      2.018      3.075
REMARK INTER + INTRA:          -5.137
REMARK INTER:                  -4.507
REMARK INTRA:                  -0.630
REMARK UNBOUND:                -0.358
REMARK SMILES CCCCCCC=CC(=O)[O-]
REMARK SMILES IDX 5 1 6 2 7 3 8 4 9 5 10 6 11 7 4 8 3 9 2 10 1 11
REMARK H PARENT
REMARK Flexibility Score: inf
ROOT
ATOM      1  C   UNL     1     -45.743 -29.193   4.714  1.00  0.00     0.004 C 
ENDROOT
BRANCH   1   2
ATOM      2  C   UNL     1     -46.920 -29.033   3.741  1.00  0.00     0.027 C 
BRANCH   2   3
ATOM      3  C   UNL     1     -46.594 -28.126   2.587  1.00  0.00    -0.025 C 
ATOM      4  C   UNL     1     -46.316 -26.831   2.773  1.00  0.00     0.020 C 
BRANCH   4   5
ATOM      5  C   UNL     1     -46.002 -25.933   1.652  1.00  0.00     0.064 C 
ATOM      6  O   UNL     1     -46.900 -25.185   1.185  1.00  0.00    -0.545 OA
ATOM      7  O   UNL     1     -44.727 -25.895   1.100  1.00  0.00    -0.545 OA
ENDBRANCH   4   5
ENDBRANCH   2   3
ENDBRANCH   1   2
BRANCH   1   8
ATOM      8  C   UNL     1     -46.169 -28.987   6.177  1.00  0.00     0.000 C 
BRANCH   8   9
ATOM      9  C   UNL     1     -45.350 -27.895   6.891  1.00  0.00    -0.000 C 
BRANCH   9  10
ATOM     10  C   UNL     1     -45.647 -26.458   6.430  1.00  0.00    -0.003 C 
ATOM     11  C   UNL     1     -47.122 -26.080   6.562  1.00  0.00     0.004 C 
ENDBRANCH   9  10
ENDBRANCH   8   9
ENDBRANCH   1   8
TORSDOF 6
ENDMDL
MODEL 4
REMARK VINA RESULT:    -3.386      1.340      2.058
REMARK INTER + INTRA:          -4.931
REMARK INTER:                  -4.594
REMARK INTRA:                  -0.337
REMARK UNBOUND:                -0.358
REMARK SMILES CCCCCCC=CC(=O)[O-]
REMARK SMILES IDX 5 1 6 2 7 3 8 4 9 5 10 6 11 7 4 8 3 9 2 10 1 11
REMARK H PARENT
REMARK Flexibility Score: inf
ROOT
ATOM      1  C   UNL     1     -45.584 -26.162   1.825  1.00  0.00     0.004 C 
ENDROOT
BRANCH   1   2
ATOM      2  C   UNL     1     -45.729 -27.048   0.578  1.00  0.00     0.027 C 
BRANCH   2   3
ATOM      3  C   UNL     1     -44.556 -27.968   0.387  1.00  0.00    -0.025 C 
ATOM      4  C   UNL     1     -43.397 -27.529  -0.117  1.00  0.00     0.020 C 
BRANCH   4   5
ATOM      5  C   UNL     1     -42.246 -28.420  -0.315  1.00  0.00     0.064 C 
ATOM      6  O   UNL     1     -41.083 -27.937  -0.338  1.00  0.00    -0.545 OA
ATOM      7  O   UNL     1     -42.419 -29.790  -0.478  1.00  0.00    -0.545 OA
ENDBRANCH   4   5
ENDBRANCH   2   3
ENDBRANCH   1   2
BRANCH   1   8
ATOM      8  C   UNL     1     -46.666 -26.461   2.877  1.00  0.00     0.000 C 
BRANCH   8   9
ATOM      9  C   UNL     1     -46.555 -27.881   3.462  1.00  0.00    -0.000 C 
BRANCH   9  10
ATOM     10  C   UNL     1     -45.940 -27.955   4.870  1.00  0.00    -0.003 C 
ATOM     11  C   UNL     1     -46.064 -26.644   5.646  1.00  0.00     0.004 C 
ENDBRANCH   9  10
ENDBRANCH   8   9
ENDBRANCH   1   8
TORSDOF 6
ENDMDL
MODEL 5
REMARK VINA RESULT:    -3.208      5.140      6.054
REMARK INTER + INTRA:          -4.691
REMARK INTER:                  -4.356
REMARK INTRA:                  -0.335
REMARK UNBOUND:                -0.358
REMARK SMILES CCCCCCC=CC(=O)[O-]
REMARK SMILES IDX 5 1 6 2 7 3 8 4 9 5 10 6 11 7 4 8 3 9 2 10 1 11
REMARK H PARENT
REMARK Flexibility Score: inf
ROOT
ATOM      1  C   UNL     1     -44.806 -29.409  -1.480  1.00  0.00     0.004 C 
ENDROOT
BRANCH   1   2
ATOM      2  C   UNL     1     -45.391 -28.104  -2.041  1.00  0.00     0.027 C 
BRANCH   2   3
ATOM      3  C   UNL     1     -45.747 -28.212  -3.497  1.00  0.00    -0.025 C 
ATOM      4  C   UNL     1     -45.194 -27.412  -4.414  1.00  0.00     0.020 C 
BRANCH   4   5
ATOM      5  C   UNL     1     -45.539 -27.504  -5.840  1.00  0.00     0.064 C 
ATOM      6  O   UNL     1     -44.735 -27.065  -6.704  1.00  0.00    -0.545 OA
ATOM      7  O   UNL     1     -46.741 -28.067  -6.251  1.00  0.00    -0.545 OA
ENDBRANCH   4   5
ENDBRANCH   2   3
ENDBRANCH   1   2
BRANCH   1   8
ATOM      8  C   UNL     1     -43.913 -29.162  -0.252  1.00  0.00     0.000 C 
BRANCH   8   9
ATOM      9  C   UNL     1     -43.116 -27.848  -0.346  1.00  0.00    -0.000 C 
BRANCH   9  10
ATOM     10  C   UNL     1     -41.587 -28.017  -0.346  1.00  0.00    -0.003 C 
ATOM     11  C   UNL     1     -41.140 -29.425   0.049  1.00  0.00     0.004 C 
ENDBRANCH   9  10
ENDBRANCH   8   9
ENDBRANCH   1   8
TORSDOF 6
ENDMDL
MODEL 6
REMARK VINA RESULT:    -3.138      4.773      6.353
REMARK INTER + INTRA:          -4.597
REMARK INTER:                  -4.307
REMARK INTRA:                  -0.290
REMARK UNBOUND:                -0.358
REMARK SMILES CCCCCCC=CC(=O)[O-]
REMARK SMILES IDX 5 1 6 2 7 3 8 4 9 5 10 6 11 7 4 8 3 9 2 10 1 11
REMARK H PARENT
REMARK Flexibility Score: inf
ROOT
ATOM      1  C   UNL     1     -45.212 -27.854  -2.296  1.00  0.00     0.004 C 
ENDROOT
BRANCH   1   2
ATOM      2  C   UNL     1     -46.054 -28.838  -3.122  1.00  0.00     0.027 C 
BRANCH   2   3
ATOM      3  C   UNL     1     -45.858 -28.661  -4.602  1.00  0.00    -0.025 C 
ATOM      4  C   UNL     1     -45.323 -27.545  -5.109  1.00  0.00     0.020 C 
BRANCH   4   5
ATOM      5  C   UNL     1     -45.133 -27.358  -6.554  1.00  0.00     0.064 C 
ATOM      6  O   UNL     1     -46.122 -27.073  -7.279  1.00  0.00    -0.545 OA
ATOM      7  O   UNL     1     -43.877 -27.490  -7.135  1.00  0.00    -0.545 OA
ENDBRANCH   4   5
ENDBRANCH   2   3
ENDBRANCH   1   2
BRANCH   1   8
ATOM      8  C   UNL     1     -45.485 -27.982  -0.788  1.00  0.00     0.000 C 
BRANCH   8   9
ATOM      9  C   UNL     1     -44.199 -27.966   0.057  1.00  0.00    -0.000 C 
BRANCH   9  10
ATOM     10  C   UNL     1     -42.955 -27.421  -0.666  1.00  0.00    -0.003 C 
ATOM     11  C   UNL     1     -41.665 -28.129  -0.254  1.00  0.00     0.004 C 
ENDBRANCH   9  10
ENDBRANCH   8   9
ENDBRANCH   1   8
TORSDOF 6
ENDMDL
MODEL 7
REMARK VINA RESULT:    -3.042      2.335      3.168
REMARK INTER + INTRA:          -4.467
REMARK INTER:                  -4.161
REMARK INTRA:                  -0.306
REMARK UNBOUND:                -0.358
REMARK SMILES CCCCCCC=CC(=O)[O-]
REMARK SMILES IDX 5 1 6 2 7 3 8 4 9 5 10 6 11 7 4 8 3 9 2 10 1 11
REMARK H PARENT
REMARK Flexibility Score: inf
ROOT
ATOM      1  C   UNL     1     -44.795 -26.805   0.923  1.00  0.00     0.004 C 
ENDROOT
BRANCH   1   2
ATOM      2  C   UNL     1     -45.471 -28.094   0.434  1.00  0.00     0.027 C 
BRANCH   2   3
ATOM      3  C   UNL     1     -45.985 -27.977  -0.974  1.00  0.00    -0.025 C 
ATOM      4  C   UNL     1     -45.223 -28.294  -2.026  1.00  0.00     0.020 C 
BRANCH   4   5
ATOM      5  C   UNL     1     -45.712 -28.176  -3.407  1.00  0.00     0.064 C 
ATOM      6  O   UNL     1     -46.431 -29.089  -3.891  1.00  0.00    -0.545 OA
ATOM      7  O   UNL     1     -45.392 -27.072  -4.189  1.00  0.00    -0.545 OA
ENDBRANCH   4   5
ENDBRANCH   2   3
ENDBRANCH   1   2
BRANCH   1   8
ATOM      8  C   UNL     1     -45.696 -26.006   1.880  1.00  0.00     0.000 C 
BRANCH   8   9
ATOM      9  C   UNL     1     -46.584 -26.907   2.757  1.00  0.00    -0.000 C 
BRANCH   9  10
ATOM     10  C   UNL     1     -46.329 -26.792   4.270  1.00  0.00    -0.003 C 
ATOM     11  C   UNL     1     -46.040 -28.139   4.932  1.00  0.00     0.004 C 
ENDBRANCH   9  10
ENDBRANCH   8   9
ENDBRANCH   1   8
TORSDOF 6
ENDMDL
MODEL 8
REMARK VINA RESULT:    -2.927      7.366     10.993
REMARK INTER + INTRA:          -4.311
REMARK INTER:                  -3.882
REMARK INTRA:                  -0.429
REMARK UNBOUND:                -0.358
REMARK SMILES CCCCCCC=CC(=O)[O-]
REMARK SMILES IDX 5 1 6 2 7 3 8 4 9 5 10 6 11 7 4 8 3 9 2 10 1 11
REMARK H PARENT
REMARK Flexibility Score: inf
ROOT
ATOM      1  C   UNL     1     -45.562 -27.544  -8.692  1.00  0.00     0.004 C 
ENDROOT
BRANCH   1   2
ATOM      2  C   UNL     1     -45.996 -28.794  -7.912  1.00  0.00     0.027 C 
BRANCH   2   3
ATOM      3  C   UNL     1     -46.252 -28.506  -6.459  1.00  0.00    -0.025 C 
ATOM      4  C   UNL     1     -45.466 -27.680  -5.761  1.00  0.00     0.020 C 
BRANCH   4   5
ATOM      5  C   UNL     1     -45.701 -27.395  -4.338  1.00  0.00     0.064 C 
ATOM      6  O   UNL     1     -44.877 -26.688  -3.701  1.00  0.00    -0.545 OA
ATOM      7  O   UNL     1     -46.821 -27.895  -3.683  1.00  0.00    -0.545 OA
ENDBRANCH   4   5
ENDBRANCH   2   3
ENDBRANCH   1   2
BRANCH   1   8
ATOM      8  C   UNL     1     -44.251 -27.770  -9.464  1.00  0.00     0.000 C 
BRANCH   8   9
ATOM      9  C   UNL     1     -43.665 -29.178  -9.248  1.00  0.00    -0.000 C 
BRANCH   9  10
ATOM     10  C   UNL     1     -42.256 -29.205  -8.630  1.00  0.00    -0.003 C 
ATOM     11  C   UNL     1     -41.247 -29.980  -9.477  1.00  0.00     0.004 C 
ENDBRANCH   9  10
ENDBRANCH   8   9
ENDBRANCH   1   8
TORSDOF 6
ENDMDL
MODEL 9
REMARK VINA RESULT:    -2.902      5.584      7.784
REMARK INTER + INTRA:          -4.277
REMARK INTER:                  -4.005
REMARK INTRA:                  -0.272
REMARK UNBOUND:                -0.358
REMARK SMILES CCCCCCC=CC(=O)[O-]
REMARK SMILES IDX 5 1 6 2 7 3 8 4 9 5 10 6 11 7 4 8 3 9 2 10 1 11
REMARK H PARENT
REMARK Flexibility Score: inf
ROOT
ATOM      1  C   UNL     1     -45.488 -27.520  -4.520  1.00  0.00     0.004 C 
ENDROOT
BRANCH   1   2
ATOM      2  C   UNL     1     -46.249 -27.481  -5.854  1.00  0.00     0.027 C 
BRANCH   2   3
ATOM      3  C   UNL     1     -45.376 -27.837  -7.025  1.00  0.00    -0.025 C 
ATOM      4  C   UNL     1     -44.045 -27.902  -6.911  1.00  0.00     0.020 C 
BRANCH   4   5
ATOM      5  C   UNL     1     -43.181 -28.243  -8.050  1.00  0.00     0.064 C 
ATOM      6  O   UNL     1     -43.655 -28.226  -9.216  1.00  0.00    -0.545 OA
ATOM      7  O   UNL     1     -41.847 -28.583  -7.860  1.00  0.00    -0.545 OA
ENDBRANCH   4   5
ENDBRANCH   2   3
ENDBRANCH   1   2
BRANCH   1   8
ATOM      8  C   UNL     1     -46.219 -28.364  -3.462  1.00  0.00     0.000 C 
BRANCH   8   9
ATOM      9  C   UNL     1     -45.291 -28.833  -2.326  1.00  0.00    -0.000 C 
BRANCH   9  10
ATOM     10  C   UNL     1     -45.220 -27.887  -1.115  1.00  0.00    -0.003 C 
ATOM     11  C   UNL     1     -43.789 -27.517  -0.729  1.00  0.00     0.004 C 
ENDBRANCH   9  10
ENDBRANCH   8   9
ENDBRANCH   1   8
TORSDOF 6
ENDMDL
