MODEL 1
REMARK VINA RESULT:    -7.118      0.000      0.000
REMARK INTER + INTRA:         -10.749
REMARK INTER:                 -10.240
REMARK INTRA:                  -0.509
REMARK UNBOUND:                -0.509
REMARK SMILES O=c1cc(-c2ccc(O)c(O)c2)oc2cc(O[C@@H]3O[C@@H](CO)[C@@H](O)[C@H](O)[C@H]3O)cc(O)c12
REMARK SMILES IDX 17 1 16 2 4 3 3 4 13 5 2 6 14 7 1 8 32 9 15 10 30 11 29 12
REMARK SMILES IDX 5 13 6 14 7 15 8 16 12 17 10 18 9 19 11 21 31 23 18 25 27 26
REMARK SMILES IDX 19 27 25 28 20 29 23 30 28 31 26 33 21 35 22 36 24 38
REMARK H PARENT 9 20 11 22 31 24 28 32 26 34 22 37 24 39
REMARK Flexibility Score: inf
ROOT
ATOM      1  O   UNL     1      -7.556  -3.446  20.718  1.00  0.00    -0.462 OA
ENDROOT
BRANCH   1   2
ATOM      2  C   UNL     1      -6.739  -4.561  20.968  1.00  0.00     0.130 A 
ATOM      3  C   UNL     1      -3.748  -6.662  24.032  1.00  0.00     0.138 A 
ATOM      4  C   UNL     1      -3.580  -7.781  23.199  1.00  0.00     0.100 A 
ATOM      5  O   UNL     1      -4.548  -5.671  23.642  1.00  0.00    -0.456 OA
ATOM      6  C   UNL     1      -4.245  -7.831  21.973  1.00  0.00     0.197 A 
ATOM      7  C   UNL     1      -5.202  -5.674  22.486  1.00  0.00     0.146 A 
ATOM      8  O   UNL     1      -4.092  -8.841  21.234  1.00  0.00    -0.289 OA
ATOM      9  C   UNL     1      -5.081  -6.761  21.591  1.00  0.00     0.107 A 
ATOM     10  C   UNL     1      -6.020  -4.586  22.165  1.00  0.00     0.094 A 
ATOM     11  C   UNL     1      -5.795  -6.733  20.371  1.00  0.00     0.134 A 
ATOM     12  C   UNL     1      -6.616  -5.634  20.069  1.00  0.00     0.093 A 
BRANCH   3  13
ATOM     13  C   UNL     1      -3.073  -6.556  25.352  1.00  0.00     0.021 A 
ATOM     14  C   UNL     1      -2.130  -7.509  25.780  1.00  0.00     0.016 A 
ATOM     15  C   UNL     1      -1.509  -7.383  27.025  1.00  0.00     0.051 A 
ATOM     16  C   UNL     1      -1.811  -6.301  27.858  1.00  0.00     0.157 A 
ATOM     17  C   UNL     1      -3.359  -5.464  26.189  1.00  0.00     0.062 A 
ATOM     18  C   UNL     1      -2.736  -5.338  27.438  1.00  0.00     0.158 A 
BRANCH  16  19
ATOM     19  O   UNL     1      -1.193  -6.172  29.100  1.00  0.00    -0.504 OA
ATOM     20  H   UNL     1      -1.385  -5.386  29.710  1.00  0.00     0.293 HD
ENDBRANCH  16  19
BRANCH  18  21
ATOM     21  O   UNL     1      -3.029  -4.255  28.266  1.00  0.00    -0.504 OA
ATOM     22  H   UNL     1      -3.054  -3.306  27.913  1.00  0.00     0.293 HD
ENDBRANCH  18  21
ENDBRANCH   3  13
BRANCH  11  23
ATOM     23  O   UNL     1      -5.702  -7.787  19.461  1.00  0.00    -0.507 OA
ATOM     24  H   UNL     1      -6.447  -7.995  18.806  1.00  0.00     0.293 HD
ENDBRANCH  11  23
ENDBRANCH   1   2
BRANCH   1  25
ATOM     25  C   UNL     1      -8.412  -3.264  19.584  1.00  0.00     0.339 C 
ATOM     26  C   UNL     1      -9.170  -1.918  19.641  1.00  0.00     0.214 C 
ATOM     27  O   UNL     1      -7.659  -3.400  18.390  1.00  0.00    -0.332 OA
ATOM     28  C   UNL     1      -8.208  -0.706  19.505  1.00  0.00     0.180 C 
ATOM     29  C   UNL     1      -6.808  -2.301  18.060  1.00  0.00     0.179 C 
ATOM     30  C   UNL     1      -6.779  -1.139  19.097  1.00  0.00     0.177 C 
BRANCH  26  31
ATOM     31  O   UNL     1     -10.121  -1.899  18.606  1.00  0.00    -0.384 OA
ATOM     32  H   UNL     1     -10.931  -1.458  18.971  1.00  0.00     0.211 HD
ENDBRANCH  26  31
BRANCH  28  33
ATOM     33  O   UNL     1      -8.172   0.041  20.697  1.00  0.00    -0.387 OA
ATOM     34  H   UNL     1      -7.232   0.060  21.013  1.00  0.00     0.211 HD
ENDBRANCH  28  33
BRANCH  29  35
ATOM     35  C   UNL     1      -7.167  -1.817  16.642  1.00  0.00     0.191 C 
BRANCH  35  36
ATOM     36  O   UNL     1      -6.428  -2.516  15.680  1.00  0.00    -0.394 OA
ATOM     37  H   UNL     1      -6.978  -3.298  15.410  1.00  0.00     0.210 HD
ENDBRANCH  35  36
ENDBRANCH  29  35
BRANCH  30  38
ATOM     38  O   UNL     1      -6.003  -0.051  18.649  1.00  0.00    -0.387 OA
ATOM     39  H   UNL     1      -6.575   0.759  18.631  1.00  0.00     0.211 HD
ENDBRANCH  30  38
ENDBRANCH   1  25
TORSDOF 11
ENDMDL
MODEL 2
REMARK VINA RESULT:    -6.967      1.905      2.574
REMARK INTER + INTRA:         -10.531
REMARK INTER:                  -9.717
REMARK INTRA:                  -0.813
REMARK UNBOUND:                -0.509
REMARK SMILES O=c1cc(-c2ccc(O)c(O)c2)oc2cc(O[C@@H]3O[C@@H](CO)[C@@H](O)[C@H](O)[C@H]3O)cc(O)c12
REMARK SMILES IDX 17 1 16 2 4 3 3 4 13 5 2 6 14 7 1 8 32 9 15 10 30 11 29 12
REMARK SMILES IDX 5 13 6 14 7 15 8 16 12 17 10 18 9 19 11 21 31 23 18 25 27 26
REMARK SMILES IDX 19 27 25 28 20 29 23 30 28 31 26 33 21 35 22 36 24 38
REMARK H PARENT 9 20 11 22 31 24 28 32 26 34 22 37 24 39
REMARK Flexibility Score: inf
ROOT
ATOM      1  O   UNL     1      -6.494  -3.867  21.243  1.00  0.00    -0.462 OA
ENDROOT
BRANCH   1   2
ATOM      2  C   UNL     1      -6.455  -4.832  22.264  1.00  0.00     0.130 A 
ATOM      3  C   UNL     1      -3.829  -6.856  25.692  1.00  0.00     0.138 A 
ATOM      4  C   UNL     1      -4.881  -7.699  26.088  1.00  0.00     0.100 A 
ATOM      5  O   UNL     1      -4.018  -6.003  24.688  1.00  0.00    -0.456 OA
ATOM      6  C   UNL     1      -6.102  -7.636  25.416  1.00  0.00     0.197 A 
ATOM      7  C   UNL     1      -5.162  -5.906  24.018  1.00  0.00     0.146 A 
ATOM      8  O   UNL     1      -7.042  -8.393  25.781  1.00  0.00    -0.289 OA
ATOM      9  C   UNL     1      -6.265  -6.723  24.353  1.00  0.00     0.107 A 
ATOM     10  C   UNL     1      -5.264  -4.977  22.978  1.00  0.00     0.094 A 
ATOM     11  C   UNL     1      -7.469  -6.590  23.624  1.00  0.00     0.134 A 
ATOM     12  C   UNL     1      -7.553  -5.648  22.585  1.00  0.00     0.093 A 
BRANCH   3  13
ATOM     13  C   UNL     1      -2.510  -6.872  26.376  1.00  0.00     0.021 A 
ATOM     14  C   UNL     1      -1.473  -7.731  25.965  1.00  0.00     0.016 A 
ATOM     15  C   UNL     1      -0.241  -7.722  26.624  1.00  0.00     0.051 A 
ATOM     16  C   UNL     1      -0.021  -6.852  27.697  1.00  0.00     0.157 A 
ATOM     17  C   UNL     1      -2.274  -5.990  27.445  1.00  0.00     0.062 A 
ATOM     18  C   UNL     1      -1.039  -5.982  28.106  1.00  0.00     0.158 A 
BRANCH  16  19
ATOM     19  O   UNL     1       1.207  -6.841  28.355  1.00  0.00    -0.504 OA
ATOM     20  H   UNL     1       1.895  -7.570  28.210  1.00  0.00     0.293 HD
ENDBRANCH  16  19
BRANCH  18  21
ATOM     21  O   UNL     1      -0.814  -5.110  29.170  1.00  0.00    -0.504 OA
ATOM     22  H   UNL     1      -0.158  -5.331  29.911  1.00  0.00     0.293 HD
ENDBRANCH  18  21
ENDBRANCH   3  13
BRANCH  11  23
ATOM     23  O   UNL     1      -8.580  -7.378  23.923  1.00  0.00    -0.507 OA
ATOM     24  H   UNL     1      -9.017  -7.972  23.228  1.00  0.00     0.293 HD
ENDBRANCH  11  23
ENDBRANCH   1   2
BRANCH   1  25
ATOM     25  C   UNL     1      -6.741  -4.116  19.855  1.00  0.00     0.339 C 
ATOM     26  C   UNL     1      -8.253  -4.177  19.538  1.00  0.00     0.214 C 
ATOM     27  O   UNL     1      -6.072  -3.142  19.068  1.00  0.00    -0.332 OA
ATOM     28  C   UNL     1      -8.943  -2.800  19.738  1.00  0.00     0.180 C 
ATOM     29  C   UNL     1      -6.662  -1.841  19.051  1.00  0.00     0.179 C 
ATOM     30  C   UNL     1      -7.918  -1.661  19.955  1.00  0.00     0.177 C 
BRANCH  26  31
ATOM     31  O   UNL     1      -8.411  -4.611  18.210  1.00  0.00    -0.384 OA
ATOM     32  H   UNL     1      -8.923  -3.904  17.739  1.00  0.00     0.211 HD
ENDBRANCH  26  31
BRANCH  28  33
ATOM     33  O   UNL     1      -9.856  -2.849  20.807  1.00  0.00    -0.387 OA
ATOM     34  H   UNL     1     -10.283  -3.745  20.800  1.00  0.00     0.211 HD
ENDBRANCH  28  33
BRANCH  29  35
ATOM     35  C   UNL     1      -6.929  -1.448  17.586  1.00  0.00     0.191 C 
BRANCH  35  36
ATOM     36  O   UNL     1      -6.565  -0.114  17.359  1.00  0.00    -0.394 OA
ATOM     37  H   UNL     1      -6.611   0.031  16.378  1.00  0.00     0.210 HD
ENDBRANCH  35  36
ENDBRANCH  29  35
BRANCH  30  38
ATOM     38  O   UNL     1      -8.501  -0.387  19.801  1.00  0.00    -0.387 OA
ATOM     39  H   UNL     1      -9.078  -0.207  20.587  1.00  0.00     0.211 HD
ENDBRANCH  30  38
ENDBRANCH   1  25
TORSDOF 11
ENDMDL
MODEL 3
REMARK VINA RESULT:    -6.945      1.546      9.307
REMARK INTER + INTRA:         -10.499
REMARK INTER:                  -9.732
REMARK INTRA:                  -0.767
REMARK UNBOUND:                -0.509
REMARK SMILES O=c1cc(-c2ccc(O)c(O)c2)oc2cc(O[C@@H]3O[C@@H](CO)[C@@H](O)[C@H](O)[C@H]3O)cc(O)c12
REMARK SMILES IDX 17 1 16 2 4 3 3 4 13 5 2 6 14 7 1 8 32 9 15 10 30 11 29 12
REMARK SMILES IDX 5 13 6 14 7 15 8 16 12 17 10 18 9 19 11 21 31 23 18 25 27 26
REMARK SMILES IDX 19 27 25 28 20 29 23 30 28 31 26 33 21 35 22 36 24 38
REMARK H PARENT 9 20 11 22 31 24 28 32 26 34 22 37 24 39
REMARK Flexibility Score: inf
ROOT
ATOM      1  O   UNL     1      -3.286  -6.050  24.951  1.00  0.00    -0.462 OA
ENDROOT
BRANCH   1   2
ATOM      2  C   UNL     1      -3.971  -6.301  23.751  1.00  0.00     0.130 A 
ATOM      3  C   UNL     1      -6.975  -4.567  20.478  1.00  0.00     0.138 A 
ATOM      4  C   UNL     1      -6.903  -5.734  19.700  1.00  0.00     0.100 A 
ATOM      5  O   UNL     1      -6.276  -4.489  21.608  1.00  0.00    -0.456 OA
ATOM      6  C   UNL     1      -6.107  -6.797  20.129  1.00  0.00     0.197 A 
ATOM      7  C   UNL     1      -5.505  -5.473  22.057  1.00  0.00     0.146 A 
ATOM      8  O   UNL     1      -6.045  -7.840  19.423  1.00  0.00    -0.289 OA
ATOM      9  C   UNL     1      -5.383  -6.682  21.334  1.00  0.00     0.107 A 
ATOM     10  C   UNL     1      -4.807  -5.297  23.256  1.00  0.00     0.094 A 
ATOM     11  C   UNL     1      -4.550  -7.706  21.839  1.00  0.00     0.134 A 
ATOM     12  C   UNL     1      -3.853  -7.509  23.042  1.00  0.00     0.093 A 
BRANCH   3  13
ATOM     13  C   UNL     1      -7.798  -3.399  20.067  1.00  0.00     0.021 A 
ATOM     14  C   UNL     1      -9.093  -3.188  20.579  1.00  0.00     0.016 A 
ATOM     15  C   UNL     1      -9.843  -2.080  20.177  1.00  0.00     0.051 A 
ATOM     16  C   UNL     1      -9.311  -1.160  19.268  1.00  0.00     0.157 A 
ATOM     17  C   UNL     1      -7.266  -2.460  19.166  1.00  0.00     0.062 A 
ATOM     18  C   UNL     1      -8.019  -1.349  18.763  1.00  0.00     0.158 A 
BRANCH  16  19
ATOM     19  O   UNL     1     -10.056  -0.053  18.866  1.00  0.00    -0.504 OA
ATOM     20  H   UNL     1      -9.727   0.576  18.142  1.00  0.00     0.293 HD
ENDBRANCH  16  19
BRANCH  18  21
ATOM     21  O   UNL     1      -7.488  -0.426  17.863  1.00  0.00    -0.504 OA
ATOM     22  H   UNL     1      -7.105   0.460  18.172  1.00  0.00     0.293 HD
ENDBRANCH  18  21
ENDBRANCH   3  13
BRANCH  11  23
ATOM     23  O   UNL     1      -4.404  -8.914  21.155  1.00  0.00    -0.507 OA
ATOM     24  H   UNL     1      -4.106  -8.947  20.187  1.00  0.00     0.293 HD
ENDBRANCH  11  23
ENDBRANCH   1   2
BRANCH   1  25
ATOM     25  C   UNL     1      -3.762  -6.335  26.271  1.00  0.00     0.339 C 
ATOM     26  C   UNL     1      -3.581  -7.823  26.644  1.00  0.00     0.214 C 
ATOM     27  O   UNL     1      -3.129  -5.472  27.204  1.00  0.00    -0.332 OA
ATOM     28  C   UNL     1      -2.082  -8.213  26.761  1.00  0.00     0.180 C 
ATOM     29  C   UNL     1      -1.768  -5.778  27.513  1.00  0.00     0.179 C 
ATOM     30  C   UNL     1      -1.154  -6.975  26.727  1.00  0.00     0.177 C 
BRANCH  26  31
ATOM     31  O   UNL     1      -4.240  -8.060  27.864  1.00  0.00    -0.384 OA
ATOM     32  H   UNL     1      -4.450  -9.029  27.891  1.00  0.00     0.211 HD
ENDBRANCH  26  31
BRANCH  28  33
ATOM     33  O   UNL     1      -1.722  -9.124  25.751  1.00  0.00    -0.387 OA
ATOM     34  H   UNL     1      -2.530  -9.648  25.515  1.00  0.00     0.211 HD
ENDBRANCH  28  33
BRANCH  29  35
ATOM     35  C   UNL     1      -1.642  -5.947  29.038  1.00  0.00     0.191 C 
BRANCH  35  36
ATOM     36  O   UNL     1      -1.915  -4.739  29.693  1.00  0.00    -0.394 OA
ATOM     37  H   UNL     1      -1.336  -4.050  29.273  1.00  0.00     0.210 HD
ENDBRANCH  35  36
ENDBRANCH  29  35
BRANCH  30  38
ATOM     38  O   UNL     1       0.151  -7.279  27.164  1.00  0.00    -0.387 OA
ATOM     39  H   UNL     1       0.754  -7.284  26.377  1.00  0.00     0.211 HD
ENDBRANCH  30  38
ENDBRANCH   1  25
TORSDOF 11
ENDMDL
MODEL 4
REMARK VINA RESULT:    -6.729      3.152      5.776
REMARK INTER + INTRA:         -10.189
REMARK INTER:                  -9.245
REMARK INTRA:                  -0.944
REMARK UNBOUND:                -0.509
REMARK SMILES O=c1cc(-c2ccc(O)c(O)c2)oc2cc(O[C@@H]3O[C@@H](CO)[C@@H](O)[C@H](O)[C@H]3O)cc(O)c12
REMARK SMILES IDX 17 1 16 2 4 3 3 4 13 5 2 6 14 7 1 8 32 9 15 10 30 11 29 12
REMARK SMILES IDX 5 13 6 14 7 15 8 16 12 17 10 18 9 19 11 21 31 23 18 25 27 26
REMARK SMILES IDX 19 27 25 28 20 29 23 30 28 31 26 33 21 35 22 36 24 38
REMARK H PARENT 9 20 11 22 31 24 28 32 26 34 22 37 24 39
REMARK Flexibility Score: inf
ROOT
ATOM      1  O   UNL     1      -4.977  -7.810  23.302  1.00  0.00    -0.462 OA
ENDROOT
BRANCH   1   2
ATOM      2  C   UNL     1      -4.463  -7.903  24.606  1.00  0.00     0.130 A 
ATOM      3  C   UNL     1      -0.631  -7.354  27.392  1.00  0.00     0.138 A 
ATOM      4  C   UNL     1      -1.340  -7.718  28.548  1.00  0.00     0.100 A 
ATOM      5  O   UNL     1      -1.260  -7.331  26.218  1.00  0.00    -0.456 OA
ATOM      6  C   UNL     1      -2.689  -8.061  28.447  1.00  0.00     0.197 A 
ATOM      7  C   UNL     1      -2.541  -7.649  26.072  1.00  0.00     0.146 A 
ATOM      8  O   UNL     1      -3.319  -8.383  29.491  1.00  0.00    -0.289 OA
ATOM      9  C   UNL     1      -3.322  -8.031  27.186  1.00  0.00     0.107 A 
ATOM     10  C   UNL     1      -3.114  -7.595  24.798  1.00  0.00     0.094 A 
ATOM     11  C   UNL     1      -4.684  -8.357  26.996  1.00  0.00     0.134 A 
ATOM     12  C   UNL     1      -5.242  -8.292  25.708  1.00  0.00     0.093 A 
BRANCH   3  13
ATOM     13  C   UNL     1       0.804  -6.970  27.438  1.00  0.00     0.021 A 
ATOM     14  C   UNL     1       1.689  -7.280  26.389  1.00  0.00     0.016 A 
ATOM     15  C   UNL     1       3.033  -6.904  26.458  1.00  0.00     0.051 A 
ATOM     16  C   UNL     1       3.513  -6.206  27.570  1.00  0.00     0.157 A 
ATOM     17  C   UNL     1       1.293  -6.254  28.546  1.00  0.00     0.062 A 
ATOM     18  C   UNL     1       2.641  -5.877  28.615  1.00  0.00     0.158 A 
BRANCH  16  19
ATOM     19  O   UNL     1       4.853  -5.829  27.642  1.00  0.00    -0.504 OA
ATOM     20  H   UNL     1       5.215  -5.299  28.427  1.00  0.00     0.293 HD
ENDBRANCH  16  19
BRANCH  18  21
ATOM     21  O   UNL     1       3.120  -5.174  29.719  1.00  0.00    -0.504 OA
ATOM     22  H   UNL     1       4.001  -4.672  29.689  1.00  0.00     0.293 HD
ENDBRANCH  18  21
ENDBRANCH   3  13
BRANCH  11  23
ATOM     23  O   UNL     1      -5.488  -8.739  28.071  1.00  0.00    -0.507 OA
ATOM     24  H   UNL     1      -5.505  -8.215  28.937  1.00  0.00     0.293 HD
ENDBRANCH  11  23
ENDBRANCH   1   2
BRANCH   1  25
ATOM     25  C   UNL     1      -6.170  -7.119  22.912  1.00  0.00     0.339 C 
ATOM     26  C   UNL     1      -6.190  -5.662  23.429  1.00  0.00     0.214 C 
ATOM     27  O   UNL     1      -6.321  -7.185  21.503  1.00  0.00    -0.332 OA
ATOM     28  C   UNL     1      -5.091  -4.794  22.758  1.00  0.00     0.180 C 
ATOM     29  C   UNL     1      -5.454  -6.342  20.742  1.00  0.00     0.179 C 
ATOM     30  C   UNL     1      -4.420  -5.521  21.568  1.00  0.00     0.177 C 
BRANCH  26  31
ATOM     31  O   UNL     1      -7.461  -5.117  23.173  1.00  0.00    -0.384 OA
ATOM     32  H   UNL     1      -8.123  -5.822  23.395  1.00  0.00     0.211 HD
ENDBRANCH  26  31
BRANCH  28  33
ATOM     33  O   UNL     1      -4.123  -4.397  23.699  1.00  0.00    -0.387 OA
ATOM     34  H   UNL     1      -4.465  -4.629  24.600  1.00  0.00     0.211 HD
ENDBRANCH  28  33
BRANCH  29  35
ATOM     35  C   UNL     1      -6.320  -5.451  19.830  1.00  0.00     0.191 C 
BRANCH  35  36
ATOM     36  O   UNL     1      -6.531  -6.070  18.592  1.00  0.00    -0.394 OA
ATOM     37  H   UNL     1      -6.769  -5.351  17.950  1.00  0.00     0.210 HD
ENDBRANCH  35  36
ENDBRANCH  29  35
BRANCH  30  38
ATOM     38  O   UNL     1      -3.678  -4.639  20.758  1.00  0.00    -0.387 OA
ATOM     39  H   UNL     1      -3.447  -3.837  21.293  1.00  0.00     0.211 HD
ENDBRANCH  30  38
ENDBRANCH   1  25
TORSDOF 11
ENDMDL
MODEL 5
REMARK VINA RESULT:    -6.408      2.740      5.432
REMARK INTER + INTRA:          -9.727
REMARK INTER:                  -8.741
REMARK INTRA:                  -0.986
REMARK UNBOUND:                -0.509
REMARK SMILES O=c1cc(-c2ccc(O)c(O)c2)oc2cc(O[C@@H]3O[C@@H](CO)[C@@H](O)[C@H](O)[C@H]3O)cc(O)c12
REMARK SMILES IDX 17 1 16 2 4 3 3 4 13 5 2 6 14 7 1 8 32 9 15 10 30 11 29 12
REMARK SMILES IDX 5 13 6 14 7 15 8 16 12 17 10 18 9 19 11 21 31 23 18 25 27 26
REMARK SMILES IDX 19 27 25 28 20 29 23 30 28 31 26 33 21 35 22 36 24 38
REMARK H PARENT 9 20 11 22 31 24 28 32 26 34 22 37 24 39
REMARK Flexibility Score: inf
ROOT
ATOM      1  O   UNL     1      -5.523  -6.275  23.224  1.00  0.00    -0.462 OA
ENDROOT
BRANCH   1   2
ATOM      2  C   UNL     1      -5.011  -6.793  24.425  1.00  0.00     0.130 A 
ATOM      3  C   UNL     1      -1.127  -7.425  27.120  1.00  0.00     0.138 A 
ATOM      4  C   UNL     1      -1.860  -8.051  28.141  1.00  0.00     0.100 A 
ATOM      5  O   UNL     1      -1.759  -7.003  26.026  1.00  0.00    -0.456 OA
ATOM      6  C   UNL     1      -3.235  -8.231  27.990  1.00  0.00     0.197 A 
ATOM      7  C   UNL     1      -3.065  -7.151  25.836  1.00  0.00     0.146 A 
ATOM      8  O   UNL     1      -3.886  -8.790  28.913  1.00  0.00    -0.289 OA
ATOM      9  C   UNL     1      -3.871  -7.775  26.815  1.00  0.00     0.107 A 
ATOM     10  C   UNL     1      -3.638  -6.673  24.654  1.00  0.00     0.094 A 
ATOM     11  C   UNL     1      -5.259  -7.911  26.583  1.00  0.00     0.134 A 
ATOM     12  C   UNL     1      -5.817  -7.421  25.391  1.00  0.00     0.093 A 
BRANCH   3  13
ATOM     13  C   UNL     1       0.338  -7.198  27.229  1.00  0.00     0.021 A 
ATOM     14  C   UNL     1       1.245  -7.761  26.312  1.00  0.00     0.016 A 
ATOM     15  C   UNL     1       2.617  -7.529  26.437  1.00  0.00     0.051 A 
ATOM     16  C   UNL     1       3.105  -6.725  27.472  1.00  0.00     0.157 A 
ATOM     17  C   UNL     1       0.836  -6.379  28.257  1.00  0.00     0.062 A 
ATOM     18  C   UNL     1       2.212  -6.146  28.382  1.00  0.00     0.158 A 
BRANCH  16  19
ATOM     19  O   UNL     1       4.473  -6.490  27.599  1.00  0.00    -0.504 OA
ATOM     20  H   UNL     1       4.929  -5.730  27.108  1.00  0.00     0.293 HD
ENDBRANCH  16  19
BRANCH  18  21
ATOM     21  O   UNL     1       2.700  -5.338  29.408  1.00  0.00    -0.504 OA
ATOM     22  H   UNL     1       2.102  -5.010  30.158  1.00  0.00     0.293 HD
ENDBRANCH  18  21
ENDBRANCH   3  13
BRANCH  11  23
ATOM     23  O   UNL     1      -6.087  -8.522  27.525  1.00  0.00    -0.507 OA
ATOM     24  H   UNL     1      -5.927  -8.424  28.520  1.00  0.00     0.293 HD
ENDBRANCH  11  23
ENDBRANCH   1   2
BRANCH   1  25
ATOM     25  C   UNL     1      -4.925  -5.247  22.425  1.00  0.00     0.339 C 
ATOM     26  C   UNL     1      -4.378  -5.799  21.089  1.00  0.00     0.214 C 
ATOM     27  O   UNL     1      -5.857  -4.196  22.224  1.00  0.00    -0.332 OA
ATOM     28  C   UNL     1      -5.516  -6.297  20.158  1.00  0.00     0.180 C 
ATOM     29  C   UNL     1      -6.906  -4.460  21.292  1.00  0.00     0.179 C 
ATOM     30  C   UNL     1      -6.916  -5.893  20.680  1.00  0.00     0.177 C 
BRANCH  26  31
ATOM     31  O   UNL     1      -3.645  -4.779  20.455  1.00  0.00    -0.384 OA
ATOM     32  H   UNL     1      -2.714  -5.110  20.367  1.00  0.00     0.211 HD
ENDBRANCH  26  31
BRANCH  28  33
ATOM     33  O   UNL     1      -5.443  -7.691  19.980  1.00  0.00    -0.387 OA
ATOM     34  H   UNL     1      -6.210  -7.964  19.414  1.00  0.00     0.211 HD
ENDBRANCH  28  33
BRANCH  29  35
ATOM     35  C   UNL     1      -6.888  -3.360  20.214  1.00  0.00     0.191 C 
BRANCH  35  36
ATOM     36  O   UNL     1      -5.631  -2.743  20.160  1.00  0.00    -0.394 OA
ATOM     37  H   UNL     1      -5.658  -2.109  19.396  1.00  0.00     0.210 HD
ENDBRANCH  35  36
ENDBRANCH  29  35
BRANCH  30  38
ATOM     38  O   UNL     1      -7.912  -6.040  19.695  1.00  0.00    -0.387 OA
ATOM     39  H   UNL     1      -8.019  -5.175  19.223  1.00  0.00     0.211 HD
ENDBRANCH  30  38
ENDBRANCH   1  25
TORSDOF 11
ENDMDL
MODEL 6
REMARK VINA RESULT:    -6.287      2.531      4.527
REMARK INTER + INTRA:          -9.553
REMARK INTER:                  -8.483
REMARK INTRA:                  -1.070
REMARK UNBOUND:                -0.509
REMARK SMILES O=c1cc(-c2ccc(O)c(O)c2)oc2cc(O[C@@H]3O[C@@H](CO)[C@@H](O)[C@H](O)[C@H]3O)cc(O)c12
REMARK SMILES IDX 17 1 16 2 4 3 3 4 13 5 2 6 14 7 1 8 32 9 15 10 30 11 29 12
REMARK SMILES IDX 5 13 6 14 7 15 8 16 12 17 10 18 9 19 11 21 31 23 18 25 27 26
REMARK SMILES IDX 19 27 25 28 20 29 23 30 28 31 26 33 21 35 22 36 24 38
REMARK H PARENT 9 20 11 22 31 24 28 32 26 34 22 37 24 39
REMARK Flexibility Score: inf
ROOT
ATOM      1  O   UNL     1      -5.628  -5.905  21.860  1.00  0.00    -0.462 OA
ENDROOT
BRANCH   1   2
ATOM      2  C   UNL     1      -5.414  -6.503  23.112  1.00  0.00     0.130 A 
ATOM      3  C   UNL     1      -2.278  -7.345  26.606  1.00  0.00     0.138 A 
ATOM      4  C   UNL     1      -3.229  -8.026  27.382  1.00  0.00     0.100 A 
ATOM      5  O   UNL     1      -2.633  -6.848  25.423  1.00  0.00    -0.456 OA
ATOM      6  C   UNL     1      -4.528  -8.181  26.898  1.00  0.00     0.197 A 
ATOM      7  C   UNL     1      -3.857  -6.970  24.919  1.00  0.00     0.146 A 
ATOM      8  O   UNL     1      -5.377  -8.790  27.603  1.00  0.00    -0.289 OA
ATOM      9  C   UNL     1      -4.869  -7.646  25.637  1.00  0.00     0.107 A 
ATOM     10  C   UNL     1      -4.135  -6.413  23.667  1.00  0.00     0.094 A 
ATOM     11  C   UNL     1      -6.161  -7.752  25.074  1.00  0.00     0.134 A 
ATOM     12  C   UNL     1      -6.422  -7.182  23.817  1.00  0.00     0.093 A 
BRANCH   3  13
ATOM     13  C   UNL     1      -0.882  -7.141  27.074  1.00  0.00     0.021 A 
ATOM     14  C   UNL     1      -0.594  -6.474  28.279  1.00  0.00     0.016 A 
ATOM     15  C   UNL     1       0.728  -6.299  28.696  1.00  0.00     0.051 A 
ATOM     16  C   UNL     1       1.783  -6.794  27.923  1.00  0.00     0.157 A 
ATOM     17  C   UNL     1       0.185  -7.649  26.311  1.00  0.00     0.062 A 
ATOM     18  C   UNL     1       1.510  -7.474  26.729  1.00  0.00     0.158 A 
BRANCH  16  19
ATOM     19  O   UNL     1       3.102  -6.623  28.336  1.00  0.00    -0.504 OA
ATOM     20  H   UNL     1       3.750  -7.401  28.386  1.00  0.00     0.293 HD
ENDBRANCH  16  19
BRANCH  18  21
ATOM     21  O   UNL     1       2.563  -7.974  25.964  1.00  0.00    -0.504 OA
ATOM     22  H   UNL     1       2.440  -8.762  25.339  1.00  0.00     0.293 HD
ENDBRANCH  18  21
ENDBRANCH   3  13
BRANCH  11  23
ATOM     23  O   UNL     1      -7.187  -8.412  25.752  1.00  0.00    -0.507 OA
ATOM     24  H   UNL     1      -7.975  -7.912  26.146  1.00  0.00     0.293 HD
ENDBRANCH  11  23
ENDBRANCH   1   2
BRANCH   1  25
ATOM     25  C   UNL     1      -5.768  -4.503  21.606  1.00  0.00     0.339 C 
ATOM     26  C   UNL     1      -5.678  -4.175  20.098  1.00  0.00     0.214 C 
ATOM     27  O   UNL     1      -6.976  -4.031  22.182  1.00  0.00    -0.332 OA
ATOM     28  C   UNL     1      -6.881  -4.758  19.307  1.00  0.00     0.180 C 
ATOM     29  C   UNL     1      -8.176  -4.385  21.492  1.00  0.00     0.179 C 
ATOM     30  C   UNL     1      -7.989  -5.297  20.243  1.00  0.00     0.177 C 
BRANCH  26  31
ATOM     31  O   UNL     1      -5.632  -2.777  19.949  1.00  0.00    -0.384 OA
ATOM     32  H   UNL     1      -4.696  -2.503  20.127  1.00  0.00     0.211 HD
ENDBRANCH  26  31
BRANCH  28  33
ATOM     33  O   UNL     1      -6.456  -5.764  18.420  1.00  0.00    -0.387 OA
ATOM     34  H   UNL     1      -5.500  -5.950  18.610  1.00  0.00     0.211 HD
ENDBRANCH  28  33
BRANCH  29  35
ATOM     35  C   UNL     1      -8.949  -3.093  21.168  1.00  0.00     0.191 C 
BRANCH  35  36
ATOM     36  O   UNL     1      -8.081  -1.994  21.134  1.00  0.00    -0.394 OA
ATOM     37  H   UNL     1      -7.160  -2.355  21.219  1.00  0.00     0.210 HD
ENDBRANCH  35  36
ENDBRANCH  29  35
BRANCH  30  38
ATOM     38  O   UNL     1      -9.202  -5.512  19.560  1.00  0.00    -0.387 OA
ATOM     39  H   UNL     1      -9.142  -6.373  19.073  1.00  0.00     0.211 HD
ENDBRANCH  30  38
ENDBRANCH   1  25
TORSDOF 11
ENDMDL
MODEL 7
REMARK VINA RESULT:    -6.222      1.148      2.417
REMARK INTER + INTRA:          -9.459
REMARK INTER:                  -8.739
REMARK INTRA:                  -0.719
REMARK UNBOUND:                -0.509
REMARK SMILES O=c1cc(-c2ccc(O)c(O)c2)oc2cc(O[C@@H]3O[C@@H](CO)[C@@H](O)[C@H](O)[C@H]3O)cc(O)c12
REMARK SMILES IDX 17 1 16 2 4 3 3 4 13 5 2 6 14 7 1 8 32 9 15 10 30 11 29 12
REMARK SMILES IDX 5 13 6 14 7 15 8 16 12 17 10 18 9 19 11 21 31 23 18 25 27 26
REMARK SMILES IDX 19 27 25 28 20 29 23 30 28 31 26 33 21 35 22 36 24 38
REMARK H PARENT 9 20 11 22 31 24 28 32 26 34 22 37 24 39
REMARK Flexibility Score: inf
ROOT
ATOM      1  O   UNL     1      -5.406  -3.496  19.728  1.00  0.00    -0.462 OA
ENDROOT
BRANCH   1   2
ATOM      2  C   UNL     1      -5.358  -4.660  20.513  1.00  0.00     0.130 A 
ATOM      3  C   UNL     1      -3.751  -6.648  24.539  1.00  0.00     0.138 A 
ATOM      4  C   UNL     1      -4.372  -7.875  24.257  1.00  0.00     0.100 A 
ATOM      5  O   UNL     1      -3.875  -5.639  23.680  1.00  0.00    -0.456 OA
ATOM      6  C   UNL     1      -5.102  -8.020  23.076  1.00  0.00     0.197 A 
ATOM      7  C   UNL     1      -4.558  -5.728  22.544  1.00  0.00     0.146 A 
ATOM      8  O   UNL     1      -5.660  -9.124  22.832  1.00  0.00    -0.289 OA
ATOM      9  C   UNL     1      -5.208  -6.931  22.186  1.00  0.00     0.107 A 
ATOM     10  C   UNL     1      -4.633  -4.611  21.706  1.00  0.00     0.094 A 
ATOM     11  C   UNL     1      -5.931  -6.989  20.973  1.00  0.00     0.134 A 
ATOM     12  C   UNL     1      -5.998  -5.855  20.146  1.00  0.00     0.093 A 
BRANCH   3  13
ATOM     13  C   UNL     1      -2.969  -6.432  25.785  1.00  0.00     0.021 A 
ATOM     14  C   UNL     1      -1.842  -7.215  26.098  1.00  0.00     0.016 A 
ATOM     15  C   UNL     1      -1.125  -6.987  27.275  1.00  0.00     0.051 A 
ATOM     16  C   UNL     1      -1.513  -5.970  28.153  1.00  0.00     0.157 A 
ATOM     17  C   UNL     1      -3.343  -5.401  26.666  1.00  0.00     0.062 A 
ATOM     18  C   UNL     1      -2.623  -5.173  27.846  1.00  0.00     0.158 A 
BRANCH  16  19
ATOM     19  O   UNL     1      -0.798  -5.740  29.327  1.00  0.00    -0.504 OA
ATOM     20  H   UNL     1       0.195  -5.934  29.391  1.00  0.00     0.293 HD
ENDBRANCH  16  19
BRANCH  18  21
ATOM     21  O   UNL     1      -3.002  -4.154  28.718  1.00  0.00    -0.504 OA
ATOM     22  H   UNL     1      -3.705  -3.470  28.463  1.00  0.00     0.293 HD
ENDBRANCH  18  21
ENDBRANCH   3  13
BRANCH  11  23
ATOM     23  O   UNL     1      -6.586  -8.158  20.583  1.00  0.00    -0.507 OA
ATOM     24  H   UNL     1      -6.260  -8.719  19.805  1.00  0.00     0.293 HD
ENDBRANCH  11  23
ENDBRANCH   1   2
BRANCH   1  25
ATOM     25  C   UNL     1      -6.199  -2.332  19.991  1.00  0.00     0.339 C 
ATOM     26  C   UNL     1      -6.541  -1.560  18.697  1.00  0.00     0.214 C 
ATOM     27  O   UNL     1      -7.363  -2.701  20.714  1.00  0.00    -0.332 OA
ATOM     28  C   UNL     1      -7.480  -2.376  17.767  1.00  0.00     0.180 C 
ATOM     29  C   UNL     1      -8.384  -3.359  19.960  1.00  0.00     0.179 C 
ATOM     30  C   UNL     1      -8.041  -3.637  18.466  1.00  0.00     0.177 C 
BRANCH  26  31
ATOM     31  O   UNL     1      -7.149  -0.343  19.053  1.00  0.00    -0.384 OA
ATOM     32  H   UNL     1      -6.904   0.313  18.352  1.00  0.00     0.211 HD
ENDBRANCH  26  31
BRANCH  28  33
ATOM     33  O   UNL     1      -6.821  -2.728  16.575  1.00  0.00    -0.387 OA
ATOM     34  H   UNL     1      -6.389  -3.610  16.718  1.00  0.00     0.211 HD
ENDBRANCH  28  33
BRANCH  29  35
ATOM     35  C   UNL     1      -9.696  -2.569  20.126  1.00  0.00     0.191 C 
BRANCH  35  36
ATOM     36  O   UNL     1      -9.440  -1.288  20.631  1.00  0.00    -0.394 OA
ATOM     37  H   UNL     1      -8.922  -1.409  21.469  1.00  0.00     0.210 HD
ENDBRANCH  35  36
ENDBRANCH  29  35
BRANCH  30  38
ATOM     38  O   UNL     1      -9.133  -4.189  17.768  1.00  0.00    -0.387 OA
ATOM     39  H   UNL     1      -8.795  -4.892  17.156  1.00  0.00     0.211 HD
ENDBRANCH  30  38
ENDBRANCH   1  25
TORSDOF 11
ENDMDL
MODEL 8
REMARK VINA RESULT:    -6.136      2.365      3.743
REMARK INTER + INTRA:          -9.336
REMARK INTER:                  -8.630
REMARK INTRA:                  -0.706
REMARK UNBOUND:                -0.509
REMARK SMILES O=c1cc(-c2ccc(O)c(O)c2)oc2cc(O[C@@H]3O[C@@H](CO)[C@@H](O)[C@H](O)[C@H]3O)cc(O)c12
REMARK SMILES IDX 17 1 16 2 4 3 3 4 13 5 2 6 14 7 1 8 32 9 15 10 30 11 29 12
REMARK SMILES IDX 5 13 6 14 7 15 8 16 12 17 10 18 9 19 11 21 31 23 18 25 27 26
REMARK SMILES IDX 19 27 25 28 20 29 23 30 28 31 26 33 21 35 22 36 24 38
REMARK H PARENT 9 20 11 22 31 24 28 32 26 34 22 37 24 39
REMARK Flexibility Score: inf
ROOT
ATOM      1  O   UNL     1      -7.538  -5.075  22.057  1.00  0.00    -0.462 OA
ENDROOT
BRANCH   1   2
ATOM      2  C   UNL     1      -7.246  -5.920  23.140  1.00  0.00     0.130 A 
ATOM      3  C   UNL     1      -3.927  -7.352  26.251  1.00  0.00     0.138 A 
ATOM      4  C   UNL     1      -4.816  -8.230  26.893  1.00  0.00     0.100 A 
ATOM      5  O   UNL     1      -4.354  -6.628  25.219  1.00  0.00    -0.456 OA
ATOM      6  C   UNL     1      -6.129  -8.337  26.432  1.00  0.00     0.197 A 
ATOM      7  C   UNL     1      -5.593  -6.694  24.744  1.00  0.00     0.146 A 
ATOM      8  O   UNL     1      -6.922  -9.124  27.016  1.00  0.00    -0.289 OA
ATOM      9  C   UNL     1      -6.545  -7.557  25.332  1.00  0.00     0.107 A 
ATOM     10  C   UNL     1      -5.948  -5.892  23.655  1.00  0.00     0.094 A 
ATOM     11  C   UNL     1      -7.857  -7.599  24.805  1.00  0.00     0.134 A 
ATOM     12  C   UNL     1      -8.195  -6.783  23.713  1.00  0.00     0.093 A 
BRANCH   3  13
ATOM     13  C   UNL     1      -2.521  -7.189  26.703  1.00  0.00     0.021 A 
ATOM     14  C   UNL     1      -1.462  -7.892  26.098  1.00  0.00     0.016 A 
ATOM     15  C   UNL     1      -0.149  -7.717  26.542  1.00  0.00     0.051 A 
ATOM     16  C   UNL     1       0.131  -6.833  27.588  1.00  0.00     0.157 A 
ATOM     17  C   UNL     1      -2.228  -6.291  27.745  1.00  0.00     0.062 A 
ATOM     18  C   UNL     1      -0.911  -6.116  28.189  1.00  0.00     0.158 A 
BRANCH  16  19
ATOM     19  O   UNL     1       1.440  -6.656  28.032  1.00  0.00    -0.504 OA
ATOM     20  H   UNL     1       1.888  -7.326  28.646  1.00  0.00     0.293 HD
ENDBRANCH  16  19
BRANCH  18  21
ATOM     21  O   UNL     1      -0.629  -5.228  29.227  1.00  0.00    -0.504 OA
ATOM     22  H   UNL     1       0.292  -4.823  29.345  1.00  0.00     0.293 HD
ENDBRANCH  18  21
ENDBRANCH   3  13
BRANCH  11  23
ATOM     23  O   UNL     1      -8.825  -8.438  25.357  1.00  0.00    -0.507 OA
ATOM     24  H   UNL     1      -8.612  -9.389  25.635  1.00  0.00     0.293 HD
ENDBRANCH  11  23
ENDBRANCH   1   2
BRANCH   1  25
ATOM     25  C   UNL     1      -6.798  -3.912  21.668  1.00  0.00     0.339 C 
ATOM     26  C   UNL     1      -5.821  -4.209  20.508  1.00  0.00     0.214 C 
ATOM     27  O   UNL     1      -7.694  -2.858  21.353  1.00  0.00    -0.332 OA
ATOM     28  C   UNL     1      -6.571  -4.555  19.193  1.00  0.00     0.180 C 
ATOM     29  C   UNL     1      -8.377  -2.973  20.103  1.00  0.00     0.179 C 
ATOM     30  C   UNL     1      -8.090  -4.275  19.298  1.00  0.00     0.177 C 
BRANCH  26  31
ATOM     31  O   UNL     1      -5.003  -3.081  20.316  1.00  0.00    -0.384 OA
ATOM     32  H   UNL     1      -5.252  -2.695  19.437  1.00  0.00     0.211 HD
ENDBRANCH  26  31
BRANCH  28  33
ATOM     33  O   UNL     1      -6.345  -5.894  18.826  1.00  0.00    -0.387 OA
ATOM     34  H   UNL     1      -7.181  -6.400  18.994  1.00  0.00     0.211 HD
ENDBRANCH  28  33
BRANCH  29  35
ATOM     35  C   UNL     1      -8.103  -1.699  19.281  1.00  0.00     0.191 C 
BRANCH  35  36
ATOM     36  O   UNL     1      -9.223  -0.857  19.289  1.00  0.00    -0.394 OA
ATOM     37  H   UNL     1      -9.107  -0.235  20.054  1.00  0.00     0.210 HD
ENDBRANCH  35  36
ENDBRANCH  29  35
BRANCH  30  38
ATOM     38  O   UNL     1      -8.715  -4.263  18.035  1.00  0.00    -0.387 OA
ATOM     39  H   UNL     1      -8.080  -4.624  17.365  1.00  0.00     0.211 HD
ENDBRANCH  30  38
ENDBRANCH   1  25
TORSDOF 11
ENDMDL
MODEL 9
REMARK VINA RESULT:    -6.100      3.345     10.629
REMARK INTER + INTRA:          -9.283
REMARK INTER:                  -8.155
REMARK INTRA:                  -1.128
REMARK UNBOUND:                -0.509
REMARK SMILES O=c1cc(-c2ccc(O)c(O)c2)oc2cc(O[C@@H]3O[C@@H](CO)[C@@H](O)[C@H](O)[C@H]3O)cc(O)c12
REMARK SMILES IDX 17 1 16 2 4 3 3 4 13 5 2 6 14 7 1 8 32 9 15 10 30 11 29 12
REMARK SMILES IDX 5 13 6 14 7 15 8 16 12 17 10 18 9 19 11 21 31 23 18 25 27 26
REMARK SMILES IDX 19 27 25 28 20 29 23 30 28 31 26 33 21 35 22 36 24 38
REMARK H PARENT 9 20 11 22 31 24 28 32 26 34 22 37 24 39
REMARK Flexibility Score: inf
ROOT
ATOM      1  O   UNL     1       0.314  -6.363  28.542  1.00  0.00    -0.462 OA
ENDROOT
BRANCH   1   2
ATOM      2  C   UNL     1      -0.936  -6.850  28.126  1.00  0.00     0.130 A 
ATOM      3  C   UNL     1      -4.205  -6.889  24.654  1.00  0.00     0.138 A 
ATOM      4  C   UNL     1      -5.039  -7.770  25.362  1.00  0.00     0.100 A 
ATOM      5  O   UNL     1      -3.053  -6.502  25.196  1.00  0.00    -0.456 OA
ATOM      6  C   UNL     1      -4.651  -8.217  26.625  1.00  0.00     0.197 A 
ATOM      7  C   UNL     1      -2.640  -6.900  26.395  1.00  0.00     0.146 A 
ATOM      8  O   UNL     1      -5.404  -9.011  27.252  1.00  0.00    -0.289 OA
ATOM      9  C   UNL     1      -3.425  -7.782  27.171  1.00  0.00     0.107 A 
ATOM     10  C   UNL     1      -1.412  -6.439  26.879  1.00  0.00     0.094 A 
ATOM     11  C   UNL     1      -2.954  -8.190  28.440  1.00  0.00     0.134 A 
ATOM     12  C   UNL     1      -1.715  -7.720  28.907  1.00  0.00     0.093 A 
BRANCH   3  13
ATOM     13  C   UNL     1      -4.561  -6.387  23.301  1.00  0.00     0.021 A 
ATOM     14  C   UNL     1      -4.739  -5.015  23.043  1.00  0.00     0.016 A 
ATOM     15  C   UNL     1      -5.071  -4.571  21.761  1.00  0.00     0.051 A 
ATOM     16  C   UNL     1      -5.221  -5.486  20.714  1.00  0.00     0.157 A 
ATOM     17  C   UNL     1      -4.698  -7.298  22.239  1.00  0.00     0.062 A 
ATOM     18  C   UNL     1      -5.031  -6.853  20.953  1.00  0.00     0.158 A 
BRANCH  16  19
ATOM     19  O   UNL     1      -5.550  -5.046  19.433  1.00  0.00    -0.504 OA
ATOM     20  H   UNL     1      -6.500  -4.790  19.187  1.00  0.00     0.293 HD
ENDBRANCH  16  19
BRANCH  18  21
ATOM     21  O   UNL     1      -5.173  -7.762  19.906  1.00  0.00    -0.504 OA
ATOM     22  H   UNL     1      -4.427  -8.400  19.650  1.00  0.00     0.293 HD
ENDBRANCH  18  21
ENDBRANCH   3  13
BRANCH  11  23
ATOM     23  O   UNL     1      -3.699  -9.060  29.237  1.00  0.00    -0.507 OA
ATOM     24  H   UNL     1      -3.347  -9.970  29.508  1.00  0.00     0.293 HD
ENDBRANCH  11  23
ENDBRANCH   1   2
BRANCH   1  25
ATOM     25  C   UNL     1       1.415  -7.151  29.007  1.00  0.00     0.339 C 
ATOM     26  C   UNL     1       1.811  -8.248  27.993  1.00  0.00     0.214 C 
ATOM     27  O   UNL     1       2.508  -6.304  29.327  1.00  0.00    -0.332 OA
ATOM     28  C   UNL     1       2.388  -7.645  26.683  1.00  0.00     0.180 C 
ATOM     29  C   UNL     1       3.225  -5.763  28.216  1.00  0.00     0.179 C 
ATOM     30  C   UNL     1       2.660  -6.127  26.811  1.00  0.00     0.177 C 
BRANCH  26  31
ATOM     31  O   UNL     1       2.761  -9.091  28.598  1.00  0.00    -0.384 OA
ATOM     32  H   UNL     1       3.042  -8.646  29.438  1.00  0.00     0.211 HD
ENDBRANCH  26  31
BRANCH  28  33
ATOM     33  O   UNL     1       1.533  -7.901  25.596  1.00  0.00    -0.387 OA
ATOM     34  H   UNL     1       0.610  -7.674  25.878  1.00  0.00     0.211 HD
ENDBRANCH  28  33
BRANCH  29  35
ATOM     35  C   UNL     1       4.711  -6.136  28.368  1.00  0.00     0.191 C 
BRANCH  35  36
ATOM     36  O   UNL     1       5.512  -5.312  27.566  1.00  0.00    -0.394 OA
ATOM     37  H   UNL     1       6.284  -5.863  27.273  1.00  0.00     0.210 HD
ENDBRANCH  35  36
ENDBRANCH  29  35
BRANCH  30  38
ATOM     38  O   UNL     1       3.480  -5.646  25.771  1.00  0.00    -0.387 OA
ATOM     39  H   UNL     1       3.446  -6.290  25.018  1.00  0.00     0.211 HD
ENDBRANCH  30  38
ENDBRANCH   1  25
TORSDOF 11
ENDMDL
