MODEL 1
REMARK VINA RESULT:    -4.517      0.000      0.000
REMARK INTER + INTRA:          -9.699
REMARK INTER:                  -8.214
REMARK INTRA:                  -1.486
REMARK UNBOUND:                -1.486
REMARK SMILES CCCCCCCCCCCCCC[C@H](C)C(=O)[O-]
REMARK SMILES IDX 9 1 10 2 11 3 12 4 13 5 14 6 15 7 16 8 17 9 18 10 19 11 8 12
REMARK SMILES IDX 7 13 6 14 5 15 4 16 3 17 2 18 1 19
REMARK H PARENT
REMARK Flexibility Score: inf
ROOT
ATOM      1  C   UNL     1      34.675  -7.380  15.353  1.00  0.00     0.000 C 
ENDROOT
BRANCH   1   2
ATOM      2  C   UNL     1      35.748  -7.046  14.302  1.00  0.00     0.000 C 
BRANCH   2   3
ATOM      3  C   UNL     1      35.194  -7.024  12.870  1.00  0.00     0.000 C 
BRANCH   3   4
ATOM      4  C   UNL     1      36.299  -7.326  11.850  1.00  0.00     0.000 C 
BRANCH   4   5
ATOM      5  C   UNL     1      37.678  -7.353  12.525  1.00  0.00     0.001 C 
BRANCH   5   6
ATOM      6  C   UNL     1      38.782  -7.918  11.609  1.00  0.00     0.009 C 
BRANCH   6   7
ATOM      7  C   UNL     1      38.484  -7.781  10.099  1.00  0.00     0.032 C 
ATOM      8  C   UNL     1      38.522  -9.153   9.419  1.00  0.00     0.014 C 
BRANCH   7   9
ATOM      9  C   UNL     1      39.452  -6.846   9.423  1.00  0.00     0.044 C 
ATOM     10  O   UNL     1      40.470  -6.427  10.036  1.00  0.00    -0.550 OA
ATOM     11  O   UNL     1      39.221  -6.436   8.117  1.00  0.00    -0.550 OA
ENDBRANCH   7   9
ENDBRANCH   6   7
ENDBRANCH   5   6
ENDBRANCH   4   5
ENDBRANCH   3   4
ENDBRANCH   2   3
ENDBRANCH   1   2
BRANCH   1  12
ATOM     12  C   UNL     1      33.507  -8.248  14.843  1.00  0.00     0.000 C 
BRANCH  12  13
ATOM     13  C   UNL     1      33.783  -9.762  14.798  1.00  0.00    -0.000 C 
BRANCH  13  14
ATOM     14  C   UNL     1      32.500 -10.597  14.645  1.00  0.00    -0.000 C 
BRANCH  14  15
ATOM     15  C   UNL     1      31.225  -9.745  14.760  1.00  0.00    -0.000 C 
BRANCH  15  16
ATOM     16  C   UNL     1      30.233 -10.304  15.795  1.00  0.00    -0.000 C 
BRANCH  16  17
ATOM     17  C   UNL     1      30.857 -10.450  17.192  1.00  0.00    -0.000 C 
BRANCH  17  18
ATOM     18  C   UNL     1      31.104  -9.096  17.876  1.00  0.00    -0.003 C 
ATOM     19  C   UNL     1      32.548  -8.976  18.353  1.00  0.00     0.004 C 
ENDBRANCH  17  18
ENDBRANCH  16  17
ENDBRANCH  15  16
ENDBRANCH  14  15
ENDBRANCH  13  14
ENDBRANCH  12  13
ENDBRANCH   1  12
TORSDOF 14
ENDMDL
MODEL 2
REMARK VINA RESULT:    -4.459      3.747      6.140
REMARK INTER + INTRA:          -9.594
REMARK INTER:                  -7.889
REMARK INTRA:                  -1.706
REMARK UNBOUND:                -1.486
REMARK SMILES CCCCCCCCCCCCCC[C@H](C)C(=O)[O-]
REMARK SMILES IDX 9 1 10 2 11 3 12 4 13 5 14 6 15 7 16 8 17 9 18 10 19 11 8 12
REMARK SMILES IDX 7 13 6 14 5 15 4 16 3 17 2 18 1 19
REMARK H PARENT
REMARK Flexibility Score: inf
ROOT
ATOM      1  C   UNL     1      39.100  -7.397  11.105  1.00  0.00     0.000 C 
ENDROOT
BRANCH   1   2
ATOM      2  C   UNL     1      40.255  -6.974  10.180  1.00  0.00     0.000 C 
BRANCH   2   3
ATOM      3  C   UNL     1      39.778  -6.570   8.777  1.00  0.00     0.000 C 
BRANCH   3   4
ATOM      4  C   UNL     1      40.573  -7.309   7.693  1.00  0.00     0.000 C 
BRANCH   4   5
ATOM      5  C   UNL     1      41.338  -8.500   8.289  1.00  0.00     0.001 C 
BRANCH   5   6
ATOM      6  C   UNL     1      41.780  -9.521   7.223  1.00  0.00     0.009 C 
BRANCH   6   7
ATOM      7  C   UNL     1      43.273  -9.425   6.833  1.00  0.00     0.032 C 
ATOM      8  C   UNL     1      44.046  -8.605   7.871  1.00  0.00     0.014 C 
BRANCH   7   9
ATOM      9  C   UNL     1      43.452  -8.821   5.466  1.00  0.00     0.044 C 
ATOM     10  O   UNL     1      42.492  -8.243   4.890  1.00  0.00    -0.550 OA
ATOM     11  O   UNL     1      44.683  -8.906   4.828  1.00  0.00    -0.550 OA
ENDBRANCH   7   9
ENDBRANCH   6   7
ENDBRANCH   5   6
ENDBRANCH   4   5
ENDBRANCH   3   4
ENDBRANCH   2   3
ENDBRANCH   1   2
BRANCH   1  12
ATOM     12  C   UNL     1      37.854  -7.950  10.386  1.00  0.00     0.000 C 
BRANCH  12  13
ATOM     13  C   UNL     1      37.739  -9.485  10.355  1.00  0.00    -0.000 C 
BRANCH  13  14
ATOM     14  C   UNL     1      36.592 -10.015  11.233  1.00  0.00    -0.000 C 
BRANCH  14  15
ATOM     15  C   UNL     1      37.019 -10.226  12.696  1.00  0.00    -0.000 C 
BRANCH  15  16
ATOM     16  C   UNL     1      36.659  -9.029  13.594  1.00  0.00    -0.000 C 
BRANCH  16  17
ATOM     17  C   UNL     1      35.265  -8.461  13.289  1.00  0.00    -0.000 C 
BRANCH  17  18
ATOM     18  C   UNL     1      35.298  -6.967  12.929  1.00  0.00    -0.003 C 
ATOM     19  C   UNL     1      36.437  -6.254  13.651  1.00  0.00     0.004 C 
ENDBRANCH  17  18
ENDBRANCH  16  17
ENDBRANCH  15  16
ENDBRANCH  14  15
ENDBRANCH  13  14
ENDBRANCH  12  13
ENDBRANCH   1  12
TORSDOF 14
ENDMDL
MODEL 3
REMARK VINA RESULT:    -4.413      4.700     11.007
REMARK INTER + INTRA:          -9.510
REMARK INTER:                  -8.416
REMARK INTRA:                  -1.094
REMARK UNBOUND:                -1.486
REMARK SMILES CCCCCCCCCCCCCC[C@H](C)C(=O)[O-]
REMARK SMILES IDX 9 1 10 2 11 3 12 4 13 5 14 6 15 7 16 8 17 9 18 10 19 11 8 12
REMARK SMILES IDX 7 13 6 14 5 15 4 16 3 17 2 18 1 19
REMARK H PARENT
REMARK Flexibility Score: inf
ROOT
ATOM      1  C   UNL     1      40.255  -7.114   8.041  1.00  0.00     0.000 C 
ENDROOT
BRANCH   1   2
ATOM      2  C   UNL     1      40.226  -6.380   9.394  1.00  0.00     0.000 C 
BRANCH   2   3
ATOM      3  C   UNL     1      39.715  -7.264  10.541  1.00  0.00     0.000 C 
BRANCH   3   4
ATOM      4  C   UNL     1      38.184  -7.343  10.534  1.00  0.00     0.000 C 
BRANCH   4   5
ATOM      5  C   UNL     1      37.654  -7.861  11.879  1.00  0.00     0.001 C 
BRANCH   5   6
ATOM      6  C   UNL     1      36.121  -7.756  11.999  1.00  0.00     0.009 C 
BRANCH   6   7
ATOM      7  C   UNL     1      35.636  -6.912  13.200  1.00  0.00     0.032 C 
ATOM      8  C   UNL     1      36.821  -6.225  13.886  1.00  0.00     0.014 C 
BRANCH   7   9
ATOM      9  C   UNL     1      34.880  -7.749  14.198  1.00  0.00     0.044 C 
ATOM     10  O   UNL     1      34.406  -8.868  13.867  1.00  0.00    -0.550 OA
ATOM     11  O   UNL     1      34.696  -7.283  15.494  1.00  0.00    -0.550 OA
ENDBRANCH   7   9
ENDBRANCH   6   7
ENDBRANCH   5   6
ENDBRANCH   4   5
ENDBRANCH   3   4
ENDBRANCH   2   3
ENDBRANCH   1   2
BRANCH   1  12
ATOM     12  C   UNL     1      40.850  -8.536   8.081  1.00  0.00     0.000 C 
BRANCH  12  13
ATOM     13  C   UNL     1      41.996  -8.797   7.087  1.00  0.00    -0.000 C 
BRANCH  13  14
ATOM     14  C   UNL     1      43.188  -7.844   7.289  1.00  0.00    -0.000 C 
BRANCH  14  15
ATOM     15  C   UNL     1      44.351  -8.508   8.045  1.00  0.00    -0.000 C 
BRANCH  15  16
ATOM     16  C   UNL     1      44.405 -10.030   7.827  1.00  0.00    -0.000 C 
BRANCH  16  17
ATOM     17  C   UNL     1      45.580 -10.456   6.934  1.00  0.00    -0.000 C 
BRANCH  17  18
ATOM     18  C   UNL     1      45.132 -10.893   5.530  1.00  0.00    -0.003 C 
ATOM     19  C   UNL     1      45.004  -9.693   4.597  1.00  0.00     0.004 C 
ENDBRANCH  17  18
ENDBRANCH  16  17
ENDBRANCH  15  16
ENDBRANCH  14  15
ENDBRANCH  13  14
ENDBRANCH  12  13
ENDBRANCH   1  12
TORSDOF 14
ENDMDL
MODEL 4
REMARK VINA RESULT:    -4.363      2.417      4.382
REMARK INTER + INTRA:          -9.419
REMARK INTER:                  -7.265
REMARK INTRA:                  -2.154
REMARK UNBOUND:                -1.486
REMARK SMILES CCCCCCCCCCCCCC[C@H](C)C(=O)[O-]
REMARK SMILES IDX 9 1 10 2 11 3 12 4 13 5 14 6 15 7 16 8 17 9 18 10 19 11 8 12
REMARK SMILES IDX 7 13 6 14 5 15 4 16 3 17 2 18 1 19
REMARK H PARENT
REMARK Flexibility Score: inf
ROOT
ATOM      1  C   UNL     1      36.623  -9.304  11.322  1.00  0.00     0.000 C 
ENDROOT
BRANCH   1   2
ATOM      2  C   UNL     1      37.443  -9.886  12.487  1.00  0.00     0.000 C 
BRANCH   2   3
ATOM      3  C   UNL     1      38.797 -10.455  12.039  1.00  0.00     0.000 C 
BRANCH   3   4
ATOM      4  C   UNL     1      38.694 -11.082  10.643  1.00  0.00     0.000 C 
BRANCH   4   5
ATOM      5  C   UNL     1      39.811 -10.564   9.725  1.00  0.00     0.001 C 
BRANCH   5   6
ATOM      6  C   UNL     1      39.477  -9.202   9.086  1.00  0.00     0.009 C 
BRANCH   6   7
ATOM      7  C   UNL     1      40.603  -8.150   9.210  1.00  0.00     0.032 C 
ATOM      8  C   UNL     1      40.223  -7.077  10.236  1.00  0.00     0.014 C 
BRANCH   7   9
ATOM      9  C   UNL     1      40.911  -7.506   7.884  1.00  0.00     0.044 C 
ATOM     10  O   UNL     1      42.068  -7.577   7.391  1.00  0.00    -0.550 OA
ATOM     11  O   UNL     1      39.915  -6.822   7.199  1.00  0.00    -0.550 OA
ENDBRANCH   7   9
ENDBRANCH   6   7
ENDBRANCH   5   6
ENDBRANCH   4   5
ENDBRANCH   3   4
ENDBRANCH   2   3
ENDBRANCH   1   2
BRANCH   1  12
ATOM     12  C   UNL     1      36.582  -7.764  11.255  1.00  0.00     0.000 C 
BRANCH  12  13
ATOM     13  C   UNL     1      37.182  -7.037  12.472  1.00  0.00    -0.000 C 
BRANCH  13  14
ATOM     14  C   UNL     1      36.122  -6.298  13.307  1.00  0.00    -0.000 C 
BRANCH  14  15
ATOM     15  C   UNL     1      36.178  -6.675  14.797  1.00  0.00    -0.000 C 
BRANCH  15  16
ATOM     16  C   UNL     1      34.904  -7.393  15.274  1.00  0.00    -0.000 C 
BRANCH  16  17
ATOM     17  C   UNL     1      34.377  -8.404  14.244  1.00  0.00    -0.000 C 
BRANCH  17  18
ATOM     18  C   UNL     1      34.332  -9.840  14.791  1.00  0.00    -0.003 C 
ATOM     19  C   UNL     1      34.063 -10.845  13.675  1.00  0.00     0.004 C 
ENDBRANCH  17  18
ENDBRANCH  16  17
ENDBRANCH  15  16
ENDBRANCH  14  15
ENDBRANCH  13  14
ENDBRANCH  12  13
ENDBRANCH   1  12
TORSDOF 14
ENDMDL
MODEL 5
REMARK VINA RESULT:    -4.346      4.585     10.979
REMARK INTER + INTRA:          -9.388
REMARK INTER:                  -7.883
REMARK INTRA:                  -1.505
REMARK UNBOUND:                -1.486
REMARK SMILES CCCCCCCCCCCCCC[C@H](C)C(=O)[O-]
REMARK SMILES IDX 9 1 10 2 11 3 12 4 13 5 14 6 15 7 16 8 17 9 18 10 19 11 8 12
REMARK SMILES IDX 7 13 6 14 5 15 4 16 3 17 2 18 1 19
REMARK H PARENT
REMARK Flexibility Score: inf
ROOT
ATOM      1  C   UNL     1      41.888  -8.188   8.113  1.00  0.00     0.000 C 
ENDROOT
BRANCH   1   2
ATOM      2  C   UNL     1      40.588  -7.394   8.330  1.00  0.00     0.000 C 
BRANCH   2   3
ATOM      3  C   UNL     1      40.518  -6.729   9.713  1.00  0.00     0.000 C 
BRANCH   3   4
ATOM      4  C   UNL     1      39.484  -7.426  10.606  1.00  0.00     0.000 C 
BRANCH   4   5
ATOM      5  C   UNL     1      38.169  -7.657   9.847  1.00  0.00     0.001 C 
BRANCH   5   6
ATOM      6  C   UNL     1      36.975  -7.917  10.785  1.00  0.00     0.009 C 
BRANCH   6   7
ATOM      7  C   UNL     1      37.346  -7.971  12.285  1.00  0.00     0.032 C 
ATOM      8  C   UNL     1      37.508  -9.424  12.744  1.00  0.00     0.014 C 
BRANCH   7   9
ATOM      9  C   UNL     1      36.319  -7.275  13.138  1.00  0.00     0.044 C 
ATOM     10  O   UNL     1      36.499  -7.145  14.378  1.00  0.00    -0.550 OA
ATOM     11  O   UNL     1      35.160  -6.776  12.557  1.00  0.00    -0.550 OA
ENDBRANCH   7   9
ENDBRANCH   6   7
ENDBRANCH   5   6
ENDBRANCH   4   5
ENDBRANCH   3   4
ENDBRANCH   2   3
ENDBRANCH   1   2
BRANCH   1  12
ATOM     12  C   UNL     1      41.780  -9.705   8.366  1.00  0.00     0.000 C 
BRANCH  12  13
ATOM     13  C   UNL     1      43.098 -10.489   8.237  1.00  0.00    -0.000 C 
BRANCH  13  14
ATOM     14  C   UNL     1      44.321  -9.572   8.057  1.00  0.00    -0.000 C 
BRANCH  14  15
ATOM     15  C   UNL     1      45.370 -10.168   7.103  1.00  0.00    -0.000 C 
BRANCH  15  16
ATOM     16  C   UNL     1      44.868 -10.249   5.651  1.00  0.00    -0.000 C 
BRANCH  16  17
ATOM     17  C   UNL     1      44.439  -8.882   5.098  1.00  0.00    -0.000 C 
BRANCH  17  18
ATOM     18  C   UNL     1      43.127  -8.949   4.300  1.00  0.00    -0.003 C 
ATOM     19  C   UNL     1      42.345 -10.214   4.635  1.00  0.00     0.004 C 
ENDBRANCH  17  18
ENDBRANCH  16  17
ENDBRANCH  15  16
ENDBRANCH  14  15
ENDBRANCH  13  14
ENDBRANCH  12  13
ENDBRANCH   1  12
TORSDOF 14
ENDMDL
MODEL 6
REMARK VINA RESULT:    -4.338      4.957      9.149
REMARK INTER + INTRA:          -9.374
REMARK INTER:                  -8.399
REMARK INTRA:                  -0.975
REMARK UNBOUND:                -1.486
REMARK SMILES CCCCCCCCCCCCCC[C@H](C)C(=O)[O-]
REMARK SMILES IDX 9 1 10 2 11 3 12 4 13 5 14 6 15 7 16 8 17 9 18 10 19 11 8 12
REMARK SMILES IDX 7 13 6 14 5 15 4 16 3 17 2 18 1 19
REMARK H PARENT
REMARK Flexibility Score: inf
ROOT
ATOM      1  C   UNL     1      42.322  -7.839   7.653  1.00  0.00     0.000 C 
ENDROOT
BRANCH   1   2
ATOM      2  C   UNL     1      42.658  -7.674   6.161  1.00  0.00     0.000 C 
BRANCH   2   3
ATOM      3  C   UNL     1      41.441  -7.269   5.316  1.00  0.00     0.000 C 
BRANCH   3   4
ATOM      4  C   UNL     1      41.598  -7.741   3.865  1.00  0.00     0.000 C 
BRANCH   4   5
ATOM      5  C   UNL     1      40.985  -6.727   2.888  1.00  0.00     0.001 C 
BRANCH   5   6
ATOM      6  C   UNL     1      40.592  -5.402   3.570  1.00  0.00     0.009 C 
BRANCH   6   7
ATOM      7  C   UNL     1      40.689  -4.163   2.650  1.00  0.00     0.032 C 
ATOM      8  C   UNL     1      41.678  -3.144   3.227  1.00  0.00     0.014 C 
BRANCH   7   9
ATOM      9  C   UNL     1      39.345  -3.515   2.446  1.00  0.00     0.044 C 
ATOM     10  O   UNL     1      39.080  -2.407   2.985  1.00  0.00    -0.550 OA
ATOM     11  O   UNL     1      38.386  -4.143   1.663  1.00  0.00    -0.550 OA
ENDBRANCH   7   9
ENDBRANCH   6   7
ENDBRANCH   5   6
ENDBRANCH   4   5
ENDBRANCH   3   4
ENDBRANCH   2   3
ENDBRANCH   1   2
BRANCH   1  12
ATOM     12  C   UNL     1      41.276  -8.926   7.973  1.00  0.00     0.000 C 
BRANCH  12  13
ATOM     13  C   UNL     1      40.174  -8.507   8.962  1.00  0.00    -0.000 C 
BRANCH  13  14
ATOM     14  C   UNL     1      39.476  -7.196   8.558  1.00  0.00    -0.000 C 
BRANCH  14  15
ATOM     15  C   UNL     1      38.356  -6.800   9.533  1.00  0.00    -0.000 C 
BRANCH  15  16
ATOM     16  C   UNL     1      38.265  -7.745  10.744  1.00  0.00    -0.000 C 
BRANCH  16  17
ATOM     17  C   UNL     1      36.832  -8.238  11.001  1.00  0.00    -0.000 C 
BRANCH  17  18
ATOM     18  C   UNL     1      36.101  -7.406  12.066  1.00  0.00    -0.003 C 
ATOM     19  C   UNL     1      37.077  -6.864  13.106  1.00  0.00     0.004 C 
ENDBRANCH  17  18
ENDBRANCH  16  17
ENDBRANCH  15  16
ENDBRANCH  14  15
ENDBRANCH  13  14
ENDBRANCH  12  13
ENDBRANCH   1  12
TORSDOF 14
ENDMDL
MODEL 7
REMARK VINA RESULT:    -4.336      4.565     10.915
REMARK INTER + INTRA:          -9.371
REMARK INTER:                  -8.556
REMARK INTRA:                  -0.814
REMARK UNBOUND:                -1.486
REMARK SMILES CCCCCCCCCCCCCC[C@H](C)C(=O)[O-]
REMARK SMILES IDX 9 1 10 2 11 3 12 4 13 5 14 6 15 7 16 8 17 9 18 10 19 11 8 12
REMARK SMILES IDX 7 13 6 14 5 15 4 16 3 17 2 18 1 19
REMARK H PARENT
REMARK Flexibility Score: inf
ROOT
ATOM      1  C   UNL     1      39.445  -6.447   7.943  1.00  0.00     0.000 C 
ENDROOT
BRANCH   1   2
ATOM      2  C   UNL     1      38.557  -6.463   9.200  1.00  0.00     0.000 C 
BRANCH   2   3
ATOM      3  C   UNL     1      38.445  -7.858   9.833  1.00  0.00     0.000 C 
BRANCH   3   4
ATOM      4  C   UNL     1      38.948  -7.844  11.282  1.00  0.00     0.000 C 
BRANCH   4   5
ATOM      5  C   UNL     1      37.872  -8.372  12.242  1.00  0.00     0.001 C 
BRANCH   5   6
ATOM      6  C   UNL     1      36.440  -8.059  11.766  1.00  0.00     0.009 C 
BRANCH   6   7
ATOM      7  C   UNL     1      35.575  -7.312  12.807  1.00  0.00     0.032 C 
ATOM      8  C   UNL     1      36.446  -6.388  13.664  1.00  0.00     0.014 C 
BRANCH   7   9
ATOM      9  C   UNL     1      34.818  -8.268  13.690  1.00  0.00     0.044 C 
ATOM     10  O   UNL     1      35.182  -9.470  13.792  1.00  0.00    -0.550 OA
ATOM     11  O   UNL     1      33.705  -7.827  14.394  1.00  0.00    -0.550 OA
ENDBRANCH   7   9
ENDBRANCH   6   7
ENDBRANCH   5   6
ENDBRANCH   4   5
ENDBRANCH   3   4
ENDBRANCH   2   3
ENDBRANCH   1   2
BRANCH   1  12
ATOM     12  C   UNL     1      40.693  -7.351   8.011  1.00  0.00     0.000 C 
BRANCH  12  13
ATOM     13  C   UNL     1      41.298  -7.739   6.650  1.00  0.00    -0.000 C 
BRANCH  13  14
ATOM     14  C   UNL     1      40.936  -6.747   5.532  1.00  0.00    -0.000 C 
BRANCH  14  15
ATOM     15  C   UNL     1      41.167  -7.331   4.128  1.00  0.00    -0.000 C 
BRANCH  15  16
ATOM     16  C   UNL     1      41.020  -6.276   3.018  1.00  0.00    -0.000 C 
BRANCH  16  17
ATOM     17  C   UNL     1      40.753  -4.868   3.573  1.00  0.00    -0.000 C 
BRANCH  17  18
ATOM     18  C   UNL     1      40.414  -3.850   2.473  1.00  0.00    -0.003 C 
ATOM     19  C   UNL     1      38.937  -3.918   2.099  1.00  0.00     0.004 C 
ENDBRANCH  17  18
ENDBRANCH  16  17
ENDBRANCH  15  16
ENDBRANCH  14  15
ENDBRANCH  13  14
ENDBRANCH  12  13
ENDBRANCH   1  12
TORSDOF 14
ENDMDL
MODEL 8
REMARK VINA RESULT:    -4.298      4.468      7.950
REMARK INTER + INTRA:          -9.302
REMARK INTER:                  -8.083
REMARK INTRA:                  -1.219
REMARK UNBOUND:                -1.486
REMARK SMILES CCCCCCCCCCCCCC[C@H](C)C(=O)[O-]
REMARK SMILES IDX 9 1 10 2 11 3 12 4 13 5 14 6 15 7 16 8 17 9 18 10 19 11 8 12
REMARK SMILES IDX 7 13 6 14 5 15 4 16 3 17 2 18 1 19
REMARK H PARENT
REMARK Flexibility Score: inf
ROOT
ATOM      1  C   UNL     1      40.650  -7.504   8.013  1.00  0.00     0.000 C 
ENDROOT
BRANCH   1   2
ATOM      2  C   UNL     1      41.316  -8.838   8.392  1.00  0.00     0.000 C 
BRANCH   2   3
ATOM      3  C   UNL     1      42.805  -8.889   8.020  1.00  0.00     0.000 C 
BRANCH   3   4
ATOM      4  C   UNL     1      43.138  -7.849   6.944  1.00  0.00     0.000 C 
BRANCH   4   5
ATOM      5  C   UNL     1      43.394  -8.523   5.588  1.00  0.00     0.001 C 
BRANCH   5   6
ATOM      6  C   UNL     1      42.094  -8.950   4.877  1.00  0.00     0.009 C 
BRANCH   6   7
ATOM      7  C   UNL     1      41.650  -7.997   3.744  1.00  0.00     0.032 C 
ATOM      8  C   UNL     1      40.769  -6.874   4.303  1.00  0.00     0.014 C 
BRANCH   7   9
ATOM      9  C   UNL     1      40.915  -8.732   2.655  1.00  0.00     0.044 C 
ATOM     10  O   UNL     1      40.595  -8.144   1.587  1.00  0.00    -0.550 OA
ATOM     11  O   UNL     1      40.579 -10.069   2.828  1.00  0.00    -0.550 OA
ENDBRANCH   7   9
ENDBRANCH   6   7
ENDBRANCH   5   6
ENDBRANCH   4   5
ENDBRANCH   3   4
ENDBRANCH   2   3
ENDBRANCH   1   2
BRANCH   1  12
ATOM     12  C   UNL     1      40.260  -6.605   9.203  1.00  0.00     0.000 C 
BRANCH  12  13
ATOM     13  C   UNL     1      38.756  -6.296   9.328  1.00  0.00    -0.000 C 
BRANCH  13  14
ATOM     14  C   UNL     1      37.977  -7.413  10.045  1.00  0.00    -0.000 C 
BRANCH  14  15
ATOM     15  C   UNL     1      38.488  -7.665  11.473  1.00  0.00    -0.000 C 
BRANCH  15  16
ATOM     16  C   UNL     1      37.363  -8.070  12.440  1.00  0.00    -0.000 C 
BRANCH  16  17
ATOM     17  C   UNL     1      35.983  -7.575  11.980  1.00  0.00    -0.000 C 
BRANCH  17  18
ATOM     18  C   UNL     1      35.267  -6.734  13.049  1.00  0.00    -0.003 C 
ATOM     19  C   UNL     1      36.257  -6.193  14.076  1.00  0.00     0.004 C 
ENDBRANCH  17  18
ENDBRANCH  16  17
ENDBRANCH  15  16
ENDBRANCH  14  15
ENDBRANCH  13  14
ENDBRANCH  12  13
ENDBRANCH   1  12
TORSDOF 14
ENDMDL
MODEL 9
REMARK VINA RESULT:    -4.281      4.313     10.761
REMARK INTER + INTRA:          -9.270
REMARK INTER:                  -8.003
REMARK INTRA:                  -1.267
REMARK UNBOUND:                -1.486
REMARK SMILES CCCCCCCCCCCCCC[C@H](C)C(=O)[O-]
REMARK SMILES IDX 9 1 10 2 11 3 12 4 13 5 14 6 15 7 16 8 17 9 18 10 19 11 8 12
REMARK SMILES IDX 7 13 6 14 5 15 4 16 3 17 2 18 1 19
REMARK H PARENT
REMARK Flexibility Score: inf
ROOT
ATOM      1  C   UNL     1      40.736  -7.349   8.848  1.00  0.00     0.000 C 
ENDROOT
BRANCH   1   2
ATOM      2  C   UNL     1      39.296  -6.909   8.528  1.00  0.00     0.000 C 
BRANCH   2   3
ATOM      3  C   UNL     1      38.365  -6.981   9.747  1.00  0.00     0.000 C 
BRANCH   3   4
ATOM      4  C   UNL     1      39.115  -7.498  10.981  1.00  0.00     0.000 C 
BRANCH   4   5
ATOM      5  C   UNL     1      38.136  -8.055  12.025  1.00  0.00     0.001 C 
BRANCH   5   6
ATOM      6  C   UNL     1      36.661  -7.794  11.662  1.00  0.00     0.009 C 
BRANCH   6   7
ATOM      7  C   UNL     1      35.848  -7.095  12.775  1.00  0.00     0.032 C 
ATOM      8  C   UNL     1      36.776  -6.287  13.689  1.00  0.00     0.014 C 
BRANCH   7   9
ATOM      9  C   UNL     1      35.058  -8.083  13.591  1.00  0.00     0.044 C 
ATOM     10  O   UNL     1      33.951  -7.756  14.097  1.00  0.00    -0.550 OA
ATOM     11  O   UNL     1      35.553  -9.365  13.795  1.00  0.00    -0.550 OA
ENDBRANCH   7   9
ENDBRANCH   6   7
ENDBRANCH   5   6
ENDBRANCH   4   5
ENDBRANCH   3   4
ENDBRANCH   2   3
ENDBRANCH   1   2
BRANCH   1  12
ATOM     12  C   UNL     1      41.331  -8.392   7.881  1.00  0.00     0.000 C 
BRANCH  12  13
ATOM     13  C   UNL     1      42.851  -8.608   8.002  1.00  0.00    -0.000 C 
BRANCH  13  14
ATOM     14  C   UNL     1      43.627  -8.081   6.782  1.00  0.00    -0.000 C 
BRANCH  14  15
ATOM     15  C   UNL     1      43.767  -9.136   5.672  1.00  0.00    -0.000 C 
BRANCH  15  16
ATOM     16  C   UNL     1      43.296  -8.619   4.302  1.00  0.00    -0.000 C 
BRANCH  16  17
ATOM     17  C   UNL     1      41.837  -8.993   4.001  1.00  0.00    -0.000 C 
BRANCH  17  18
ATOM     18  C   UNL     1      41.001  -7.792   3.530  1.00  0.00    -0.003 C 
ATOM     19  C   UNL     1      40.939  -6.711   4.605  1.00  0.00     0.004 C 
ENDBRANCH  17  18
ENDBRANCH  16  17
ENDBRANCH  15  16
ENDBRANCH  14  15
ENDBRANCH  13  14
ENDBRANCH  12  13
ENDBRANCH   1  12
TORSDOF 14
ENDMDL
