MODEL 1
REMARK VINA RESULT:    -4.010      0.000      0.000
REMARK INTER + INTRA:          -4.332
REMARK INTER:                  -4.245
REMARK INTRA:                  -0.087
REMARK UNBOUND:                -0.087
REMARK SMILES C=C(C)[C@H]1CC=C(C)C(=O)C1
REMARK SMILES IDX 8 1 7 2 6 3 5 4 4 5 11 6 9 7 10 8 2 9 1 10 3 11
REMARK H PARENT
REMARK Flexibility Score: inf
ROOT
ATOM      1  C   UNL     1      75.259  33.959  52.351  1.00  0.00     0.048 C 
ATOM      2  C   UNL     1      74.239  33.863  53.453  1.00  0.00    -0.012 C 
ATOM      3  C   UNL     1      73.553  32.722  53.640  1.00  0.00    -0.019 C 
ATOM      4  C   UNL     1      72.466  32.604  54.677  1.00  0.00     0.036 C 
ATOM      5  C   UNL     1      72.745  33.523  55.881  1.00  0.00     0.025 C 
ATOM      6  C   UNL     1      72.948  34.976  55.412  1.00  0.00     0.089 C 
ATOM      7  C   UNL     1      73.978  35.041  54.317  1.00  0.00     0.158 C 
ATOM      8  O   UNL     1      74.587  36.125  54.110  1.00  0.00    -0.295 OA
ENDROOT
BRANCH   5   9
ATOM      9  C   UNL     1      71.641  33.426  56.925  1.00  0.00    -0.077 C 
ATOM     10  C   UNL     1      71.818  32.679  58.026  1.00  0.00     0.008 C 
ATOM     11  C   UNL     1      70.332  34.158  56.754  1.00  0.00     0.039 C 
ENDBRANCH   5   9
TORSDOF 1
ENDMDL
MODEL 2
REMARK VINA RESULT:    -3.926      1.534      2.246
REMARK INTER + INTRA:          -4.243
REMARK INTER:                  -4.144
REMARK INTRA:                  -0.098
REMARK UNBOUND:                -0.087
REMARK SMILES C=C(C)[C@H]1CC=C(C)C(=O)C1
REMARK SMILES IDX 8 1 7 2 6 3 5 4 4 5 11 6 9 7 10 8 2 9 1 10 3 11
REMARK H PARENT
REMARK Flexibility Score: inf
ROOT
ATOM      1  C   UNL     1      75.374  35.938  51.776  1.00  0.00     0.048 C 
ATOM      2  C   UNL     1      74.649  35.332  52.947  1.00  0.00    -0.012 C 
ATOM      3  C   UNL     1      74.091  36.123  53.879  1.00  0.00    -0.019 C 
ATOM      4  C   UNL     1      73.425  35.563  55.109  1.00  0.00     0.036 C 
ATOM      5  C   UNL     1      72.808  34.180  54.825  1.00  0.00     0.025 C 
ATOM      6  C   UNL     1      73.872  33.226  54.252  1.00  0.00     0.089 C 
ATOM      7  C   UNL     1      74.573  33.855  53.080  1.00  0.00     0.158 C 
ATOM      8  O   UNL     1      75.138  33.114  52.231  1.00  0.00    -0.295 OA
ENDROOT
BRANCH   5   9
ATOM      9  C   UNL     1      72.151  33.597  56.069  1.00  0.00    -0.077 C 
ATOM     10  C   UNL     1      72.727  32.573  56.719  1.00  0.00     0.008 C 
ATOM     11  C   UNL     1      70.851  34.148  56.603  1.00  0.00     0.039 C 
ENDBRANCH   5   9
TORSDOF 1
ENDMDL
MODEL 3
REMARK VINA RESULT:    -3.900      1.886      5.272
REMARK INTER + INTRA:          -4.215
REMARK INTER:                  -4.118
REMARK INTRA:                  -0.097
REMARK UNBOUND:                -0.087
REMARK SMILES C=C(C)[C@H]1CC=C(C)C(=O)C1
REMARK SMILES IDX 8 1 7 2 6 3 5 4 4 5 11 6 9 7 10 8 2 9 1 10 3 11
REMARK H PARENT
REMARK Flexibility Score: inf
ROOT
ATOM      1  C   UNL     1      72.213  34.278  56.110  1.00  0.00     0.048 C 
ATOM      2  C   UNL     1      73.119  34.564  54.943  1.00  0.00    -0.012 C 
ATOM      3  C   UNL     1      73.738  35.754  54.846  1.00  0.00    -0.019 C 
ATOM      4  C   UNL     1      74.590  36.116  53.658  1.00  0.00     0.036 C 
ATOM      5  C   UNL     1      75.255  34.867  53.049  1.00  0.00     0.025 C 
ATOM      6  C   UNL     1      74.191  33.809  52.703  1.00  0.00     0.089 C 
ATOM      7  C   UNL     1      73.307  33.537  53.888  1.00  0.00     0.158 C 
ATOM      8  O   UNL     1      72.688  32.441  53.956  1.00  0.00    -0.295 OA
ENDROOT
BRANCH   5   9
ATOM      9  C   UNL     1      76.101  35.222  51.834  1.00  0.00    -0.077 C 
ATOM     10  C   UNL     1      75.658  36.125  50.944  1.00  0.00     0.008 C 
ATOM     11  C   UNL     1      77.447  34.581  51.599  1.00  0.00     0.039 C 
ENDBRANCH   5   9
TORSDOF 1
ENDMDL
MODEL 4
REMARK VINA RESULT:    -3.859      4.136      6.872
REMARK INTER + INTRA:          -4.171
REMARK INTER:                  -4.074
REMARK INTRA:                  -0.097
REMARK UNBOUND:                -0.087
REMARK SMILES C=C(C)[C@H]1CC=C(C)C(=O)C1
REMARK SMILES IDX 8 1 7 2 6 3 5 4 4 5 11 6 9 7 10 8 2 9 1 10 3 11
REMARK H PARENT
REMARK Flexibility Score: inf
ROOT
ATOM      1  C   UNL     1      73.957  35.799  52.343  1.00  0.00     0.048 C 
ATOM      2  C   UNL     1      75.335  35.318  51.978  1.00  0.00    -0.012 C 
ATOM      3  C   UNL     1      76.156  36.104  51.259  1.00  0.00    -0.019 C 
ATOM      4  C   UNL     1      77.512  35.635  50.801  1.00  0.00     0.036 C 
ATOM      5  C   UNL     1      78.114  34.623  51.794  1.00  0.00     0.025 C 
ATOM      6  C   UNL     1      77.140  33.453  52.024  1.00  0.00     0.089 C 
ATOM      7  C   UNL     1      75.775  33.963  52.395  1.00  0.00     0.158 C 
ATOM      8  O   UNL     1      74.987  33.210  53.028  1.00  0.00    -0.295 OA
ENDROOT
BRANCH   5   9
ATOM      9  C   UNL     1      79.477  34.128  51.328  1.00  0.00    -0.077 C 
ATOM     10  C   UNL     1      80.079  33.111  51.966  1.00  0.00     0.008 C 
ATOM     11  C   UNL     1      80.181  34.757  50.151  1.00  0.00     0.039 C 
ENDBRANCH   5   9
TORSDOF 1
ENDMDL
MODEL 5
REMARK VINA RESULT:    -3.722     15.827     16.576
REMARK INTER + INTRA:          -4.026
REMARK INTER:                  -3.929
REMARK INTRA:                  -0.097
REMARK UNBOUND:                -0.087
REMARK SMILES C=C(C)[C@H]1CC=C(C)C(=O)C1
REMARK SMILES IDX 8 1 7 2 6 3 5 4 4 5 11 6 9 7 10 8 2 9 1 10 3 11
REMARK H PARENT
REMARK Flexibility Score: inf
ROOT
ATOM      1  C   UNL     1      88.087  33.768  65.418  1.00  0.00     0.048 C 
ATOM      2  C   UNL     1      86.924  32.824  65.279  1.00  0.00    -0.012 C 
ATOM      3  C   UNL     1      86.114  32.903  64.208  1.00  0.00    -0.019 C 
ATOM      4  C   UNL     1      84.892  32.033  64.065  1.00  0.00     0.036 C 
ATOM      5  C   UNL     1      85.093  30.674  64.761  1.00  0.00     0.025 C 
ATOM      6  C   UNL     1      85.493  30.878  66.234  1.00  0.00     0.089 C 
ATOM      7  C   UNL     1      86.662  31.820  66.340  1.00  0.00     0.158 C 
ATOM      8  O   UNL     1      87.393  31.778  67.366  1.00  0.00    -0.295 OA
ENDROOT
BRANCH   5   9
ATOM      9  C   UNL     1      83.854  29.796  64.639  1.00  0.00    -0.077 C 
ATOM     10  C   UNL     1      82.631  30.340  64.740  1.00  0.00     0.008 C 
ATOM     11  C   UNL     1      83.964  28.310  64.401  1.00  0.00     0.039 C 
ENDBRANCH   5   9
TORSDOF 1
ENDMDL
MODEL 6
REMARK VINA RESULT:    -3.637     16.063     16.932
REMARK INTER + INTRA:          -3.937
REMARK INTER:                  -3.839
REMARK INTRA:                  -0.098
REMARK UNBOUND:                -0.087
REMARK SMILES C=C(C)[C@H]1CC=C(C)C(=O)C1
REMARK SMILES IDX 8 1 7 2 6 3 5 4 4 5 11 6 9 7 10 8 2 9 1 10 3 11
REMARK H PARENT
REMARK Flexibility Score: inf
ROOT
ATOM      1  C   UNL     1      83.630  28.862  64.331  1.00  0.00     0.048 C 
ATOM      2  C   UNL     1      84.628  29.886  64.800  1.00  0.00    -0.012 C 
ATOM      3  C   UNL     1      85.878  29.511  65.125  1.00  0.00    -0.019 C 
ATOM      4  C   UNL     1      86.886  30.485  65.676  1.00  0.00     0.036 C 
ATOM      5  C   UNL     1      86.642  31.905  65.132  1.00  0.00     0.025 C 
ATOM      6  C   UNL     1      85.193  32.345  65.413  1.00  0.00     0.089 C 
ATOM      7  C   UNL     1      84.219  31.307  64.926  1.00  0.00     0.158 C 
ATOM      8  O   UNL     1      83.034  31.650  64.667  1.00  0.00    -0.295 OA
ENDROOT
BRANCH   5   9
ATOM      9  C   UNL     1      87.644  32.901  65.700  1.00  0.00    -0.077 C 
ATOM     10  C   UNL     1      88.125  32.738  66.943  1.00  0.00     0.008 C 
ATOM     11  C   UNL     1      88.123  34.083  64.892  1.00  0.00     0.039 C 
ENDBRANCH   5   9
TORSDOF 1
ENDMDL
MODEL 7
REMARK VINA RESULT:    -3.449      2.139      5.450
REMARK INTER + INTRA:          -3.738
REMARK INTER:                  -3.641
REMARK INTRA:                  -0.097
REMARK UNBOUND:                -0.087
REMARK SMILES C=C(C)[C@H]1CC=C(C)C(=O)C1
REMARK SMILES IDX 8 1 7 2 6 3 5 4 4 5 11 6 9 7 10 8 2 9 1 10 3 11
REMARK H PARENT
REMARK Flexibility Score: inf
ROOT
ATOM      1  C   UNL     1      72.593  33.443  54.121  1.00  0.00     0.048 C 
ATOM      2  C   UNL     1      73.851  34.031  53.543  1.00  0.00    -0.012 C 
ATOM      3  C   UNL     1      74.648  33.284  52.760  1.00  0.00    -0.019 C 
ATOM      4  C   UNL     1      75.957  33.803  52.224  1.00  0.00     0.036 C 
ATOM      5  C   UNL     1      75.904  35.328  52.010  1.00  0.00     0.025 C 
ATOM      6  C   UNL     1      75.484  36.037  53.311  1.00  0.00     0.089 C 
ATOM      7  C   UNL     1      74.220  35.434  53.861  1.00  0.00     0.158 C 
ATOM      8  O   UNL     1      73.498  36.118  54.633  1.00  0.00    -0.295 OA
ENDROOT
BRANCH   5   9
ATOM      9  C   UNL     1      77.230  35.864  51.489  1.00  0.00    -0.077 C 
ATOM     10  C   UNL     1      78.235  36.123  52.341  1.00  0.00     0.008 C 
ATOM     11  C   UNL     1      77.453  36.114  50.017  1.00  0.00     0.039 C 
ENDBRANCH   5   9
TORSDOF 1
ENDMDL
MODEL 8
REMARK VINA RESULT:    -3.437     16.227     17.118
REMARK INTER + INTRA:          -3.725
REMARK INTER:                  -3.635
REMARK INTRA:                  -0.089
REMARK UNBOUND:                -0.087
REMARK SMILES C=C(C)[C@H]1CC=C(C)C(=O)C1
REMARK SMILES IDX 8 1 7 2 6 3 5 4 4 5 11 6 9 7 10 8 2 9 1 10 3 11
REMARK H PARENT
REMARK Flexibility Score: inf
ROOT
ATOM      1  C   UNL     1      83.126  29.379  64.341  1.00  0.00     0.048 C 
ATOM      2  C   UNL     1      84.297  30.262  64.677  1.00  0.00    -0.012 C 
ATOM      3  C   UNL     1      84.164  31.600  64.648  1.00  0.00    -0.019 C 
ATOM      4  C   UNL     1      85.326  32.524  64.898  1.00  0.00     0.036 C 
ATOM      5  C   UNL     1      86.344  31.889  65.864  1.00  0.00     0.025 C 
ATOM      6  C   UNL     1      86.795  30.513  65.339  1.00  0.00     0.089 C 
ATOM      7  C   UNL     1      85.605  29.650  65.019  1.00  0.00     0.158 C 
ATOM      8  O   UNL     1      85.742  28.397  65.000  1.00  0.00    -0.295 OA
ENDROOT
BRANCH   5   9
ATOM      9  C   UNL     1      87.533  32.808  66.107  1.00  0.00    -0.077 C 
ATOM     10  C   UNL     1      88.124  32.842  67.312  1.00  0.00     0.008 C 
ATOM     11  C   UNL     1      88.076  33.696  65.013  1.00  0.00     0.039 C 
ENDBRANCH   5   9
TORSDOF 1
ENDMDL
