MODEL 1
REMARK VINA RESULT:    -4.721      0.000      0.000
REMARK INTER + INTRA:          -7.947
REMARK INTER:                  -7.482
REMARK INTRA:                  -0.465
REMARK UNBOUND:                -0.465
REMARK SMILES CCCCCCCCCCCC(=O)[O-]
REMARK SMILES IDX 7 1 8 2 9 3 10 4 11 5 12 6 13 7 14 8 6 9 5 10 4 11 3 12 2 13
REMARK SMILES IDX 1 14
REMARK H PARENT
REMARK Flexibility Score: inf
ROOT
ATOM      1  C   UNL     1       5.753  -7.249 -22.508  1.00  0.00     0.000 C 
ENDROOT
BRANCH   1   2
ATOM      2  C   UNL     1       4.469  -6.750 -21.823  1.00  0.00     0.000 C 
BRANCH   2   3
ATOM      3  C   UNL     1       4.763  -5.827 -20.628  1.00  0.00     0.000 C 
BRANCH   3   4
ATOM      4  C   UNL     1       4.235  -6.387 -19.294  1.00  0.00     0.006 C 
BRANCH   4   5
ATOM      5  C   UNL     1       3.556  -5.335 -18.400  1.00  0.00     0.053 C 
BRANCH   5   6
ATOM      6  C   UNL     1       4.288  -4.027 -18.392  1.00  0.00     0.041 C 
ATOM      7  O   UNL     1       3.788  -3.019 -18.957  1.00  0.00    -0.550 OA
ATOM      8  O   UNL     1       5.539  -3.929 -17.795  1.00  0.00    -0.550 OA
ENDBRANCH   5   6
ENDBRANCH   4   5
ENDBRANCH   3   4
ENDBRANCH   2   3
ENDBRANCH   1   2
BRANCH   1   9
ATOM      9  C   UNL     1       5.978  -8.758 -22.308  1.00  0.00     0.000 C 
BRANCH   9  10
ATOM     10  C   UNL     1       7.039  -9.329 -23.263  1.00  0.00    -0.000 C 
BRANCH  10  11
ATOM     11  C   UNL     1       6.656 -10.709 -23.820  1.00  0.00    -0.000 C 
BRANCH  11  12
ATOM     12  C   UNL     1       5.256 -11.121 -23.342  1.00  0.00    -0.000 C 
BRANCH  12  13
ATOM     13  C   UNL     1       5.245 -12.500 -22.663  1.00  0.00    -0.003 C 
ATOM     14  C   UNL     1       3.998 -12.728 -21.809  1.00  0.00     0.004 C 
ENDBRANCH  12  13
ENDBRANCH  11  12
ENDBRANCH  10  11
ENDBRANCH   9  10
ENDBRANCH   1   9
TORSDOF 10
ENDMDL
MODEL 2
REMARK VINA RESULT:    -4.716      1.446      2.293
REMARK INTER + INTRA:          -7.938
REMARK INTER:                  -7.314
REMARK INTRA:                  -0.624
REMARK UNBOUND:                -0.465
REMARK SMILES CCCCCCCCCCCC(=O)[O-]
REMARK SMILES IDX 7 1 8 2 9 3 10 4 11 5 12 6 13 7 14 8 6 9 5 10 4 11 3 12 2 13
REMARK SMILES IDX 1 14
REMARK H PARENT
REMARK Flexibility Score: inf
ROOT
ATOM      1  C   UNL     1       4.507  -7.324 -20.286  1.00  0.00     0.000 C 
ENDROOT
BRANCH   1   2
ATOM      2  C   UNL     1       3.135  -6.777 -19.857  1.00  0.00     0.000 C 
BRANCH   2   3
ATOM      3  C   UNL     1       3.228  -5.864 -18.623  1.00  0.00     0.000 C 
BRANCH   3   4
ATOM      4  C   UNL     1       4.620  -5.228 -18.449  1.00  0.00     0.006 C 
BRANCH   4   5
ATOM      5  C   UNL     1       4.597  -3.695 -18.324  1.00  0.00     0.053 C 
BRANCH   5   6
ATOM      6  C   UNL     1       3.822  -3.039 -19.427  1.00  0.00     0.041 C 
ATOM      7  O   UNL     1       4.226  -3.116 -20.617  1.00  0.00    -0.550 OA
ATOM      8  O   UNL     1       2.674  -2.311 -19.138  1.00  0.00    -0.550 OA
ENDBRANCH   5   6
ENDBRANCH   4   5
ENDBRANCH   3   4
ENDBRANCH   2   3
ENDBRANCH   1   2
BRANCH   1   9
ATOM      9  C   UNL     1       4.526  -7.778 -21.756  1.00  0.00     0.000 C 
BRANCH   9  10
ATOM     10  C   UNL     1       5.937  -7.747 -22.366  1.00  0.00    -0.000 C 
BRANCH  10  11
ATOM     11  C   UNL     1       6.440  -9.140 -22.773  1.00  0.00    -0.000 C 
BRANCH  11  12
ATOM     12  C   UNL     1       5.326 -10.187 -22.628  1.00  0.00    -0.000 C 
BRANCH  12  13
ATOM     13  C   UNL     1       5.569 -11.433 -23.494  1.00  0.00    -0.003 C 
ATOM     14  C   UNL     1       6.840 -11.328 -24.337  1.00  0.00     0.004 C 
ENDBRANCH  12  13
ENDBRANCH  11  12
ENDBRANCH  10  11
ENDBRANCH   9  10
ENDBRANCH   1   9
TORSDOF 10
ENDMDL
MODEL 3
REMARK VINA RESULT:    -4.679      1.199      1.633
REMARK INTER + INTRA:          -7.879
REMARK INTER:                  -7.192
REMARK INTRA:                  -0.687
REMARK UNBOUND:                -0.465
REMARK SMILES CCCCCCCCCCCC(=O)[O-]
REMARK SMILES IDX 7 1 8 2 9 3 10 4 11 5 12 6 13 7 14 8 6 9 5 10 4 11 3 12 2 13
REMARK SMILES IDX 1 14
REMARK H PARENT
REMARK Flexibility Score: inf
ROOT
ATOM      1  C   UNL     1       5.048  -7.178 -21.505  1.00  0.00     0.000 C 
ENDROOT
BRANCH   1   2
ATOM      2  C   UNL     1       4.384  -8.277 -20.657  1.00  0.00     0.000 C 
BRANCH   2   3
ATOM      3  C   UNL     1       2.953  -7.905 -20.232  1.00  0.00     0.000 C 
BRANCH   3   4
ATOM      4  C   UNL     1       2.773  -6.395 -19.987  1.00  0.00     0.006 C 
BRANCH   4   5
ATOM      5  C   UNL     1       3.162  -5.941 -18.570  1.00  0.00     0.053 C 
BRANCH   5   6
ATOM      6  C   UNL     1       3.894  -4.633 -18.566  1.00  0.00     0.041 C 
ATOM      7  O   UNL     1       5.131  -4.599 -18.799  1.00  0.00    -0.550 OA
ATOM      8  O   UNL     1       3.220  -3.455 -18.267  1.00  0.00    -0.550 OA
ENDBRANCH   5   6
ENDBRANCH   4   5
ENDBRANCH   3   4
ENDBRANCH   2   3
ENDBRANCH   1   2
BRANCH   1   9
ATOM      9  C   UNL     1       6.028  -7.749 -22.544  1.00  0.00     0.000 C 
BRANCH   9  10
ATOM     10  C   UNL     1       6.154  -9.279 -22.460  1.00  0.00    -0.000 C 
BRANCH  10  11
ATOM     11  C   UNL     1       6.850  -9.887 -23.687  1.00  0.00    -0.000 C 
BRANCH  11  12
ATOM     12  C   UNL     1       6.343 -11.312 -23.953  1.00  0.00    -0.000 C 
BRANCH  12  13
ATOM     13  C   UNL     1       5.173 -11.704 -23.037  1.00  0.00    -0.003 C 
ATOM     14  C   UNL     1       3.827 -11.699 -23.762  1.00  0.00     0.004 C 
ENDBRANCH  12  13
ENDBRANCH  11  12
ENDBRANCH  10  11
ENDBRANCH   9  10
ENDBRANCH   1   9
TORSDOF 10
ENDMDL
MODEL 4
REMARK VINA RESULT:    -4.548     13.482     14.624
REMARK INTER + INTRA:          -7.671
REMARK INTER:                  -6.916
REMARK INTRA:                  -0.755
REMARK UNBOUND:                -0.465
REMARK SMILES CCCCCCCCCCCC(=O)[O-]
REMARK SMILES IDX 7 1 8 2 9 3 10 4 11 5 12 6 13 7 14 8 6 9 5 10 4 11 3 12 2 13
REMARK SMILES IDX 1 14
REMARK H PARENT
REMARK Flexibility Score: inf
ROOT
ATOM      1  C   UNL     1       0.437 -11.303 -32.544  1.00  0.00     0.000 C 
ENDROOT
BRANCH   1   2
ATOM      2  C   UNL     1       1.332 -12.026 -33.565  1.00  0.00     0.000 C 
BRANCH   2   3
ATOM      3  C   UNL     1       1.501 -11.224 -34.867  1.00  0.00     0.000 C 
BRANCH   3   4
ATOM      4  C   UNL     1       2.411  -9.992 -34.699  1.00  0.00     0.006 C 
BRANCH   4   5
ATOM      5  C   UNL     1       3.885 -10.250 -35.057  1.00  0.00     0.053 C 
BRANCH   5   6
ATOM      6  C   UNL     1       4.565  -9.032 -35.605  1.00  0.00     0.041 C 
ATOM      7  O   UNL     1       4.931  -8.999 -36.809  1.00  0.00    -0.550 OA
ATOM      8  O   UNL     1       4.831  -7.947 -34.778  1.00  0.00    -0.550 OA
ENDBRANCH   5   6
ENDBRANCH   4   5
ENDBRANCH   3   4
ENDBRANCH   2   3
ENDBRANCH   1   2
BRANCH   1   9
ATOM      9  C   UNL     1      -1.027 -11.208 -33.007  1.00  0.00     0.000 C 
BRANCH   9  10
ATOM     10  C   UNL     1      -1.999 -10.950 -31.845  1.00  0.00    -0.000 C 
BRANCH  10  11
ATOM     11  C   UNL     1      -2.501 -12.247 -31.191  1.00  0.00    -0.000 C 
BRANCH  11  12
ATOM     12  C   UNL     1      -2.776 -13.323 -32.251  1.00  0.00    -0.000 C 
BRANCH  12  13
ATOM     13  C   UNL     1      -2.370 -14.730 -31.785  1.00  0.00    -0.003 C 
ATOM     14  C   UNL     1      -0.862 -14.970 -31.875  1.00  0.00     0.004 C 
ENDBRANCH  12  13
ENDBRANCH  11  12
ENDBRANCH  10  11
ENDBRANCH   9  10
ENDBRANCH   1   9
TORSDOF 10
ENDMDL
MODEL 5
REMARK VINA RESULT:    -4.545      2.905      3.383
REMARK INTER + INTRA:          -7.667
REMARK INTER:                  -6.876
REMARK INTRA:                  -0.790
REMARK UNBOUND:                -0.465
REMARK SMILES CCCCCCCCCCCC(=O)[O-]
REMARK SMILES IDX 7 1 8 2 9 3 10 4 11 5 12 6 13 7 14 8 6 9 5 10 4 11 3 12 2 13
REMARK SMILES IDX 1 14
REMARK H PARENT
REMARK Flexibility Score: inf
ROOT
ATOM      1  C   UNL     1       5.932  -8.403 -22.032  1.00  0.00     0.000 C 
ENDROOT
BRANCH   1   2
ATOM      2  C   UNL     1       5.522  -6.973 -22.423  1.00  0.00     0.000 C 
BRANCH   2   3
ATOM      3  C   UNL     1       4.900  -6.200 -21.248  1.00  0.00     0.000 C 
BRANCH   3   4
ATOM      4  C   UNL     1       4.376  -7.122 -20.132  1.00  0.00     0.006 C 
BRANCH   4   5
ATOM      5  C   UNL     1       2.854  -7.346 -20.167  1.00  0.00     0.053 C 
BRANCH   5   6
ATOM      6  C   UNL     1       2.479  -8.650 -20.803  1.00  0.00     0.041 C 
ATOM      7  O   UNL     1       2.411  -9.697 -20.108  1.00  0.00    -0.550 OA
ATOM      8  O   UNL     1       2.241  -8.718 -22.170  1.00  0.00    -0.550 OA
ENDBRANCH   5   6
ENDBRANCH   4   5
ENDBRANCH   3   4
ENDBRANCH   2   3
ENDBRANCH   1   2
BRANCH   1   9
ATOM      9  C   UNL     1       6.799  -9.081 -23.107  1.00  0.00     0.000 C 
BRANCH   9  10
ATOM     10  C   UNL     1       6.307 -10.494 -23.458  1.00  0.00    -0.000 C 
BRANCH  10  11
ATOM     11  C   UNL     1       5.037 -10.890 -22.690  1.00  0.00    -0.000 C 
BRANCH  11  12
ATOM     12  C   UNL     1       4.652 -12.348 -22.984  1.00  0.00    -0.000 C 
BRANCH  12  13
ATOM     13  C   UNL     1       4.606 -13.214 -21.716  1.00  0.00    -0.003 C 
ATOM     14  C   UNL     1       5.683 -14.299 -21.701  1.00  0.00     0.004 C 
ENDBRANCH  12  13
ENDBRANCH  11  12
ENDBRANCH  10  11
ENDBRANCH   9  10
ENDBRANCH   1   9
TORSDOF 10
ENDMDL
MODEL 6
REMARK VINA RESULT:    -4.543      4.830      7.744
REMARK INTER + INTRA:          -7.663
REMARK INTER:                  -7.203
REMARK INTRA:                  -0.460
REMARK UNBOUND:                -0.465
REMARK SMILES CCCCCCCCCCCC(=O)[O-]
REMARK SMILES IDX 7 1 8 2 9 3 10 4 11 5 12 6 13 7 14 8 6 9 5 10 4 11 3 12 2 13
REMARK SMILES IDX 1 14
REMARK H PARENT
REMARK Flexibility Score: inf
ROOT
ATOM      1  C   UNL     1       5.476  -9.726 -22.424  1.00  0.00     0.000 C 
ENDROOT
BRANCH   1   2
ATOM      2  C   UNL     1       6.024 -10.686 -23.494  1.00  0.00     0.000 C 
BRANCH   2   3
ATOM      3  C   UNL     1       5.256 -12.018 -23.534  1.00  0.00     0.000 C 
BRANCH   3   4
ATOM      4  C   UNL     1       4.754 -12.465 -22.149  1.00  0.00     0.006 C 
BRANCH   4   5
ATOM      5  C   UNL     1       5.174 -13.893 -21.761  1.00  0.00     0.053 C 
BRANCH   5   6
ATOM      6  C   UNL     1       4.076 -14.892 -21.970  1.00  0.00     0.041 C 
ATOM      7  O   UNL     1       2.872 -14.530 -21.918  1.00  0.00    -0.550 OA
ATOM      8  O   UNL     1       4.381 -16.231 -22.186  1.00  0.00    -0.550 OA
ENDBRANCH   5   6
ENDBRANCH   4   5
ENDBRANCH   3   4
ENDBRANCH   2   3
ENDBRANCH   1   2
BRANCH   1   9
ATOM      9  C   UNL     1       6.133  -8.337 -22.488  1.00  0.00     0.000 C 
BRANCH   9  10
ATOM     10  C   UNL     1       5.267  -7.242 -21.844  1.00  0.00    -0.000 C 
BRANCH  10  11
ATOM     11  C   UNL     1       4.515  -7.736 -20.598  1.00  0.00    -0.000 C 
BRANCH  11  12
ATOM     12  C   UNL     1       3.300  -6.843 -20.304  1.00  0.00    -0.000 C 
BRANCH  12  13
ATOM     13  C   UNL     1       3.390  -6.155 -18.933  1.00  0.00    -0.003 C 
ATOM     14  C   UNL     1       4.596  -5.223 -18.818  1.00  0.00     0.004 C 
ENDBRANCH  12  13
ENDBRANCH  11  12
ENDBRANCH  10  11
ENDBRANCH   9  10
ENDBRANCH   1   9
TORSDOF 10
ENDMDL
MODEL 7
REMARK VINA RESULT:    -4.542      3.985      7.222
REMARK INTER + INTRA:          -7.662
REMARK INTER:                  -7.018
REMARK INTRA:                  -0.644
REMARK UNBOUND:                -0.465
REMARK SMILES CCCCCCCCCCCC(=O)[O-]
REMARK SMILES IDX 7 1 8 2 9 3 10 4 11 5 12 6 13 7 14 8 6 9 5 10 4 11 3 12 2 13
REMARK SMILES IDX 1 14
REMARK H PARENT
REMARK Flexibility Score: inf
ROOT
ATOM      1  C   UNL     1       5.873  -7.469 -22.483  1.00  0.00     0.000 C 
ENDROOT
BRANCH   1   2
ATOM      2  C   UNL     1       5.916  -8.977 -22.184  1.00  0.00     0.000 C 
BRANCH   2   3
ATOM      3  C   UNL     1       6.664  -9.769 -23.269  1.00  0.00     0.000 C 
BRANCH   3   4
ATOM      4  C   UNL     1       5.969 -11.095 -23.631  1.00  0.00     0.006 C 
BRANCH   4   5
ATOM      5  C   UNL     1       4.612 -11.300 -22.936  1.00  0.00     0.053 C 
BRANCH   5   6
ATOM      6  C   UNL     1       4.503 -12.638 -22.269  1.00  0.00     0.041 C 
ATOM      7  O   UNL     1       5.503 -13.400 -22.213  1.00  0.00    -0.550 OA
ATOM      8  O   UNL     1       3.289 -13.060 -21.741  1.00  0.00    -0.550 OA
ENDBRANCH   5   6
ENDBRANCH   4   5
ENDBRANCH   3   4
ENDBRANCH   2   3
ENDBRANCH   1   2
BRANCH   1   9
ATOM      9  C   UNL     1       4.741  -6.751 -21.728  1.00  0.00     0.000 C 
BRANCH   9  10
ATOM     10  C   UNL     1       4.456  -7.378 -20.354  1.00  0.00    -0.000 C 
BRANCH  10  11
ATOM     11  C   UNL     1       3.130  -6.899 -19.745  1.00  0.00    -0.000 C 
BRANCH  11  12
ATOM     12  C   UNL     1       3.242  -5.443 -19.269  1.00  0.00    -0.000 C 
BRANCH  12  13
ATOM     13  C   UNL     1       4.521  -5.183 -18.457  1.00  0.00    -0.003 C 
ATOM     14  C   UNL     1       5.237  -3.899 -18.877  1.00  0.00     0.004 C 
ENDBRANCH  12  13
ENDBRANCH  11  12
ENDBRANCH  10  11
ENDBRANCH   9  10
ENDBRANCH   1   9
TORSDOF 10
ENDMDL
MODEL 8
REMARK VINA RESULT:    -4.474      4.333      6.583
REMARK INTER + INTRA:          -7.554
REMARK INTER:                  -6.428
REMARK INTRA:                  -1.125
REMARK UNBOUND:                -0.465
REMARK SMILES CCCCCCCCCCCC(=O)[O-]
REMARK SMILES IDX 7 1 8 2 9 3 10 4 11 5 12 6 13 7 14 8 6 9 5 10 4 11 3 12 2 13
REMARK SMILES IDX 1 14
REMARK H PARENT
REMARK Flexibility Score: inf
ROOT
ATOM      1  C   UNL     1       5.949  -8.791 -22.190  1.00  0.00     0.000 C 
ENDROOT
BRANCH   1   2
ATOM      2  C   UNL     1       6.967  -9.375 -23.184  1.00  0.00     0.000 C 
BRANCH   2   3
ATOM      3  C   UNL     1       6.514 -10.728 -23.759  1.00  0.00     0.000 C 
BRANCH   3   4
ATOM      4  C   UNL     1       5.110 -11.144 -23.284  1.00  0.00     0.006 C 
BRANCH   4   5
ATOM      5  C   UNL     1       5.078 -12.472 -22.509  1.00  0.00     0.053 C 
BRANCH   5   6
ATOM      6  C   UNL     1       3.703 -13.066 -22.440  1.00  0.00     0.041 C 
ATOM      7  O   UNL     1       2.730 -12.472 -22.973  1.00  0.00    -0.550 OA
ATOM      8  O   UNL     1       3.489 -14.256 -21.755  1.00  0.00    -0.550 OA
ENDBRANCH   5   6
ENDBRANCH   4   5
ENDBRANCH   3   4
ENDBRANCH   2   3
ENDBRANCH   1   2
BRANCH   1   9
ATOM      9  C   UNL     1       5.609  -7.321 -22.491  1.00  0.00     0.000 C 
BRANCH   9  10
ATOM     10  C   UNL     1       4.918  -6.620 -21.310  1.00  0.00    -0.000 C 
BRANCH  10  11
ATOM     11  C   UNL     1       4.369  -7.609 -20.270  1.00  0.00    -0.000 C 
BRANCH  11  12
ATOM     12  C   UNL     1       2.847  -7.756 -20.406  1.00  0.00    -0.000 C 
BRANCH  12  13
ATOM     13  C   UNL     1       2.436  -9.090 -21.050  1.00  0.00    -0.003 C 
ATOM     14  C   UNL     1       2.172  -8.965 -22.550  1.00  0.00     0.004 C 
ENDBRANCH  12  13
ENDBRANCH  11  12
ENDBRANCH  10  11
ENDBRANCH   9  10
ENDBRANCH   1   9
TORSDOF 10
ENDMDL
MODEL 9
REMARK VINA RESULT:    -4.468      3.810      6.273
REMARK INTER + INTRA:          -7.545
REMARK INTER:                  -6.552
REMARK INTRA:                  -0.993
REMARK UNBOUND:                -0.465
REMARK SMILES CCCCCCCCCCCC(=O)[O-]
REMARK SMILES IDX 7 1 8 2 9 3 10 4 11 5 12 6 13 7 14 8 6 9 5 10 4 11 3 12 2 13
REMARK SMILES IDX 1 14
REMARK H PARENT
REMARK Flexibility Score: inf
ROOT
ATOM      1  C   UNL     1       6.986  -9.742 -23.624  1.00  0.00     0.000 C 
ENDROOT
BRANCH   1   2
ATOM      2  C   UNL     1       6.460 -11.136 -24.005  1.00  0.00     0.000 C 
BRANCH   2   3
ATOM      3  C   UNL     1       5.344 -11.619 -23.063  1.00  0.00     0.000 C 
BRANCH   3   4
ATOM      4  C   UNL     1       3.953 -11.604 -23.724  1.00  0.00     0.006 C 
BRANCH   4   5
ATOM      5  C   UNL     1       2.871 -10.896 -22.890  1.00  0.00     0.053 C 
BRANCH   5   6
ATOM      6  C   UNL     1       2.430 -11.709 -21.710  1.00  0.00     0.041 C 
ATOM      7  O   UNL     1       2.091 -11.140 -20.640  1.00  0.00    -0.550 OA
ATOM      8  O   UNL     1       2.428 -13.097 -21.779  1.00  0.00    -0.550 OA
ENDBRANCH   5   6
ENDBRANCH   4   5
ENDBRANCH   3   4
ENDBRANCH   2   3
ENDBRANCH   1   2
BRANCH   1   9
ATOM      9  C   UNL     1       6.228  -9.132 -22.432  1.00  0.00     0.000 C 
BRANCH   9  10
ATOM     10  C   UNL     1       6.019  -7.616 -22.576  1.00  0.00    -0.000 C 
BRANCH  10  11
ATOM     11  C   UNL     1       4.800  -7.107 -21.793  1.00  0.00    -0.000 C 
BRANCH  11  12
ATOM     12  C   UNL     1       4.332  -8.152 -20.770  1.00  0.00    -0.000 C 
BRANCH  12  13
ATOM     13  C   UNL     1       2.969  -7.804 -20.150  1.00  0.00    -0.003 C 
ATOM     14  C   UNL     1       2.983  -6.471 -19.401  1.00  0.00     0.004 C 
ENDBRANCH  12  13
ENDBRANCH  11  12
ENDBRANCH  10  11
ENDBRANCH   9  10
ENDBRANCH   1   9
TORSDOF 10
ENDMDL
