MODEL 1
REMARK VINA RESULT:    -3.962      0.000      0.000
REMARK INTER + INTRA:          -8.232
REMARK INTER:                  -6.742
REMARK INTRA:                  -1.490
REMARK UNBOUND:                -1.490
REMARK SMILES CCCCCCCCCCCCCC(=O)[O-]
REMARK SMILES IDX 8 1 9 2 10 3 11 4 12 5 13 6 14 7 15 8 16 9 7 10 6 11 5 12
REMARK SMILES IDX 4 13 3 14 2 15 1 16
REMARK H PARENT
REMARK Flexibility Score: inf
ROOT
ATOM      1  C   UNL     1     -13.139 -13.568  22.009  1.00  0.00     0.000 C 
ENDROOT
BRANCH   1   2
ATOM      2  C   UNL     1     -14.573 -13.561  21.456  1.00  0.00     0.000 C 
BRANCH   2   3
ATOM      3  C   UNL     1     -15.046 -12.151  21.062  1.00  0.00     0.000 C 
BRANCH   3   4
ATOM      4  C   UNL     1     -15.091 -11.938  19.538  1.00  0.00     0.000 C 
BRANCH   4   5
ATOM      5  C   UNL     1     -14.001 -12.677  18.742  1.00  0.00     0.006 C 
BRANCH   5   6
ATOM      6  C   UNL     1     -12.854 -11.758  18.302  1.00  0.00     0.053 C 
BRANCH   6   7
ATOM      7  C   UNL     1     -11.566 -12.518  18.250  1.00  0.00     0.041 C 
ATOM      8  O   UNL     1     -10.993 -12.867  19.315  1.00  0.00    -0.550 OA
ATOM      9  O   UNL     1     -11.025 -12.885  17.024  1.00  0.00    -0.550 OA
ENDBRANCH   6   7
ENDBRANCH   5   6
ENDBRANCH   4   5
ENDBRANCH   3   4
ENDBRANCH   2   3
ENDBRANCH   1   2
BRANCH   1  10
ATOM     10  C   UNL     1     -12.838 -14.810  22.862  1.00  0.00     0.000 C 
BRANCH  10  11
ATOM     11  C   UNL     1     -14.073 -15.239  23.662  1.00  0.00    -0.000 C 
BRANCH  11  12
ATOM     12  C   UNL     1     -14.301 -16.753  23.551  1.00  0.00    -0.000 C 
BRANCH  12  13
ATOM     13  C   UNL     1     -15.044 -17.155  22.263  1.00  0.00    -0.000 C 
BRANCH  13  14
ATOM     14  C   UNL     1     -14.139 -17.623  21.106  1.00  0.00    -0.000 C 
BRANCH  14  15
ATOM     15  C   UNL     1     -14.436 -16.973  19.744  1.00  0.00    -0.003 C 
ATOM     16  C   UNL     1     -13.230 -16.241  19.158  1.00  0.00     0.004 C 
ENDBRANCH  14  15
ENDBRANCH  13  14
ENDBRANCH  12  13
ENDBRANCH  11  12
ENDBRANCH  10  11
ENDBRANCH   1  10
TORSDOF 12
ENDMDL
MODEL 2
REMARK VINA RESULT:    -3.850      0.804      2.710
REMARK INTER + INTRA:          -8.041
REMARK INTER:                  -6.443
REMARK INTRA:                  -1.599
REMARK UNBOUND:                -1.490
REMARK SMILES CCCCCCCCCCCCCC(=O)[O-]
REMARK SMILES IDX 8 1 9 2 10 3 11 4 12 5 13 6 14 7 15 8 16 9 7 10 6 11 5 12
REMARK SMILES IDX 4 13 3 14 2 15 1 16
REMARK H PARENT
REMARK Flexibility Score: inf
ROOT
ATOM      1  C   UNL     1     -13.438 -15.449  19.429  1.00  0.00     0.000 C 
ENDROOT
BRANCH   1   2
ATOM      2  C   UNL     1     -14.721 -14.646  19.160  1.00  0.00     0.000 C 
BRANCH   2   3
ATOM      3  C   UNL     1     -14.938 -13.520  20.185  1.00  0.00     0.000 C 
BRANCH   3   4
ATOM      4  C   UNL     1     -14.530 -12.135  19.650  1.00  0.00     0.000 C 
BRANCH   4   5
ATOM      5  C   UNL     1     -13.937 -12.132  18.229  1.00  0.00     0.006 C 
BRANCH   5   6
ATOM      6  C   UNL     1     -12.554 -11.469  18.159  1.00  0.00     0.053 C 
BRANCH   6   7
ATOM      7  C   UNL     1     -11.476 -12.506  18.190  1.00  0.00     0.041 C 
ATOM      8  O   UNL     1     -11.023 -12.982  17.116  1.00  0.00    -0.550 OA
ATOM      9  O   UNL     1     -10.934 -12.909  19.404  1.00  0.00    -0.550 OA
ENDBRANCH   6   7
ENDBRANCH   5   6
ENDBRANCH   4   5
ENDBRANCH   3   4
ENDBRANCH   2   3
ENDBRANCH   1   2
BRANCH   1  10
ATOM     10  C   UNL     1     -13.606 -16.950  19.150  1.00  0.00     0.000 C 
BRANCH  10  11
ATOM     11  C   UNL     1     -14.797 -17.522  19.926  1.00  0.00    -0.000 C 
BRANCH  11  12
ATOM     12  C   UNL     1     -14.370 -17.981  21.328  1.00  0.00    -0.000 C 
BRANCH  12  13
ATOM     13  C   UNL     1     -14.995 -17.133  22.452  1.00  0.00    -0.000 C 
BRANCH  13  14
ATOM     14  C   UNL     1     -13.984 -16.457  23.399  1.00  0.00    -0.000 C 
BRANCH  14  15
ATOM     15  C   UNL     1     -13.915 -14.924  23.288  1.00  0.00    -0.003 C 
ATOM     16  C   UNL     1     -12.534 -14.419  22.873  1.00  0.00     0.004 C 
ENDBRANCH  14  15
ENDBRANCH  13  14
ENDBRANCH  12  13
ENDBRANCH  11  12
ENDBRANCH  10  11
ENDBRANCH   1  10
TORSDOF 12
ENDMDL
MODEL 3
REMARK VINA RESULT:    -3.807      2.342      5.606
REMARK INTER + INTRA:          -7.968
REMARK INTER:                  -6.917
REMARK INTRA:                  -1.050
REMARK UNBOUND:                -1.490
REMARK SMILES CCCCCCCCCCCCCC(=O)[O-]
REMARK SMILES IDX 8 1 9 2 10 3 11 4 12 5 13 6 14 7 15 8 16 9 7 10 6 11 5 12
REMARK SMILES IDX 4 13 3 14 2 15 1 16
REMARK H PARENT
REMARK Flexibility Score: inf
ROOT
ATOM      1  C   UNL     1     -13.285 -15.981  19.215  1.00  0.00     0.000 C 
ENDROOT
BRANCH   1   2
ATOM      2  C   UNL     1     -13.810 -17.245  19.913  1.00  0.00     0.000 C 
BRANCH   2   3
ATOM      3  C   UNL     1     -14.864 -16.931  20.988  1.00  0.00     0.000 C 
BRANCH   3   4
ATOM      4  C   UNL     1     -14.396 -17.288  22.411  1.00  0.00     0.000 C 
BRANCH   4   5
ATOM      5  C   UNL     1     -13.996 -16.087  23.288  1.00  0.00     0.006 C 
BRANCH   5   6
ATOM      6  C   UNL     1     -14.923 -14.878  23.104  1.00  0.00     0.053 C 
BRANCH   6   7
ATOM      7  C   UNL     1     -14.121 -13.627  22.929  1.00  0.00     0.041 C 
ATOM      8  O   UNL     1     -14.669 -12.577  22.503  1.00  0.00    -0.550 OA
ATOM      9  O   UNL     1     -12.778 -13.607  23.285  1.00  0.00    -0.550 OA
ENDBRANCH   6   7
ENDBRANCH   5   6
ENDBRANCH   4   5
ENDBRANCH   3   4
ENDBRANCH   2   3
ENDBRANCH   1   2
BRANCH   1  10
ATOM     10  C   UNL     1     -14.221 -14.775  19.387  1.00  0.00     0.000 C 
BRANCH  10  11
ATOM     11  C   UNL     1     -13.444 -13.458  19.276  1.00  0.00    -0.000 C 
BRANCH  11  12
ATOM     12  C   UNL     1     -12.051 -13.585  19.910  1.00  0.00    -0.000 C 
BRANCH  12  13
ATOM     13  C   UNL     1     -10.958 -12.861  19.104  1.00  0.00    -0.000 C 
BRANCH  13  14
ATOM     14  C   UNL     1     -11.339 -12.513  17.651  1.00  0.00    -0.000 C 
BRANCH  14  15
ATOM     15  C   UNL     1     -12.132 -11.205  17.482  1.00  0.00    -0.003 C 
ATOM     16  C   UNL     1     -11.302 -10.081  16.864  1.00  0.00     0.004 C 
ENDBRANCH  14  15
ENDBRANCH  13  14
ENDBRANCH  12  13
ENDBRANCH  11  12
ENDBRANCH  10  11
ENDBRANCH   1  10
TORSDOF 12
ENDMDL
MODEL 4
REMARK VINA RESULT:    -3.736      2.213      5.538
REMARK INTER + INTRA:          -7.847
REMARK INTER:                  -6.123
REMARK INTRA:                  -1.723
REMARK UNBOUND:                -1.490
REMARK SMILES CCCCCCCCCCCCCC(=O)[O-]
REMARK SMILES IDX 8 1 9 2 10 3 11 4 12 5 13 6 14 7 15 8 16 9 7 10 6 11 5 12
REMARK SMILES IDX 4 13 3 14 2 15 1 16
REMARK H PARENT
REMARK Flexibility Score: inf
ROOT
ATOM      1  C   UNL     1     -14.907 -14.602  18.911  1.00  0.00     0.000 C 
ENDROOT
BRANCH   1   2
ATOM      2  C   UNL     1     -14.934 -16.105  19.234  1.00  0.00     0.000 C 
BRANCH   2   3
ATOM      3  C   UNL     1     -13.787 -16.529  20.167  1.00  0.00     0.000 C 
BRANCH   3   4
ATOM      4  C   UNL     1     -14.278 -17.281  21.418  1.00  0.00     0.000 C 
BRANCH   4   5
ATOM      5  C   UNL     1     -14.339 -16.438  22.705  1.00  0.00     0.006 C 
BRANCH   5   6
ATOM      6  C   UNL     1     -13.124 -15.517  22.875  1.00  0.00     0.053 C 
BRANCH   6   7
ATOM      7  C   UNL     1     -13.531 -14.226  23.513  1.00  0.00     0.041 C 
ATOM      8  O   UNL     1     -13.080 -13.134  23.079  1.00  0.00    -0.550 OA
ATOM      9  O   UNL     1     -14.449 -14.226  24.556  1.00  0.00    -0.550 OA
ENDBRANCH   6   7
ENDBRANCH   5   6
ENDBRANCH   4   5
ENDBRANCH   3   4
ENDBRANCH   2   3
ENDBRANCH   1   2
BRANCH   1  10
ATOM     10  C   UNL     1     -15.058 -13.723  20.162  1.00  0.00     0.000 C 
BRANCH  10  11
ATOM     11  C   UNL     1     -14.864 -12.242  19.818  1.00  0.00    -0.000 C 
BRANCH  11  12
ATOM     12  C   UNL     1     -14.453 -12.067  18.349  1.00  0.00    -0.000 C 
BRANCH  12  13
ATOM     13  C   UNL     1     -13.041 -11.473  18.189  1.00  0.00    -0.000 C 
BRANCH  13  14
ATOM     14  C   UNL     1     -11.934 -12.496  17.866  1.00  0.00    -0.000 C 
BRANCH  14  15
ATOM     15  C   UNL     1     -10.916 -12.729  18.996  1.00  0.00    -0.003 C 
ATOM     16  C   UNL     1     -11.402 -13.738  20.036  1.00  0.00     0.004 C 
ENDBRANCH  14  15
ENDBRANCH  13  14
ENDBRANCH  12  13
ENDBRANCH  11  12
ENDBRANCH  10  11
ENDBRANCH   1  10
TORSDOF 12
ENDMDL
MODEL 5
REMARK VINA RESULT:    -3.593      1.720      3.413
REMARK INTER + INTRA:          -7.604
REMARK INTER:                  -6.412
REMARK INTRA:                  -1.191
REMARK UNBOUND:                -1.490
REMARK SMILES CCCCCCCCCCCCCC(=O)[O-]
REMARK SMILES IDX 8 1 9 2 10 3 11 4 12 5 13 6 14 7 15 8 16 9 7 10 6 11 5 12
REMARK SMILES IDX 4 13 3 14 2 15 1 16
REMARK H PARENT
REMARK Flexibility Score: inf
ROOT
ATOM      1  C   UNL     1     -14.324 -17.035  19.226  1.00  0.00     0.000 C 
ENDROOT
BRANCH   1   2
ATOM      2  C   UNL     1     -14.940 -15.627  19.273  1.00  0.00     0.000 C 
BRANCH   2   3
ATOM      3  C   UNL     1     -14.032 -14.609  19.983  1.00  0.00     0.000 C 
BRANCH   3   4
ATOM      4  C   UNL     1     -12.579 -14.643  19.473  1.00  0.00     0.000 C 
BRANCH   4   5
ATOM      5  C   UNL     1     -11.794 -13.331  19.649  1.00  0.00     0.006 C 
BRANCH   5   6
ATOM      6  C   UNL     1     -11.269 -12.765  18.323  1.00  0.00     0.053 C 
BRANCH   6   7
ATOM      7  C   UNL     1     -12.155 -11.660  17.840  1.00  0.00     0.041 C 
ATOM      8  O   UNL     1     -11.672 -10.704  17.178  1.00  0.00    -0.550 OA
ATOM      9  O   UNL     1     -13.523 -11.711  18.076  1.00  0.00    -0.550 OA
ENDBRANCH   6   7
ENDBRANCH   5   6
ENDBRANCH   4   5
ENDBRANCH   3   4
ENDBRANCH   2   3
ENDBRANCH   1   2
BRANCH   1  10
ATOM     10  C   UNL     1     -14.960 -17.996  20.242  1.00  0.00     0.000 C 
BRANCH  10  11
ATOM     11  C   UNL     1     -14.206 -17.962  21.576  1.00  0.00    -0.000 C 
BRANCH  11  12
ATOM     12  C   UNL     1     -15.009 -17.202  22.643  1.00  0.00    -0.000 C 
BRANCH  12  13
ATOM     13  C   UNL     1     -14.114 -16.413  23.616  1.00  0.00    -0.000 C 
BRANCH  13  14
ATOM     14  C   UNL     1     -14.816 -15.258  24.359  1.00  0.00    -0.000 C 
BRANCH  14  15
ATOM     15  C   UNL     1     -14.310 -13.851  23.998  1.00  0.00    -0.003 C 
ATOM     16  C   UNL     1     -12.984 -13.871  23.240  1.00  0.00     0.004 C 
ENDBRANCH  14  15
ENDBRANCH  13  14
ENDBRANCH  12  13
ENDBRANCH  11  12
ENDBRANCH  10  11
ENDBRANCH   1  10
TORSDOF 12
ENDMDL
MODEL 6
REMARK VINA RESULT:    -3.587      2.214      5.471
REMARK INTER + INTRA:          -7.593
REMARK INTER:                  -6.559
REMARK INTRA:                  -1.034
REMARK UNBOUND:                -1.490
REMARK SMILES CCCCCCCCCCCCCC(=O)[O-]
REMARK SMILES IDX 8 1 9 2 10 3 11 4 12 5 13 6 14 7 15 8 16 9 7 10 6 11 5 12
REMARK SMILES IDX 4 13 3 14 2 15 1 16
REMARK H PARENT
REMARK Flexibility Score: inf
ROOT
ATOM      1  C   UNL     1     -14.665 -12.700  22.396  1.00  0.00     0.000 C 
ENDROOT
BRANCH   1   2
ATOM      2  C   UNL     1     -14.697 -13.708  23.557  1.00  0.00     0.000 C 
BRANCH   2   3
ATOM      3  C   UNL     1     -13.605 -14.784  23.435  1.00  0.00     0.000 C 
BRANCH   3   4
ATOM      4  C   UNL     1     -14.124 -16.202  23.737  1.00  0.00     0.000 C 
BRANCH   4   5
ATOM      5  C   UNL     1     -15.071 -16.791  22.676  1.00  0.00     0.006 C 
BRANCH   5   6
ATOM      6  C   UNL     1     -14.431 -17.929  21.869  1.00  0.00     0.053 C 
BRANCH   6   7
ATOM      7  C   UNL     1     -14.199 -17.500  20.455  1.00  0.00     0.041 C 
ATOM      8  O   UNL     1     -14.745 -18.123  19.506  1.00  0.00    -0.550 OA
ATOM      9  O   UNL     1     -13.421 -16.381  20.186  1.00  0.00    -0.550 OA
ENDBRANCH   6   7
ENDBRANCH   5   6
ENDBRANCH   4   5
ENDBRANCH   3   4
ENDBRANCH   2   3
ENDBRANCH   1   2
BRANCH   1  10
ATOM     10  C   UNL     1     -15.029 -13.338  21.047  1.00  0.00     0.000 C 
BRANCH  10  11
ATOM     11  C   UNL     1     -14.715 -12.385  19.887  1.00  0.00    -0.000 C 
BRANCH  11  12
ATOM     12  C   UNL     1     -13.753 -13.038  18.884  1.00  0.00    -0.000 C 
BRANCH  12  13
ATOM     13  C   UNL     1     -12.312 -13.142  19.415  1.00  0.00    -0.000 C 
BRANCH  13  14
ATOM     14  C   UNL     1     -11.266 -12.322  18.633  1.00  0.00    -0.000 C 
BRANCH  14  15
ATOM     15  C   UNL     1     -11.757 -11.756  17.290  1.00  0.00    -0.003 C 
ATOM     16  C   UNL     1     -11.391 -10.286  17.094  1.00  0.00     0.004 C 
ENDBRANCH  14  15
ENDBRANCH  13  14
ENDBRANCH  12  13
ENDBRANCH  11  12
ENDBRANCH  10  11
ENDBRANCH   1  10
TORSDOF 12
ENDMDL
MODEL 7
REMARK VINA RESULT:    -3.343      2.914      5.695
REMARK INTER + INTRA:          -7.177
REMARK INTER:                  -5.671
REMARK INTRA:                  -1.506
REMARK UNBOUND:                -1.490
REMARK SMILES CCCCCCCCCCCCCC(=O)[O-]
REMARK SMILES IDX 8 1 9 2 10 3 11 4 12 5 13 6 14 7 15 8 16 9 7 10 6 11 5 12
REMARK SMILES IDX 4 13 3 14 2 15 1 16
REMARK H PARENT
REMARK Flexibility Score: inf
ROOT
ATOM      1  C   UNL     1     -11.075 -12.838  19.455  1.00  0.00     0.000 C 
ENDROOT
BRANCH   1   2
ATOM      2  C   UNL     1     -11.651 -14.036  20.229  1.00  0.00     0.000 C 
BRANCH   2   3
ATOM      3  C   UNL     1     -12.490 -13.605  21.444  1.00  0.00     0.000 C 
BRANCH   3   4
ATOM      4  C   UNL     1     -12.480 -14.647  22.578  1.00  0.00     0.000 C 
BRANCH   4   5
ATOM      5  C   UNL     1     -13.698 -14.599  23.519  1.00  0.00     0.006 C 
BRANCH   5   6
ATOM      6  C   UNL     1     -14.894 -15.403  22.991  1.00  0.00     0.053 C 
BRANCH   6   7
ATOM      7  C   UNL     1     -14.690 -16.865  23.234  1.00  0.00     0.041 C 
ATOM      8  O   UNL     1     -14.768 -17.683  22.280  1.00  0.00    -0.550 OA
ATOM      9  O   UNL     1     -14.362 -17.319  24.505  1.00  0.00    -0.550 OA
ENDBRANCH   6   7
ENDBRANCH   5   6
ENDBRANCH   4   5
ENDBRANCH   3   4
ENDBRANCH   2   3
ENDBRANCH   1   2
BRANCH   1  10
ATOM     10  C   UNL     1     -11.308 -12.941  17.940  1.00  0.00     0.000 C 
BRANCH  10  11
ATOM     11  C   UNL     1     -12.307 -11.880  17.465  1.00  0.00    -0.000 C 
BRANCH  11  12
ATOM     12  C   UNL     1     -13.275 -11.492  18.592  1.00  0.00    -0.000 C 
BRANCH  12  13
ATOM     13  C   UNL     1     -14.709 -12.001  18.352  1.00  0.00    -0.000 C 
BRANCH  13  14
ATOM     14  C   UNL     1     -15.124 -13.213  19.209  1.00  0.00    -0.000 C 
BRANCH  14  15
ATOM     15  C   UNL     1     -15.124 -14.562  18.470  1.00  0.00    -0.003 C 
ATOM     16  C   UNL     1     -14.747 -15.735  19.373  1.00  0.00     0.004 C 
ENDBRANCH  14  15
ENDBRANCH  13  14
ENDBRANCH  12  13
ENDBRANCH  11  12
ENDBRANCH  10  11
ENDBRANCH   1  10
TORSDOF 12
ENDMDL
MODEL 8
REMARK VINA RESULT:    -3.311      3.104      5.379
REMARK INTER + INTRA:          -7.123
REMARK INTER:                  -5.719
REMARK INTRA:                  -1.404
REMARK UNBOUND:                -1.490
REMARK SMILES CCCCCCCCCCCCCC(=O)[O-]
REMARK SMILES IDX 8 1 9 2 10 3 11 4 12 5 13 6 14 7 15 8 16 9 7 10 6 11 5 12
REMARK SMILES IDX 4 13 3 14 2 15 1 16
REMARK H PARENT
REMARK Flexibility Score: inf
ROOT
ATOM      1  C   UNL     1     -11.276 -12.838  18.169  1.00  0.00     0.000 C 
ENDROOT
BRANCH   1   2
ATOM      2  C   UNL     1     -11.127 -12.769  19.698  1.00  0.00     0.000 C 
BRANCH   2   3
ATOM      3  C   UNL     1     -11.701 -14.009  20.403  1.00  0.00     0.000 C 
BRANCH   3   4
ATOM      4  C   UNL     1     -12.426 -13.669  21.718  1.00  0.00     0.000 C 
BRANCH   4   5
ATOM      5  C   UNL     1     -12.787 -14.880  22.597  1.00  0.00     0.006 C 
BRANCH   5   6
ATOM      6  C   UNL     1     -14.287 -14.967  22.909  1.00  0.00     0.053 C 
BRANCH   6   7
ATOM      7  C   UNL     1     -14.506 -15.137  24.380  1.00  0.00     0.041 C 
ATOM      8  O   UNL     1     -14.639 -14.128  25.121  1.00  0.00    -0.550 OA
ATOM      9  O   UNL     1     -14.613 -16.410  24.925  1.00  0.00    -0.550 OA
ENDBRANCH   6   7
ENDBRANCH   5   6
ENDBRANCH   4   5
ENDBRANCH   3   4
ENDBRANCH   2   3
ENDBRANCH   1   2
BRANCH   1  10
ATOM     10  C   UNL     1     -12.490 -12.050  17.654  1.00  0.00     0.000 C 
BRANCH  10  11
ATOM     11  C   UNL     1     -13.485 -11.774  18.786  1.00  0.00    -0.000 C 
BRANCH  11  12
ATOM     12  C   UNL     1     -14.844 -12.428  18.497  1.00  0.00    -0.000 C 
BRANCH  12  13
ATOM     13  C   UNL     1     -15.122 -13.651  19.390  1.00  0.00    -0.000 C 
BRANCH  13  14
ATOM     14  C   UNL     1     -15.123 -15.008  18.658  1.00  0.00    -0.000 C 
BRANCH  14  15
ATOM     15  C   UNL     1     -13.995 -15.969  19.069  1.00  0.00    -0.003 C 
ATOM     16  C   UNL     1     -14.503 -17.195  19.826  1.00  0.00     0.004 C 
ENDBRANCH  14  15
ENDBRANCH  13  14
ENDBRANCH  12  13
ENDBRANCH  11  12
ENDBRANCH  10  11
ENDBRANCH   1  10
TORSDOF 12
ENDMDL
MODEL 9
REMARK VINA RESULT:    -3.305      1.312      2.131
REMARK INTER + INTRA:          -7.113
REMARK INTER:                  -5.922
REMARK INTRA:                  -1.191
REMARK UNBOUND:                -1.490
REMARK SMILES CCCCCCCCCCCCCC(=O)[O-]
REMARK SMILES IDX 8 1 9 2 10 3 11 4 12 5 13 6 14 7 15 8 16 9 7 10 6 11 5 12
REMARK SMILES IDX 4 13 3 14 2 15 1 16
REMARK H PARENT
REMARK Flexibility Score: inf
ROOT
ATOM      1  C   UNL     1     -12.258 -13.842  21.221  1.00  0.00     0.000 C 
ENDROOT
BRANCH   1   2
ATOM      2  C   UNL     1     -12.953 -14.873  20.317  1.00  0.00     0.000 C 
BRANCH   2   3
ATOM      3  C   UNL     1     -14.486 -14.772  20.376  1.00  0.00     0.000 C 
BRANCH   3   4
ATOM      4  C   UNL     1     -15.027 -13.475  19.745  1.00  0.00     0.000 C 
BRANCH   4   5
ATOM      5  C   UNL     1     -14.371 -13.074  18.412  1.00  0.00     0.006 C 
BRANCH   5   6
ATOM      6  C   UNL     1     -13.671 -11.710  18.476  1.00  0.00     0.053 C 
BRANCH   6   7
ATOM      7  C   UNL     1     -12.306 -11.795  17.869  1.00  0.00     0.041 C 
ATOM      8  O   UNL     1     -11.673 -12.884  17.882  1.00  0.00    -0.550 OA
ATOM      9  O   UNL     1     -11.752 -10.685  17.244  1.00  0.00    -0.550 OA
ENDBRANCH   6   7
ENDBRANCH   5   6
ENDBRANCH   4   5
ENDBRANCH   3   4
ENDBRANCH   2   3
ENDBRANCH   1   2
BRANCH   1  10
ATOM     10  C   UNL     1     -12.404 -14.168  22.715  1.00  0.00     0.000 C 
BRANCH  10  11
ATOM     11  C   UNL     1     -13.689 -13.559  23.288  1.00  0.00    -0.000 C 
BRANCH  11  12
ATOM     12  C   UNL     1     -14.286 -14.458  24.379  1.00  0.00    -0.000 C 
BRANCH  12  13
ATOM     13  C   UNL     1     -15.079 -15.648  23.807  1.00  0.00    -0.000 C 
BRANCH  13  14
ATOM     14  C   UNL     1     -14.357 -17.009  23.877  1.00  0.00    -0.000 C 
BRANCH  14  15
ATOM     15  C   UNL     1     -14.962 -18.111  22.992  1.00  0.00    -0.003 C 
ATOM     16  C   UNL     1     -14.405 -18.107  21.569  1.00  0.00     0.004 C 
ENDBRANCH  14  15
ENDBRANCH  13  14
ENDBRANCH  12  13
ENDBRANCH  11  12
ENDBRANCH  10  11
ENDBRANCH   1  10
TORSDOF 12
ENDMDL
