MODEL 1
REMARK VINA RESULT:    -2.705      0.000      0.000
REMARK INTER + INTRA:          -3.085
REMARK INTER:                  -3.733
REMARK INTRA:                   0.648
REMARK UNBOUND:                 0.648
REMARK SMILES C=C(CC[C@@H](C(=O)[O-])[C@H]1CC[C@]2(C)C3=C(CC[C@]12C)[C@]1(C)CC[C@H](O)C(C)(C)[C@@H]1CC3)C(C)C
REMARK SMILES IDX 4 1 5 2 6 3 7 4 8 5 9 6 10 7 18 8 11 9 12 10 17 11 19 12
REMARK SMILES IDX 13 13 14 14 16 15 15 16 31 17 20 18 30 19 29 20 22 21 21 22
REMARK SMILES IDX 26 23 23 24 24 25 27 26 28 27 25 28 3 30 2 31 1 32 32 33
REMARK SMILES IDX 33 34 34 35
REMARK H PARENT 25 29
REMARK Flexibility Score: inf
ROOT
ATOM      1  C   UNL     1     100.102 113.289 113.101  1.00  0.00     0.014 C 
ENDROOT
BRANCH   1   2
ATOM      2  C   UNL     1      98.967 113.827 114.023  1.00  0.00     0.039 C 
BRANCH   2   3
ATOM      3  C   UNL     1      97.605 113.472 113.472  1.00  0.00     0.045 C 
ATOM      4  O   UNL     1      96.843 114.367 113.022  1.00  0.00    -0.550 OA
ATOM      5  O   UNL     1      97.170 112.152 113.496  1.00  0.00    -0.550 OA
ENDBRANCH   2   3
BRANCH   2   6
ATOM      6  C   UNL     1      99.072 113.493 115.557  1.00  0.00     0.004 C 
ATOM      7  C   UNL     1      98.649 112.101 115.982  1.00  0.00     0.006 C 
ATOM      8  C   UNL     1     100.441 113.726 116.280  1.00  0.00    -0.020 C 
ATOM      9  C   UNL     1      98.990 112.070 117.459  1.00  0.00     0.012 C 
ATOM     10  C   UNL     1     100.303 112.887 117.644  1.00  0.00    -0.006 C 
ATOM     11  C   UNL     1     100.639 115.254 116.523  1.00  0.00     0.012 C 
ATOM     12  C   UNL     1     101.634 113.238 115.400  1.00  0.00     0.012 C 
ATOM     13  C   UNL     1     101.464 111.886 117.901  1.00  0.00     0.017 C 
ATOM     14  C   UNL     1     100.216 113.766 118.920  1.00  0.00    -0.064 C 
ATOM     15  C   UNL     1     101.497 115.498 117.750  1.00  0.00     0.032 C 
ATOM     16  C   UNL     1     100.737 115.021 118.970  1.00  0.00    -0.064 C 
ATOM     17  C   UNL     1      99.724 113.159 120.209  1.00  0.00     0.032 C 
ATOM     18  C   UNL     1     100.709 115.885 120.267  1.00  0.00    -0.008 C 
ATOM     19  C   UNL     1      98.817 114.155 120.904  1.00  0.00     0.009 C 
ATOM     20  C   UNL     1      99.602 115.422 121.329  1.00  0.00     0.007 C 
ATOM     21  C   UNL     1     102.136 115.795 120.863  1.00  0.00     0.014 C 
ATOM     22  C   UNL     1     100.414 117.364 119.867  1.00  0.00     0.016 C 
ATOM     23  C   UNL     1     100.062 115.415 122.856  1.00  0.00    -0.006 C 
ATOM     24  C   UNL     1     102.329 116.524 122.201  1.00  0.00     0.033 C 
ATOM     25  C   UNL     1     101.066 116.586 123.092  1.00  0.00     0.120 C 
ATOM     26  C   UNL     1     100.684 114.065 123.316  1.00  0.00     0.014 C 
ATOM     27  C   UNL     1      98.823 115.671 123.761  1.00  0.00     0.014 C 
BRANCH  25  28
ATOM     28  O   UNL     1     101.416 116.725 124.450  1.00  0.00    -0.393 OA
ATOM     29  H   UNL     1     100.607 116.991 124.960  1.00  0.00     0.210 HD
ENDBRANCH  25  28
ENDBRANCH   2   6
ENDBRANCH   1   2
BRANCH   1  30
ATOM     30  C   UNL     1      99.751 112.041 112.263  1.00  0.00     0.031 C 
BRANCH  30  31
ATOM     31  C   UNL     1     100.015 112.292 110.793  1.00  0.00    -0.075 C 
ATOM     32  C   UNL     1      99.006 112.160 109.913  1.00  0.00     0.008 C 
BRANCH  31  33
ATOM     33  C   UNL     1     101.409 112.696 110.334  1.00  0.00     0.008 C 
ATOM     34  C   UNL     1     101.360 113.919 109.409  1.00  0.00     0.012 C 
ATOM     35  C   UNL     1     102.139 111.523 109.666  1.00  0.00     0.012 C 
ENDBRANCH  31  33
ENDBRANCH  30  31
ENDBRANCH   1  30
TORSDOF 7
ENDMDL
MODEL 2
REMARK VINA RESULT:    -2.021      1.698      3.142
REMARK INTER + INTRA:          -2.141
REMARK INTER:                  -1.144
REMARK INTRA:                  -0.997
REMARK UNBOUND:                 0.648
REMARK SMILES C=C(CC[C@@H](C(=O)[O-])[C@H]1CC[C@]2(C)C3=C(CC[C@]12C)[C@]1(C)CC[C@H](O)C(C)(C)[C@@H]1CC3)C(C)C
REMARK SMILES IDX 4 1 5 2 6 3 7 4 8 5 9 6 10 7 18 8 11 9 12 10 17 11 19 12
REMARK SMILES IDX 13 13 14 14 16 15 15 16 31 17 20 18 30 19 29 20 22 21 21 22
REMARK SMILES IDX 26 23 23 24 24 25 27 26 28 27 25 28 3 30 2 31 1 32 32 33
REMARK SMILES IDX 33 34 34 35
REMARK H PARENT 25 29
REMARK Flexibility Score: inf
ROOT
ATOM      1  C   UNL     1     101.394 112.862 114.114  1.00  0.00     0.014 C 
ENDROOT
BRANCH   1   2
ATOM      2  C   UNL     1     100.515 112.996 115.393  1.00  0.00     0.039 C 
BRANCH   2   3
ATOM      3  C   UNL     1     100.018 111.645 115.853  1.00  0.00     0.045 C 
ATOM      4  O   UNL     1      99.529 110.828 115.029  1.00  0.00    -0.550 OA
ATOM      5  O   UNL     1     100.062 111.312 117.202  1.00  0.00    -0.550 OA
ENDBRANCH   2   3
BRANCH   2   6
ATOM      6  C   UNL     1     101.113 113.826 116.589  1.00  0.00     0.004 C 
ATOM      7  C   UNL     1     102.569 114.230 116.478  1.00  0.00     0.006 C 
ATOM      8  C   UNL     1     100.374 115.133 117.032  1.00  0.00    -0.020 C 
ATOM      9  C   UNL     1     102.781 115.105 117.698  1.00  0.00     0.012 C 
ATOM     10  C   UNL     1     101.465 115.910 117.920  1.00  0.00    -0.006 C 
ATOM     11  C   UNL     1      99.094 114.751 117.838  1.00  0.00     0.012 C 
ATOM     12  C   UNL     1      99.911 115.967 115.796  1.00  0.00     0.012 C 
ATOM     13  C   UNL     1     101.719 117.380 117.483  1.00  0.00     0.017 C 
ATOM     14  C   UNL     1     101.121 115.973 119.432  1.00  0.00    -0.064 C 
ATOM     15  C   UNL     1      98.746 115.835 118.841  1.00  0.00     0.032 C 
ATOM     16  C   UNL     1      99.842 115.894 119.885  1.00  0.00    -0.064 C 
ATOM     17  C   UNL     1     102.197 116.334 120.425  1.00  0.00     0.032 C 
ATOM     18  C   UNL     1      99.483 116.021 121.396  1.00  0.00    -0.008 C 
ATOM     19  C   UNL     1     102.049 115.449 121.646  1.00  0.00     0.009 C 
ATOM     20  C   UNL     1     100.713 115.728 122.381  1.00  0.00     0.007 C 
ATOM     21  C   UNL     1      98.942 117.460 121.581  1.00  0.00     0.014 C 
ATOM     22  C   UNL     1      98.345 115.002 121.719  1.00  0.00     0.016 C 
ATOM     23  C   UNL     1     100.854 116.709 123.630  1.00  0.00    -0.006 C 
ATOM     24  C   UNL     1      98.584 117.841 123.026  1.00  0.00     0.033 C 
ATOM     25  C   UNL     1      99.432 117.133 124.109  1.00  0.00     0.120 C 
ATOM     26  C   UNL     1     101.727 117.964 123.343  1.00  0.00     0.014 C 
ATOM     27  C   UNL     1     101.535 115.945 124.801  1.00  0.00     0.014 C 
BRANCH  25  28
ATOM     28  O   UNL     1      99.471 117.896 125.293  1.00  0.00    -0.393 OA
ATOM     29  H   UNL     1     100.400 117.892 125.642  1.00  0.00     0.210 HD
ENDBRANCH  25  28
ENDBRANCH   2   6
ENDBRANCH   1   2
BRANCH   1  30
ATOM     30  C   UNL     1     100.870 113.594 112.860  1.00  0.00     0.031 C 
BRANCH  30  31
ATOM     31  C   UNL     1      99.888 112.724 112.103  1.00  0.00    -0.075 C 
ATOM     32  C   UNL     1      98.617 112.640 112.535  1.00  0.00     0.008 C 
BRANCH  31  33
ATOM     33  C   UNL     1     100.349 111.965 110.866  1.00  0.00     0.008 C 
ATOM     34  C   UNL     1     101.709 112.474 110.373  1.00  0.00     0.012 C 
ATOM     35  C   UNL     1      99.295 112.023 109.752  1.00  0.00     0.012 C 
ENDBRANCH  31  33
ENDBRANCH  30  31
ENDBRANCH   1  30
TORSDOF 7
ENDMDL
MODEL 3
REMARK VINA RESULT:    -1.865      1.926      2.579
REMARK INTER + INTRA:          -1.926
REMARK INTER:                  -1.787
REMARK INTRA:                  -0.139
REMARK UNBOUND:                 0.648
REMARK SMILES C=C(CC[C@@H](C(=O)[O-])[C@H]1CC[C@]2(C)C3=C(CC[C@]12C)[C@]1(C)CC[C@H](O)C(C)(C)[C@@H]1CC3)C(C)C
REMARK SMILES IDX 4 1 5 2 6 3 7 4 8 5 9 6 10 7 18 8 11 9 12 10 17 11 19 12
REMARK SMILES IDX 13 13 14 14 16 15 15 16 31 17 20 18 30 19 29 20 22 21 21 22
REMARK SMILES IDX 26 23 23 24 24 25 27 26 28 27 25 28 3 30 2 31 1 32 32 33
REMARK SMILES IDX 33 34 34 35
REMARK H PARENT 25 29
REMARK Flexibility Score: inf
ROOT
ATOM      1  C   UNL     1      97.448 112.439 113.855  1.00  0.00     0.014 C 
ENDROOT
BRANCH   1   2
ATOM      2  C   UNL     1      98.831 112.776 114.487  1.00  0.00     0.039 C 
BRANCH   2   3
ATOM      3  C   UNL     1      99.359 114.094 113.966  1.00  0.00     0.045 C 
ATOM      4  O   UNL     1      98.757 115.170 114.221  1.00  0.00    -0.550 OA
ATOM      5  O   UNL     1     100.495 114.119 113.166  1.00  0.00    -0.550 OA
ENDBRANCH   2   3
BRANCH   2   6
ATOM      6  C   UNL     1      98.944 112.691 116.054  1.00  0.00     0.004 C 
ATOM      7  C   UNL     1      98.505 111.392 116.699  1.00  0.00     0.006 C 
ATOM      8  C   UNL     1     100.321 113.018 116.722  1.00  0.00    -0.020 C 
ATOM      9  C   UNL     1      98.857 111.593 118.160  1.00  0.00     0.012 C 
ATOM     10  C   UNL     1     100.182 112.411 118.205  1.00  0.00    -0.006 C 
ATOM     11  C   UNL     1     100.540 114.562 116.716  1.00  0.00     0.012 C 
ATOM     12  C   UNL     1     101.501 112.378 115.926  1.00  0.00     0.012 C 
ATOM     13  C   UNL     1     101.331 111.448 118.612  1.00  0.00     0.017 C 
ATOM     14  C   UNL     1     100.116 113.484 119.324  1.00  0.00    -0.064 C 
ATOM     15  C   UNL     1     101.411 114.987 117.884  1.00  0.00     0.032 C 
ATOM     16  C   UNL     1     100.654 114.723 119.168  1.00  0.00    -0.064 C 
ATOM     17  C   UNL     1      99.626 113.098 120.696  1.00  0.00     0.032 C 
ATOM     18  C   UNL     1     100.647 115.784 120.310  1.00  0.00    -0.008 C 
ATOM     19  C   UNL     1      98.738 114.206 121.226  1.00  0.00     0.009 C 
ATOM     20  C   UNL     1      99.542 115.513 121.439  1.00  0.00     0.007 C 
ATOM     21  C   UNL     1     102.077 115.771 120.905  1.00  0.00     0.014 C 
ATOM     22  C   UNL     1     100.369 117.184 119.680  1.00  0.00     0.016 C 
ATOM     23  C   UNL     1     100.014 115.745 122.945  1.00  0.00    -0.006 C 
ATOM     24  C   UNL     1     102.290 116.703 122.108  1.00  0.00     0.033 C 
ATOM     25  C   UNL     1     101.034 116.924 122.984  1.00  0.00     0.120 C 
ATOM     26  C   UNL     1     100.621 114.478 123.611  1.00  0.00     0.014 C 
ATOM     27  C   UNL     1      98.785 116.160 123.803  1.00  0.00     0.014 C 
BRANCH  25  28
ATOM     28  O   UNL     1     101.396 117.274 124.300  1.00  0.00    -0.393 OA
ATOM     29  H   UNL     1     100.583 117.573 124.784  1.00  0.00     0.210 HD
ENDBRANCH  25  28
ENDBRANCH   2   6
ENDBRANCH   1   2
BRANCH   1  30
ATOM     30  C   UNL     1      97.422 112.323 112.316  1.00  0.00     0.031 C 
BRANCH  30  31
ATOM     31  C   UNL     1      96.257 113.100 111.740  1.00  0.00    -0.075 C 
ATOM     32  C   UNL     1      96.003 114.338 112.202  1.00  0.00     0.008 C 
BRANCH  31  33
ATOM     33  C   UNL     1      95.399 112.478 110.648  1.00  0.00     0.008 C 
ATOM     34  C   UNL     1      94.487 113.522 109.992  1.00  0.00     0.012 C 
ATOM     35  C   UNL     1      94.589 111.289 111.184  1.00  0.00     0.012 C 
ENDBRANCH  31  33
ENDBRANCH  30  31
ENDBRANCH   1  30
TORSDOF 7
ENDMDL
