MODEL 1
REMARK VINA RESULT:    -3.824      0.000      0.000
REMARK INTER + INTRA:          -6.176
REMARK INTER:                  -5.389
REMARK INTRA:                  -0.787
REMARK UNBOUND:                -0.787
REMARK SMILES CCCCCCCCC(=O)[O-]
REMARK SMILES IDX 6 1 7 2 8 3 9 4 10 5 11 6 5 7 4 8 3 9 2 10 1 11
REMARK H PARENT
REMARK Flexibility Score: inf
ROOT
ATOM      1  C   UNL     1     -15.438  42.415  32.721  1.00  0.00     0.000 C 
ENDROOT
BRANCH   1   2
ATOM      2  C   UNL     1     -15.521  43.163  34.060  1.00  0.00     0.006 C 
BRANCH   2   3
ATOM      3  C   UNL     1     -15.647  44.681  33.871  1.00  0.00     0.053 C 
BRANCH   3   4
ATOM      4  C   UNL     1     -14.424  45.403  34.348  1.00  0.00     0.041 C 
ATOM      5  O   UNL     1     -14.520  46.300  35.227  1.00  0.00    -0.550 OA
ATOM      6  O   UNL     1     -13.175  45.061  33.846  1.00  0.00    -0.550 OA
ENDBRANCH   3   4
ENDBRANCH   2   3
ENDBRANCH   1   2
BRANCH   1   7
ATOM      7  C   UNL     1     -16.257  43.131  31.641  1.00  0.00     0.000 C 
BRANCH   7   8
ATOM      8  C   UNL     1     -17.695  42.602  31.599  1.00  0.00    -0.000 C 
BRANCH   8   9
ATOM      9  C   UNL     1     -18.703  43.727  31.879  1.00  0.00    -0.000 C 
BRANCH   9  10
ATOM     10  C   UNL     1     -19.184  43.738  33.339  1.00  0.00    -0.003 C 
ATOM     11  C   UNL     1     -19.226  42.342  33.958  1.00  0.00     0.004 C 
ENDBRANCH   9  10
ENDBRANCH   8   9
ENDBRANCH   7   8
ENDBRANCH   1   7
TORSDOF 7
ENDMDL
MODEL 2
REMARK VINA RESULT:    -3.783      1.196      2.085
REMARK INTER + INTRA:          -6.118
REMARK INTER:                  -5.422
REMARK INTRA:                  -0.696
REMARK UNBOUND:                -0.787
REMARK SMILES CCCCCCCCC(=O)[O-]
REMARK SMILES IDX 6 1 7 2 8 3 9 4 10 5 11 6 5 7 4 8 3 9 2 10 1 11
REMARK H PARENT
REMARK Flexibility Score: inf
ROOT
ATOM      1  C   UNL     1     -16.641  44.490  32.173  1.00  0.00     0.000 C 
ENDROOT
BRANCH   1   2
ATOM      2  C   UNL     1     -16.429  44.589  33.692  1.00  0.00     0.006 C 
BRANCH   2   3
ATOM      3  C   UNL     1     -15.059  44.050  34.123  1.00  0.00     0.053 C 
BRANCH   3   4
ATOM      4  C   UNL     1     -14.041  45.143  34.230  1.00  0.00     0.041 C 
ATOM      5  O   UNL     1     -13.119  45.238  33.377  1.00  0.00    -0.550 OA
ATOM      6  O   UNL     1     -14.130  46.077  35.254  1.00  0.00    -0.550 OA
ENDBRANCH   3   4
ENDBRANCH   2   3
ENDBRANCH   1   2
BRANCH   1   7
ATOM      7  C   UNL     1     -18.006  43.871  31.849  1.00  0.00     0.000 C 
BRANCH   7   8
ATOM      8  C   UNL     1     -18.814  43.619  33.129  1.00  0.00    -0.000 C 
BRANCH   8   9
ATOM      9  C   UNL     1     -19.168  42.131  33.271  1.00  0.00    -0.000 C 
BRANCH   9  10
ATOM     10  C   UNL     1     -17.959  41.212  33.033  1.00  0.00    -0.003 C 
ATOM     11  C   UNL     1     -17.167  40.934  34.310  1.00  0.00     0.004 C 
ENDBRANCH   9  10
ENDBRANCH   8   9
ENDBRANCH   7   8
ENDBRANCH   1   7
TORSDOF 7
ENDMDL
MODEL 3
REMARK VINA RESULT:    -3.724      3.036      4.417
REMARK INTER + INTRA:          -6.035
REMARK INTER:                  -5.276
REMARK INTRA:                  -0.759
REMARK UNBOUND:                -0.787
REMARK SMILES CCCCCCCCC(=O)[O-]
REMARK SMILES IDX 6 1 7 2 8 3 9 4 10 5 11 6 5 7 4 8 3 9 2 10 1 11
REMARK H PARENT
REMARK Flexibility Score: inf
ROOT
ATOM      1  C   UNL     1     -14.701  43.770  34.024  1.00  0.00     0.000 C 
ENDROOT
BRANCH   1   2
ATOM      2  C   UNL     1     -16.140  43.297  33.770  1.00  0.00     0.006 C 
BRANCH   2   3
ATOM      3  C   UNL     1     -17.071  44.453  33.380  1.00  0.00     0.053 C 
BRANCH   3   4
ATOM      4  C   UNL     1     -18.432  43.962  32.992  1.00  0.00     0.041 C 
ATOM      5  O   UNL     1     -18.570  43.176  32.018  1.00  0.00    -0.550 OA
ATOM      6  O   UNL     1     -19.546  44.349  33.727  1.00  0.00    -0.550 OA
ENDBRANCH   3   4
ENDBRANCH   2   3
ENDBRANCH   1   2
BRANCH   1   7
ATOM      7  C   UNL     1     -14.315  44.895  33.057  1.00  0.00     0.000 C 
BRANCH   7   8
ATOM      8  C   UNL     1     -13.543  44.345  31.852  1.00  0.00    -0.000 C 
BRANCH   8   9
ATOM      9  C   UNL     1     -14.154  44.843  30.534  1.00  0.00    -0.000 C 
BRANCH   9  10
ATOM     10  C   UNL     1     -15.353  43.994  30.082  1.00  0.00    -0.003 C 
ATOM     11  C   UNL     1     -16.552  44.842  29.659  1.00  0.00     0.004 C 
ENDBRANCH   9  10
ENDBRANCH   8   9
ENDBRANCH   7   8
ENDBRANCH   1   7
TORSDOF 7
ENDMDL
MODEL 4
REMARK VINA RESULT:    -3.700      2.305      3.824
REMARK INTER + INTRA:          -6.001
REMARK INTER:                  -5.182
REMARK INTRA:                  -0.820
REMARK UNBOUND:                -0.787
REMARK SMILES CCCCCCCCC(=O)[O-]
REMARK SMILES IDX 6 1 7 2 8 3 9 4 10 5 11 6 5 7 4 8 3 9 2 10 1 11
REMARK H PARENT
REMARK Flexibility Score: inf
ROOT
ATOM      1  C   UNL     1     -17.906  43.772  31.244  1.00  0.00     0.000 C 
ENDROOT
BRANCH   1   2
ATOM      2  C   UNL     1     -18.176  43.914  32.750  1.00  0.00     0.006 C 
BRANCH   2   3
ATOM      3  C   UNL     1     -16.975  44.501  33.503  1.00  0.00     0.053 C 
BRANCH   3   4
ATOM      4  C   UNL     1     -16.018  43.435  33.939  1.00  0.00     0.041 C 
ATOM      5  O   UNL     1     -14.844  43.736  34.280  1.00  0.00    -0.550 OA
ATOM      6  O   UNL     1     -16.435  42.111  34.000  1.00  0.00    -0.550 OA
ENDBRANCH   3   4
ENDBRANCH   2   3
ENDBRANCH   1   2
BRANCH   1   7
ATOM      7  C   UNL     1     -17.134  44.984  30.709  1.00  0.00     0.000 C 
BRANCH   7   8
ATOM      8  C   UNL     1     -15.942  44.542  29.851  1.00  0.00    -0.000 C 
BRANCH   8   9
ATOM      9  C   UNL     1     -14.612  44.847  30.559  1.00  0.00    -0.000 C 
BRANCH   9  10
ATOM     10  C   UNL     1     -13.665  43.638  30.582  1.00  0.00    -0.003 C 
ATOM     11  C   UNL     1     -14.397  42.318  30.820  1.00  0.00     0.004 C 
ENDBRANCH   9  10
ENDBRANCH   8   9
ENDBRANCH   7   8
ENDBRANCH   1   7
TORSDOF 7
ENDMDL
MODEL 5
REMARK VINA RESULT:    -3.694      3.046      4.611
REMARK INTER + INTRA:          -5.992
REMARK INTER:                  -5.264
REMARK INTRA:                  -0.727
REMARK UNBOUND:                -0.787
REMARK SMILES CCCCCCCCC(=O)[O-]
REMARK SMILES IDX 6 1 7 2 8 3 9 4 10 5 11 6 5 7 4 8 3 9 2 10 1 11
REMARK H PARENT
REMARK Flexibility Score: inf
ROOT
ATOM      1  C   UNL     1     -14.610  44.915  30.463  1.00  0.00     0.000 C 
ENDROOT
BRANCH   1   2
ATOM      2  C   UNL     1     -15.958  44.585  29.803  1.00  0.00     0.006 C 
BRANCH   2   3
ATOM      3  C   UNL     1     -17.149  44.998  30.676  1.00  0.00     0.053 C 
BRANCH   3   4
ATOM      4  C   UNL     1     -17.785  43.817  31.342  1.00  0.00     0.041 C 
ATOM      5  O   UNL     1     -18.766  43.976  32.116  1.00  0.00    -0.550 OA
ATOM      6  O   UNL     1     -17.314  42.536  31.083  1.00  0.00    -0.550 OA
ENDBRANCH   3   4
ENDBRANCH   2   3
ENDBRANCH   1   2
BRANCH   1   7
ATOM      7  C   UNL     1     -13.773  43.647  30.664  1.00  0.00     0.000 C 
BRANCH   7   8
ATOM      8  C   UNL     1     -13.194  43.589  32.084  1.00  0.00    -0.000 C 
BRANCH   8   9
ATOM      9  C   UNL     1     -13.490  44.886  32.851  1.00  0.00    -0.000 C 
BRANCH   9  10
ATOM     10  C   UNL     1     -14.155  44.628  34.212  1.00  0.00    -0.003 C 
ATOM     11  C   UNL     1     -15.384  43.727  34.109  1.00  0.00     0.004 C 
ENDBRANCH   9  10
ENDBRANCH   8   9
ENDBRANCH   7   8
ENDBRANCH   1   7
TORSDOF 7
ENDMDL
MODEL 6
REMARK VINA RESULT:    -3.686      3.294      4.915
REMARK INTER + INTRA:          -5.982
REMARK INTER:                  -5.271
REMARK INTRA:                  -0.711
REMARK UNBOUND:                -0.787
REMARK SMILES CCCCCCCCC(=O)[O-]
REMARK SMILES IDX 6 1 7 2 8 3 9 4 10 5 11 6 5 7 4 8 3 9 2 10 1 11
REMARK H PARENT
REMARK Flexibility Score: inf
ROOT
ATOM      1  C   UNL     1     -17.156  44.901  30.904  1.00  0.00     0.000 C 
ENDROOT
BRANCH   1   2
ATOM      2  C   UNL     1     -18.020  43.836  31.597  1.00  0.00     0.006 C 
BRANCH   2   3
ATOM      3  C   UNL     1     -17.397  42.436  31.510  1.00  0.00     0.053 C 
BRANCH   3   4
ATOM      4  C   UNL     1     -18.130  41.449  32.365  1.00  0.00     0.041 C 
ATOM      5  O   UNL     1     -17.859  40.221  32.293  1.00  0.00    -0.550 OA
ATOM      6  O   UNL     1     -19.091  41.890  33.266  1.00  0.00    -0.550 OA
ENDBRANCH   3   4
ENDBRANCH   2   3
ENDBRANCH   1   2
BRANCH   1   7
ATOM      7  C   UNL     1     -16.017  44.251  30.110  1.00  0.00     0.000 C 
BRANCH   7   8
ATOM      8  C   UNL     1     -14.668  44.892  30.459  1.00  0.00    -0.000 C 
BRANCH   8   9
ATOM      9  C   UNL     1     -13.984  44.141  31.611  1.00  0.00    -0.000 C 
BRANCH   9  10
ATOM     10  C   UNL     1     -14.082  44.895  32.947  1.00  0.00    -0.003 C 
ATOM     11  C   UNL     1     -14.883  44.132  33.999  1.00  0.00     0.004 C 
ENDBRANCH   9  10
ENDBRANCH   8   9
ENDBRANCH   7   8
ENDBRANCH   1   7
TORSDOF 7
ENDMDL
MODEL 7
REMARK VINA RESULT:    -3.684     11.099     12.698
REMARK INTER + INTRA:          -5.979
REMARK INTER:                  -5.727
REMARK INTRA:                  -0.252
REMARK UNBOUND:                -0.787
REMARK SMILES CCCCCCCCC(=O)[O-]
REMARK SMILES IDX 6 1 7 2 8 3 9 4 10 5 11 6 5 7 4 8 3 9 2 10 1 11
REMARK H PARENT
REMARK Flexibility Score: inf
ROOT
ATOM      1  C   UNL     1     -25.944  40.775  27.398  1.00  0.00     0.000 C 
ENDROOT
BRANCH   1   2
ATOM      2  C   UNL     1     -24.883  40.052  28.241  1.00  0.00     0.006 C 
BRANCH   2   3
ATOM      3  C   UNL     1     -25.507  39.090  29.261  1.00  0.00     0.053 C 
BRANCH   3   4
ATOM      4  C   UNL     1     -24.806  37.766  29.275  1.00  0.00     0.041 C 
ATOM      5  O   UNL     1     -25.412  36.723  28.910  1.00  0.00    -0.550 OA
ATOM      6  O   UNL     1     -23.474  37.689  29.661  1.00  0.00    -0.550 OA
ENDBRANCH   3   4
ENDBRANCH   2   3
ENDBRANCH   1   2
BRANCH   1   7
ATOM      7  C   UNL     1     -26.194  40.036  26.078  1.00  0.00     0.000 C 
BRANCH   7   8
ATOM      8  C   UNL     1     -25.507  40.752  24.908  1.00  0.00    -0.000 C 
BRANCH   8   9
ATOM      9  C   UNL     1     -26.485  40.959  23.741  1.00  0.00    -0.000 C 
BRANCH   9  10
ATOM     10  C   UNL     1     -26.245  39.970  22.589  1.00  0.00    -0.003 C 
ATOM     11  C   UNL     1     -24.872  39.305  22.657  1.00  0.00     0.004 C 
ENDBRANCH   9  10
ENDBRANCH   8   9
ENDBRANCH   7   8
ENDBRANCH   1   7
TORSDOF 7
ENDMDL
MODEL 8
REMARK VINA RESULT:    -3.589      1.753      2.222
REMARK INTER + INTRA:          -5.845
REMARK INTER:                  -5.185
REMARK INTRA:                  -0.659
REMARK UNBOUND:                -0.787
REMARK SMILES CCCCCCCCC(=O)[O-]
REMARK SMILES IDX 6 1 7 2 8 3 9 4 10 5 11 6 5 7 4 8 3 9 2 10 1 11
REMARK H PARENT
REMARK Flexibility Score: inf
ROOT
ATOM      1  C   UNL     1     -14.623  44.898  30.579  1.00  0.00     0.000 C 
ENDROOT
BRANCH   1   2
ATOM      2  C   UNL     1     -14.002  44.045  31.697  1.00  0.00     0.006 C 
BRANCH   2   3
ATOM      3  C   UNL     1     -13.431  44.904  32.833  1.00  0.00     0.053 C 
BRANCH   3   4
ATOM      4  C   UNL     1     -14.360  44.959  34.007  1.00  0.00     0.041 C 
ATOM      5  O   UNL     1     -14.314  45.931  34.808  1.00  0.00    -0.550 OA
ATOM      6  O   UNL     1     -15.298  43.953  34.198  1.00  0.00    -0.550 OA
ENDBRANCH   3   4
ENDBRANCH   2   3
ENDBRANCH   1   2
BRANCH   1   7
ATOM      7  C   UNL     1     -16.003  44.360  30.183  1.00  0.00     0.000 C 
BRANCH   7   8
ATOM      8  C   UNL     1     -17.099  44.933  31.090  1.00  0.00    -0.000 C 
BRANCH   8   9
ATOM      9  C   UNL     1     -18.088  43.837  31.516  1.00  0.00    -0.000 C 
BRANCH   9  10
ATOM     10  C   UNL     1     -17.431  42.450  31.600  1.00  0.00    -0.003 C 
ATOM     11  C   UNL     1     -17.761  41.717  32.899  1.00  0.00     0.004 C 
ENDBRANCH   9  10
ENDBRANCH   8   9
ENDBRANCH   7   8
ENDBRANCH   1   7
TORSDOF 7
ENDMDL
MODEL 9
REMARK VINA RESULT:    -3.564      2.751      3.775
REMARK INTER + INTRA:          -5.809
REMARK INTER:                  -4.893
REMARK INTRA:                  -0.917
REMARK UNBOUND:                -0.787
REMARK SMILES CCCCCCCCC(=O)[O-]
REMARK SMILES IDX 6 1 7 2 8 3 9 4 10 5 11 6 5 7 4 8 3 9 2 10 1 11
REMARK H PARENT
REMARK Flexibility Score: inf
ROOT
ATOM      1  C   UNL     1     -14.252  44.925  33.023  1.00  0.00     0.000 C 
ENDROOT
BRANCH   1   2
ATOM      2  C   UNL     1     -13.672  44.524  31.657  1.00  0.00     0.006 C 
BRANCH   2   3
ATOM      3  C   UNL     1     -14.617  44.872  30.500  1.00  0.00     0.053 C 
BRANCH   3   4
ATOM      4  C   UNL     1     -15.308  43.656  29.963  1.00  0.00     0.041 C 
ATOM      5  O   UNL     1     -15.073  42.522  30.458  1.00  0.00    -0.550 OA
ATOM      6  O   UNL     1     -16.237  43.781  28.938  1.00  0.00    -0.550 OA
ENDBRANCH   3   4
ENDBRANCH   2   3
ENDBRANCH   1   2
BRANCH   1   7
ATOM      7  C   UNL     1     -14.514  43.689  33.891  1.00  0.00     0.000 C 
BRANCH   7   8
ATOM      8  C   UNL     1     -15.998  43.301  33.863  1.00  0.00    -0.000 C 
BRANCH   8   9
ATOM      9  C   UNL     1     -16.876  44.514  33.518  1.00  0.00    -0.000 C 
BRANCH   9  10
ATOM     10  C   UNL     1     -17.999  44.166  32.528  1.00  0.00    -0.003 C 
ATOM     11  C   UNL     1     -18.125  42.664  32.281  1.00  0.00     0.004 C 
ENDBRANCH   9  10
ENDBRANCH   8   9
ENDBRANCH   7   8
ENDBRANCH   1   7
TORSDOF 7
ENDMDL
