MODEL 1
REMARK VINA RESULT:    -6.184      0.000      0.000
REMARK INTER + INTRA:          -7.571
REMARK INTER:                  -7.268
REMARK INTRA:                  -0.303
REMARK UNBOUND:                -0.303
REMARK SMILES O=c1c(O)c(-c2ccc(O)c(O)c2)oc2cc(O)ccc12
REMARK SMILES IDX 5 1 3 2 2 3 1 4 21 5 15 6 14 7 16 8 17 9 19 10 20 11 6 12
REMARK SMILES IDX 7 13 8 14 9 15 13 16 11 17 10 18 12 20 4 22 18 24
REMARK H PARENT 10 19 12 21 4 23 18 25
REMARK Flexibility Score: inf
ROOT
ATOM      1  C   UNL     1      15.551 -20.247  18.436  1.00  0.00     0.180 A 
ATOM      2  C   UNL     1      15.647 -19.745  19.751  1.00  0.00     0.208 A 
ATOM      3  C   UNL     1      15.656 -18.356  19.945  1.00  0.00     0.235 A 
ATOM      4  O   UNL     1      15.730 -17.882  21.112  1.00  0.00    -0.285 OA
ATOM      5  C   UNL     1      15.588 -17.502  18.833  1.00  0.00     0.069 A 
ATOM      6  C   UNL     1      15.519 -18.082  17.548  1.00  0.00     0.142 A 
ATOM      7  O   UNL     1      15.504 -19.403  17.407  1.00  0.00    -0.452 OA
ATOM      8  C   UNL     1      15.461 -17.266  16.413  1.00  0.00     0.094 A 
ATOM      9  C   UNL     1      15.469 -15.870  16.547  1.00  0.00     0.119 A 
ATOM     10  C   UNL     1      15.538 -15.293  17.819  1.00  0.00     0.047 A 
ATOM     11  C   UNL     1      15.598 -16.101  18.959  1.00  0.00     0.020 A 
ENDROOT
BRANCH   1  12
ATOM     12  C   UNL     1      15.517 -21.700  18.149  1.00  0.00     0.025 A 
ATOM     13  C   UNL     1      16.696 -22.456  18.070  1.00  0.00     0.016 A 
ATOM     14  C   UNL     1      16.638 -23.829  17.821  1.00  0.00     0.051 A 
ATOM     15  C   UNL     1      15.407 -24.475  17.658  1.00  0.00     0.157 A 
ATOM     16  C   UNL     1      14.280 -22.348  18.007  1.00  0.00     0.062 A 
ATOM     17  C   UNL     1      14.212 -23.724  17.757  1.00  0.00     0.158 A 
BRANCH  15  18
ATOM     18  O   UNL     1      15.418 -25.848  17.407  1.00  0.00    -0.504 OA
ATOM     19  H   UNL     1      16.089 -26.489  17.803  1.00  0.00     0.293 HD
ENDBRANCH  15  18
BRANCH  17  20
ATOM     20  O   UNL     1      12.947 -24.299  17.616  1.00  0.00    -0.504 OA
ATOM     21  H   UNL     1      12.635 -24.780  16.784  1.00  0.00     0.293 HD
ENDBRANCH  17  20
ENDBRANCH   1  12
BRANCH   2  22
ATOM     22  O   UNL     1      15.762 -20.619  20.835  1.00  0.00    -0.502 OA
ATOM     23  H   UNL     1      15.417 -20.386  21.758  1.00  0.00     0.293 HD
ENDBRANCH   2  22
BRANCH   9  24
ATOM     24  O   UNL     1      15.412 -15.050  15.423  1.00  0.00    -0.508 OA
ATOM     25  H   UNL     1      15.408 -15.435  14.485  1.00  0.00     0.293 HD
ENDBRANCH   9  24
TORSDOF 5
ENDMDL
MODEL 2
REMARK VINA RESULT:    -6.079      1.962      3.224
REMARK INTER + INTRA:          -7.448
REMARK INTER:                  -7.146
REMARK INTRA:                  -0.301
REMARK UNBOUND:                -0.303
REMARK SMILES O=c1c(O)c(-c2ccc(O)c(O)c2)oc2cc(O)ccc12
REMARK SMILES IDX 5 1 3 2 2 3 1 4 21 5 15 6 14 7 16 8 17 9 19 10 20 11 6 12
REMARK SMILES IDX 7 13 8 14 9 15 13 16 11 17 10 18 12 20 4 22 18 24
REMARK H PARENT 10 19 12 21 4 23 18 25
REMARK Flexibility Score: inf
ROOT
ATOM      1  C   UNL     1      15.205 -21.101  18.142  1.00  0.00     0.180 A 
ATOM      2  C   UNL     1      14.575 -21.006  16.884  1.00  0.00     0.208 A 
ATOM      3  C   UNL     1      14.373 -19.736  16.322  1.00  0.00     0.235 A 
ATOM      4  O   UNL     1      13.822 -19.627  15.193  1.00  0.00    -0.285 OA
ATOM      5  C   UNL     1      14.782 -18.596  17.029  1.00  0.00     0.069 A 
ATOM      6  C   UNL     1      15.384 -18.772  18.294  1.00  0.00     0.142 A 
ATOM      7  O   UNL     1      15.565 -19.992  18.787  1.00  0.00    -0.452 OA
ATOM      8  C   UNL     1      15.796 -17.660  19.035  1.00  0.00     0.094 A 
ATOM      9  C   UNL     1      15.617 -16.366  18.525  1.00  0.00     0.119 A 
ATOM     10  C   UNL     1      15.022 -16.188  17.272  1.00  0.00     0.047 A 
ATOM     11  C   UNL     1      14.605 -17.295  16.524  1.00  0.00     0.020 A 
ENDROOT
BRANCH   1  12
ATOM     12  C   UNL     1      15.471 -22.404  18.793  1.00  0.00     0.025 A 
ATOM     13  C   UNL     1      14.585 -22.941  19.740  1.00  0.00     0.016 A 
ATOM     14  C   UNL     1      14.845 -24.183  20.323  1.00  0.00     0.051 A 
ATOM     15  C   UNL     1      15.982 -24.916  19.967  1.00  0.00     0.157 A 
ATOM     16  C   UNL     1      16.601 -23.147  18.418  1.00  0.00     0.062 A 
ATOM     17  C   UNL     1      16.870 -24.393  18.998  1.00  0.00     0.158 A 
BRANCH  15  18
ATOM     18  O   UNL     1      16.187 -26.148  20.591  1.00  0.00    -0.504 OA
ATOM     19  H   UNL     1      16.479 -26.985  20.107  1.00  0.00     0.293 HD
ENDBRANCH  15  18
BRANCH  17  20
ATOM     20  O   UNL     1      18.020 -25.070  18.585  1.00  0.00    -0.504 OA
ATOM     21  H   UNL     1      18.652 -25.546  19.212  1.00  0.00     0.293 HD
ENDBRANCH  17  20
ENDBRANCH   1  12
BRANCH   2  22
ATOM     22  O   UNL     1      14.134 -22.157  16.225  1.00  0.00    -0.502 OA
ATOM     23  H   UNL     1      13.987 -22.185  15.224  1.00  0.00     0.293 HD
ENDBRANCH   2  22
BRANCH   9  24
ATOM     24  O   UNL     1      16.024 -15.253  19.256  1.00  0.00    -0.508 OA
ATOM     25  H   UNL     1      15.618 -15.032  20.157  1.00  0.00     0.293 HD
ENDBRANCH   9  24
TORSDOF 5
ENDMDL
MODEL 3
REMARK VINA RESULT:    -6.050      1.717      2.728
REMARK INTER + INTRA:          -7.414
REMARK INTER:                  -7.124
REMARK INTRA:                  -0.291
REMARK UNBOUND:                -0.303
REMARK SMILES O=c1c(O)c(-c2ccc(O)c(O)c2)oc2cc(O)ccc12
REMARK SMILES IDX 5 1 3 2 2 3 1 4 21 5 15 6 14 7 16 8 17 9 19 10 20 11 6 12
REMARK SMILES IDX 7 13 8 14 9 15 13 16 11 17 10 18 12 20 4 22 18 24
REMARK H PARENT 10 19 12 21 4 23 18 25
REMARK Flexibility Score: inf
ROOT
ATOM      1  C   UNL     1      15.422 -22.301  18.197  1.00  0.00     0.180 A 
ATOM      2  C   UNL     1      14.798 -21.988  19.423  1.00  0.00     0.208 A 
ATOM      3  C   UNL     1      14.480 -20.650  19.698  1.00  0.00     0.235 A 
ATOM      4  O   UNL     1      13.912 -20.347  20.783  1.00  0.00    -0.285 OA
ATOM      5  C   UNL     1      14.805 -19.656  18.762  1.00  0.00     0.069 A 
ATOM      6  C   UNL     1      15.452 -20.046  17.570  1.00  0.00     0.142 A 
ATOM      7  O   UNL     1      15.727 -21.325  17.342  1.00  0.00    -0.452 OA
ATOM      8  C   UNL     1      15.802 -19.084  16.616  1.00  0.00     0.094 A 
ATOM      9  C   UNL     1      15.512 -17.731  16.839  1.00  0.00     0.119 A 
ATOM     10  C   UNL     1      14.871 -17.342  18.020  1.00  0.00     0.047 A 
ATOM     11  C   UNL     1      14.518 -18.296  18.980  1.00  0.00     0.020 A 
ENDROOT
BRANCH   1  12
ATOM     12  C   UNL     1      15.773 -23.690  17.824  1.00  0.00     0.025 A 
ATOM     13  C   UNL     1      14.972 -24.434  16.944  1.00  0.00     0.016 A 
ATOM     14  C   UNL     1      15.337 -25.735  16.588  1.00  0.00     0.051 A 
ATOM     15  C   UNL     1      16.508 -26.312  17.091  1.00  0.00     0.157 A 
ATOM     16  C   UNL     1      16.960 -24.258  18.313  1.00  0.00     0.062 A 
ATOM     17  C   UNL     1      17.333 -25.562  17.962  1.00  0.00     0.158 A 
BRANCH  15  18
ATOM     18  O   UNL     1      16.813 -27.617  16.700  1.00  0.00    -0.504 OA
ATOM     19  H   UNL     1      16.280 -28.143  16.023  1.00  0.00     0.293 HD
ENDBRANCH  15  18
BRANCH  17  20
ATOM     20  O   UNL     1      18.521 -26.066  18.496  1.00  0.00    -0.504 OA
ATOM     21  H   UNL     1      18.905 -25.782  19.386  1.00  0.00     0.293 HD
ENDBRANCH  17  20
ENDBRANCH   1  12
BRANCH   2  22
ATOM     22  O   UNL     1      14.531 -22.993  20.357  1.00  0.00    -0.502 OA
ATOM     23  H   UNL     1      15.210 -23.704  20.597  1.00  0.00     0.293 HD
ENDBRANCH   2  22
BRANCH   9  24
ATOM     24  O   UNL     1      15.857 -16.767  15.896  1.00  0.00    -0.508 OA
ATOM     25  H   UNL     1      15.652 -15.785  16.041  1.00  0.00     0.293 HD
ENDBRANCH   9  24
TORSDOF 5
ENDMDL
MODEL 4
REMARK VINA RESULT:    -6.032      2.952      4.610
REMARK INTER + INTRA:          -7.392
REMARK INTER:                  -7.069
REMARK INTRA:                  -0.323
REMARK UNBOUND:                -0.303
REMARK SMILES O=c1c(O)c(-c2ccc(O)c(O)c2)oc2cc(O)ccc12
REMARK SMILES IDX 5 1 3 2 2 3 1 4 21 5 15 6 14 7 16 8 17 9 19 10 20 11 6 12
REMARK SMILES IDX 7 13 8 14 9 15 13 16 11 17 10 18 12 20 4 22 18 24
REMARK H PARENT 10 19 12 21 4 23 18 25
REMARK Flexibility Score: inf
ROOT
ATOM      1  C   UNL     1      16.417 -16.411  17.157  1.00  0.00     0.180 A 
ATOM      2  C   UNL     1      16.086 -15.625  18.280  1.00  0.00     0.208 A 
ATOM      3  C   UNL     1      16.659 -14.350  18.405  1.00  0.00     0.235 A 
ATOM      4  O   UNL     1      16.370 -13.623  19.395  1.00  0.00    -0.285 OA
ATOM      5  C   UNL     1      17.557 -13.897  17.427  1.00  0.00     0.069 A 
ATOM      6  C   UNL     1      17.857 -14.753  16.346  1.00  0.00     0.142 A 
ATOM      7  O   UNL     1      17.286 -15.949  16.258  1.00  0.00    -0.452 OA
ATOM      8  C   UNL     1      18.755 -14.342  15.356  1.00  0.00     0.094 A 
ATOM      9  C   UNL     1      19.361 -13.080  15.431  1.00  0.00     0.119 A 
ATOM     10  C   UNL     1      19.065 -12.229  16.501  1.00  0.00     0.047 A 
ATOM     11  C   UNL     1      18.169 -12.631  17.497  1.00  0.00     0.020 A 
ENDROOT
BRANCH   1  12
ATOM     12  C   UNL     1      15.842 -17.758  16.942  1.00  0.00     0.025 A 
ATOM     13  C   UNL     1      14.622 -17.933  16.270  1.00  0.00     0.016 A 
ATOM     14  C   UNL     1      14.111 -19.215  16.059  1.00  0.00     0.051 A 
ATOM     15  C   UNL     1      14.809 -20.345  16.499  1.00  0.00     0.157 A 
ATOM     16  C   UNL     1      16.555 -18.890  17.366  1.00  0.00     0.062 A 
ATOM     17  C   UNL     1      16.051 -20.180  17.158  1.00  0.00     0.158 A 
BRANCH  15  18
ATOM     18  O   UNL     1      14.242 -21.598  16.261  1.00  0.00    -0.504 OA
ATOM     19  H   UNL     1      14.777 -22.435  16.083  1.00  0.00     0.293 HD
ENDBRANCH  15  18
BRANCH  17  20
ATOM     20  O   UNL     1      16.810 -21.259  17.618  1.00  0.00    -0.504 OA
ATOM     21  H   UNL     1      16.429 -22.037  18.137  1.00  0.00     0.293 HD
ENDBRANCH  17  20
ENDBRANCH   1  12
BRANCH   2  22
ATOM     22  O   UNL     1      15.226 -16.122  19.263  1.00  0.00    -0.502 OA
ATOM     23  H   UNL     1      14.283 -16.423  19.055  1.00  0.00     0.293 HD
ENDBRANCH   2  22
BRANCH   9  24
ATOM     24  O   UNL     1      20.256 -12.663  14.450  1.00  0.00    -0.508 OA
ATOM     25  H   UNL     1      21.141 -12.231  14.688  1.00  0.00     0.293 HD
ENDBRANCH   9  24
TORSDOF 5
ENDMDL
MODEL 5
REMARK VINA RESULT:    -6.021      0.913      1.617
REMARK INTER + INTRA:          -7.380
REMARK INTER:                  -7.105
REMARK INTRA:                  -0.275
REMARK UNBOUND:                -0.303
REMARK SMILES O=c1c(O)c(-c2ccc(O)c(O)c2)oc2cc(O)ccc12
REMARK SMILES IDX 5 1 3 2 2 3 1 4 21 5 15 6 14 7 16 8 17 9 19 10 20 11 6 12
REMARK SMILES IDX 7 13 8 14 9 15 13 16 11 17 10 18 12 20 4 22 18 24
REMARK H PARENT 10 19 12 21 4 23 18 25
REMARK Flexibility Score: inf
ROOT
ATOM      1  C   UNL     1      15.421 -20.798  18.404  1.00  0.00     0.180 A 
ATOM      2  C   UNL     1      15.458 -20.361  19.744  1.00  0.00     0.208 A 
ATOM      3  C   UNL     1      15.450 -18.982  20.007  1.00  0.00     0.235 A 
ATOM      4  O   UNL     1      15.472 -18.567  21.198  1.00  0.00    -0.285 OA
ATOM      5  C   UNL     1      15.426 -18.076  18.936  1.00  0.00     0.069 A 
ATOM      6  C   UNL     1      15.414 -18.592  17.622  1.00  0.00     0.142 A 
ATOM      7  O   UNL     1      15.414 -19.904  17.416  1.00  0.00    -0.452 OA
ATOM      8  C   UNL     1      15.400 -17.721  16.528  1.00  0.00     0.094 A 
ATOM      9  C   UNL     1      15.395 -16.333  16.730  1.00  0.00     0.119 A 
ATOM     10  C   UNL     1      15.405 -15.820  18.030  1.00  0.00     0.047 A 
ATOM     11  C   UNL     1      15.421 -16.683  19.131  1.00  0.00     0.020 A 
ENDROOT
BRANCH   1  12
ATOM     12  C   UNL     1      15.409 -22.234  18.044  1.00  0.00     0.025 A 
ATOM     13  C   UNL     1      14.231 -22.871  17.622  1.00  0.00     0.016 A 
ATOM     14  C   UNL     1      14.249 -24.221  17.265  1.00  0.00     0.051 A 
ATOM     15  C   UNL     1      15.438 -24.957  17.311  1.00  0.00     0.157 A 
ATOM     16  C   UNL     1      16.607 -22.964  18.071  1.00  0.00     0.062 A 
ATOM     17  C   UNL     1      16.635 -24.319  17.715  1.00  0.00     0.158 A 
BRANCH  15  18
ATOM     18  O   UNL     1      15.388 -26.304  16.947  1.00  0.00    -0.504 OA
ATOM     19  H   UNL     1      15.834 -26.684  16.125  1.00  0.00     0.293 HD
ENDBRANCH  15  18
BRANCH  17  20
ATOM     20  O   UNL     1      17.861 -24.984  17.777  1.00  0.00    -0.504 OA
ATOM     21  H   UNL     1      18.242 -25.390  18.620  1.00  0.00     0.293 HD
ENDBRANCH  17  20
ENDBRANCH   1  12
BRANCH   2  22
ATOM     22  O   UNL     1      15.532 -21.287  20.789  1.00  0.00    -0.502 OA
ATOM     23  H   UNL     1      15.909 -21.049  21.697  1.00  0.00     0.293 HD
ENDBRANCH   2  22
BRANCH   9  24
ATOM     24  O   UNL     1      15.381 -15.459  15.646  1.00  0.00    -0.508 OA
ATOM     25  H   UNL     1      15.852 -15.684  14.777  1.00  0.00     0.293 HD
ENDBRANCH   9  24
TORSDOF 5
ENDMDL
MODEL 6
REMARK VINA RESULT:    -5.972      3.004      7.237
REMARK INTER + INTRA:          -7.322
REMARK INTER:                  -7.259
REMARK INTRA:                  -0.063
REMARK UNBOUND:                -0.303
REMARK SMILES O=c1c(O)c(-c2ccc(O)c(O)c2)oc2cc(O)ccc12
REMARK SMILES IDX 5 1 3 2 2 3 1 4 21 5 15 6 14 7 16 8 17 9 19 10 20 11 6 12
REMARK SMILES IDX 7 13 8 14 9 15 13 16 11 17 10 18 12 20 4 22 18 24
REMARK H PARENT 10 19 12 21 4 23 18 25
REMARK Flexibility Score: inf
ROOT
ATOM      1  C   UNL     1      16.681 -16.484  17.031  1.00  0.00     0.180 A 
ATOM      2  C   UNL     1      16.103 -16.159  18.275  1.00  0.00     0.208 A 
ATOM      3  C   UNL     1      15.258 -17.095  18.892  1.00  0.00     0.235 A 
ATOM      4  O   UNL     1      14.737 -16.831  20.011  1.00  0.00    -0.285 OA
ATOM      5  C   UNL     1      14.994 -18.315  18.253  1.00  0.00     0.069 A 
ATOM      6  C   UNL     1      15.592 -18.556  16.997  1.00  0.00     0.142 A 
ATOM      7  O   UNL     1      16.394 -17.648  16.450  1.00  0.00    -0.452 OA
ATOM      8  C   UNL     1      15.347 -19.756  16.323  1.00  0.00     0.094 A 
ATOM      9  C   UNL     1      14.508 -20.726  16.890  1.00  0.00     0.119 A 
ATOM     10  C   UNL     1      13.915 -20.490  18.134  1.00  0.00     0.047 A 
ATOM     11  C   UNL     1      14.153 -19.292  18.816  1.00  0.00     0.020 A 
ENDROOT
BRANCH   1  12
ATOM     12  C   UNL     1      17.597 -15.560  16.324  1.00  0.00     0.025 A 
ATOM     13  C   UNL     1      17.208 -14.251  15.999  1.00  0.00     0.016 A 
ATOM     14  C   UNL     1      18.097 -13.391  15.353  1.00  0.00     0.051 A 
ATOM     15  C   UNL     1      19.392 -13.811  15.030  1.00  0.00     0.157 A 
ATOM     16  C   UNL     1      18.902 -15.978  16.020  1.00  0.00     0.062 A 
ATOM     17  C   UNL     1      19.801 -15.122  15.372  1.00  0.00     0.158 A 
BRANCH  15  18
ATOM     18  O   UNL     1      20.231 -12.904  14.380  1.00  0.00    -0.504 OA
ATOM     19  H   UNL     1      20.753 -13.118  13.543  1.00  0.00     0.293 HD
ENDBRANCH  15  18
BRANCH  17  20
ATOM     20  O   UNL     1      21.080 -15.610  15.091  1.00  0.00    -0.504 OA
ATOM     21  H   UNL     1      21.488 -15.626  14.167  1.00  0.00     0.293 HD
ENDBRANCH  17  20
ENDBRANCH   1  12
BRANCH   2  22
ATOM     22  O   UNL     1      16.344 -14.916  18.865  1.00  0.00    -0.502 OA
ATOM     23  H   UNL     1      16.488 -14.076  18.318  1.00  0.00     0.293 HD
ENDBRANCH   2  22
BRANCH   9  24
ATOM     24  O   UNL     1      14.258 -21.923  16.226  1.00  0.00    -0.508 OA
ATOM     25  H   UNL     1      13.317 -22.208  15.980  1.00  0.00     0.293 HD
ENDBRANCH   9  24
TORSDOF 5
ENDMDL
MODEL 7
REMARK VINA RESULT:    -5.963      2.690      4.245
REMARK INTER + INTRA:          -7.311
REMARK INTER:                  -7.045
REMARK INTRA:                  -0.267
REMARK UNBOUND:                -0.303
REMARK SMILES O=c1c(O)c(-c2ccc(O)c(O)c2)oc2cc(O)ccc12
REMARK SMILES IDX 5 1 3 2 2 3 1 4 21 5 15 6 14 7 16 8 17 9 19 10 20 11 6 12
REMARK SMILES IDX 7 13 8 14 9 15 13 16 11 17 10 18 12 20 4 22 18 24
REMARK H PARENT 10 19 12 21 4 23 18 25
REMARK Flexibility Score: inf
ROOT
ATOM      1  C   UNL     1      15.052 -22.046  18.822  1.00  0.00     0.180 A 
ATOM      2  C   UNL     1      14.768 -20.962  17.966  1.00  0.00     0.208 A 
ATOM      3  C   UNL     1      14.184 -19.806  18.509  1.00  0.00     0.235 A 
ATOM      4  O   UNL     1      13.930 -18.820  17.765  1.00  0.00    -0.285 OA
ATOM      5  C   UNL     1      13.881 -19.764  19.878  1.00  0.00     0.069 A 
ATOM      6  C   UNL     1      14.174 -20.899  20.664  1.00  0.00     0.142 A 
ATOM      7  O   UNL     1      14.735 -21.970  20.114  1.00  0.00    -0.452 OA
ATOM      8  C   UNL     1      13.877 -20.900  22.031  1.00  0.00     0.094 A 
ATOM      9  C   UNL     1      13.290 -19.774  22.626  1.00  0.00     0.119 A 
ATOM     10  C   UNL     1      13.000 -18.648  21.850  1.00  0.00     0.047 A 
ATOM     11  C   UNL     1      13.291 -18.638  20.482  1.00  0.00     0.020 A 
ENDROOT
BRANCH   1  12
ATOM     12  C   UNL     1      15.684 -23.292  18.331  1.00  0.00     0.025 A 
ATOM     13  C   UNL     1      17.034 -23.578  18.590  1.00  0.00     0.016 A 
ATOM     14  C   UNL     1      17.601 -24.770  18.137  1.00  0.00     0.051 A 
ATOM     15  C   UNL     1      16.834 -25.704  17.430  1.00  0.00     0.157 A 
ATOM     16  C   UNL     1      14.907 -24.236  17.642  1.00  0.00     0.062 A 
ATOM     17  C   UNL     1      15.468 -25.434  17.183  1.00  0.00     0.158 A 
BRANCH  15  18
ATOM     18  O   UNL     1      17.463 -26.874  17.001  1.00  0.00    -0.504 OA
ATOM     19  H   UNL     1      18.124 -27.397  17.557  1.00  0.00     0.293 HD
ENDBRANCH  15  18
BRANCH  17  20
ATOM     20  O   UNL     1      14.637 -26.321  16.494  1.00  0.00    -0.504 OA
ATOM     21  H   UNL     1      14.804 -27.314  16.425  1.00  0.00     0.293 HD
ENDBRANCH  17  20
ENDBRANCH   1  12
BRANCH   2  22
ATOM     22  O   UNL     1      15.036 -21.052  16.597  1.00  0.00    -0.502 OA
ATOM     23  H   UNL     1      14.362 -20.774  15.895  1.00  0.00     0.293 HD
ENDBRANCH   2  22
BRANCH   9  24
ATOM     24  O   UNL     1      12.992 -19.767  23.986  1.00  0.00    -0.508 OA
ATOM     25  H   UNL     1      12.574 -18.959  24.434  1.00  0.00     0.293 HD
ENDBRANCH   9  24
TORSDOF 5
ENDMDL
MODEL 8
REMARK VINA RESULT:    -5.952      2.411      7.063
REMARK INTER + INTRA:          -7.298
REMARK INTER:                  -6.982
REMARK INTRA:                  -0.317
REMARK UNBOUND:                -0.303
REMARK SMILES O=c1c(O)c(-c2ccc(O)c(O)c2)oc2cc(O)ccc12
REMARK SMILES IDX 5 1 3 2 2 3 1 4 21 5 15 6 14 7 16 8 17 9 19 10 20 11 6 12
REMARK SMILES IDX 7 13 8 14 9 15 13 16 11 17 10 18 12 20 4 22 18 24
REMARK H PARENT 10 19 12 21 4 23 18 25
REMARK Flexibility Score: inf
ROOT
ATOM      1  C   UNL     1      16.216 -22.203  18.121  1.00  0.00     0.180 A 
ATOM      2  C   UNL     1      16.990 -22.230  19.300  1.00  0.00     0.208 A 
ATOM      3  C   UNL     1      17.553 -23.448  19.711  1.00  0.00     0.235 A 
ATOM      4  O   UNL     1      18.257 -23.496  20.756  1.00  0.00    -0.285 OA
ATOM      5  C   UNL     1      17.318 -24.607  18.956  1.00  0.00     0.069 A 
ATOM      6  C   UNL     1      16.513 -24.502  17.801  1.00  0.00     0.142 A 
ATOM      7  O   UNL     1      16.006 -23.328  17.441  1.00  0.00    -0.452 OA
ATOM      8  C   UNL     1      16.247 -25.636  17.027  1.00  0.00     0.094 A 
ATOM      9  C   UNL     1      16.781 -26.881  17.391  1.00  0.00     0.119 A 
ATOM     10  C   UNL     1      17.580 -26.987  18.534  1.00  0.00     0.047 A 
ATOM     11  C   UNL     1      17.850 -25.859  19.316  1.00  0.00     0.020 A 
ENDROOT
BRANCH   1  12
ATOM     12  C   UNL     1      15.603 -20.955  17.611  1.00  0.00     0.025 A 
ATOM     13  C   UNL     1      14.311 -20.565  17.995  1.00  0.00     0.016 A 
ATOM     14  C   UNL     1      13.763 -19.372  17.519  1.00  0.00     0.051 A 
ATOM     15  C   UNL     1      14.495 -18.541  16.664  1.00  0.00     0.157 A 
ATOM     16  C   UNL     1      16.348 -20.112  16.771  1.00  0.00     0.062 A 
ATOM     17  C   UNL     1      15.807 -18.914  16.288  1.00  0.00     0.158 A 
BRANCH  15  18
ATOM     18  O   UNL     1      13.888 -17.365  16.220  1.00  0.00    -0.504 OA
ATOM     19  H   UNL     1      12.892 -17.249  16.111  1.00  0.00     0.293 HD
ENDBRANCH  15  18
BRANCH  17  20
ATOM     20  O   UNL     1      16.602 -18.132  15.446  1.00  0.00    -0.504 OA
ATOM     21  H   UNL     1      17.509 -18.414  15.105  1.00  0.00     0.293 HD
ENDBRANCH  17  20
ENDBRANCH   1  12
BRANCH   2  22
ATOM     22  O   UNL     1      17.165 -21.070  20.059  1.00  0.00    -0.502 OA
ATOM     23  H   UNL     1      16.575 -20.847  20.851  1.00  0.00     0.293 HD
ENDBRANCH   2  22
BRANCH   9  24
ATOM     24  O   UNL     1      16.522 -28.015  16.626  1.00  0.00    -0.508 OA
ATOM     25  H   UNL     1      17.047 -28.217  15.783  1.00  0.00     0.293 HD
ENDBRANCH   9  24
TORSDOF 5
ENDMDL
MODEL 9
REMARK VINA RESULT:    -5.944      2.465      7.515
REMARK INTER + INTRA:          -7.289
REMARK INTER:                  -6.982
REMARK INTRA:                  -0.307
REMARK UNBOUND:                -0.303
REMARK SMILES O=c1c(O)c(-c2ccc(O)c(O)c2)oc2cc(O)ccc12
REMARK SMILES IDX 5 1 3 2 2 3 1 4 21 5 15 6 14 7 16 8 17 9 19 10 20 11 6 12
REMARK SMILES IDX 7 13 8 14 9 15 13 16 11 17 10 18 12 20 4 22 18 24
REMARK H PARENT 10 19 12 21 4 23 18 25
REMARK Flexibility Score: inf
ROOT
ATOM      1  C   UNL     1      16.076 -17.004  17.422  1.00  0.00     0.180 A 
ATOM      2  C   UNL     1      14.888 -17.171  16.680  1.00  0.00     0.208 A 
ATOM      3  C   UNL     1      14.390 -18.468  16.483  1.00  0.00     0.235 A 
ATOM      4  O   UNL     1      13.323 -18.642  15.832  1.00  0.00    -0.285 OA
ATOM      5  C   UNL     1      15.091 -19.564  17.008  1.00  0.00     0.069 A 
ATOM      6  C   UNL     1      16.286 -19.317  17.718  1.00  0.00     0.142 A 
ATOM      7  O   UNL     1      16.719 -18.073  17.890  1.00  0.00    -0.452 OA
ATOM      8  C   UNL     1      17.020 -20.383  18.248  1.00  0.00     0.094 A 
ATOM      9  C   UNL     1      16.572 -21.701  18.078  1.00  0.00     0.119 A 
ATOM     10  C   UNL     1      15.388 -21.949  17.376  1.00  0.00     0.047 A 
ATOM     11  C   UNL     1      14.648 -20.889  16.841  1.00  0.00     0.020 A 
ENDROOT
BRANCH   1  12
ATOM     12  C   UNL     1      16.656 -15.669  17.690  1.00  0.00     0.025 A 
ATOM     13  C   UNL     1      17.646 -15.122  16.858  1.00  0.00     0.016 A 
ATOM     14  C   UNL     1      18.161 -13.850  17.118  1.00  0.00     0.051 A 
ATOM     15  C   UNL     1      17.692 -13.096  18.199  1.00  0.00     0.157 A 
ATOM     16  C   UNL     1      16.168 -14.906  18.762  1.00  0.00     0.062 A 
ATOM     17  C   UNL     1      16.679 -13.629  19.030  1.00  0.00     0.158 A 
BRANCH  15  18
ATOM     18  O   UNL     1      18.252 -11.834  18.406  1.00  0.00    -0.504 OA
ATOM     19  H   UNL     1      18.782 -11.330  17.711  1.00  0.00     0.293 HD
ENDBRANCH  15  18
BRANCH  17  20
ATOM     20  O   UNL     1      16.154 -12.933  20.121  1.00  0.00    -0.504 OA
ATOM     21  H   UNL     1      16.698 -12.330  20.721  1.00  0.00     0.293 HD
ENDBRANCH  17  20
ENDBRANCH   1  12
BRANCH   2  22
ATOM     22  O   UNL     1      14.238 -16.064  16.127  1.00  0.00    -0.502 OA
ATOM     23  H   UNL     1      14.514 -15.661  15.241  1.00  0.00     0.293 HD
ENDBRANCH   2  22
BRANCH   9  24
ATOM     24  O   UNL     1      17.296 -22.769  18.603  1.00  0.00    -0.508 OA
ATOM     25  H   UNL     1      16.860 -23.663  18.793  1.00  0.00     0.293 HD
ENDBRANCH   9  24
TORSDOF 5
ENDMDL
