MODEL 1
REMARK VINA RESULT:    -3.422      0.000      0.000
REMARK INTER + INTRA:          -3.847
REMARK INTER:                  -3.822
REMARK INTRA:                  -0.025
REMARK UNBOUND:                -0.025
REMARK SMILES CC(C)CC=O
REMARK SMILES IDX 4 1 2 2 1 3 3 4 5 5 6 6
REMARK H PARENT
REMARK Flexibility Score: inf
ROOT
ATOM      1  C   UNL     1      24.411  57.099  -8.687  1.00  0.00     0.075 C 
ENDROOT
BRANCH   1   2
ATOM      2  C   UNL     1      24.422  55.578  -8.428  1.00  0.00    -0.010 C 
ATOM      3  C   UNL     1      25.797  55.102  -7.935  1.00  0.00     0.008 C 
ATOM      4  C   UNL     1      23.341  55.208  -7.405  1.00  0.00     0.008 C 
ENDBRANCH   1   2
BRANCH   1   5
ATOM      5  C   UNL     1      25.768  57.619  -9.059  1.00  0.00     0.224 C 
ATOM      6  O   UNL     1      25.928  58.800  -9.326  1.00  0.00    -0.303 OA
ENDBRANCH   1   5
TORSDOF 2
ENDMDL
MODEL 2
REMARK VINA RESULT:    -3.115     16.998     17.662
REMARK INTER + INTRA:          -3.505
REMARK INTER:                  -3.439
REMARK INTRA:                  -0.066
REMARK UNBOUND:                -0.025
REMARK SMILES CC(C)CC=O
REMARK SMILES IDX 4 1 2 2 1 3 3 4 5 5 6 6
REMARK H PARENT
REMARK Flexibility Score: inf
ROOT
ATOM      1  C   UNL     1      14.774  42.338 -14.164  1.00  0.00     0.075 C 
ENDROOT
BRANCH   1   2
ATOM      2  C   UNL     1      14.720  43.730 -14.827  1.00  0.00    -0.010 C 
ATOM      3  C   UNL     1      14.316  44.817 -13.820  1.00  0.00     0.008 C 
ATOM      4  C   UNL     1      16.078  44.071 -15.452  1.00  0.00     0.008 C 
ENDBRANCH   1   2
BRANCH   1   5
ATOM      5  C   UNL     1      16.094  42.078 -13.500  1.00  0.00     0.224 C 
ATOM      6  O   UNL     1      16.169  41.981 -12.285  1.00  0.00    -0.303 OA
ENDBRANCH   1   5
TORSDOF 2
ENDMDL
MODEL 3
REMARK VINA RESULT:    -3.055      2.504      3.366
REMARK INTER + INTRA:          -3.437
REMARK INTER:                  -3.405
REMARK INTRA:                  -0.031
REMARK UNBOUND:                -0.025
REMARK SMILES CC(C)CC=O
REMARK SMILES IDX 4 1 2 2 1 3 3 4 5 5 6 6
REMARK H PARENT
REMARK Flexibility Score: inf
ROOT
ATOM      1  C   UNL     1      23.626  56.146  -7.997  1.00  0.00     0.075 C 
ENDROOT
BRANCH   1   2
ATOM      2  C   UNL     1      24.976  55.973  -8.724  1.00  0.00    -0.010 C 
ATOM      3  C   UNL     1      25.653  57.327  -8.982  1.00  0.00     0.008 C 
ATOM      4  C   UNL     1      25.906  55.069  -7.905  1.00  0.00     0.008 C 
ENDBRANCH   1   2
BRANCH   1   5
ATOM      5  C   UNL     1      23.138  54.861  -7.396  1.00  0.00     0.224 C 
ATOM      6  O   UNL     1      22.834  54.804  -6.214  1.00  0.00    -0.303 OA
ENDBRANCH   1   5
TORSDOF 2
ENDMDL
MODEL 4
REMARK VINA RESULT:    -3.042     16.514     17.726
REMARK INTER + INTRA:          -3.422
REMARK INTER:                  -3.356
REMARK INTRA:                  -0.066
REMARK UNBOUND:                -0.025
REMARK SMILES CC(C)CC=O
REMARK SMILES IDX 4 1 2 2 1 3 3 4 5 5 6 6
REMARK H PARENT
REMARK Flexibility Score: inf
ROOT
ATOM      1  C   UNL     1      18.817  43.754   2.382  1.00  0.00     0.075 C 
ENDROOT
BRANCH   1   2
ATOM      2  C   UNL     1      19.948  44.127   1.400  1.00  0.00    -0.010 C 
ATOM      3  C   UNL     1      20.788  42.900   1.018  1.00  0.00     0.008 C 
ATOM      4  C   UNL     1      19.362  44.776   0.140  1.00  0.00     0.008 C 
ENDBRANCH   1   2
BRANCH   1   5
ATOM      5  C   UNL     1      17.625  43.177   1.677  1.00  0.00     0.224 C 
ATOM      6  O   UNL     1      17.348  41.993   1.796  1.00  0.00    -0.303 OA
ENDBRANCH   1   5
TORSDOF 2
ENDMDL
MODEL 5
REMARK VINA RESULT:    -3.038     15.416     16.801
REMARK INTER + INTRA:          -3.419
REMARK INTER:                  -3.368
REMARK INTRA:                  -0.051
REMARK UNBOUND:                -0.025
REMARK SMILES CC(C)CC=O
REMARK SMILES IDX 4 1 2 2 1 3 3 4 5 5 6 6
REMARK H PARENT
REMARK Flexibility Score: inf
ROOT
ATOM      1  C   UNL     1      19.732  43.843   1.616  1.00  0.00     0.075 C 
ENDROOT
BRANCH   1   2
ATOM      2  C   UNL     1      18.984  44.127   0.297  1.00  0.00    -0.010 C 
ATOM      3  C   UNL     1      17.463  44.127   0.502  1.00  0.00     0.008 C 
ATOM      4  C   UNL     1      19.435  45.472  -0.287  1.00  0.00     0.008 C 
ENDBRANCH   1   2
BRANCH   1   5
ATOM      5  C   UNL     1      20.959  43.007   1.402  1.00  0.00     0.224 C 
ATOM      6  O   UNL     1      21.128  42.413   0.348  1.00  0.00    -0.303 OA
ENDBRANCH   1   5
TORSDOF 2
ENDMDL
MODEL 6
REMARK VINA RESULT:    -3.013     15.627     16.543
REMARK INTER + INTRA:          -3.390
REMARK INTER:                  -3.354
REMARK INTRA:                  -0.036
REMARK UNBOUND:                -0.025
REMARK SMILES CC(C)CC=O
REMARK SMILES IDX 4 1 2 2 1 3 3 4 5 5 6 6
REMARK H PARENT
REMARK Flexibility Score: inf
ROOT
ATOM      1  C   UNL     1      19.221  44.910   0.020  1.00  0.00     0.075 C 
ENDROOT
BRANCH   1   2
ATOM      2  C   UNL     1      19.743  44.191   1.281  1.00  0.00    -0.010 C 
ATOM      3  C   UNL     1      18.591  43.761   2.201  1.00  0.00     0.008 C 
ATOM      4  C   UNL     1      20.582  42.969   0.885  1.00  0.00     0.008 C 
ENDBRANCH   1   2
BRANCH   1   5
ATOM      5  C   UNL     1      17.735  44.776  -0.132  1.00  0.00     0.224 C 
ATOM      6  O   UNL     1      17.077  45.685  -0.615  1.00  0.00    -0.303 OA
ENDBRANCH   1   5
TORSDOF 2
ENDMDL
MODEL 7
REMARK VINA RESULT:    -2.896     13.884     15.060
REMARK INTER + INTRA:          -3.259
REMARK INTER:                  -3.235
REMARK INTRA:                  -0.024
REMARK UNBOUND:                -0.025
REMARK SMILES CC(C)CC=O
REMARK SMILES IDX 4 1 2 2 1 3 3 4 5 5 6 6
REMARK H PARENT
REMARK Flexibility Score: inf
ROOT
ATOM      1  C   UNL     1      29.249  44.659  -0.337  1.00  0.00     0.075 C 
ENDROOT
BRANCH   1   2
ATOM      2  C   UNL     1      30.663  45.173   0.006  1.00  0.00    -0.010 C 
ATOM      3  C   UNL     1      30.856  45.316   1.523  1.00  0.00     0.008 C 
ATOM      4  C   UNL     1      31.724  44.227  -0.571  1.00  0.00     0.008 C 
ENDBRANCH   1   2
BRANCH   1   5
ATOM      5  C   UNL     1      28.216  45.742  -0.239  1.00  0.00     0.224 C 
ATOM      6  O   UNL     1      28.116  46.585  -1.118  1.00  0.00    -0.303 OA
ENDBRANCH   1   5
TORSDOF 2
ENDMDL
MODEL 8
REMARK VINA RESULT:    -2.879     17.281     17.518
REMARK INTER + INTRA:          -3.241
REMARK INTER:                  -3.202
REMARK INTRA:                  -0.038
REMARK UNBOUND:                -0.025
REMARK SMILES CC(C)CC=O
REMARK SMILES IDX 4 1 2 2 1 3 3 4 5 5 6 6
REMARK H PARENT
REMARK Flexibility Score: inf
ROOT
ATOM      1  C   UNL     1      16.086  42.643 -14.033  1.00  0.00     0.075 C 
ENDROOT
BRANCH   1   2
ATOM      2  C   UNL     1      15.337  42.680 -12.685  1.00  0.00    -0.010 C 
ATOM      3  C   UNL     1      14.043  43.501 -12.784  1.00  0.00     0.008 C 
ATOM      4  C   UNL     1      15.020  41.255 -12.216  1.00  0.00     0.008 C 
ENDBRANCH   1   2
BRANCH   1   5
ATOM      5  C   UNL     1      15.442  43.523 -15.063  1.00  0.00     0.224 C 
ATOM      6  O   UNL     1      16.071  44.431 -15.584  1.00  0.00    -0.303 OA
ENDBRANCH   1   5
TORSDOF 2
ENDMDL
MODEL 9
REMARK VINA RESULT:    -2.808     15.517     16.876
REMARK INTER + INTRA:          -3.161
REMARK INTER:                  -3.089
REMARK INTRA:                  -0.072
REMARK UNBOUND:                -0.025
REMARK SMILES CC(C)CC=O
REMARK SMILES IDX 4 1 2 2 1 3 3 4 5 5 6 6
REMARK H PARENT
REMARK Flexibility Score: inf
ROOT
ATOM      1  C   UNL     1      18.688  43.457   0.166  1.00  0.00     0.075 C 
ENDROOT
BRANCH   1   2
ATOM      2  C   UNL     1      18.191  43.287   1.616  1.00  0.00    -0.010 C 
ATOM      3  C   UNL     1      19.180  43.893   2.623  1.00  0.00     0.008 C 
ATOM      4  C   UNL     1      16.810  43.934   1.782  1.00  0.00     0.008 C 
ENDBRANCH   1   2
BRANCH   1   5
ATOM      5  C   UNL     1      19.513  44.697  -0.008  1.00  0.00     0.224 C 
ATOM      6  O   UNL     1      19.011  45.719  -0.449  1.00  0.00    -0.303 OA
ENDBRANCH   1   5
TORSDOF 2
ENDMDL
