MODEL 1
REMARK VINA RESULT:    -5.927      0.000      0.000
REMARK INTER + INTRA:         -15.033
REMARK INTER:                 -12.858
REMARK INTRA:                  -2.176
REMARK UNBOUND:                -2.176
REMARK SMILES CCCCCCCCCCCCCCCCCCCCCC(=O)[O-]
REMARK SMILES IDX 12 1 11 2 10 3 9 4 8 5 7 6 6 7 5 8 4 9 3 10 2 11 1 12 13 13
REMARK SMILES IDX 14 14 15 15 16 16 17 17 18 18 19 19 20 20 21 21 22 22 23 23
REMARK SMILES IDX 24 24
REMARK H PARENT
REMARK Flexibility Score: inf
ROOT
ATOM      1  C   UNL     1      96.960 124.193 126.158  1.00  0.00     0.000 C 
ENDROOT
BRANCH   1   2
ATOM      2  C   UNL     1      96.697 124.582 124.696  1.00  0.00     0.000 C 
BRANCH   2   3
ATOM      3  C   UNL     1      95.989 123.449 123.944  1.00  0.00     0.000 C 
BRANCH   3   4
ATOM      4  C   UNL     1      94.472 123.486 124.194  1.00  0.00    -0.000 C 
BRANCH   4   5
ATOM      5  C   UNL     1      93.673 122.750 123.107  1.00  0.00    -0.000 C 
BRANCH   5   6
ATOM      6  C   UNL     1      94.529 121.744 122.322  1.00  0.00    -0.000 C 
BRANCH   6   7
ATOM      7  C   UNL     1      93.833 121.232 121.050  1.00  0.00    -0.000 C 
BRANCH   7   8
ATOM      8  C   UNL     1      94.776 121.113 119.833  1.00  0.00    -0.000 C 
BRANCH   8   9
ATOM      9  C   UNL     1      94.000 120.999 118.509  1.00  0.00    -0.000 C 
BRANCH   9  10
ATOM     10  C   UNL     1      92.825 121.986 118.421  1.00  0.00    -0.000 C 
BRANCH  10  11
ATOM     11  C   UNL     1      92.150 121.983 117.042  1.00  0.00    -0.003 C 
ATOM     12  C   UNL     1      92.732 120.893 116.147  1.00  0.00     0.004 C 
ENDBRANCH  10  11
ENDBRANCH   9  10
ENDBRANCH   8   9
ENDBRANCH   7   8
ENDBRANCH   6   7
ENDBRANCH   5   6
ENDBRANCH   4   5
ENDBRANCH   3   4
ENDBRANCH   2   3
ENDBRANCH   1   2
BRANCH   1  13
ATOM     13  C   UNL     1      98.377 123.640 126.383  1.00  0.00     0.000 C 
BRANCH  13  14
ATOM     14  C   UNL     1      98.948 124.016 127.762  1.00  0.00     0.000 C 
BRANCH  14  15
ATOM     15  C   UNL     1     100.450 124.346 127.708  1.00  0.00     0.000 C 
BRANCH  15  16
ATOM     16  C   UNL     1     100.832 125.126 126.438  1.00  0.00     0.000 C 
BRANCH  16  17
ATOM     17  C   UNL     1     100.468 126.618 126.529  1.00  0.00     0.000 C 
BRANCH  17  18
ATOM     18  C   UNL     1      99.403 127.030 125.502  1.00  0.00     0.000 C 
BRANCH  18  19
ATOM     19  C   UNL     1      98.264 127.809 126.171  1.00  0.00     0.000 C 
BRANCH  19  20
ATOM     20  C   UNL     1      98.414 127.803 127.698  1.00  0.00     0.006 C 
BRANCH  20  21
ATOM     21  C   UNL     1      97.079 127.502 128.383  1.00  0.00     0.053 C 
BRANCH  21  22
ATOM     22  C   UNL     1      96.579 128.711 129.109  1.00  0.00     0.041 C 
ATOM     23  O   UNL     1      95.854 128.584 130.129  1.00  0.00    -0.550 OA
ATOM     24  O   UNL     1      96.959 129.980 128.687  1.00  0.00    -0.550 OA
ENDBRANCH  21  22
ENDBRANCH  20  21
ENDBRANCH  19  20
ENDBRANCH  18  19
ENDBRANCH  17  18
ENDBRANCH  16  17
ENDBRANCH  15  16
ENDBRANCH  14  15
ENDBRANCH  13  14
ENDBRANCH   1  13
TORSDOF 20
ENDMDL
MODEL 2
REMARK VINA RESULT:    -5.756      2.156      2.957
REMARK INTER + INTRA:         -14.662
REMARK INTER:                 -12.796
REMARK INTRA:                  -1.866
REMARK UNBOUND:                -2.176
REMARK SMILES CCCCCCCCCCCCCCCCCCCCCC(=O)[O-]
REMARK SMILES IDX 12 1 11 2 10 3 9 4 8 5 7 6 6 7 5 8 4 9 3 10 2 11 1 12 13 13
REMARK SMILES IDX 14 14 15 15 16 16 17 17 18 18 19 19 20 20 21 21 22 22 23 23
REMARK SMILES IDX 24 24
REMARK H PARENT
REMARK Flexibility Score: inf
ROOT
ATOM      1  C   UNL     1      97.416 123.860 126.104  1.00  0.00     0.000 C 
ENDROOT
BRANCH   1   2
ATOM      2  C   UNL     1      96.760 124.629 124.947  1.00  0.00     0.000 C 
BRANCH   2   3
ATOM      3  C   UNL     1      95.607 123.824 124.335  1.00  0.00     0.000 C 
BRANCH   3   4
ATOM      4  C   UNL     1      96.094 122.987 123.141  1.00  0.00    -0.000 C 
BRANCH   4   5
ATOM      5  C   UNL     1      95.163 121.806 122.825  1.00  0.00    -0.000 C 
BRANCH   5   6
ATOM      6  C   UNL     1      93.748 122.258 122.430  1.00  0.00    -0.000 C 
BRANCH   6   7
ATOM      7  C   UNL     1      93.256 121.607 121.126  1.00  0.00    -0.000 C 
BRANCH   7   8
ATOM      8  C   UNL     1      94.392 121.252 120.143  1.00  0.00    -0.000 C 
BRANCH   8   9
ATOM      9  C   UNL     1      93.868 121.004 118.718  1.00  0.00    -0.000 C 
BRANCH   9  10
ATOM     10  C   UNL     1      92.515 121.683 118.455  1.00  0.00    -0.000 C 
BRANCH  10  11
ATOM     11  C   UNL     1      92.328 122.088 116.986  1.00  0.00    -0.003 C 
ATOM     12  C   UNL     1      92.696 120.941 116.049  1.00  0.00     0.004 C 
ENDBRANCH  10  11
ENDBRANCH   9  10
ENDBRANCH   8   9
ENDBRANCH   7   8
ENDBRANCH   6   7
ENDBRANCH   5   6
ENDBRANCH   4   5
ENDBRANCH   3   4
ENDBRANCH   2   3
ENDBRANCH   1   2
BRANCH   1  13
ATOM     13  C   UNL     1      98.687 124.545 126.632  1.00  0.00     0.000 C 
BRANCH  13  14
ATOM     14  C   UNL     1      99.066 124.079 128.049  1.00  0.00     0.000 C 
BRANCH  14  15
ATOM     15  C   UNL     1      98.929 125.200 129.094  1.00  0.00     0.000 C 
BRANCH  15  16
ATOM     16  C   UNL     1      97.460 125.486 129.454  1.00  0.00     0.000 C 
BRANCH  16  17
ATOM     17  C   UNL     1      97.149 126.992 129.511  1.00  0.00     0.000 C 
BRANCH  17  18
ATOM     18  C   UNL     1      98.207 127.842 128.791  1.00  0.00     0.000 C 
BRANCH  18  19
ATOM     19  C   UNL     1      97.639 128.454 127.504  1.00  0.00     0.000 C 
BRANCH  19  20
ATOM     20  C   UNL     1      98.428 127.986 126.275  1.00  0.00     0.006 C 
BRANCH  20  21
ATOM     21  C   UNL     1      99.928 127.915 126.575  1.00  0.00     0.053 C 
BRANCH  21  22
ATOM     22  C   UNL     1     100.719 127.974 125.306  1.00  0.00     0.041 C 
ATOM     23  O   UNL     1     101.139 126.916 124.771  1.00  0.00    -0.550 OA
ATOM     24  O   UNL     1     100.946 129.198 124.687  1.00  0.00    -0.550 OA
ENDBRANCH  21  22
ENDBRANCH  20  21
ENDBRANCH  19  20
ENDBRANCH  18  19
ENDBRANCH  17  18
ENDBRANCH  16  17
ENDBRANCH  15  16
ENDBRANCH  14  15
ENDBRANCH  13  14
ENDBRANCH   1  13
TORSDOF 20
ENDMDL
MODEL 3
REMARK VINA RESULT:    -5.715      1.834      2.600
REMARK INTER + INTRA:         -14.573
REMARK INTER:                 -12.836
REMARK INTRA:                  -1.737
REMARK UNBOUND:                -2.176
REMARK SMILES CCCCCCCCCCCCCCCCCCCCCC(=O)[O-]
REMARK SMILES IDX 12 1 11 2 10 3 9 4 8 5 7 6 6 7 5 8 4 9 3 10 2 11 1 12 13 13
REMARK SMILES IDX 14 14 15 15 16 16 17 17 18 18 19 19 20 20 21 21 22 22 23 23
REMARK SMILES IDX 24 24
REMARK H PARENT
REMARK Flexibility Score: inf
ROOT
ATOM      1  C   UNL     1      97.629 126.041 125.233  1.00  0.00     0.000 C 
ENDROOT
BRANCH   1   2
ATOM      2  C   UNL     1      97.490 124.969 126.323  1.00  0.00     0.000 C 
BRANCH   2   3
ATOM      3  C   UNL     1      97.349 123.572 125.706  1.00  0.00     0.000 C 
BRANCH   3   4
ATOM      4  C   UNL     1      96.453 123.610 124.457  1.00  0.00    -0.000 C 
BRANCH   4   5
ATOM      5  C   UNL     1      96.549 122.326 123.617  1.00  0.00    -0.000 C 
BRANCH   5   6
ATOM      6  C   UNL     1      95.866 122.464 122.248  1.00  0.00    -0.000 C 
BRANCH   6   7
ATOM      7  C   UNL     1      94.385 122.045 122.276  1.00  0.00    -0.000 C 
BRANCH   7   8
ATOM      8  C   UNL     1      93.951 121.224 121.042  1.00  0.00    -0.000 C 
BRANCH   8   9
ATOM      9  C   UNL     1      95.045 121.181 119.961  1.00  0.00    -0.000 C 
BRANCH   9  10
ATOM     10  C   UNL     1      94.481 120.936 118.553  1.00  0.00    -0.000 C 
BRANCH  10  11
ATOM     11  C   UNL     1      93.118 121.609 118.335  1.00  0.00    -0.003 C 
ATOM     12  C   UNL     1      92.548 121.263 116.962  1.00  0.00     0.004 C 
ENDBRANCH  10  11
ENDBRANCH   9  10
ENDBRANCH   8   9
ENDBRANCH   7   8
ENDBRANCH   6   7
ENDBRANCH   5   6
ENDBRANCH   4   5
ENDBRANCH   3   4
ENDBRANCH   2   3
ENDBRANCH   1   2
BRANCH   1  13
ATOM     13  C   UNL     1      98.787 127.016 125.499  1.00  0.00     0.000 C 
BRANCH  13  14
ATOM     14  C   UNL     1     100.081 126.298 125.924  1.00  0.00     0.000 C 
BRANCH  14  15
ATOM     15  C   UNL     1     101.319 126.824 125.179  1.00  0.00     0.000 C 
BRANCH  15  16
ATOM     16  C   UNL     1     101.008 128.073 124.336  1.00  0.00     0.000 C 
BRANCH  16  17
ATOM     17  C   UNL     1     102.022 129.208 124.565  1.00  0.00     0.000 C 
BRANCH  17  18
ATOM     18  C   UNL     1     102.009 129.729 126.010  1.00  0.00     0.000 C 
BRANCH  18  19
ATOM     19  C   UNL     1     100.584 130.077 126.458  1.00  0.00     0.000 C 
BRANCH  19  20
ATOM     20  C   UNL     1     100.509 130.238 127.981  1.00  0.00     0.006 C 
BRANCH  20  21
ATOM     21  C   UNL     1      99.849 129.021 128.634  1.00  0.00     0.053 C 
BRANCH  21  22
ATOM     22  C   UNL     1      98.572 129.416 129.308  1.00  0.00     0.041 C 
ATOM     23  O   UNL     1      98.382 129.136 130.520  1.00  0.00    -0.550 OA
ATOM     24  O   UNL     1      97.615 130.142 128.610  1.00  0.00    -0.550 OA
ENDBRANCH  21  22
ENDBRANCH  20  21
ENDBRANCH  19  20
ENDBRANCH  18  19
ENDBRANCH  17  18
ENDBRANCH  16  17
ENDBRANCH  15  16
ENDBRANCH  14  15
ENDBRANCH  13  14
ENDBRANCH   1  13
TORSDOF 20
ENDMDL
MODEL 4
REMARK VINA RESULT:    -5.622      1.652      2.331
REMARK INTER + INTRA:         -14.371
REMARK INTER:                 -12.921
REMARK INTRA:                  -1.450
REMARK UNBOUND:                -2.176
REMARK SMILES CCCCCCCCCCCCCCCCCCCCCC(=O)[O-]
REMARK SMILES IDX 12 1 11 2 10 3 9 4 8 5 7 6 6 7 5 8 4 9 3 10 2 11 1 12 13 13
REMARK SMILES IDX 14 14 15 15 16 16 17 17 18 18 19 19 20 20 21 21 22 22 23 23
REMARK SMILES IDX 24 24
REMARK H PARENT
REMARK Flexibility Score: inf
ROOT
ATOM      1  C   UNL     1      97.040 125.447 124.926  1.00  0.00     0.000 C 
ENDROOT
BRANCH   1   2
ATOM      2  C   UNL     1      96.558 123.991 125.008  1.00  0.00     0.000 C 
BRANCH   2   3
ATOM      3  C   UNL     1      95.429 123.728 124.004  1.00  0.00     0.000 C 
BRANCH   3   4
ATOM      4  C   UNL     1      95.905 122.806 122.870  1.00  0.00    -0.000 C 
BRANCH   4   5
ATOM      5  C   UNL     1      94.952 121.625 122.624  1.00  0.00    -0.000 C 
BRANCH   5   6
ATOM      6  C   UNL     1      93.541 122.080 122.219  1.00  0.00    -0.000 C 
BRANCH   6   7
ATOM      7  C   UNL     1      93.148 121.616 120.806  1.00  0.00    -0.000 C 
BRANCH   7   8
ATOM      8  C   UNL     1      94.355 121.245 119.918  1.00  0.00    -0.000 C 
BRANCH   8   9
ATOM      9  C   UNL     1      94.001 121.270 118.420  1.00  0.00    -0.000 C 
BRANCH   9  10
ATOM     10  C   UNL     1      92.490 121.394 118.168  1.00  0.00    -0.000 C 
BRANCH  10  11
ATOM     11  C   UNL     1      92.162 122.251 116.937  1.00  0.00    -0.003 C 
ATOM     12  C   UNL     1      92.764 123.648 117.063  1.00  0.00     0.004 C 
ENDBRANCH  10  11
ENDBRANCH   9  10
ENDBRANCH   8   9
ENDBRANCH   7   8
ENDBRANCH   6   7
ENDBRANCH   5   6
ENDBRANCH   4   5
ENDBRANCH   3   4
ENDBRANCH   2   3
ENDBRANCH   1   2
BRANCH   1  13
ATOM     13  C   UNL     1      97.983 125.829 126.079  1.00  0.00     0.000 C 
BRANCH  13  14
ATOM     14  C   UNL     1      99.280 126.496 125.587  1.00  0.00     0.000 C 
BRANCH  14  15
ATOM     15  C   UNL     1      99.922 127.396 126.657  1.00  0.00     0.000 C 
BRANCH  15  16
ATOM     16  C   UNL     1     100.225 128.809 126.127  1.00  0.00     0.000 C 
BRANCH  16  17
ATOM     17  C   UNL     1     100.002 129.899 127.190  1.00  0.00     0.000 C 
BRANCH  17  18
ATOM     18  C   UNL     1     101.108 129.921 128.255  1.00  0.00     0.000 C 
BRANCH  18  19
ATOM     19  C   UNL     1     100.614 129.317 129.575  1.00  0.00     0.000 C 
BRANCH  19  20
ATOM     20  C   UNL     1      99.097 129.483 129.725  1.00  0.00     0.006 C 
BRANCH  20  21
ATOM     21  C   UNL     1      98.430 128.157 130.101  1.00  0.00     0.053 C 
BRANCH  21  22
ATOM     22  C   UNL     1      97.145 127.987 129.353  1.00  0.00     0.041 C 
ATOM     23  O   UNL     1      96.203 127.321 129.855  1.00  0.00    -0.550 OA
ATOM     24  O   UNL     1      96.970 128.610 128.123  1.00  0.00    -0.550 OA
ENDBRANCH  21  22
ENDBRANCH  20  21
ENDBRANCH  19  20
ENDBRANCH  18  19
ENDBRANCH  17  18
ENDBRANCH  16  17
ENDBRANCH  15  16
ENDBRANCH  14  15
ENDBRANCH  13  14
ENDBRANCH   1  13
TORSDOF 20
ENDMDL
MODEL 5
REMARK VINA RESULT:    -5.620      2.130      2.851
REMARK INTER + INTRA:         -14.366
REMARK INTER:                 -12.622
REMARK INTRA:                  -1.743
REMARK UNBOUND:                -2.176
REMARK SMILES CCCCCCCCCCCCCCCCCCCCCC(=O)[O-]
REMARK SMILES IDX 12 1 11 2 10 3 9 4 8 5 7 6 6 7 5 8 4 9 3 10 2 11 1 12 13 13
REMARK SMILES IDX 14 14 15 15 16 16 17 17 18 18 19 19 20 20 21 21 22 22 23 23
REMARK SMILES IDX 24 24
REMARK H PARENT
REMARK Flexibility Score: inf
ROOT
ATOM      1  C   UNL     1      97.323 124.844 125.131  1.00  0.00     0.000 C 
ENDROOT
BRANCH   1   2
ATOM      2  C   UNL     1      96.099 124.641 124.226  1.00  0.00     0.000 C 
BRANCH   2   3
ATOM      3  C   UNL     1      95.696 123.163 124.169  1.00  0.00     0.000 C 
BRANCH   3   4
ATOM      4  C   UNL     1      96.606 122.381 123.208  1.00  0.00    -0.000 C 
BRANCH   4   5
ATOM      5  C   UNL     1      95.915 122.045 121.877  1.00  0.00    -0.000 C 
BRANCH   5   6
ATOM      6  C   UNL     1      94.414 121.765 122.044  1.00  0.00    -0.000 C 
BRANCH   6   7
ATOM      7  C   UNL     1      93.766 121.200 120.768  1.00  0.00    -0.000 C 
BRANCH   7   8
ATOM      8  C   UNL     1      94.766 120.974 119.614  1.00  0.00    -0.000 C 
BRANCH   8   9
ATOM      9  C   UNL     1      94.091 121.076 118.235  1.00  0.00    -0.000 C 
BRANCH   9  10
ATOM     10  C   UNL     1      92.660 121.630 118.314  1.00  0.00    -0.000 C 
BRANCH  10  11
ATOM     11  C   UNL     1      92.215 122.313 117.012  1.00  0.00    -0.003 C 
ATOM     12  C   UNL     1      92.689 123.763 116.962  1.00  0.00     0.004 C 
ENDBRANCH  10  11
ENDBRANCH   9  10
ENDBRANCH   8   9
ENDBRANCH   7   8
ENDBRANCH   6   7
ENDBRANCH   5   6
ENDBRANCH   4   5
ENDBRANCH   3   4
ENDBRANCH   2   3
ENDBRANCH   1   2
BRANCH   1  13
ATOM     13  C   UNL     1      97.259 124.007 126.419  1.00  0.00     0.000 C 
BRANCH  13  14
ATOM     14  C   UNL     1      98.519 123.148 126.632  1.00  0.00     0.000 C 
BRANCH  14  15
ATOM     15  C   UNL     1      99.036 123.210 128.078  1.00  0.00     0.000 C 
BRANCH  15  16
ATOM     16  C   UNL     1     100.420 123.875 128.176  1.00  0.00     0.000 C 
BRANCH  16  17
ATOM     17  C   UNL     1     101.199 123.817 126.851  1.00  0.00     0.000 C 
BRANCH  17  18
ATOM     18  C   UNL     1     101.535 125.211 126.301  1.00  0.00     0.000 C 
BRANCH  18  19
ATOM     19  C   UNL     1     100.480 126.239 126.726  1.00  0.00     0.000 C 
BRANCH  19  20
ATOM     20  C   UNL     1     100.113 127.168 125.561  1.00  0.00     0.006 C 
BRANCH  20  21
ATOM     21  C   UNL     1     101.226 128.184 125.293  1.00  0.00     0.053 C 
BRANCH  21  22
ATOM     22  C   UNL     1     100.911 129.492 125.949  1.00  0.00     0.041 C 
ATOM     23  O   UNL     1     101.178 130.575 125.367  1.00  0.00    -0.550 OA
ATOM     24  O   UNL     1     100.271 129.512 127.183  1.00  0.00    -0.550 OA
ENDBRANCH  21  22
ENDBRANCH  20  21
ENDBRANCH  19  20
ENDBRANCH  18  19
ENDBRANCH  17  18
ENDBRANCH  16  17
ENDBRANCH  15  16
ENDBRANCH  14  15
ENDBRANCH  13  14
ENDBRANCH   1  13
TORSDOF 20
ENDMDL
MODEL 6
REMARK VINA RESULT:    -5.595      1.024      1.628
REMARK INTER + INTRA:         -14.313
REMARK INTER:                 -12.479
REMARK INTRA:                  -1.834
REMARK UNBOUND:                -2.176
REMARK SMILES CCCCCCCCCCCCCCCCCCCCCC(=O)[O-]
REMARK SMILES IDX 12 1 11 2 10 3 9 4 8 5 7 6 6 7 5 8 4 9 3 10 2 11 1 12 13 13
REMARK SMILES IDX 14 14 15 15 16 16 17 17 18 18 19 19 20 20 21 21 22 22 23 23
REMARK SMILES IDX 24 24
REMARK H PARENT
REMARK Flexibility Score: inf
ROOT
ATOM      1  C   UNL     1      97.322 124.936 125.219  1.00  0.00     0.000 C 
ENDROOT
BRANCH   1   2
ATOM      2  C   UNL     1      96.194 124.875 124.179  1.00  0.00     0.000 C 
BRANCH   2   3
ATOM      3  C   UNL     1      95.581 123.471 124.115  1.00  0.00     0.000 C 
BRANCH   3   4
ATOM      4  C   UNL     1      95.986 122.753 122.817  1.00  0.00    -0.000 C 
BRANCH   4   5
ATOM      5  C   UNL     1      95.092 121.543 122.503  1.00  0.00    -0.000 C 
BRANCH   5   6
ATOM      6  C   UNL     1      93.664 121.951 122.108  1.00  0.00    -0.000 C 
BRANCH   6   7
ATOM      7  C   UNL     1      93.302 121.538 120.670  1.00  0.00    -0.000 C 
BRANCH   7   8
ATOM      8  C   UNL     1      94.521 121.115 119.822  1.00  0.00    -0.000 C 
BRANCH   8   9
ATOM      9  C   UNL     1      94.173 121.000 118.327  1.00  0.00    -0.000 C 
BRANCH   9  10
ATOM     10  C   UNL     1      92.674 121.190 118.049  1.00  0.00    -0.000 C 
BRANCH  10  11
ATOM     11  C   UNL     1      92.405 122.045 116.802  1.00  0.00    -0.003 C 
ATOM     12  C   UNL     1      92.647 123.524 117.087  1.00  0.00     0.004 C 
ENDBRANCH  10  11
ENDBRANCH   9  10
ENDBRANCH   8   9
ENDBRANCH   7   8
ENDBRANCH   6   7
ENDBRANCH   5   6
ENDBRANCH   4   5
ENDBRANCH   3   4
ENDBRANCH   2   3
ENDBRANCH   1   2
BRANCH   1  13
ATOM     13  C   UNL     1      97.281 123.765 126.214  1.00  0.00     0.000 C 
BRANCH  13  14
ATOM     14  C   UNL     1      98.589 123.620 127.014  1.00  0.00     0.000 C 
BRANCH  14  15
ATOM     15  C   UNL     1      98.809 124.779 128.000  1.00  0.00     0.000 C 
BRANCH  15  16
ATOM     16  C   UNL     1     100.236 125.348 127.925  1.00  0.00     0.000 C 
BRANCH  16  17
ATOM     17  C   UNL     1     100.658 125.698 126.488  1.00  0.00     0.000 C 
BRANCH  17  18
ATOM     18  C   UNL     1     101.282 127.097 126.379  1.00  0.00     0.000 C 
BRANCH  18  19
ATOM     19  C   UNL     1     100.709 128.040 127.444  1.00  0.00     0.000 C 
BRANCH  19  20
ATOM     20  C   UNL     1      99.631 128.955 126.848  1.00  0.00     0.006 C 
BRANCH  20  21
ATOM     21  C   UNL     1      98.257 128.279 126.874  1.00  0.00     0.053 C 
BRANCH  21  22
ATOM     22  C   UNL     1      97.538 128.604 128.145  1.00  0.00     0.041 C 
ATOM     23  O   UNL     1      97.517 129.785 128.578  1.00  0.00    -0.550 OA
ATOM     24  O   UNL     1      96.845 127.608 128.824  1.00  0.00    -0.550 OA
ENDBRANCH  21  22
ENDBRANCH  20  21
ENDBRANCH  19  20
ENDBRANCH  18  19
ENDBRANCH  17  18
ENDBRANCH  16  17
ENDBRANCH  15  16
ENDBRANCH  14  15
ENDBRANCH  13  14
ENDBRANCH   1  13
TORSDOF 20
ENDMDL
MODEL 7
REMARK VINA RESULT:    -5.587      4.572     10.653
REMARK INTER + INTRA:         -14.295
REMARK INTER:                 -12.750
REMARK INTRA:                  -1.545
REMARK UNBOUND:                -2.176
REMARK SMILES CCCCCCCCCCCCCCCCCCCCCC(=O)[O-]
REMARK SMILES IDX 12 1 11 2 10 3 9 4 8 5 7 6 6 7 5 8 4 9 3 10 2 11 1 12 13 13
REMARK SMILES IDX 14 14 15 15 16 16 17 17 18 18 19 19 20 20 21 21 22 22 23 23
REMARK SMILES IDX 24 24
REMARK H PARENT
REMARK Flexibility Score: inf
ROOT
ATOM      1  C   UNL     1      97.261 124.331 126.321  1.00  0.00     0.000 C 
ENDROOT
BRANCH   1   2
ATOM      2  C   UNL     1      98.439 123.348 126.387  1.00  0.00     0.000 C 
BRANCH   2   3
ATOM      3  C   UNL     1      99.677 124.014 127.002  1.00  0.00     0.000 C 
BRANCH   3   4
ATOM      4  C   UNL     1      99.607 125.543 126.858  1.00  0.00    -0.000 C 
BRANCH   4   5
ATOM      5  C   UNL     1     100.996 126.199 126.804  1.00  0.00    -0.000 C 
BRANCH   5   6
ATOM      6  C   UNL     1     101.458 126.486 125.366  1.00  0.00    -0.000 C 
BRANCH   6   7
ATOM      7  C   UNL     1     100.646 127.605 124.691  1.00  0.00    -0.000 C 
BRANCH   7   8
ATOM      8  C   UNL     1     101.247 129.013 124.892  1.00  0.00    -0.000 C 
BRANCH   8   9
ATOM      9  C   UNL     1     100.653 129.726 126.121  1.00  0.00    -0.000 C 
BRANCH   9  10
ATOM     10  C   UNL     1     101.655 129.847 127.280  1.00  0.00    -0.000 C 
BRANCH  10  11
ATOM     11  C   UNL     1     101.034 129.498 128.640  1.00  0.00    -0.003 C 
ATOM     12  C   UNL     1      99.511 129.489 128.563  1.00  0.00     0.004 C 
ENDBRANCH  10  11
ENDBRANCH   9  10
ENDBRANCH   8   9
ENDBRANCH   7   8
ENDBRANCH   6   7
ENDBRANCH   5   6
ENDBRANCH   4   5
ENDBRANCH   3   4
ENDBRANCH   2   3
ENDBRANCH   1   2
BRANCH   1  13
ATOM     13  C   UNL     1      96.870 124.698 124.880  1.00  0.00     0.000 C 
BRANCH  13  14
ATOM     14  C   UNL     1      95.836 123.727 124.281  1.00  0.00     0.000 C 
BRANCH  14  15
ATOM     15  C   UNL     1      96.493 122.561 123.523  1.00  0.00     0.000 C 
BRANCH  15  16
ATOM     16  C   UNL     1      95.803 122.275 122.178  1.00  0.00     0.000 C 
BRANCH  16  17
ATOM     17  C   UNL     1      94.412 121.640 122.351  1.00  0.00     0.000 C 
BRANCH  17  18
ATOM     18  C   UNL     1      93.859 121.061 121.039  1.00  0.00     0.000 C 
BRANCH  18  19
ATOM     19  C   UNL     1      94.882 121.195 119.904  1.00  0.00     0.000 C 
BRANCH  19  20
ATOM     20  C   UNL     1      94.217 120.994 118.536  1.00  0.00     0.006 C 
BRANCH  20  21
ATOM     21  C   UNL     1      92.831 121.644 118.494  1.00  0.00     0.053 C 
BRANCH  21  22
ATOM     22  C   UNL     1      92.588 122.271 117.157  1.00  0.00     0.041 C 
ATOM     23  O   UNL     1      92.301 121.555 116.163  1.00  0.00    -0.550 OA
ATOM     24  O   UNL     1      92.625 123.654 117.023  1.00  0.00    -0.550 OA
ENDBRANCH  21  22
ENDBRANCH  20  21
ENDBRANCH  19  20
ENDBRANCH  18  19
ENDBRANCH  17  18
ENDBRANCH  16  17
ENDBRANCH  15  16
ENDBRANCH  14  15
ENDBRANCH  13  14
ENDBRANCH   1  13
TORSDOF 20
ENDMDL
MODEL 8
REMARK VINA RESULT:    -5.376      4.628     10.672
REMARK INTER + INTRA:         -13.836
REMARK INTER:                 -12.663
REMARK INTRA:                  -1.173
REMARK UNBOUND:                -2.176
REMARK SMILES CCCCCCCCCCCCCCCCCCCCCC(=O)[O-]
REMARK SMILES IDX 12 1 11 2 10 3 9 4 8 5 7 6 6 7 5 8 4 9 3 10 2 11 1 12 13 13
REMARK SMILES IDX 14 14 15 15 16 16 17 17 18 18 19 19 20 20 21 21 22 22 23 23
REMARK SMILES IDX 24 24
REMARK H PARENT
REMARK Flexibility Score: inf
ROOT
ATOM      1  C   UNL     1      96.595 123.274 124.737  1.00  0.00     0.000 C 
ENDROOT
BRANCH   1   2
ATOM      2  C   UNL     1      97.507 124.046 125.702  1.00  0.00     0.000 C 
BRANCH   2   3
ATOM      3  C   UNL     1      97.409 125.557 125.462  1.00  0.00     0.000 C 
BRANCH   3   4
ATOM      4  C   UNL     1      98.476 126.314 126.270  1.00  0.00    -0.000 C 
BRANCH   4   5
ATOM      5  C   UNL     1      98.085 126.495 127.745  1.00  0.00    -0.000 C 
BRANCH   5   6
ATOM      6  C   UNL     1      97.634 127.929 128.065  1.00  0.00    -0.000 C 
BRANCH   6   7
ATOM      7  C   UNL     1      98.659 128.989 127.625  1.00  0.00    -0.000 C 
BRANCH   7   8
ATOM      8  C   UNL     1     100.060 128.790 128.243  1.00  0.00    -0.000 C 
BRANCH   8   9
ATOM      9  C   UNL     1     101.123 129.671 127.563  1.00  0.00    -0.000 C 
BRANCH   9  10
ATOM     10  C   UNL     1     100.847 129.887 126.066  1.00  0.00    -0.000 C 
BRANCH  10  11
ATOM     11  C   UNL     1     101.230 128.670 125.211  1.00  0.00    -0.003 C 
ATOM     12  C   UNL     1     101.988 129.096 123.957  1.00  0.00     0.004 C 
ENDBRANCH  10  11
ENDBRANCH   9  10
ENDBRANCH   8   9
ENDBRANCH   7   8
ENDBRANCH   6   7
ENDBRANCH   5   6
ENDBRANCH   4   5
ENDBRANCH   3   4
ENDBRANCH   2   3
ENDBRANCH   1   2
BRANCH   1  13
ATOM     13  C   UNL     1      95.465 124.143 124.161  1.00  0.00     0.000 C 
BRANCH  13  14
ATOM     14  C   UNL     1      94.075 123.504 124.342  1.00  0.00     0.000 C 
BRANCH  14  15
ATOM     15  C   UNL     1      93.593 122.775 123.077  1.00  0.00     0.000 C 
BRANCH  15  16
ATOM     16  C   UNL     1      94.550 121.648 122.650  1.00  0.00     0.000 C 
BRANCH  16  17
ATOM     17  C   UNL     1      94.073 120.917 121.383  1.00  0.00     0.000 C 
BRANCH  17  18
ATOM     18  C   UNL     1      94.935 121.241 120.154  1.00  0.00     0.000 C 
BRANCH  18  19
ATOM     19  C   UNL     1      94.076 121.324 118.886  1.00  0.00     0.000 C 
BRANCH  19  20
ATOM     20  C   UNL     1      92.641 121.749 119.218  1.00  0.00     0.006 C 
BRANCH  20  21
ATOM     21  C   UNL     1      91.728 121.619 117.996  1.00  0.00     0.053 C 
BRANCH  21  22
ATOM     22  C   UNL     1      92.351 122.278 116.805  1.00  0.00     0.041 C 
ATOM     23  O   UNL     1      92.610 121.607 115.772  1.00  0.00    -0.550 OA
ATOM     24  O   UNL     1      92.595 123.646 116.817  1.00  0.00    -0.550 OA
ENDBRANCH  21  22
ENDBRANCH  20  21
ENDBRANCH  19  20
ENDBRANCH  18  19
ENDBRANCH  17  18
ENDBRANCH  16  17
ENDBRANCH  15  16
ENDBRANCH  14  15
ENDBRANCH  13  14
ENDBRANCH   1  13
TORSDOF 20
ENDMDL
MODEL 9
REMARK VINA RESULT:    -5.313      4.349     10.566
REMARK INTER + INTRA:         -13.701
REMARK INTER:                 -11.916
REMARK INTRA:                  -1.785
REMARK UNBOUND:                -2.176
REMARK SMILES CCCCCCCCCCCCCCCCCCCCCC(=O)[O-]
REMARK SMILES IDX 12 1 11 2 10 3 9 4 8 5 7 6 6 7 5 8 4 9 3 10 2 11 1 12 13 13
REMARK SMILES IDX 14 14 15 15 16 16 17 17 18 18 19 19 20 20 21 21 22 22 23 23
REMARK SMILES IDX 24 24
REMARK H PARENT
REMARK Flexibility Score: inf
ROOT
ATOM      1  C   UNL     1      98.569 127.024 125.792  1.00  0.00     0.000 C 
ENDROOT
BRANCH   1   2
ATOM      2  C   UNL     1     100.044 126.598 125.842  1.00  0.00     0.000 C 
BRANCH   2   3
ATOM      3  C   UNL     1     100.839 127.235 124.696  1.00  0.00     0.000 C 
BRANCH   3   4
ATOM      4  C   UNL     1     101.155 128.709 124.998  1.00  0.00    -0.000 C 
BRANCH   4   5
ATOM      5  C   UNL     1     101.885 128.898 126.337  1.00  0.00    -0.000 C 
BRANCH   5   6
ATOM      6  C   UNL     1     101.387 130.129 127.112  1.00  0.00    -0.000 C 
BRANCH   6   7
ATOM      7  C   UNL     1     101.281 129.877 128.626  1.00  0.00    -0.000 C 
BRANCH   7   8
ATOM      8  C   UNL     1     100.331 128.717 128.996  1.00  0.00    -0.000 C 
BRANCH   8   9
ATOM      9  C   UNL     1      99.041 129.218 129.669  1.00  0.00    -0.000 C 
BRANCH   9  10
ATOM     10  C   UNL     1      97.812 129.112 128.751  1.00  0.00    -0.000 C 
BRANCH  10  11
ATOM     11  C   UNL     1      96.850 130.299 128.909  1.00  0.00    -0.003 C 
ATOM     12  C   UNL     1      96.502 130.533 130.376  1.00  0.00     0.004 C 
ENDBRANCH  10  11
ENDBRANCH   9  10
ENDBRANCH   8   9
ENDBRANCH   7   8
ENDBRANCH   6   7
ENDBRANCH   5   6
ENDBRANCH   4   5
ENDBRANCH   3   4
ENDBRANCH   2   3
ENDBRANCH   1   2
BRANCH   1  13
ATOM     13  C   UNL     1      97.650 126.086 126.592  1.00  0.00     0.000 C 
BRANCH  13  14
ATOM     14  C   UNL     1      97.380 124.757 125.864  1.00  0.00     0.000 C 
BRANCH  14  15
ATOM     15  C   UNL     1      96.553 124.945 124.581  1.00  0.00     0.000 C 
BRANCH  15  16
ATOM     16  C   UNL     1      95.685 123.715 124.259  1.00  0.00     0.000 C 
BRANCH  16  17
ATOM     17  C   UNL     1      96.422 122.684 123.386  1.00  0.00     0.000 C 
BRANCH  17  18
ATOM     18  C   UNL     1      95.492 121.990 122.380  1.00  0.00     0.000 C 
BRANCH  18  19
ATOM     19  C   UNL     1      94.023 122.324 122.667  1.00  0.00     0.000 C 
BRANCH  19  20
ATOM     20  C   UNL     1      93.125 121.918 121.491  1.00  0.00     0.006 C 
BRANCH  20  21
ATOM     21  C   UNL     1      93.812 120.875 120.605  1.00  0.00     0.053 C 
BRANCH  21  22
ATOM     22  C   UNL     1      93.662 121.235 119.160  1.00  0.00     0.041 C 
ATOM     23  O   UNL     1      92.564 121.669 118.725  1.00  0.00    -0.550 OA
ATOM     24  O   UNL     1      94.754 121.141 118.305  1.00  0.00    -0.550 OA
ENDBRANCH  21  22
ENDBRANCH  20  21
ENDBRANCH  19  20
ENDBRANCH  18  19
ENDBRANCH  17  18
ENDBRANCH  16  17
ENDBRANCH  15  16
ENDBRANCH  14  15
ENDBRANCH  13  14
ENDBRANCH   1  13
TORSDOF 20
ENDMDL
