MODEL 1
REMARK VINA RESULT:    -5.400      0.000      0.000
REMARK INTER + INTRA:          -7.891
REMARK INTER:                  -7.295
REMARK INTRA:                  -0.596
REMARK UNBOUND:                -0.596
REMARK SMILES CC(=O)CCC=C(C)CCC=C(C)C
REMARK SMILES IDX 7 1 6 2 8 3 9 4 10 5 11 6 13 7 12 8 14 9 5 10 4 11 2 12 3 13
REMARK SMILES IDX 1 14
REMARK H PARENT
REMARK Flexibility Score: inf
ROOT
ATOM      1  C   UNL     1      85.951  36.870  23.607  1.00  0.00    -0.077 C 
ATOM      2  C   UNL     1      85.649  36.005  22.611  1.00  0.00    -0.028 C 
ATOM      3  C   UNL     1      84.920  37.812  24.184  1.00  0.00     0.039 C 
ENDROOT
BRANCH   1   4
ATOM      4  C   UNL     1      87.364  36.905  24.145  1.00  0.00     0.034 C 
BRANCH   4   5
ATOM      5  C   UNL     1      87.450  37.778  25.402  1.00  0.00     0.032 C 
BRANCH   5   6
ATOM      6  C   UNL     1      88.729  38.579  25.427  1.00  0.00    -0.028 C 
ATOM      7  C   UNL     1      90.585  39.799  26.481  1.00  0.00     0.039 C 
ATOM      8  C   UNL     1      89.309  39.006  26.569  1.00  0.00    -0.080 C 
ATOM      9  C   UNL     1      88.706  38.705  27.921  1.00  0.00     0.039 C 
ENDBRANCH   5   6
ENDBRANCH   4   5
ENDBRANCH   1   4
BRANCH   2  10
ATOM     10  C   UNL     1      84.275  35.840  22.005  1.00  0.00     0.035 C 
BRANCH  10  11
ATOM     11  C   UNL     1      84.227  36.316  20.547  1.00  0.00     0.079 C 
BRANCH  11  12
ATOM     12  C   UNL     1      83.382  37.556  20.391  1.00  0.00     0.130 C 
ATOM     13  O   UNL     1      82.197  37.448  20.117  1.00  0.00    -0.300 OA
ATOM     14  C   UNL     1      83.965  38.926  20.581  1.00  0.00     0.087 C 
ENDBRANCH  11  12
ENDBRANCH  10  11
ENDBRANCH   2  10
TORSDOF 6
ENDMDL
MODEL 2
REMARK VINA RESULT:    -5.392      3.188      7.080
REMARK INTER + INTRA:          -7.880
REMARK INTER:                  -7.391
REMARK INTRA:                  -0.488
REMARK UNBOUND:                -0.596
REMARK SMILES CC(=O)CCC=C(C)CCC=C(C)C
REMARK SMILES IDX 7 1 6 2 8 3 9 4 10 5 11 6 13 7 12 8 14 9 5 10 4 11 2 12 3 13
REMARK SMILES IDX 1 14
REMARK H PARENT
REMARK Flexibility Score: inf
ROOT
ATOM      1  C   UNL     1      87.087  36.460  24.075  1.00  0.00    -0.077 C 
ATOM      2  C   UNL     1      87.297  37.581  24.804  1.00  0.00    -0.028 C 
ATOM      3  C   UNL     1      88.195  35.807  23.282  1.00  0.00     0.039 C 
ENDROOT
BRANCH   1   4
ATOM      4  C   UNL     1      85.701  35.857  24.039  1.00  0.00     0.034 C 
BRANCH   4   5
ATOM      5  C   UNL     1      85.162  35.806  22.605  1.00  0.00     0.032 C 
BRANCH   5   6
ATOM      6  C   UNL     1      84.702  37.168  22.144  1.00  0.00    -0.028 C 
ATOM      7  C   UNL     1      83.690  38.780  20.588  1.00  0.00     0.039 C 
ATOM      8  C   UNL     1      84.110  37.380  20.950  1.00  0.00    -0.080 C 
ATOM      9  C   UNL     1      83.863  36.250  19.979  1.00  0.00     0.039 C 
ENDBRANCH   5   6
ENDBRANCH   4   5
ENDBRANCH   1   4
BRANCH   2  10
ATOM     10  C   UNL     1      88.634  38.268  24.956  1.00  0.00     0.035 C 
BRANCH  10  11
ATOM     11  C   UNL     1      88.904  38.691  26.406  1.00  0.00     0.079 C 
BRANCH  11  12
ATOM     12  C   UNL     1      90.191  39.468  26.532  1.00  0.00     0.130 C 
ATOM     13  O   UNL     1      91.193  38.910  26.953  1.00  0.00    -0.300 OA
ATOM     14  C   UNL     1      90.272  40.913  26.135  1.00  0.00     0.087 C 
ENDBRANCH  11  12
ENDBRANCH  10  11
ENDBRANCH   2  10
TORSDOF 6
ENDMDL
MODEL 3
REMARK VINA RESULT:    -5.378      5.934      7.813
REMARK INTER + INTRA:          -7.860
REMARK INTER:                  -7.347
REMARK INTRA:                  -0.513
REMARK UNBOUND:                -0.596
REMARK SMILES CC(=O)CCC=C(C)CCC=C(C)C
REMARK SMILES IDX 7 1 6 2 8 3 9 4 10 5 11 6 13 7 12 8 14 9 5 10 4 11 2 12 3 13
REMARK SMILES IDX 1 14
REMARK H PARENT
REMARK Flexibility Score: inf
ROOT
ATOM      1  C   UNL     1      86.371  37.664  29.272  1.00  0.00    -0.077 C 
ATOM      2  C   UNL     1      87.498  37.533  28.534  1.00  0.00    -0.028 C 
ATOM      3  C   UNL     1      86.050  38.940  30.015  1.00  0.00     0.039 C 
ENDROOT
BRANCH   1   4
ATOM      4  C   UNL     1      85.417  36.495  29.370  1.00  0.00     0.034 C 
BRANCH   4   5
ATOM      5  C   UNL     1      85.257  36.039  30.824  1.00  0.00     0.032 C 
BRANCH   5   6
ATOM      6  C   UNL     1      86.469  35.272  31.295  1.00  0.00    -0.028 C 
ATOM      7  C   UNL     1      87.906  34.150  32.944  1.00  0.00     0.039 C 
ATOM      8  C   UNL     1      86.660  34.914  32.582  1.00  0.00    -0.080 C 
ATOM      9  C   UNL     1      85.656  35.262  33.656  1.00  0.00     0.039 C 
ENDBRANCH   5   6
ENDBRANCH   4   5
ENDBRANCH   1   4
BRANCH   2  10
ATOM     10  C   UNL     1      88.518  38.627  28.323  1.00  0.00     0.035 C 
BRANCH  10  11
ATOM     11  C   UNL     1      88.903  38.778  26.845  1.00  0.00     0.079 C 
BRANCH  11  12
ATOM     12  C   UNL     1      90.252  39.436  26.683  1.00  0.00     0.130 C 
ATOM     13  O   UNL     1      91.265  38.803  26.936  1.00  0.00    -0.300 OA
ATOM     14  C   UNL     1      90.377  40.852  26.203  1.00  0.00     0.087 C 
ENDBRANCH  11  12
ENDBRANCH  10  11
ENDBRANCH   2  10
TORSDOF 6
ENDMDL
MODEL 4
REMARK VINA RESULT:    -5.327      3.132      5.255
REMARK INTER + INTRA:          -7.792
REMARK INTER:                  -7.251
REMARK INTRA:                  -0.541
REMARK UNBOUND:                -0.596
REMARK SMILES CC(=O)CCC=C(C)CCC=C(C)C
REMARK SMILES IDX 7 1 6 2 8 3 9 4 10 5 11 6 13 7 12 8 14 9 5 10 4 11 2 12 3 13
REMARK SMILES IDX 1 14
REMARK H PARENT
REMARK Flexibility Score: inf
ROOT
ATOM      1  C   UNL     1      88.614  38.669  26.695  1.00  0.00    -0.077 C 
ATOM      2  C   UNL     1      87.846  37.754  26.059  1.00  0.00    -0.028 C 
ATOM      3  C   UNL     1      89.377  39.732  25.940  1.00  0.00     0.039 C 
ENDROOT
BRANCH   1   4
ATOM      4  C   UNL     1      88.725  38.613  28.203  1.00  0.00     0.034 C 
BRANCH   4   5
ATOM      5  C   UNL     1      87.484  37.958  28.819  1.00  0.00     0.032 C 
BRANCH   5   6
ATOM      6  C   UNL     1      86.661  38.961  29.591  1.00  0.00    -0.028 C 
ATOM      7  C   UNL     1      84.855  39.694  31.090  1.00  0.00     0.039 C 
ATOM      8  C   UNL     1      85.610  38.612  30.363  1.00  0.00    -0.080 C 
ATOM      9  C   UNL     1      85.182  37.171  30.511  1.00  0.00     0.039 C 
ENDBRANCH   5   6
ENDBRANCH   4   5
ENDBRANCH   1   4
BRANCH   2  10
ATOM     10  C   UNL     1      87.619  37.713  24.567  1.00  0.00     0.035 C 
BRANCH  10  11
ATOM     11  C   UNL     1      88.609  36.780  23.857  1.00  0.00     0.079 C 
BRANCH  11  12
ATOM     12  C   UNL     1      87.905  35.639  23.165  1.00  0.00     0.130 C 
ATOM     13  O   UNL     1      88.548  34.861  22.478  1.00  0.00    -0.300 OA
ATOM     14  C   UNL     1      86.426  35.430  23.314  1.00  0.00     0.087 C 
ENDBRANCH  11  12
ENDBRANCH  10  11
ENDBRANCH   2  10
TORSDOF 6
ENDMDL
MODEL 5
REMARK VINA RESULT:    -5.307      3.675      7.138
REMARK INTER + INTRA:          -7.765
REMARK INTER:                  -7.228
REMARK INTRA:                  -0.536
REMARK UNBOUND:                -0.596
REMARK SMILES CC(=O)CCC=C(C)CCC=C(C)C
REMARK SMILES IDX 7 1 6 2 8 3 9 4 10 5 11 6 13 7 12 8 14 9 5 10 4 11 2 12 3 13
REMARK SMILES IDX 1 14
REMARK H PARENT
REMARK Flexibility Score: inf
ROOT
ATOM      1  C   UNL     1      88.845  38.609  26.643  1.00  0.00    -0.077 C 
ATOM      2  C   UNL     1      87.806  38.269  27.440  1.00  0.00    -0.028 C 
ATOM      3  C   UNL     1      90.180  39.031  27.211  1.00  0.00     0.039 C 
ENDROOT
BRANCH   1   4
ATOM      4  C   UNL     1      88.659  38.582  25.142  1.00  0.00     0.034 C 
BRANCH   4   5
ATOM      5  C   UNL     1      87.637  37.513  24.736  1.00  0.00     0.032 C 
BRANCH   5   6
ATOM      6  C   UNL     1      88.280  36.427  23.908  1.00  0.00    -0.028 C 
ATOM      7  C   UNL     1      88.316  34.530  22.344  1.00  0.00     0.039 C 
ATOM      8  C   UNL     1      87.574  35.579  23.130  1.00  0.00    -0.080 C 
ATOM      9  C   UNL     1      86.069  35.661  23.036  1.00  0.00     0.039 C 
ENDBRANCH   5   6
ENDBRANCH   4   5
ENDBRANCH   1   4
BRANCH   2  10
ATOM     10  C   UNL     1      87.862  38.218  28.948  1.00  0.00     0.035 C 
BRANCH  10  11
ATOM     11  C   UNL     1      87.068  39.362  29.594  1.00  0.00     0.079 C 
BRANCH  11  12
ATOM     12  C   UNL     1      85.776  38.872  30.200  1.00  0.00     0.130 C 
ATOM     13  O   UNL     1      84.942  39.681  30.578  1.00  0.00    -0.300 OA
ATOM     14  C   UNL     1      85.485  37.407  30.337  1.00  0.00     0.087 C 
ENDBRANCH  11  12
ENDBRANCH  10  11
ENDBRANCH   2  10
TORSDOF 6
ENDMDL
MODEL 6
REMARK VINA RESULT:    -5.212      5.905      7.843
REMARK INTER + INTRA:          -7.636
REMARK INTER:                  -7.131
REMARK INTRA:                  -0.505
REMARK UNBOUND:                -0.596
REMARK SMILES CC(=O)CCC=C(C)CCC=C(C)C
REMARK SMILES IDX 7 1 6 2 8 3 9 4 10 5 11 6 13 7 12 8 14 9 5 10 4 11 2 12 3 13
REMARK SMILES IDX 1 14
REMARK H PARENT
REMARK Flexibility Score: inf
ROOT
ATOM      1  C   UNL     1      86.548  38.407  29.555  1.00  0.00    -0.077 C 
ATOM      2  C   UNL     1      87.624  39.009  28.996  1.00  0.00    -0.028 C 
ATOM      3  C   UNL     1      86.224  36.954  29.294  1.00  0.00     0.039 C 
ENDROOT
BRANCH   1   4
ATOM      4  C   UNL     1      85.637  39.217  30.450  1.00  0.00     0.034 C 
BRANCH   4   5
ATOM      5  C   UNL     1      84.165  38.907  30.156  1.00  0.00     0.032 C 
BRANCH   5   6
ATOM      6  C   UNL     1      83.545  39.972  29.284  1.00  0.00    -0.028 C 
ATOM      7  C   UNL     1      81.842  40.931  27.792  1.00  0.00     0.039 C 
ATOM      8  C   UNL     1      82.371  39.803  28.638  1.00  0.00    -0.080 C 
ATOM      9  C   UNL     1      81.587  38.518  28.748  1.00  0.00     0.039 C 
ENDBRANCH   5   6
ENDBRANCH   4   5
ENDBRANCH   1   4
BRANCH   2  10
ATOM     10  C   UNL     1      88.633  38.314  28.112  1.00  0.00     0.035 C 
BRANCH  10  11
ATOM     11  C   UNL     1      88.863  39.068  26.795  1.00  0.00     0.079 C 
BRANCH  11  12
ATOM     12  C   UNL     1      90.290  39.540  26.663  1.00  0.00     0.130 C 
ATOM     13  O   UNL     1      91.205  38.784  26.950  1.00  0.00    -0.300 OA
ATOM     14  C   UNL     1      90.612  40.921  26.172  1.00  0.00     0.087 C 
ENDBRANCH  11  12
ENDBRANCH  10  11
ENDBRANCH   2  10
TORSDOF 6
ENDMDL
MODEL 7
REMARK VINA RESULT:    -5.210      5.763      8.275
REMARK INTER + INTRA:          -7.633
REMARK INTER:                  -6.982
REMARK INTRA:                  -0.651
REMARK UNBOUND:                -0.596
REMARK SMILES CC(=O)CCC=C(C)CCC=C(C)C
REMARK SMILES IDX 7 1 6 2 8 3 9 4 10 5 11 6 13 7 12 8 14 9 5 10 4 11 2 12 3 13
REMARK SMILES IDX 1 14
REMARK H PARENT
REMARK Flexibility Score: inf
ROOT
ATOM      1  C   UNL     1      86.355  37.052  29.793  1.00  0.00    -0.077 C 
ATOM      2  C   UNL     1      86.956  35.850  29.633  1.00  0.00    -0.028 C 
ATOM      3  C   UNL     1      85.081  37.205  30.591  1.00  0.00     0.039 C 
ENDROOT
BRANCH   1   4
ATOM      4  C   UNL     1      86.967  38.271  29.140  1.00  0.00     0.034 C 
BRANCH   4   5
ATOM      5  C   UNL     1      87.912  37.867  28.003  1.00  0.00     0.032 C 
BRANCH   5   6
ATOM      6  C   UNL     1      88.915  38.957  27.710  1.00  0.00    -0.028 C 
ATOM      7  C   UNL     1      90.292  40.405  26.277  1.00  0.00     0.039 C 
ATOM      8  C   UNL     1      89.281  39.303  26.457  1.00  0.00    -0.080 C 
ATOM      9  C   UNL     1      88.701  38.613  25.246  1.00  0.00     0.039 C 
ENDBRANCH   5   6
ENDBRANCH   4   5
ENDBRANCH   1   4
BRANCH   2  10
ATOM     10  C   UNL     1      86.475  34.560  30.255  1.00  0.00     0.035 C 
BRANCH  10  11
ATOM     11  C   UNL     1      87.517  33.954  31.205  1.00  0.00     0.079 C 
BRANCH  11  12
ATOM     12  C   UNL     1      87.295  34.393  32.631  1.00  0.00     0.130 C 
ATOM     13  O   UNL     1      88.252  34.518  33.380  1.00  0.00    -0.300 OA
ATOM     14  C   UNL     1      85.920  34.696  33.150  1.00  0.00     0.087 C 
ENDBRANCH  11  12
ENDBRANCH  10  11
ENDBRANCH   2  10
TORSDOF 6
ENDMDL
MODEL 8
REMARK VINA RESULT:    -5.207      5.628      6.371
REMARK INTER + INTRA:          -7.630
REMARK INTER:                  -7.151
REMARK INTRA:                  -0.479
REMARK UNBOUND:                -0.596
REMARK SMILES CC(=O)CCC=C(C)CCC=C(C)C
REMARK SMILES IDX 7 1 6 2 8 3 9 4 10 5 11 6 13 7 12 8 14 9 5 10 4 11 2 12 3 13
REMARK SMILES IDX 1 14
REMARK H PARENT
REMARK Flexibility Score: inf
ROOT
ATOM      1  C   UNL     1      86.923  38.248  29.234  1.00  0.00    -0.077 C 
ATOM      2  C   UNL     1      86.191  39.157  29.921  1.00  0.00    -0.028 C 
ATOM      3  C   UNL     1      86.373  36.886  28.880  1.00  0.00     0.039 C 
ENDROOT
BRANCH   1   4
ATOM      4  C   UNL     1      88.336  38.601  28.826  1.00  0.00     0.034 C 
BRANCH   4   5
ATOM      5  C   UNL     1      88.534  38.411  27.318  1.00  0.00     0.032 C 
BRANCH   5   6
ATOM      6  C   UNL     1      89.113  39.651  26.680  1.00  0.00    -0.028 C 
ATOM      7  C   UNL     1      90.913  41.134  25.900  1.00  0.00     0.039 C 
ATOM      8  C   UNL     1      90.441  39.860  26.552  1.00  0.00    -0.080 C 
ATOM      9  C   UNL     1      91.451  38.852  27.044  1.00  0.00     0.039 C 
ENDBRANCH   5   6
ENDBRANCH   4   5
ENDBRANCH   1   4
BRANCH   2  10
ATOM     10  C   UNL     1      84.761  38.951  30.359  1.00  0.00     0.035 C 
BRANCH  10  11
ATOM     11  C   UNL     1      83.781  39.820  29.558  1.00  0.00     0.079 C 
BRANCH  11  12
ATOM     12  C   UNL     1      82.630  39.010  29.016  1.00  0.00     0.130 C 
ATOM     13  O   UNL     1      82.587  37.808  29.226  1.00  0.00    -0.300 OA
ATOM     14  C   UNL     1      81.524  39.654  28.232  1.00  0.00     0.087 C 
ENDBRANCH  11  12
ENDBRANCH  10  11
ENDBRANCH   2  10
TORSDOF 6
ENDMDL
MODEL 9
REMARK VINA RESULT:    -5.095      3.406      5.457
REMARK INTER + INTRA:          -7.478
REMARK INTER:                  -6.646
REMARK INTRA:                  -0.832
REMARK UNBOUND:                -0.596
REMARK SMILES CC(=O)CCC=C(C)CCC=C(C)C
REMARK SMILES IDX 7 1 6 2 8 3 9 4 10 5 11 6 13 7 12 8 14 9 5 10 4 11 2 12 3 13
REMARK SMILES IDX 1 14
REMARK H PARENT
REMARK Flexibility Score: inf
ROOT
ATOM      1  C   UNL     1      88.719  38.638  27.083  1.00  0.00    -0.077 C 
ATOM      2  C   UNL     1      87.977  38.030  26.129  1.00  0.00    -0.028 C 
ATOM      3  C   UNL     1      90.031  39.314  26.762  1.00  0.00     0.039 C 
ENDROOT
BRANCH   1   4
ATOM      4  C   UNL     1      88.228  38.624  28.514  1.00  0.00     0.034 C 
BRANCH   4   5
ATOM      5  C   UNL     1      86.893  37.880  28.628  1.00  0.00     0.032 C 
BRANCH   5   6
ATOM      6  C   UNL     1      87.029  36.637  29.474  1.00  0.00    -0.028 C 
ATOM      7  C   UNL     1      86.955  34.222  29.931  1.00  0.00     0.039 C 
ATOM      8  C   UNL     1      86.790  35.395  29.001  1.00  0.00    -0.080 C 
ATOM      9  C   UNL     1      86.364  35.163  27.570  1.00  0.00     0.039 C 
ENDBRANCH   5   6
ENDBRANCH   4   5
ENDBRANCH   1   4
BRANCH   2  10
ATOM     10  C   UNL     1      88.328  37.997  24.660  1.00  0.00     0.035 C 
BRANCH  10  11
ATOM     11  C   UNL     1      87.344  37.141  23.851  1.00  0.00     0.079 C 
BRANCH  11  12
ATOM     12  C   UNL     1      87.926  35.791  23.510  1.00  0.00     0.130 C 
ATOM     13  O   UNL     1      89.127  35.685  23.314  1.00  0.00    -0.300 OA
ATOM     14  C   UNL     1      87.061  34.568  23.420  1.00  0.00     0.087 C 
ENDBRANCH  11  12
ENDBRANCH  10  11
ENDBRANCH   2  10
TORSDOF 6
ENDMDL
