MODEL 1
REMARK VINA RESULT:    -6.769      0.000      0.000
REMARK INTER + INTRA:         -10.656
REMARK INTER:                  -9.341
REMARK INTRA:                  -1.315
REMARK UNBOUND:                -1.315
REMARK SMILES C[C@H]1OC(=O)[C@H](C)[C@@H]1C[C@H](O)[C@@](C)(O)[C@H]1CC[C@@]2(O)C3=CC(=O)[C@@H]4C[C@@H](O)[C@H](O)C[C@]4(C)[C@H]3CC[C@@]12C
REMARK SMILES IDX 12 1 13 2 10 3 9 4 8 5 7 6 6 7 4 8 2 9 3 10 5 11 1 12 11 13
REMARK SMILES IDX 15 15 16 16 36 17 17 18 18 19 35 20 37 21 20 22 34 23 33 24
REMARK SMILES IDX 21 25 31 26 22 27 24 28 30 29 32 30 23 31 25 32 28 33 26 34
REMARK SMILES IDX 19 35 29 37 27 39 14 41
REMARK H PARENT 11 14 19 36 29 38 27 40 14 42
REMARK Flexibility Score: inf
ROOT
ATOM      1  C   UNL     1       9.547 -23.517 -37.488  1.00  0.00     0.091 C 
ATOM      2  C   UNL     1       8.387 -24.148 -38.300  1.00  0.00     0.045 C 
ENDROOT
BRANCH   1   3
ATOM      3  C   UNL     1      10.898 -24.329 -37.665  1.00  0.00     0.146 C 
BRANCH   3   4
ATOM      4  C   UNL     1      12.238 -23.579 -37.348  1.00  0.00     0.043 C 
BRANCH   4   5
ATOM      5  C   UNL     1      13.160 -23.031 -38.492  1.00  0.00     0.046 C 
ATOM      6  C   UNL     1      13.291 -20.659 -37.375  1.00  0.00     0.020 C 
ATOM      7  C   UNL     1      13.226 -21.486 -38.666  1.00  0.00     0.103 C 
ATOM      8  C   UNL     1      14.515 -21.349 -39.388  1.00  0.00     0.309 C 
ATOM      9  C   UNL     1      14.631 -23.521 -38.612  1.00  0.00     0.177 C 
ATOM     10  O   UNL     1      15.288 -22.487 -39.326  1.00  0.00    -0.462 OA
ATOM     11  O   UNL     1      14.888 -20.300 -39.975  1.00  0.00    -0.252 OA
ATOM     12  C   UNL     1      14.776 -24.829 -39.384  1.00  0.00     0.053 C 
ENDBRANCH   4   5
ENDBRANCH   3   4
BRANCH   3  13
ATOM     13  O   UNL     1      10.964 -24.883 -38.955  1.00  0.00    -0.390 OA
ATOM     14  H   UNL     1      10.932 -25.872 -38.861  1.00  0.00     0.211 HD
ENDBRANCH   3  13
ENDBRANCH   1   3
BRANCH   1  15
ATOM     15  C   UNL     1       9.657 -21.960 -37.850  1.00  0.00     0.032 C 
ATOM     16  C   UNL     1       9.432 -21.645 -39.330  1.00  0.00     0.010 C 
ATOM     17  C   UNL     1       8.892 -20.818 -37.081  1.00  0.00     0.006 C 
ATOM     18  C   UNL     1       9.286 -20.133 -39.436  1.00  0.00     0.041 C 
ATOM     19  C   UNL     1       9.136 -19.566 -37.998  1.00  0.00     0.092 C 
ATOM     20  C   UNL     1       7.375 -21.102 -36.994  1.00  0.00     0.011 C 
ATOM     21  C   UNL     1       9.469 -20.562 -35.656  1.00  0.00     0.015 C 
ATOM     22  C   UNL     1       8.021 -18.517 -37.959  1.00  0.00    -0.031 C 
ATOM     23  C   UNL     1       6.585 -19.965 -36.352  1.00  0.00     0.009 C 
ATOM     24  C   UNL     1       6.894 -18.547 -36.917  1.00  0.00     0.025 C 
ATOM     25  C   UNL     1       8.145 -17.449 -38.775  1.00  0.00     0.050 C 
ATOM     26  C   UNL     1       5.606 -17.767 -37.402  1.00  0.00    -0.013 C 
ATOM     27  C   UNL     1       7.149 -16.374 -38.836  1.00  0.00     0.159 C 
ATOM     28  C   UNL     1       6.008 -16.326 -37.859  1.00  0.00     0.070 C 
ATOM     29  C   UNL     1       4.496 -17.641 -36.305  1.00  0.00     0.042 C 
ATOM     30  C   UNL     1       4.972 -18.510 -38.615  1.00  0.00     0.013 C 
ATOM     31  O   UNL     1       7.271 -15.462 -39.698  1.00  0.00    -0.295 OA
ATOM     32  C   UNL     1       6.404 -15.400 -36.686  1.00  0.00     0.047 C 
ATOM     33  C   UNL     1       4.834 -16.707 -35.126  1.00  0.00     0.143 C 
ATOM     34  C   UNL     1       5.320 -15.309 -35.599  1.00  0.00     0.143 C 
BRANCH  19  35
ATOM     35  O   UNL     1      10.330 -18.900 -37.633  1.00  0.00    -0.385 OA
ATOM     36  H   UNL     1      10.179 -17.919 -37.653  1.00  0.00     0.211 HD
ENDBRANCH  19  35
BRANCH  33  37
ATOM     37  O   UNL     1       5.723 -17.351 -34.240  1.00  0.00    -0.390 OA
ATOM     38  H   UNL     1       5.859 -16.794 -33.431  1.00  0.00     0.211 HD
ENDBRANCH  33  37
BRANCH  34  39
ATOM     39  O   UNL     1       4.247 -14.503 -36.025  1.00  0.00    -0.390 OA
ATOM     40  H   UNL     1       4.612 -13.660 -36.398  1.00  0.00     0.211 HD
ENDBRANCH  34  39
ENDBRANCH   1  15
BRANCH   1  41
ATOM     41  O   UNL     1       9.209 -23.604 -36.122  1.00  0.00    -0.387 OA
ATOM     42  H   UNL     1       9.281 -22.703 -35.710  1.00  0.00     0.211 HD
ENDBRANCH   1  41
TORSDOF 9
ENDMDL
MODEL 2
REMARK VINA RESULT:    -6.612      1.758      3.635
REMARK INTER + INTRA:         -10.441
REMARK INTER:                  -9.460
REMARK INTRA:                  -0.980
REMARK UNBOUND:                -1.315
REMARK SMILES C[C@H]1OC(=O)[C@H](C)[C@@H]1C[C@H](O)[C@@](C)(O)[C@H]1CC[C@@]2(O)C3=CC(=O)[C@@H]4C[C@@H](O)[C@H](O)C[C@]4(C)[C@H]3CC[C@@]12C
REMARK SMILES IDX 12 1 13 2 10 3 9 4 8 5 7 6 6 7 4 8 2 9 3 10 5 11 1 12 11 13
REMARK SMILES IDX 15 15 16 16 36 17 17 18 18 19 35 20 37 21 20 22 34 23 33 24
REMARK SMILES IDX 21 25 31 26 22 27 24 28 30 29 32 30 23 31 25 32 28 33 26 34
REMARK SMILES IDX 19 35 29 37 27 39 14 41
REMARK H PARENT 11 14 19 36 29 38 27 40 14 42
REMARK Flexibility Score: inf
ROOT
ATOM      1  C   UNL     1       9.275 -24.138 -37.095  1.00  0.00     0.091 C 
ATOM      2  C   UNL     1       8.884 -24.701 -38.485  1.00  0.00     0.045 C 
ENDROOT
BRANCH   1   3
ATOM      3  C   UNL     1      10.839 -23.899 -36.976  1.00  0.00     0.146 C 
BRANCH   3   4
ATOM      4  C   UNL     1      11.556 -23.202 -38.183  1.00  0.00     0.043 C 
BRANCH   4   5
ATOM      5  C   UNL     1      12.805 -22.278 -37.971  1.00  0.00     0.046 C 
ATOM      6  C   UNL     1      14.080 -23.384 -39.982  1.00  0.00     0.020 C 
ATOM      7  C   UNL     1      14.153 -22.761 -38.581  1.00  0.00     0.103 C 
ATOM      8  C   UNL     1      14.889 -21.476 -38.666  1.00  0.00     0.309 C 
ATOM      9  C   UNL     1      12.722 -20.762 -38.310  1.00  0.00     0.177 C 
ATOM     10  O   UNL     1      14.069 -20.378 -38.533  1.00  0.00    -0.462 OA
ATOM     11  O   UNL     1      16.128 -21.383 -38.867  1.00  0.00    -0.252 OA
ATOM     12  C   UNL     1      12.144 -19.917 -37.177  1.00  0.00     0.053 C 
ENDBRANCH   4   5
ENDBRANCH   3   4
BRANCH   3  13
ATOM     13  O   UNL     1      11.492 -25.108 -36.676  1.00  0.00    -0.390 OA
ATOM     14  H   UNL     1      11.779 -25.517 -37.536  1.00  0.00     0.211 HD
ENDBRANCH   3  13
ENDBRANCH   1   3
BRANCH   1  15
ATOM     15  C   UNL     1       8.381 -22.847 -36.779  1.00  0.00     0.032 C 
ATOM     16  C   UNL     1       8.934 -21.964 -35.659  1.00  0.00     0.010 C 
ATOM     17  C   UNL     1       7.878 -21.831 -37.872  1.00  0.00     0.006 C 
ATOM     18  C   UNL     1       8.137 -20.666 -35.695  1.00  0.00     0.041 C 
ATOM     19  C   UNL     1       7.307 -20.652 -37.007  1.00  0.00     0.092 C 
ATOM     20  C   UNL     1       9.041 -21.309 -38.748  1.00  0.00     0.011 C 
ATOM     21  C   UNL     1       6.757 -22.428 -38.776  1.00  0.00     0.015 C 
ATOM     22  C   UNL     1       7.391 -19.273 -37.668  1.00  0.00    -0.031 C 
ATOM     23  C   UNL     1       8.608 -20.240 -39.747  1.00  0.00     0.009 C 
ATOM     24  C   UNL     1       7.748 -19.088 -39.150  1.00  0.00     0.025 C 
ATOM     25  C   UNL     1       6.974 -18.212 -36.946  1.00  0.00     0.050 C 
ATOM     26  C   UNL     1       8.327 -17.646 -39.453  1.00  0.00    -0.013 C 
ATOM     27  C   UNL     1       7.003 -16.838 -37.460  1.00  0.00     0.159 C 
ATOM     28  C   UNL     1       7.346 -16.562 -38.897  1.00  0.00     0.070 C 
ATOM     29  C   UNL     1       8.554 -17.367 -40.976  1.00  0.00     0.042 C 
ATOM     30  C   UNL     1       9.703 -17.478 -38.744  1.00  0.00     0.013 C 
ATOM     31  O   UNL     1       6.703 -15.882 -36.695  1.00  0.00    -0.295 OA
ATOM     32  C   UNL     1       6.034 -16.452 -39.704  1.00  0.00     0.047 C 
ATOM     33  C   UNL     1       7.272 -17.223 -41.821  1.00  0.00     0.143 C 
ATOM     34  C   UNL     1       6.268 -16.209 -41.205  1.00  0.00     0.143 C 
BRANCH  19  35
ATOM     35  O   UNL     1       5.943 -20.869 -36.698  1.00  0.00    -0.385 OA
ATOM     36  H   UNL     1       5.839 -21.764 -36.282  1.00  0.00     0.211 HD
ENDBRANCH  19  35
BRANCH  33  37
ATOM     37  O   UNL     1       6.716 -18.495 -42.074  1.00  0.00    -0.390 OA
ATOM     38  H   UNL     1       7.427 -19.126 -42.354  1.00  0.00     0.211 HD
ENDBRANCH  33  37
BRANCH  34  39
ATOM     39  O   UNL     1       6.662 -14.878 -41.443  1.00  0.00    -0.390 OA
ATOM     40  H   UNL     1       6.076 -14.276 -40.919  1.00  0.00     0.211 HD
ENDBRANCH  34  39
ENDBRANCH   1  15
BRANCH   1  41
ATOM     41  O   UNL     1       8.950 -25.116 -36.133  1.00  0.00    -0.387 OA
ATOM     42  H   UNL     1       8.903 -24.689 -35.236  1.00  0.00     0.211 HD
ENDBRANCH   1  41
TORSDOF 9
ENDMDL
MODEL 3
REMARK VINA RESULT:    -6.577      1.945      3.573
REMARK INTER + INTRA:         -10.392
REMARK INTER:                  -9.781
REMARK INTRA:                  -0.611
REMARK UNBOUND:                -1.315
REMARK SMILES C[C@H]1OC(=O)[C@H](C)[C@@H]1C[C@H](O)[C@@](C)(O)[C@H]1CC[C@@]2(O)C3=CC(=O)[C@@H]4C[C@@H](O)[C@H](O)C[C@]4(C)[C@H]3CC[C@@]12C
REMARK SMILES IDX 12 1 13 2 10 3 9 4 8 5 7 6 6 7 4 8 2 9 3 10 5 11 1 12 11 13
REMARK SMILES IDX 15 15 16 16 36 17 17 18 18 19 35 20 37 21 20 22 34 23 33 24
REMARK SMILES IDX 21 25 31 26 22 27 24 28 30 29 32 30 23 31 25 32 28 33 26 34
REMARK SMILES IDX 19 35 29 37 27 39 14 41
REMARK H PARENT 11 14 19 36 29 38 27 40 14 42
REMARK Flexibility Score: inf
ROOT
ATOM      1  C   UNL     1      10.300 -22.295 -36.456  1.00  0.00     0.091 C 
ATOM      2  C   UNL     1      10.719 -23.787 -36.450  1.00  0.00     0.045 C 
ENDROOT
BRANCH   1   3
ATOM      3  C   UNL     1      11.372 -21.387 -37.195  1.00  0.00     0.146 C 
BRANCH   3   4
ATOM      4  C   UNL     1      12.585 -22.111 -37.874  1.00  0.00     0.043 C 
BRANCH   4   5
ATOM      5  C   UNL     1      13.827 -21.310 -38.399  1.00  0.00     0.046 C 
ATOM      6  C   UNL     1      14.898 -23.472 -39.435  1.00  0.00     0.020 C 
ATOM      7  C   UNL     1      15.110 -22.130 -38.722  1.00  0.00     0.103 C 
ATOM      8  C   UNL     1      15.802 -21.200 -39.647  1.00  0.00     0.309 C 
ATOM      9  C   UNL     1      13.671 -20.311 -39.580  1.00  0.00     0.177 C 
ATOM     10  O   UNL     1      14.976 -20.208 -40.128  1.00  0.00    -0.462 OA
ATOM     11  O   UNL     1      17.008 -21.308 -39.988  1.00  0.00    -0.252 OA
ATOM     12  C   UNL     1      13.203 -18.924 -39.146  1.00  0.00     0.053 C 
ENDBRANCH   4   5
ENDBRANCH   3   4
BRANCH   3  13
ATOM     13  O   UNL     1      11.848 -20.393 -36.322  1.00  0.00    -0.390 OA
ATOM     14  H   UNL     1      12.599 -19.927 -36.776  1.00  0.00     0.211 HD
ENDBRANCH   3  13
ENDBRANCH   1   3
BRANCH   1  15
ATOM     15  C   UNL     1       8.812 -22.167 -37.035  1.00  0.00     0.032 C 
ATOM     16  C   UNL     1       7.715 -22.420 -36.000  1.00  0.00     0.010 C 
ATOM     17  C   UNL     1       8.291 -20.937 -37.870  1.00  0.00     0.006 C 
ATOM     18  C   UNL     1       6.404 -21.979 -36.638  1.00  0.00     0.041 C 
ATOM     19  C   UNL     1       6.744 -21.199 -37.936  1.00  0.00     0.092 C 
ATOM     20  C   UNL     1       8.555 -19.598 -37.143  1.00  0.00     0.011 C 
ATOM     21  C   UNL     1       8.891 -20.890 -39.308  1.00  0.00     0.015 C 
ATOM     22  C   UNL     1       5.884 -19.935 -38.031  1.00  0.00    -0.031 C 
ATOM     23  C   UNL     1       7.967 -18.393 -37.871  1.00  0.00     0.009 C 
ATOM     24  C   UNL     1       6.482 -18.549 -38.312  1.00  0.00     0.025 C 
ATOM     25  C   UNL     1       4.544 -20.094 -38.026  1.00  0.00     0.050 C 
ATOM     26  C   UNL     1       5.546 -17.377 -37.805  1.00  0.00    -0.013 C 
ATOM     27  C   UNL     1       3.608 -18.967 -38.110  1.00  0.00     0.159 C 
ATOM     28  C   UNL     1       4.104 -17.574 -38.378  1.00  0.00     0.070 C 
ATOM     29  C   UNL     1       6.046 -15.951 -38.214  1.00  0.00     0.042 C 
ATOM     30  C   UNL     1       5.468 -17.408 -36.250  1.00  0.00     0.013 C 
ATOM     31  O   UNL     1       2.371 -19.178 -37.990  1.00  0.00    -0.295 OA
ATOM     32  C   UNL     1       4.006 -17.300 -39.895  1.00  0.00     0.047 C 
ATOM     33  C   UNL     1       5.943 -15.620 -39.717  1.00  0.00     0.143 C 
ATOM     34  C   UNL     1       4.528 -15.909 -40.291  1.00  0.00     0.143 C 
BRANCH  19  35
ATOM     35  O   UNL     1       6.416 -21.996 -39.058  1.00  0.00    -0.385 OA
ATOM     36  H   UNL     1       7.250 -22.326 -39.482  1.00  0.00     0.211 HD
ENDBRANCH  19  35
BRANCH  33  37
ATOM     37  O   UNL     1       6.986 -16.255 -40.423  1.00  0.00    -0.390 OA
ATOM     38  H   UNL     1       7.022 -17.217 -40.183  1.00  0.00     0.211 HD
ENDBRANCH  33  37
BRANCH  34  39
ATOM     39  O   UNL     1       3.608 -14.905 -39.933  1.00  0.00    -0.390 OA
ATOM     40  H   UNL     1       3.832 -14.078 -40.429  1.00  0.00     0.211 HD
ENDBRANCH  34  39
ENDBRANCH   1  15
BRANCH   1  41
ATOM     41  O   UNL     1      10.266 -21.855 -35.117  1.00  0.00    -0.387 OA
ATOM     42  H   UNL     1      10.396 -20.870 -35.093  1.00  0.00     0.211 HD
ENDBRANCH   1  41
TORSDOF 9
ENDMDL
MODEL 4
REMARK VINA RESULT:    -6.515      2.326      8.677
REMARK INTER + INTRA:         -10.306
REMARK INTER:                  -9.329
REMARK INTRA:                  -0.977
REMARK UNBOUND:                -1.315
REMARK SMILES C[C@H]1OC(=O)[C@H](C)[C@@H]1C[C@H](O)[C@@](C)(O)[C@H]1CC[C@@]2(O)C3=CC(=O)[C@@H]4C[C@@H](O)[C@H](O)C[C@]4(C)[C@H]3CC[C@@]12C
REMARK SMILES IDX 12 1 13 2 10 3 9 4 8 5 7 6 6 7 4 8 2 9 3 10 5 11 1 12 11 13
REMARK SMILES IDX 15 15 16 16 36 17 17 18 18 19 35 20 37 21 20 22 34 23 33 24
REMARK SMILES IDX 21 25 31 26 22 27 24 28 30 29 32 30 23 31 25 32 28 33 26 34
REMARK SMILES IDX 19 35 29 37 27 39 14 41
REMARK H PARENT 11 14 19 36 29 38 27 40 14 42
REMARK Flexibility Score: inf
ROOT
ATOM      1  C   UNL     1       4.256 -17.583 -39.646  1.00  0.00     0.091 C 
ATOM      2  C   UNL     1       3.529 -18.930 -39.404  1.00  0.00     0.045 C 
ENDROOT
BRANCH   1   3
ATOM      3  C   UNL     1       3.728 -16.447 -38.673  1.00  0.00     0.146 C 
BRANCH   3   4
ATOM      4  C   UNL     1       3.326 -16.872 -37.218  1.00  0.00     0.043 C 
BRANCH   4   5
ATOM      5  C   UNL     1       3.666 -15.974 -35.979  1.00  0.00     0.046 C 
ATOM      6  C   UNL     1       5.623 -17.565 -35.247  1.00  0.00     0.020 C 
ATOM      7  C   UNL     1       4.475 -16.638 -34.826  1.00  0.00     0.103 C 
ATOM      8  C   UNL     1       5.045 -15.438 -34.167  1.00  0.00     0.309 C 
ATOM      9  C   UNL     1       4.316 -14.575 -36.182  1.00  0.00     0.177 C 
ATOM     10  O   UNL     1       4.964 -14.307 -34.949  1.00  0.00    -0.462 OA
ATOM     11  O   UNL     1       5.576 -15.442 -33.026  1.00  0.00    -0.252 OA
ATOM     12  C   UNL     1       3.303 -13.469 -36.464  1.00  0.00     0.053 C 
ENDBRANCH   4   5
ENDBRANCH   3   4
BRANCH   3  13
ATOM     13  O   UNL     1       2.660 -15.756 -39.271  1.00  0.00    -0.390 OA
ATOM     14  H   UNL     1       2.252 -16.357 -39.949  1.00  0.00     0.211 HD
ENDBRANCH   3  13
ENDBRANCH   1   3
BRANCH   1  15
ATOM     15  C   UNL     1       5.839 -17.821 -39.589  1.00  0.00     0.032 C 
ATOM     16  C   UNL     1       6.580 -16.872 -38.646  1.00  0.00     0.010 C 
ATOM     17  C   UNL     1       6.514 -19.224 -39.348  1.00  0.00     0.006 C 
ATOM     18  C   UNL     1       7.994 -17.420 -38.498  1.00  0.00     0.041 C 
ATOM     19  C   UNL     1       8.020 -18.844 -39.116  1.00  0.00     0.092 C 
ATOM     20  C   UNL     1       5.958 -19.918 -38.083  1.00  0.00     0.011 C 
ATOM     21  C   UNL     1       6.381 -20.173 -40.578  1.00  0.00     0.015 C 
ATOM     22  C   UNL     1       8.788 -19.801 -38.200  1.00  0.00    -0.031 C 
ATOM     23  C   UNL     1       6.666 -21.230 -37.757  1.00  0.00     0.009 C 
ATOM     24  C   UNL     1       8.221 -21.160 -37.764  1.00  0.00     0.025 C 
ATOM     25  C   UNL     1      10.069 -19.491 -37.912  1.00  0.00     0.050 C 
ATOM     26  C   UNL     1       8.883 -21.685 -36.425  1.00  0.00    -0.013 C 
ATOM     27  C   UNL     1      10.915 -20.322 -37.047  1.00  0.00     0.159 C 
ATOM     28  C   UNL     1      10.440 -21.664 -36.568  1.00  0.00     0.070 C 
ATOM     29  C   UNL     1       8.446 -23.137 -36.035  1.00  0.00     0.042 C 
ATOM     30  C   UNL     1       8.482 -20.751 -35.245  1.00  0.00     0.013 C 
ATOM     31  O   UNL     1      12.066 -19.917 -36.731  1.00  0.00    -0.295 OA
ATOM     32  C   UNL     1      10.981 -22.748 -37.527  1.00  0.00     0.047 C 
ATOM     33  C   UNL     1       8.983 -24.257 -36.948  1.00  0.00     0.143 C 
ATOM     34  C   UNL     1      10.520 -24.167 -37.153  1.00  0.00     0.143 C 
BRANCH  19  35
ATOM     35  O   UNL     1       8.725 -18.807 -40.343  1.00  0.00    -0.385 OA
ATOM     36  H   UNL     1       9.293 -17.993 -40.371  1.00  0.00     0.211 HD
ENDBRANCH  19  35
BRANCH  33  37
ATOM     37  O   UNL     1       8.247 -24.293 -38.150  1.00  0.00    -0.390 OA
ATOM     38  H   UNL     1       8.084 -25.234 -38.421  1.00  0.00     0.211 HD
ENDBRANCH  33  37
BRANCH  34  39
ATOM     39  O   UNL     1      11.223 -24.645 -36.031  1.00  0.00    -0.390 OA
ATOM     40  H   UNL     1      11.933 -23.993 -35.800  1.00  0.00     0.211 HD
ENDBRANCH  34  39
ENDBRANCH   1  15
BRANCH   1  41
ATOM     41  O   UNL     1       3.946 -17.159 -40.954  1.00  0.00    -0.387 OA
ATOM     42  H   UNL     1       3.869 -17.954 -41.546  1.00  0.00     0.211 HD
ENDBRANCH   1  41
TORSDOF 9
ENDMDL
MODEL 5
REMARK VINA RESULT:    -6.495      2.046      8.876
REMARK INTER + INTRA:         -10.278
REMARK INTER:                  -9.829
REMARK INTRA:                  -0.449
REMARK UNBOUND:                -1.315
REMARK SMILES C[C@H]1OC(=O)[C@H](C)[C@@H]1C[C@H](O)[C@@](C)(O)[C@H]1CC[C@@]2(O)C3=CC(=O)[C@@H]4C[C@@H](O)[C@H](O)C[C@]4(C)[C@H]3CC[C@@]12C
REMARK SMILES IDX 12 1 13 2 10 3 9 4 8 5 7 6 6 7 4 8 2 9 3 10 5 11 1 12 11 13
REMARK SMILES IDX 15 15 16 16 36 17 17 18 18 19 35 20 37 21 20 22 34 23 33 24
REMARK SMILES IDX 21 25 31 26 22 27 24 28 30 29 32 30 23 31 25 32 28 33 26 34
REMARK SMILES IDX 19 35 29 37 27 39 14 41
REMARK H PARENT 11 14 19 36 29 38 27 40 14 42
REMARK Flexibility Score: inf
ROOT
ATOM      1  C   UNL     1       6.878 -20.885 -37.649  1.00  0.00     0.091 C 
ATOM      2  C   UNL     1       6.331 -22.023 -36.751  1.00  0.00     0.045 C 
ENDROOT
BRANCH   1   3
ATOM      3  C   UNL     1       5.930 -19.613 -37.629  1.00  0.00     0.146 C 
BRANCH   3   4
ATOM      4  C   UNL     1       5.977 -18.698 -36.357  1.00  0.00     0.043 C 
BRANCH   4   5
ATOM      5  C   UNL     1       5.376 -17.250 -36.368  1.00  0.00     0.046 C 
ATOM      6  C   UNL     1       5.212 -17.200 -33.748  1.00  0.00     0.020 C 
ATOM      7  C   UNL     1       4.599 -16.798 -35.097  1.00  0.00     0.103 C 
ATOM      8  C   UNL     1       4.678 -15.324 -35.239  1.00  0.00     0.309 C 
ATOM      9  C   UNL     1       6.267 -16.036 -36.757  1.00  0.00     0.177 C 
ATOM     10  O   UNL     1       5.627 -14.923 -36.153  1.00  0.00    -0.462 OA
ATOM     11  O   UNL     1       3.978 -14.511 -34.581  1.00  0.00    -0.252 OA
ATOM     12  C   UNL     1       6.355 -15.803 -38.263  1.00  0.00     0.053 C 
ENDBRANCH   4   5
ENDBRANCH   3   4
BRANCH   3  13
ATOM     13  O   UNL     1       4.601 -19.996 -37.883  1.00  0.00    -0.390 OA
ATOM     14  H   UNL     1       4.511 -20.143 -38.862  1.00  0.00     0.211 HD
ENDBRANCH   3  13
ENDBRANCH   1   3
BRANCH   1  15
ATOM     15  C   UNL     1       8.400 -20.583 -37.249  1.00  0.00     0.032 C 
ATOM     16  C   UNL     1       8.966 -21.528 -36.189  1.00  0.00     0.010 C 
ATOM     17  C   UNL     1       9.569 -20.410 -38.290  1.00  0.00     0.006 C 
ATOM     18  C   UNL     1      10.470 -21.287 -36.148  1.00  0.00     0.041 C 
ATOM     19  C   UNL     1      10.846 -20.412 -37.374  1.00  0.00     0.092 C 
ATOM     20  C   UNL     1       9.642 -21.601 -39.274  1.00  0.00     0.011 C 
ATOM     21  C   UNL     1       9.476 -19.071 -39.081  1.00  0.00     0.015 C 
ATOM     22  C   UNL     1      12.112 -20.957 -38.041  1.00  0.00    -0.031 C 
ATOM     23  C   UNL     1      10.831 -21.521 -40.228  1.00  0.00     0.009 C 
ATOM     24  C   UNL     1      12.201 -21.223 -39.551  1.00  0.00     0.025 C 
ATOM     25  C   UNL     1      13.225 -21.042 -37.283  1.00  0.00     0.050 C 
ATOM     26  C   UNL     1      13.324 -22.279 -39.909  1.00  0.00    -0.013 C 
ATOM     27  C   UNL     1      14.503 -21.547 -37.799  1.00  0.00     0.159 C 
ATOM     28  C   UNL     1      14.679 -21.840 -39.262  1.00  0.00     0.070 C 
ATOM     29  C   UNL     1      13.551 -22.459 -41.447  1.00  0.00     0.042 C 
ATOM     30  C   UNL     1      12.932 -23.673 -39.336  1.00  0.00     0.013 C 
ATOM     31  O   UNL     1      15.473 -21.703 -37.009  1.00  0.00    -0.295 OA
ATOM     32  C   UNL     1      15.308 -20.602 -39.939  1.00  0.00     0.047 C 
ATOM     33  C   UNL     1      14.202 -21.258 -42.165  1.00  0.00     0.143 C 
ATOM     34  C   UNL     1      15.498 -20.777 -41.456  1.00  0.00     0.143 C 
BRANCH  19  35
ATOM     35  O   UNL     1      11.152 -19.102 -36.935  1.00  0.00    -0.385 OA
ATOM     36  H   UNL     1      12.039 -18.835 -37.291  1.00  0.00     0.211 HD
ENDBRANCH  19  35
BRANCH  33  37
ATOM     37  O   UNL     1      13.247 -20.239 -42.362  1.00  0.00    -0.390 OA
ATOM     38  H   UNL     1      12.366 -20.638 -42.585  1.00  0.00     0.211 HD
ENDBRANCH  33  37
BRANCH  34  39
ATOM     39  O   UNL     1      16.587 -21.625 -41.732  1.00  0.00    -0.390 OA
ATOM     40  H   UNL     1      16.618 -21.794 -42.708  1.00  0.00     0.211 HD
ENDBRANCH  34  39
ENDBRANCH   1  15
BRANCH   1  41
ATOM     41  O   UNL     1       6.883 -21.354 -38.978  1.00  0.00    -0.387 OA
ATOM     42  H   UNL     1       7.081 -22.328 -38.980  1.00  0.00     0.211 HD
ENDBRANCH   1  41
TORSDOF 9
ENDMDL
MODEL 6
REMARK VINA RESULT:    -6.401      4.354      8.128
REMARK INTER + INTRA:         -10.148
REMARK INTER:                  -9.660
REMARK INTRA:                  -0.488
REMARK UNBOUND:                -1.315
REMARK SMILES C[C@H]1OC(=O)[C@H](C)[C@@H]1C[C@H](O)[C@@](C)(O)[C@H]1CC[C@@]2(O)C3=CC(=O)[C@@H]4C[C@@H](O)[C@H](O)C[C@]4(C)[C@H]3CC[C@@]12C
REMARK SMILES IDX 12 1 13 2 10 3 9 4 8 5 7 6 6 7 4 8 2 9 3 10 5 11 1 12 11 13
REMARK SMILES IDX 15 15 16 16 36 17 17 18 18 19 35 20 37 21 20 22 34 23 33 24
REMARK SMILES IDX 21 25 31 26 22 27 24 28 30 29 32 30 23 31 25 32 28 33 26 34
REMARK SMILES IDX 19 35 29 37 27 39 14 41
REMARK H PARENT 11 14 19 36 29 38 27 40 14 42
REMARK Flexibility Score: inf
ROOT
ATOM      1  C   UNL     1       9.001 -16.472 -42.534  1.00  0.00     0.091 C 
ATOM      2  C   UNL     1       8.940 -17.432 -43.749  1.00  0.00     0.045 C 
ENDROOT
BRANCH   1   3
ATOM      3  C   UNL     1       8.719 -14.969 -42.957  1.00  0.00     0.146 C 
BRANCH   3   4
ATOM      4  C   UNL     1       9.636 -14.348 -44.067  1.00  0.00     0.043 C 
BRANCH   4   5
ATOM      5  C   UNL     1      10.555 -13.112 -43.774  1.00  0.00     0.046 C 
ATOM      6  C   UNL     1      12.705 -14.616 -43.682  1.00  0.00     0.020 C 
ATOM      7  C   UNL     1      11.944 -13.401 -43.134  1.00  0.00     0.103 C 
ATOM      8  C   UNL     1      12.678 -12.168 -43.509  1.00  0.00     0.309 C 
ATOM      9  C   UNL     1      10.827 -12.058 -44.885  1.00  0.00     0.177 C 
ATOM     10  O   UNL     1      12.047 -11.447 -44.499  1.00  0.00    -0.462 OA
ATOM     11  O   UNL     1      13.776 -11.816 -43.004  1.00  0.00    -0.252 OA
ATOM     12  C   UNL     1       9.744 -10.987 -44.985  1.00  0.00     0.053 C 
ENDBRANCH   4   5
ENDBRANCH   3   4
BRANCH   3  13
ATOM     13  O   UNL     1       8.726 -14.137 -41.824  1.00  0.00    -0.390 OA
ATOM     14  H   UNL     1       7.786 -13.879 -41.633  1.00  0.00     0.211 HD
ENDBRANCH   3  13
ENDBRANCH   1   3
BRANCH   1  15
ATOM     15  C   UNL     1       8.041 -17.025 -41.376  1.00  0.00     0.032 C 
ATOM     16  C   UNL     1       6.878 -17.878 -41.884  1.00  0.00     0.010 C 
ATOM     17  C   UNL     1       8.552 -17.776 -40.090  1.00  0.00     0.006 C 
ATOM     18  C   UNL     1       6.260 -18.543 -40.661  1.00  0.00     0.041 C 
ATOM     19  C   UNL     1       7.220 -18.321 -39.460  1.00  0.00     0.092 C 
ATOM     20  C   UNL     1       9.474 -18.965 -40.448  1.00  0.00     0.011 C 
ATOM     21  C   UNL     1       9.273 -16.827 -39.086  1.00  0.00     0.015 C 
ATOM     22  C   UNL     1       7.373 -19.619 -38.662  1.00  0.00    -0.031 C 
ATOM     23  C   UNL     1       9.900 -19.783 -39.233  1.00  0.00     0.009 C 
ATOM     24  C   UNL     1       8.743 -20.195 -38.276  1.00  0.00     0.025 C 
ATOM     25  C   UNL     1       6.251 -20.169 -38.151  1.00  0.00     0.050 C 
ATOM     26  C   UNL     1       8.682 -21.751 -37.992  1.00  0.00    -0.013 C 
ATOM     27  C   UNL     1       6.259 -21.410 -37.369  1.00  0.00     0.159 C 
ATOM     28  C   UNL     1       7.553 -22.048 -36.950  1.00  0.00     0.070 C 
ATOM     29  C   UNL     1      10.023 -22.343 -37.443  1.00  0.00     0.042 C 
ATOM     30  C   UNL     1       8.350 -22.509 -39.310  1.00  0.00     0.013 C 
ATOM     31  O   UNL     1       5.164 -21.928 -37.015  1.00  0.00    -0.295 OA
ATOM     32  C   UNL     1       7.897 -21.571 -35.522  1.00  0.00     0.047 C 
ATOM     33  C   UNL     1      10.397 -21.916 -36.009  1.00  0.00     0.143 C 
ATOM     34  C   UNL     1       9.232 -22.133 -35.004  1.00  0.00     0.143 C 
BRANCH  19  35
ATOM     35  O   UNL     1       6.653 -17.370 -38.580  1.00  0.00    -0.385 OA
ATOM     36  H   UNL     1       5.836 -17.751 -38.165  1.00  0.00     0.211 HD
ENDBRANCH  19  35
BRANCH  33  37
ATOM     37  O   UNL     1      10.909 -20.601 -36.015  1.00  0.00    -0.390 OA
ATOM     38  H   UNL     1      10.793 -20.188 -35.122  1.00  0.00     0.211 HD
ENDBRANCH  33  37
BRANCH  34  39
ATOM     39  O   UNL     1       9.102 -23.488 -34.645  1.00  0.00    -0.390 OA
ATOM     40  H   UNL     1       9.109 -23.556 -33.656  1.00  0.00     0.211 HD
ENDBRANCH  34  39
ENDBRANCH   1  15
BRANCH   1  41
ATOM     41  O   UNL     1      10.318 -16.501 -42.032  1.00  0.00    -0.387 OA
ATOM     42  H   UNL     1      10.958 -16.449 -42.791  1.00  0.00     0.211 HD
ENDBRANCH   1  41
TORSDOF 9
ENDMDL
MODEL 7
REMARK VINA RESULT:    -6.348      7.568     11.213
REMARK INTER + INTRA:         -10.076
REMARK INTER:                  -8.870
REMARK INTRA:                  -1.205
REMARK UNBOUND:                -1.315
REMARK SMILES C[C@H]1OC(=O)[C@H](C)[C@@H]1C[C@H](O)[C@@](C)(O)[C@H]1CC[C@@]2(O)C3=CC(=O)[C@@H]4C[C@@H](O)[C@H](O)C[C@]4(C)[C@H]3CC[C@@]12C
REMARK SMILES IDX 12 1 13 2 10 3 9 4 8 5 7 6 6 7 4 8 2 9 3 10 5 11 1 12 11 13
REMARK SMILES IDX 15 15 16 16 36 17 17 18 18 19 35 20 37 21 20 22 34 23 33 24
REMARK SMILES IDX 21 25 31 26 22 27 24 28 30 29 32 30 23 31 25 32 28 33 26 34
REMARK SMILES IDX 19 35 29 37 27 39 14 41
REMARK H PARENT 11 14 19 36 29 38 27 40 14 42
REMARK Flexibility Score: inf
ROOT
ATOM      1  C   UNL     1       6.901 -15.687 -47.463  1.00  0.00     0.091 C 
ATOM      2  C   UNL     1       8.049 -16.678 -47.784  1.00  0.00     0.045 C 
ENDROOT
BRANCH   1   3
ATOM      3  C   UNL     1       5.890 -16.284 -46.396  1.00  0.00     0.146 C 
BRANCH   3   4
ATOM      4  C   UNL     1       6.477 -17.246 -45.305  1.00  0.00     0.043 C 
BRANCH   4   5
ATOM      5  C   UNL     1       7.359 -16.707 -44.127  1.00  0.00     0.046 C 
ATOM      6  C   UNL     1       5.255 -15.792 -42.850  1.00  0.00     0.020 C 
ATOM      7  C   UNL     1       6.732 -15.606 -43.223  1.00  0.00     0.103 C 
ATOM      8  C   UNL     1       7.558 -15.755 -42.000  1.00  0.00     0.309 C 
ATOM      9  C   UNL     1       8.047 -17.699 -43.147  1.00  0.00     0.177 C 
ATOM     10  O   UNL     1       8.265 -16.938 -41.970  1.00  0.00    -0.462 OA
ATOM     11  O   UNL     1       7.598 -14.913 -41.066  1.00  0.00    -0.252 OA
ATOM     12  C   UNL     1       9.387 -18.225 -43.655  1.00  0.00     0.053 C 
ENDBRANCH   4   5
ENDBRANCH   3   4
BRANCH   3  13
ATOM     13  O   UNL     1       4.815 -16.915 -47.047  1.00  0.00    -0.390 OA
ATOM     14  H   UNL     1       4.409 -16.254 -47.669  1.00  0.00     0.211 HD
ENDBRANCH   3  13
ENDBRANCH   1   3
BRANCH   1  15
ATOM     15  C   UNL     1       7.526 -14.268 -47.062  1.00  0.00     0.032 C 
ATOM     16  C   UNL     1       6.768 -13.544 -45.948  1.00  0.00     0.010 C 
ATOM     17  C   UNL     1       9.046 -14.037 -46.721  1.00  0.00     0.006 C 
ATOM     18  C   UNL     1       7.648 -12.382 -45.506  1.00  0.00     0.041 C 
ATOM     19  C   UNL     1       9.049 -12.574 -46.147  1.00  0.00     0.092 C 
ATOM     20  C   UNL     1       9.545 -15.016 -45.633  1.00  0.00     0.011 C 
ATOM     21  C   UNL     1       9.964 -14.124 -47.977  1.00  0.00     0.015 C 
ATOM     22  C   UNL     1      10.144 -12.295 -45.112  1.00  0.00    -0.031 C 
ATOM     23  C   UNL     1      10.983 -14.750 -45.198  1.00  0.00     0.009 C 
ATOM     24  C   UNL     1      11.305 -13.266 -44.856  1.00  0.00     0.025 C 
ATOM     25  C   UNL     1      10.156 -11.075 -44.536  1.00  0.00     0.050 C 
ATOM     26  C   UNL     1      11.943 -13.073 -43.420  1.00  0.00    -0.013 C 
ATOM     27  C   UNL     1      11.149 -10.679 -43.531  1.00  0.00     0.159 C 
ATOM     28  C   UNL     1      12.317 -11.569 -43.212  1.00  0.00     0.070 C 
ATOM     29  C   UNL     1      13.228 -13.935 -43.182  1.00  0.00     0.042 C 
ATOM     30  C   UNL     1      10.908 -13.481 -42.331  1.00  0.00     0.013 C 
ATOM     31  O   UNL     1      11.037  -9.564 -42.954  1.00  0.00    -0.295 OA
ATOM     32  C   UNL     1      13.527 -11.115 -44.059  1.00  0.00     0.047 C 
ATOM     33  C   UNL     1      14.471 -13.505 -43.987  1.00  0.00     0.143 C 
ATOM     34  C   UNL     1      14.775 -11.988 -43.841  1.00  0.00     0.143 C 
BRANCH  19  35
ATOM     35  O   UNL     1       9.222 -11.627 -47.183  1.00  0.00    -0.385 OA
ATOM     36  H   UNL     1       9.923 -11.948 -47.809  1.00  0.00     0.211 HD
ENDBRANCH  19  35
BRANCH  33  37
ATOM     37  O   UNL     1      14.354 -13.938 -45.324  1.00  0.00    -0.390 OA
ATOM     38  H   UNL     1      14.922 -13.378 -45.914  1.00  0.00     0.211 HD
ENDBRANCH  33  37
BRANCH  34  39
ATOM     39  O   UNL     1      15.383 -11.696 -42.606  1.00  0.00    -0.390 OA
ATOM     40  H   UNL     1      14.676 -11.597 -41.919  1.00  0.00     0.211 HD
ENDBRANCH  34  39
ENDBRANCH   1  15
BRANCH   1  41
ATOM     41  O   UNL     1       6.159 -15.496 -48.646  1.00  0.00    -0.387 OA
ATOM     42  H   UNL     1       5.236 -15.211 -48.411  1.00  0.00     0.211 HD
ENDBRANCH   1  41
TORSDOF 9
ENDMDL
MODEL 8
REMARK VINA RESULT:    -6.291      2.090      3.769
REMARK INTER + INTRA:          -9.997
REMARK INTER:                  -8.979
REMARK INTRA:                  -1.018
REMARK UNBOUND:                -1.315
REMARK SMILES C[C@H]1OC(=O)[C@H](C)[C@@H]1C[C@H](O)[C@@](C)(O)[C@H]1CC[C@@]2(O)C3=CC(=O)[C@@H]4C[C@@H](O)[C@H](O)C[C@]4(C)[C@H]3CC[C@@]12C
REMARK SMILES IDX 12 1 13 2 10 3 9 4 8 5 7 6 6 7 4 8 2 9 3 10 5 11 1 12 11 13
REMARK SMILES IDX 15 15 16 16 36 17 17 18 18 19 35 20 37 21 20 22 34 23 33 24
REMARK SMILES IDX 21 25 31 26 22 27 24 28 30 29 32 30 23 31 25 32 28 33 26 34
REMARK SMILES IDX 19 35 29 37 27 39 14 41
REMARK H PARENT 11 14 19 36 29 38 27 40 14 42
REMARK Flexibility Score: inf
ROOT
ATOM      1  C   UNL     1      10.296 -22.455 -36.422  1.00  0.00     0.091 C 
ATOM      2  C   UNL     1      10.492 -23.918 -35.953  1.00  0.00     0.045 C 
ENDROOT
BRANCH   1   3
ATOM      3  C   UNL     1      11.440 -22.000 -37.423  1.00  0.00     0.146 C 
BRANCH   3   4
ATOM      4  C   UNL     1      12.442 -23.098 -37.920  1.00  0.00     0.043 C 
BRANCH   4   5
ATOM      5  C   UNL     1      12.245 -23.826 -39.295  1.00  0.00     0.046 C 
ATOM      6  C   UNL     1      14.735 -24.659 -39.315  1.00  0.00     0.020 C 
ATOM      7  C   UNL     1      13.529 -24.147 -40.114  1.00  0.00     0.103 C 
ATOM      8  C   UNL     1      13.030 -25.240 -40.983  1.00  0.00     0.309 C 
ATOM      9  C   UNL     1      11.371 -25.110 -39.382  1.00  0.00     0.177 C 
ATOM     10  O   UNL     1      11.839 -25.775 -40.544  1.00  0.00    -0.462 OA
ATOM     11  O   UNL     1      13.634 -25.666 -42.002  1.00  0.00    -0.252 OA
ATOM     12  C   UNL     1       9.880 -24.821 -39.538  1.00  0.00     0.053 C 
ENDBRANCH   4   5
ENDBRANCH   3   4
BRANCH   3  13
ATOM     13  O   UNL     1      12.158 -20.921 -36.879  1.00  0.00    -0.390 OA
ATOM     14  H   UNL     1      13.018 -20.850 -37.373  1.00  0.00     0.211 HD
ENDBRANCH   3  13
ENDBRANCH   1   3
BRANCH   1  15
ATOM     15  C   UNL     1       8.809 -22.278 -36.992  1.00  0.00     0.032 C 
ATOM     16  C   UNL     1       7.712 -22.468 -35.943  1.00  0.00     0.010 C 
ATOM     17  C   UNL     1       8.330 -21.044 -37.845  1.00  0.00     0.006 C 
ATOM     18  C   UNL     1       6.414 -21.987 -36.578  1.00  0.00     0.041 C 
ATOM     19  C   UNL     1       6.773 -21.244 -37.894  1.00  0.00     0.092 C 
ATOM     20  C   UNL     1       8.654 -19.703 -37.146  1.00  0.00     0.011 C 
ATOM     21  C   UNL     1       8.919 -21.047 -39.288  1.00  0.00     0.015 C 
ATOM     22  C   UNL     1       5.964 -19.949 -38.005  1.00  0.00    -0.031 C 
ATOM     23  C   UNL     1       8.108 -18.489 -37.891  1.00  0.00     0.009 C 
ATOM     24  C   UNL     1       6.614 -18.593 -38.317  1.00  0.00     0.025 C 
ATOM     25  C   UNL     1       4.619 -20.054 -37.987  1.00  0.00     0.050 C 
ATOM     26  C   UNL     1       5.730 -17.376 -37.824  1.00  0.00    -0.013 C 
ATOM     27  C   UNL     1       3.728 -18.892 -38.084  1.00  0.00     0.159 C 
ATOM     28  C   UNL     1       4.276 -17.526 -38.382  1.00  0.00     0.070 C 
ATOM     29  C   UNL     1       6.283 -15.979 -38.265  1.00  0.00     0.042 C 
ATOM     30  C   UNL     1       5.665 -17.376 -36.269  1.00  0.00     0.013 C 
ATOM     31  O   UNL     1       2.484 -19.051 -37.950  1.00  0.00    -0.295 OA
ATOM     32  C   UNL     1       4.176 -17.276 -39.903  1.00  0.00     0.047 C 
ATOM     33  C   UNL     1       6.180 -15.672 -39.772  1.00  0.00     0.143 C 
ATOM     34  C   UNL     1       4.750 -15.914 -40.329  1.00  0.00     0.143 C 
BRANCH  19  35
ATOM     35  O   UNL     1       6.403 -22.048 -38.998  1.00  0.00    -0.385 OA
ATOM     36  H   UNL     1       6.510 -23.005 -38.758  1.00  0.00     0.211 HD
ENDBRANCH  19  35
BRANCH  33  37
ATOM     37  O   UNL     1       7.191 -16.361 -40.474  1.00  0.00    -0.390 OA
ATOM     38  H   UNL     1       7.966 -16.526 -39.878  1.00  0.00     0.211 HD
ENDBRANCH  33  37
BRANCH  34  39
ATOM     39  O   UNL     1       3.873 -14.868 -39.983  1.00  0.00    -0.390 OA
ATOM     40  H   UNL     1       4.041 -14.101 -40.587  1.00  0.00     0.211 HD
ENDBRANCH  34  39
ENDBRANCH   1  15
BRANCH   1  41
ATOM     41  O   UNL     1      10.409 -21.624 -35.289  1.00  0.00    -0.387 OA
ATOM     42  H   UNL     1      10.033 -22.096 -34.499  1.00  0.00     0.211 HD
ENDBRANCH   1  41
TORSDOF 9
ENDMDL
MODEL 9
REMARK VINA RESULT:    -6.261      1.953      3.634
REMARK INTER + INTRA:          -9.956
REMARK INTER:                  -8.775
REMARK INTRA:                  -1.181
REMARK UNBOUND:                -1.315
REMARK SMILES C[C@H]1OC(=O)[C@H](C)[C@@H]1C[C@H](O)[C@@](C)(O)[C@H]1CC[C@@]2(O)C3=CC(=O)[C@@H]4C[C@@H](O)[C@H](O)C[C@]4(C)[C@H]3CC[C@@]12C
REMARK SMILES IDX 12 1 13 2 10 3 9 4 8 5 7 6 6 7 4 8 2 9 3 10 5 11 1 12 11 13
REMARK SMILES IDX 15 15 16 16 36 17 17 18 18 19 35 20 37 21 20 22 34 23 33 24
REMARK SMILES IDX 21 25 31 26 22 27 24 28 30 29 32 30 23 31 25 32 28 33 26 34
REMARK SMILES IDX 19 35 29 37 27 39 14 41
REMARK H PARENT 11 14 19 36 29 38 27 40 14 42
REMARK Flexibility Score: inf
ROOT
ATOM      1  C   UNL     1      10.848 -23.946 -37.665  1.00  0.00     0.091 C 
ATOM      2  C   UNL     1      10.270 -24.614 -38.938  1.00  0.00     0.045 C 
ENDROOT
BRANCH   1   3
ATOM      3  C   UNL     1      12.153 -23.102 -37.985  1.00  0.00     0.146 C 
BRANCH   3   4
ATOM      4  C   UNL     1      12.336 -22.585 -39.454  1.00  0.00     0.043 C 
BRANCH   4   5
ATOM      5  C   UNL     1      12.793 -21.115 -39.753  1.00  0.00     0.046 C 
ATOM      6  C   UNL     1      11.105 -20.901 -41.754  1.00  0.00     0.020 C 
ATOM      7  C   UNL     1      12.483 -20.555 -41.172  1.00  0.00     0.103 C 
ATOM      8  C   UNL     1      12.538 -19.097 -40.907  1.00  0.00     0.309 C 
ATOM      9  C   UNL     1      12.427 -19.967 -38.770  1.00  0.00     0.177 C 
ATOM     10  O   UNL     1      12.485 -18.793 -39.565  1.00  0.00    -0.462 OA
ATOM     11  O   UNL     1      12.600 -18.217 -41.804  1.00  0.00    -0.252 OA
ATOM     12  C   UNL     1      13.404 -19.829 -37.606  1.00  0.00     0.053 C 
ENDBRANCH   4   5
ENDBRANCH   3   4
BRANCH   3  13
ATOM     13  O   UNL     1      13.299 -23.816 -37.593  1.00  0.00    -0.390 OA
ATOM     14  H   UNL     1      14.093 -23.308 -37.907  1.00  0.00     0.211 HD
ENDBRANCH   3  13
ENDBRANCH   1   3
BRANCH   1  15
ATOM     15  C   UNL     1       9.688 -23.119 -36.931  1.00  0.00     0.032 C 
ATOM     16  C   UNL     1      10.191 -22.168 -35.844  1.00  0.00     0.010 C 
ATOM     17  C   UNL     1       8.571 -22.304 -37.685  1.00  0.00     0.006 C 
ATOM     18  C   UNL     1       9.015 -21.276 -35.469  1.00  0.00     0.041 C 
ATOM     19  C   UNL     1       7.895 -21.493 -36.522  1.00  0.00     0.092 C 
ATOM     20  C   UNL     1       9.176 -21.320 -38.713  1.00  0.00     0.011 C 
ATOM     21  C   UNL     1       7.522 -23.223 -38.381  1.00  0.00     0.015 C 
ATOM     22  C   UNL     1       7.299 -20.147 -36.942  1.00  0.00    -0.031 C 
ATOM     23  C   UNL     1       8.130 -20.434 -39.385  1.00  0.00     0.009 C 
ATOM     24  C   UNL     1       7.129 -19.742 -38.413  1.00  0.00     0.025 C 
ATOM     25  C   UNL     1       6.761 -19.377 -35.973  1.00  0.00     0.050 C 
ATOM     26  C   UNL     1       7.054 -18.171 -38.599  1.00  0.00    -0.013 C 
ATOM     27  C   UNL     1       6.158 -18.066 -36.241  1.00  0.00     0.159 C 
ATOM     28  C   UNL     1       5.958 -17.585 -37.650  1.00  0.00     0.070 C 
ATOM     29  C   UNL     1       6.724 -17.726 -40.063  1.00  0.00     0.042 C 
ATOM     30  C   UNL     1       8.425 -17.536 -38.223  1.00  0.00     0.013 C 
ATOM     31  O   UNL     1       5.774 -17.351 -35.276  1.00  0.00    -0.295 OA
ATOM     32  C   UNL     1       4.518 -17.933 -38.089  1.00  0.00     0.047 C 
ATOM     33  C   UNL     1       5.289 -18.029 -40.539  1.00  0.00     0.143 C 
ATOM     34  C   UNL     1       4.214 -17.520 -39.539  1.00  0.00     0.143 C 
BRANCH  19  35
ATOM     35  O   UNL     1       6.843 -22.236 -35.936  1.00  0.00    -0.385 OA
ATOM     36  H   UNL     1       7.072 -22.443 -34.992  1.00  0.00     0.211 HD
ENDBRANCH  19  35
BRANCH  33  37
ATOM     37  O   UNL     1       5.167 -19.397 -40.862  1.00  0.00    -0.390 OA
ATOM     38  H   UNL     1       6.042 -19.755 -41.159  1.00  0.00     0.211 HD
ENDBRANCH  33  37
BRANCH  34  39
ATOM     39  O   UNL     1       4.031 -16.128 -39.637  1.00  0.00    -0.390 OA
ATOM     40  H   UNL     1       3.059 -15.936 -39.655  1.00  0.00     0.211 HD
ENDBRANCH  34  39
ENDBRANCH   1  15
BRANCH   1  41
ATOM     41  O   UNL     1      11.247 -24.973 -36.787  1.00  0.00    -0.387 OA
ATOM     42  H   UNL     1      10.633 -24.992 -36.005  1.00  0.00     0.211 HD
ENDBRANCH   1  41
TORSDOF 9
ENDMDL
