MODEL 1
REMARK VINA RESULT:    -4.368      0.000      0.000
REMARK INTER + INTRA:          -4.496
REMARK INTER:                  -4.496
REMARK INTRA:                   0.000
REMARK UNBOUND:                 0.000
REMARK SMILES Nc1ncnc2nc[nH]c12
REMARK SMILES IDX 8 1 7 2 6 3 5 4 4 5 3 6 2 7 10 8 9 9 1 11
REMARK H PARENT 9 10 1 12 1 13
REMARK Flexibility Score: inf
ROOT
ATOM      1  C   UNL     1     -14.728  26.014  16.420  1.00  0.00     0.199 A 
ATOM      2  N   UNL     1     -14.555  24.933  17.228  1.00  0.00    -0.217 NA
ATOM      3  C   UNL     1     -13.231  24.724  17.146  1.00  0.00     0.182 A 
ATOM      4  N   UNL     1     -12.526  23.751  17.771  1.00  0.00    -0.215 NA
ATOM      5  C   UNL     1     -11.175  23.697  17.563  1.00  0.00     0.226 A 
ATOM      6  N   UNL     1     -10.561  24.609  16.741  1.00  0.00    -0.217 NA
ATOM      7  C   UNL     1     -11.271  25.590  16.109  1.00  0.00     0.152 A 
ATOM      8  C   UNL     1     -12.644  25.631  16.332  1.00  0.00     0.127 A 
ATOM      9  N   UNL     1     -13.578  26.465  15.858  1.00  0.00    -0.340 N 
ATOM     10  H   UNL     1     -13.463  27.273  15.207  1.00  0.00     0.168 HD
ENDROOT
BRANCH   7  11
ATOM     11  N   UNL     1     -10.610  26.527  15.258  1.00  0.00    -0.382 N 
ATOM     12  H   UNL     1     -11.125  27.320  14.817  1.00  0.00     0.158 HD
ATOM     13  H   UNL     1      -9.588  26.428  15.066  1.00  0.00     0.158 HD
ENDBRANCH   7  11
TORSDOF 1
ENDMDL
MODEL 2
REMARK VINA RESULT:    -4.190      2.185      2.576
REMARK INTER + INTRA:          -4.313
REMARK INTER:                  -4.313
REMARK INTRA:                   0.000
REMARK UNBOUND:                 0.000
REMARK SMILES Nc1ncnc2nc[nH]c12
REMARK SMILES IDX 8 1 7 2 6 3 5 4 4 5 3 6 2 7 10 8 9 9 1 11
REMARK H PARENT 9 10 1 12 1 13
REMARK Flexibility Score: inf
ROOT
ATOM      1  C   UNL     1     -12.351  23.571  13.142  1.00  0.00     0.199 A 
ATOM      2  N   UNL     1     -12.618  22.736  14.183  1.00  0.00    -0.217 NA
ATOM      3  C   UNL     1     -12.135  23.424  15.230  1.00  0.00     0.182 A 
ATOM      4  N   UNL     1     -12.147  23.033  16.528  1.00  0.00    -0.215 NA
ATOM      5  C   UNL     1     -11.605  23.874  17.460  1.00  0.00     0.226 A 
ATOM      6  N   UNL     1     -11.064  25.078  17.081  1.00  0.00    -0.217 NA
ATOM      7  C   UNL     1     -11.050  25.472  15.773  1.00  0.00     0.152 A 
ATOM      8  C   UNL     1     -11.607  24.605  14.837  1.00  0.00     0.127 A 
ATOM      9  N   UNL     1     -11.734  24.722  13.510  1.00  0.00    -0.340 N 
ATOM     10  H   UNL     1     -11.432  25.507  12.891  1.00  0.00     0.168 HD
ENDROOT
BRANCH   7  11
ATOM     11  N   UNL     1     -10.482  26.728  15.403  1.00  0.00    -0.382 N 
ATOM     12  H   UNL     1      -9.449  26.869  15.367  1.00  0.00     0.158 HD
ATOM     13  H   UNL     1     -11.103  27.532  15.160  1.00  0.00     0.158 HD
ENDBRANCH   7  11
TORSDOF 1
ENDMDL
MODEL 3
REMARK VINA RESULT:    -4.086      1.038      2.986
REMARK INTER + INTRA:          -4.205
REMARK INTER:                  -4.205
REMARK INTRA:                   0.000
REMARK UNBOUND:                 0.000
REMARK SMILES Nc1ncnc2nc[nH]c12
REMARK SMILES IDX 8 1 7 2 6 3 5 4 4 5 3 6 2 7 10 8 9 9 1 11
REMARK H PARENT 9 10 1 12 1 13
REMARK Flexibility Score: inf
ROOT
ATOM      1  C   UNL     1     -10.871  25.836  15.732  1.00  0.00     0.199 A 
ATOM      2  N   UNL     1     -10.712  24.908  16.715  1.00  0.00    -0.217 NA
ATOM      3  C   UNL     1     -11.978  24.689  17.107  1.00  0.00     0.182 A 
ATOM      4  N   UNL     1     -12.386  23.838  18.079  1.00  0.00    -0.215 NA
ATOM      5  C   UNL     1     -13.726  23.750  18.338  1.00  0.00     0.226 A 
ATOM      6  N   UNL     1     -14.624  24.508  17.629  1.00  0.00    -0.217 NA
ATOM      7  C   UNL     1     -14.213  25.368  16.650  1.00  0.00     0.152 A 
ATOM      8  C   UNL     1     -12.846  25.445  16.398  1.00  0.00     0.127 A 
ATOM      9  N   UNL     1     -12.164  26.184  15.514  1.00  0.00    -0.340 N 
ATOM     10  H   UNL     1     -12.528  26.871  14.818  1.00  0.00     0.168 HD
ENDROOT
BRANCH   7  11
ATOM     11  N   UNL     1     -15.165  26.148  15.926  1.00  0.00    -0.382 N 
ATOM     12  H   UNL     1     -16.163  26.205  16.226  1.00  0.00     0.158 HD
ATOM     13  H   UNL     1     -14.869  26.677  15.076  1.00  0.00     0.158 HD
ENDBRANCH   7  11
TORSDOF 1
ENDMDL
MODEL 4
REMARK VINA RESULT:    -4.080     13.261     13.699
REMARK INTER + INTRA:          -4.199
REMARK INTER:                  -4.199
REMARK INTRA:                   0.000
REMARK UNBOUND:                 0.000
REMARK SMILES Nc1ncnc2nc[nH]c12
REMARK SMILES IDX 8 1 7 2 6 3 5 4 4 5 3 6 2 7 10 8 9 9 1 11
REMARK H PARENT 9 10 1 12 1 13
REMARK Flexibility Score: inf
ROOT
ATOM      1  C   UNL     1     -21.887  27.467   5.998  1.00  0.00     0.199 A 
ATOM      2  N   UNL     1     -22.493  26.263   6.191  1.00  0.00    -0.217 NA
ATOM      3  C   UNL     1     -21.503  25.399   5.911  1.00  0.00     0.182 A 
ATOM      4  N   UNL     1     -21.578  24.047   5.949  1.00  0.00    -0.215 NA
ATOM      5  C   UNL     1     -20.458  23.330   5.630  1.00  0.00     0.226 A 
ATOM      6  N   UNL     1     -19.296  23.972   5.281  1.00  0.00    -0.217 NA
ATOM      7  C   UNL     1     -19.220  25.335   5.241  1.00  0.00     0.152 A 
ATOM      8  C   UNL     1     -20.368  26.050   5.570  1.00  0.00     0.127 A 
ATOM      9  N   UNL     1     -20.588  27.370   5.619  1.00  0.00    -0.340 N 
ATOM     10  H   UNL     1     -19.926  28.151   5.414  1.00  0.00     0.168 HD
ENDROOT
BRANCH   7  11
ATOM     11  N   UNL     1     -18.001  25.981   4.875  1.00  0.00    -0.382 N 
ATOM     12  H   UNL     1     -17.984  26.758   4.178  1.00  0.00     0.158 HD
ATOM     13  H   UNL     1     -17.099  25.680   5.307  1.00  0.00     0.158 HD
ENDBRANCH   7  11
TORSDOF 1
ENDMDL
MODEL 5
REMARK VINA RESULT:    -4.032     12.922     13.928
REMARK INTER + INTRA:          -4.149
REMARK INTER:                  -4.149
REMARK INTRA:                   0.000
REMARK UNBOUND:                 0.000
REMARK SMILES Nc1ncnc2nc[nH]c12
REMARK SMILES IDX 8 1 7 2 6 3 5 4 4 5 3 6 2 7 10 8 9 9 1 11
REMARK H PARENT 9 10 1 12 1 13
REMARK Flexibility Score: inf
ROOT
ATOM      1  C   UNL     1     -18.242  24.779   5.290  1.00  0.00     0.199 A 
ATOM      2  N   UNL     1     -19.040  23.677   5.261  1.00  0.00    -0.217 NA
ATOM      3  C   UNL     1     -20.249  24.194   5.536  1.00  0.00     0.182 A 
ATOM      4  N   UNL     1     -21.416  23.513   5.630  1.00  0.00    -0.215 NA
ATOM      5  C   UNL     1     -22.552  24.216   5.920  1.00  0.00     0.226 A 
ATOM      6  N   UNL     1     -22.501  25.575   6.110  1.00  0.00    -0.217 NA
ATOM      7  C   UNL     1     -21.324  26.263   6.017  1.00  0.00     0.152 A 
ATOM      8  C   UNL     1     -20.177  25.532   5.720  1.00  0.00     0.127 A 
ATOM      9  N   UNL     1     -18.908  25.929   5.567  1.00  0.00    -0.340 N 
ATOM     10  H   UNL     1     -18.510  26.891   5.643  1.00  0.00     0.168 HD
ENDROOT
BRANCH   7  11
ATOM     11  N   UNL     1     -21.295  27.676   6.218  1.00  0.00    -0.382 N 
ATOM     12  H   UNL     1     -22.101  28.281   5.948  1.00  0.00     0.158 HD
ATOM     13  H   UNL     1     -20.455  28.126   6.645  1.00  0.00     0.158 HD
ENDBRANCH   7  11
TORSDOF 1
ENDMDL
MODEL 6
REMARK VINA RESULT:    -3.960     11.459     12.893
REMARK INTER + INTRA:          -4.075
REMARK INTER:                  -4.075
REMARK INTRA:                   0.000
REMARK UNBOUND:                 0.000
REMARK SMILES Nc1ncnc2nc[nH]c12
REMARK SMILES IDX 8 1 7 2 6 3 5 4 4 5 3 6 2 7 10 8 9 9 1 11
REMARK H PARENT 9 10 1 12 1 13
REMARK Flexibility Score: inf
ROOT
ATOM      1  C   UNL     1     -22.339  26.810   6.332  1.00  0.00     0.199 A 
ATOM      2  N   UNL     1     -23.384  26.172   6.927  1.00  0.00    -0.217 NA
ATOM      3  C   UNL     1     -22.761  25.293   7.729  1.00  0.00     0.182 A 
ATOM      4  N   UNL     1     -23.350  24.396   8.556  1.00  0.00    -0.215 NA
ATOM      5  C   UNL     1     -22.545  23.579   9.301  1.00  0.00     0.226 A 
ATOM      6  N   UNL     1     -21.179  23.671   9.204  1.00  0.00    -0.217 NA
ATOM      7  C   UNL     1     -20.584  24.574   8.369  1.00  0.00     0.152 A 
ATOM      8  C   UNL     1     -21.417  25.399   7.620  1.00  0.00     0.127 A 
ATOM      9  N   UNL     1     -21.124  26.360   6.735  1.00  0.00    -0.340 N 
ATOM     10  H   UNL     1     -20.186  26.694   6.420  1.00  0.00     0.168 HD
ENDROOT
BRANCH   7  11
ATOM     11  N   UNL     1     -19.161  24.652   8.285  1.00  0.00    -0.382 N 
ATOM     12  H   UNL     1     -18.624  25.379   8.807  1.00  0.00     0.158 HD
ATOM     13  H   UNL     1     -18.634  23.972   7.693  1.00  0.00     0.158 HD
ENDBRANCH   7  11
TORSDOF 1
ENDMDL
MODEL 7
REMARK VINA RESULT:    -3.948     12.317     13.959
REMARK INTER + INTRA:          -4.063
REMARK INTER:                  -4.063
REMARK INTRA:                   0.000
REMARK UNBOUND:                 0.000
REMARK SMILES Nc1ncnc2nc[nH]c12
REMARK SMILES IDX 8 1 7 2 6 3 5 4 4 5 3 6 2 7 10 8 9 9 1 11
REMARK H PARENT 9 10 1 12 1 13
REMARK Flexibility Score: inf
ROOT
ATOM      1  C   UNL     1     -21.298  25.702   5.299  1.00  0.00     0.199 A 
ATOM      2  N   UNL     1     -20.539  25.313   6.360  1.00  0.00    -0.217 NA
ATOM      3  C   UNL     1     -21.461  25.149   7.324  1.00  0.00     0.182 A 
ATOM      4  N   UNL     1     -21.232  24.763   8.602  1.00  0.00    -0.215 NA
ATOM      5  C   UNL     1     -22.304  24.651   9.444  1.00  0.00     0.226 A 
ATOM      6  N   UNL     1     -23.572  24.927   8.996  1.00  0.00    -0.217 NA
ATOM      7  C   UNL     1     -23.804  25.318   7.708  1.00  0.00     0.152 A 
ATOM      8  C   UNL     1     -22.702  25.426   6.864  1.00  0.00     0.127 A 
ATOM      9  N   UNL     1     -22.624  25.779   5.575  1.00  0.00    -0.340 N 
ATOM     10  H   UNL     1     -23.394  26.054   4.925  1.00  0.00     0.168 HD
ENDROOT
BRANCH   7  11
ATOM     11  N   UNL     1     -25.132  25.600   7.266  1.00  0.00    -0.382 N 
ATOM     12  H   UNL     1     -25.952  25.067   7.631  1.00  0.00     0.158 HD
ATOM     13  H   UNL     1     -25.299  26.353   6.562  1.00  0.00     0.158 HD
ENDBRANCH   7  11
TORSDOF 1
ENDMDL
MODEL 8
REMARK VINA RESULT:    -3.918     11.192     12.533
REMARK INTER + INTRA:          -4.033
REMARK INTER:                  -4.033
REMARK INTRA:                   0.000
REMARK UNBOUND:                 0.000
REMARK SMILES Nc1ncnc2nc[nH]c12
REMARK SMILES IDX 8 1 7 2 6 3 5 4 4 5 3 6 2 7 10 8 9 9 1 11
REMARK H PARENT 9 10 1 12 1 13
REMARK Flexibility Score: inf
ROOT
ATOM      1  C   UNL     1     -20.287  24.463   9.717  1.00  0.00     0.199 A 
ATOM      2  N   UNL     1     -21.446  23.934   9.235  1.00  0.00    -0.217 NA
ATOM      3  C   UNL     1     -21.257  24.001   7.907  1.00  0.00     0.182 A 
ATOM      4  N   UNL     1     -22.124  23.597   6.947  1.00  0.00    -0.215 NA
ATOM      5  C   UNL     1     -21.753  23.746   5.639  1.00  0.00     0.226 A 
ATOM      6  N   UNL     1     -20.535  24.290   5.318  1.00  0.00    -0.217 NA
ATOM      7  C   UNL     1     -19.660  24.698   6.285  1.00  0.00     0.152 A 
ATOM      8  C   UNL     1     -20.052  24.539   7.611  1.00  0.00     0.127 A 
ATOM      9  N   UNL     1     -19.415  24.842   8.749  1.00  0.00    -0.340 N 
ATOM     10  H   UNL     1     -18.471  25.269   8.876  1.00  0.00     0.168 HD
ENDROOT
BRANCH   7  11
ATOM     11  N   UNL     1     -18.398  25.262   5.927  1.00  0.00    -0.382 N 
ATOM     12  H   UNL     1     -17.761  24.786   5.252  1.00  0.00     0.158 HD
ATOM     13  H   UNL     1     -18.095  26.170   6.343  1.00  0.00     0.158 HD
ENDBRANCH   7  11
TORSDOF 1
ENDMDL
MODEL 9
REMARK VINA RESULT:    -3.815     13.981     14.569
REMARK INTER + INTRA:          -3.926
REMARK INTER:                  -3.926
REMARK INTRA:                   0.000
REMARK UNBOUND:                 0.000
REMARK SMILES Nc1ncnc2nc[nH]c12
REMARK SMILES IDX 8 1 7 2 6 3 5 4 4 5 3 6 2 7 10 8 9 9 1 11
REMARK H PARENT 9 10 1 12 1 13
REMARK Flexibility Score: inf
ROOT
ATOM      1  C   UNL     1     -21.583  28.247   5.452  1.00  0.00     0.199 A 
ATOM      2  N   UNL     1     -20.394  27.731   5.037  1.00  0.00    -0.217 NA
ATOM      3  C   UNL     1     -20.599  26.409   5.161  1.00  0.00     0.182 A 
ATOM      4  N   UNL     1     -19.713  25.425   4.875  1.00  0.00    -0.215 NA
ATOM      5  C   UNL     1     -20.105  24.128   5.066  1.00  0.00     0.226 A 
ATOM      6  N   UNL     1     -21.363  23.844   5.535  1.00  0.00    -0.217 NA
ATOM      7  C   UNL     1     -22.257  24.835   5.825  1.00  0.00     0.152 A 
ATOM      8  C   UNL     1     -21.842  26.149   5.624  1.00  0.00     0.127 A 
ATOM      9  N   UNL     1     -22.490  27.305   5.817  1.00  0.00    -0.340 N 
ATOM     10  H   UNL     1     -23.461  27.460   6.166  1.00  0.00     0.168 HD
ENDROOT
BRANCH   7  11
ATOM     11  N   UNL     1     -23.560  24.515   6.313  1.00  0.00    -0.382 N 
ATOM     12  H   UNL     1     -24.309  24.166   5.675  1.00  0.00     0.158 HD
ATOM     13  H   UNL     1     -23.781  24.628   7.327  1.00  0.00     0.158 HD
ENDBRANCH   7  11
TORSDOF 1
ENDMDL
