MODEL 1
REMARK VINA RESULT:    -3.452      0.000      0.000
REMARK INTER + INTRA:          -8.420
REMARK INTER:                  -6.277
REMARK INTRA:                  -2.143
REMARK UNBOUND:                -2.143
REMARK SMILES CCCCCCCCCCCCCC[C@H](C)C(=O)[O-]
REMARK SMILES IDX 9 1 10 2 11 3 12 4 13 5 14 6 15 7 16 8 17 9 18 10 19 11 8 12
REMARK SMILES IDX 7 13 6 14 5 15 4 16 3 17 2 18 1 19
REMARK H PARENT
REMARK Flexibility Score: inf
ROOT
ATOM      1  C   UNL     1      11.891  22.012  19.320  1.00  0.00     0.000 C 
ENDROOT
BRANCH   1   2
ATOM      2  C   UNL     1      12.426  22.076  20.756  1.00  0.00     0.000 C 
BRANCH   2   3
ATOM      3  C   UNL     1      11.286  22.267  21.762  1.00  0.00     0.000 C 
BRANCH   3   4
ATOM      4  C   UNL     1      10.117  21.322  21.457  1.00  0.00     0.000 C 
BRANCH   4   5
ATOM      5  C   UNL     1       8.919  21.617  22.366  1.00  0.00     0.001 C 
BRANCH   5   6
ATOM      6  C   UNL     1       7.702  22.070  21.540  1.00  0.00     0.009 C 
BRANCH   6   7
ATOM      7  C   UNL     1       7.710  21.582  20.074  1.00  0.00     0.032 C 
ATOM      8  C   UNL     1       7.762  22.738  19.062  1.00  0.00     0.014 C 
BRANCH   7   9
ATOM      9  C   UNL     1       6.567  20.641  19.794  1.00  0.00     0.044 C 
ATOM     10  O   UNL     1       5.510  20.683  20.480  1.00  0.00    -0.550 OA
ATOM     11  O   UNL     1       6.697  19.679  18.801  1.00  0.00    -0.550 OA
ENDBRANCH   7   9
ENDBRANCH   6   7
ENDBRANCH   5   6
ENDBRANCH   4   5
ENDBRANCH   3   4
ENDBRANCH   2   3
ENDBRANCH   1   2
BRANCH   1  12
ATOM     12  C   UNL     1      12.749  22.856  18.372  1.00  0.00     0.000 C 
BRANCH  12  13
ATOM     13  C   UNL     1      12.260  22.724  16.923  1.00  0.00    -0.000 C 
BRANCH  13  14
ATOM     14  C   UNL     1      12.911  21.546  16.181  1.00  0.00    -0.000 C 
BRANCH  14  15
ATOM     15  C   UNL     1      11.938  20.375  15.957  1.00  0.00    -0.000 C 
BRANCH  15  16
ATOM     16  C   UNL     1      10.470  20.846  15.876  1.00  0.00    -0.000 C 
BRANCH  16  17
ATOM     17  C   UNL     1       9.594  20.334  17.031  1.00  0.00    -0.000 C 
BRANCH  17  18
ATOM     18  C   UNL     1       9.850  18.859  17.367  1.00  0.00    -0.003 C 
ATOM     19  C   UNL     1      10.265  18.690  18.825  1.00  0.00     0.004 C 
ENDBRANCH  17  18
ENDBRANCH  16  17
ENDBRANCH  15  16
ENDBRANCH  14  15
ENDBRANCH  13  14
ENDBRANCH  12  13
ENDBRANCH   1  12
TORSDOF 14
ENDMDL
MODEL 2
REMARK VINA RESULT:    -3.346      1.817      2.602
REMARK INTER + INTRA:          -8.228
REMARK INTER:                  -5.878
REMARK INTRA:                  -2.349
REMARK UNBOUND:                -2.143
REMARK SMILES CCCCCCCCCCCCCC[C@H](C)C(=O)[O-]
REMARK SMILES IDX 9 1 10 2 11 3 12 4 13 5 14 6 15 7 16 8 17 9 18 10 19 11 8 12
REMARK SMILES IDX 7 13 6 14 5 15 4 16 3 17 2 18 1 19
REMARK H PARENT
REMARK Flexibility Score: inf
ROOT
ATOM      1  C   UNL     1      11.527  21.180  20.238  1.00  0.00     0.000 C 
ENDROOT
BRANCH   1   2
ATOM      2  C   UNL     1      10.115  21.274  20.828  1.00  0.00     0.000 C 
BRANCH   2   3
ATOM      3  C   UNL     1       9.226  22.198  19.987  1.00  0.00     0.000 C 
BRANCH   3   4
ATOM      4  C   UNL     1       7.742  21.868  20.189  1.00  0.00     0.000 C 
BRANCH   4   5
ATOM      5  C   UNL     1       7.063  21.543  18.854  1.00  0.00     0.001 C 
BRANCH   5   6
ATOM      6  C   UNL     1       6.580  20.082  18.825  1.00  0.00     0.009 C 
BRANCH   6   7
ATOM      7  C   UNL     1       5.834  19.682  17.532  1.00  0.00     0.032 C 
ATOM      8  C   UNL     1       6.112  20.642  16.365  1.00  0.00     0.014 C 
BRANCH   7   9
ATOM      9  C   UNL     1       4.358  19.501  17.773  1.00  0.00     0.044 C 
ATOM     10  O   UNL     1       3.933  19.017  18.857  1.00  0.00    -0.550 OA
ATOM     11  O   UNL     1       3.454  19.822  16.769  1.00  0.00    -0.550 OA
ENDBRANCH   7   9
ENDBRANCH   6   7
ENDBRANCH   5   6
ENDBRANCH   4   5
ENDBRANCH   3   4
ENDBRANCH   2   3
ENDBRANCH   1   2
BRANCH   1  12
ATOM     12  C   UNL     1      12.177  22.565  20.137  1.00  0.00     0.000 C 
BRANCH  12  13
ATOM     13  C   UNL     1      12.962  22.710  18.825  1.00  0.00    -0.000 C 
BRANCH  13  14
ATOM     14  C   UNL     1      12.070  22.560  17.582  1.00  0.00    -0.000 C 
BRANCH  14  15
ATOM     15  C   UNL     1      12.664  21.599  16.538  1.00  0.00    -0.000 C 
BRANCH  15  16
ATOM     16  C   UNL     1      11.654  20.514  16.106  1.00  0.00    -0.000 C 
BRANCH  16  17
ATOM     17  C   UNL     1      10.258  20.690  16.726  1.00  0.00    -0.000 C 
BRANCH  17  18
ATOM     18  C   UNL     1       9.566  19.355  17.028  1.00  0.00    -0.003 C 
ATOM     19  C   UNL     1      10.313  18.579  18.108  1.00  0.00     0.004 C 
ENDBRANCH  17  18
ENDBRANCH  16  17
ENDBRANCH  15  16
ENDBRANCH  14  15
ENDBRANCH  13  14
ENDBRANCH  12  13
ENDBRANCH   1  12
TORSDOF 14
ENDMDL
MODEL 3
REMARK VINA RESULT:    -3.344     20.372     22.257
REMARK INTER + INTRA:          -8.224
REMARK INTER:                  -5.534
REMARK INTRA:                  -2.690
REMARK UNBOUND:                -2.143
REMARK SMILES CCCCCCCCCCCCCC[C@H](C)C(=O)[O-]
REMARK SMILES IDX 9 1 10 2 11 3 12 4 13 5 14 6 15 7 16 8 17 9 18 10 19 11 8 12
REMARK SMILES IDX 7 13 6 14 5 15 4 16 3 17 2 18 1 19
REMARK H PARENT
REMARK Flexibility Score: inf
ROOT
ATOM      1  C   UNL     1      10.557   4.708  30.926  1.00  0.00     0.000 C 
ENDROOT
BRANCH   1   2
ATOM      2  C   UNL     1       9.388   3.732  31.107  1.00  0.00     0.000 C 
BRANCH   2   3
ATOM      3  C   UNL     1       8.171   4.435  31.718  1.00  0.00     0.000 C 
BRANCH   3   4
ATOM      4  C   UNL     1       7.481   3.542  32.756  1.00  0.00     0.000 C 
BRANCH   4   5
ATOM      5  C   UNL     1       6.122   4.120  33.165  1.00  0.00     0.001 C 
BRANCH   5   6
ATOM      6  C   UNL     1       6.246   5.613  33.518  1.00  0.00     0.009 C 
BRANCH   6   7
ATOM      7  C   UNL     1       5.852   5.959  34.972  1.00  0.00     0.032 C 
ATOM      8  C   UNL     1       6.135   4.811  35.953  1.00  0.00     0.014 C 
BRANCH   7   9
ATOM      9  C   UNL     1       4.427   6.441  35.064  1.00  0.00     0.044 C 
ATOM     10  O   UNL     1       3.467   5.683  34.759  1.00  0.00    -0.550 OA
ATOM     11  O   UNL     1       4.168   7.752  35.441  1.00  0.00    -0.550 OA
ENDBRANCH   7   9
ENDBRANCH   6   7
ENDBRANCH   5   6
ENDBRANCH   4   5
ENDBRANCH   3   4
ENDBRANCH   2   3
ENDBRANCH   1   2
BRANCH   1  12
ATOM     12  C   UNL     1      11.835   4.166  31.576  1.00  0.00     0.000 C 
BRANCH  12  13
ATOM     13  C   UNL     1      11.504   3.252  32.763  1.00  0.00    -0.000 C 
BRANCH  13  14
ATOM     14  C   UNL     1      12.465   3.445  33.947  1.00  0.00    -0.000 C 
BRANCH  14  15
ATOM     15  C   UNL     1      11.752   3.942  35.216  1.00  0.00    -0.000 C 
BRANCH  15  16
ATOM     16  C   UNL     1      10.226   4.066  35.015  1.00  0.00    -0.000 C 
BRANCH  16  17
ATOM     17  C   UNL     1       9.696   5.498  35.194  1.00  0.00    -0.000 C 
BRANCH  17  18
ATOM     18  C   UNL     1      10.248   6.475  34.148  1.00  0.00    -0.003 C 
ATOM     19  C   UNL     1       9.196   7.503  33.745  1.00  0.00     0.004 C 
ENDBRANCH  17  18
ENDBRANCH  16  17
ENDBRANCH  15  16
ENDBRANCH  14  15
ENDBRANCH  13  14
ENDBRANCH  12  13
ENDBRANCH   1  12
TORSDOF 14
ENDMDL
MODEL 4
REMARK VINA RESULT:    -3.333      1.449      2.215
REMARK INTER + INTRA:          -8.204
REMARK INTER:                  -5.935
REMARK INTRA:                  -2.269
REMARK UNBOUND:                -2.143
REMARK SMILES CCCCCCCCCCCCCC[C@H](C)C(=O)[O-]
REMARK SMILES IDX 9 1 10 2 11 3 12 4 13 5 14 6 15 7 16 8 17 9 18 10 19 11 8 12
REMARK SMILES IDX 7 13 6 14 5 15 4 16 3 17 2 18 1 19
REMARK H PARENT
REMARK Flexibility Score: inf
ROOT
ATOM      1  C   UNL     1      11.939  21.618  19.963  1.00  0.00     0.000 C 
ENDROOT
BRANCH   1   2
ATOM      2  C   UNL     1      10.961  21.666  21.143  1.00  0.00     0.000 C 
BRANCH   2   3
ATOM      3  C   UNL     1       9.530  21.359  20.687  1.00  0.00     0.000 C 
BRANCH   3   4
ATOM      4  C   UNL     1       8.957  22.513  19.857  1.00  0.00     0.000 C 
BRANCH   4   5
ATOM      5  C   UNL     1       7.486  22.260  19.504  1.00  0.00     0.001 C 
BRANCH   5   6
ATOM      6  C   UNL     1       7.028  20.884  20.018  1.00  0.00     0.009 C 
BRANCH   6   7
ATOM      7  C   UNL     1       5.650  20.892  20.718  1.00  0.00     0.032 C 
ATOM      8  C   UNL     1       4.812  22.131  20.366  1.00  0.00     0.014 C 
BRANCH   7   9
ATOM      9  C   UNL     1       5.780  20.704  22.207  1.00  0.00     0.044 C 
ATOM     10  O   UNL     1       6.836  21.033  22.811  1.00  0.00    -0.550 OA
ATOM     11  O   UNL     1       4.744  20.114  22.918  1.00  0.00    -0.550 OA
ENDBRANCH   7   9
ENDBRANCH   6   7
ENDBRANCH   5   6
ENDBRANCH   4   5
ENDBRANCH   3   4
ENDBRANCH   2   3
ENDBRANCH   1   2
BRANCH   1  12
ATOM     12  C   UNL     1      12.499  23.011  19.652  1.00  0.00     0.000 C 
BRANCH  12  13
ATOM     13  C   UNL     1      13.244  23.017  18.309  1.00  0.00    -0.000 C 
BRANCH  13  14
ATOM     14  C   UNL     1      12.314  22.750  17.114  1.00  0.00    -0.000 C 
BRANCH  14  15
ATOM     15  C   UNL     1      12.762  21.543  16.273  1.00  0.00    -0.000 C 
BRANCH  15  16
ATOM     16  C   UNL     1      11.645  20.487  16.131  1.00  0.00    -0.000 C 
BRANCH  16  17
ATOM     17  C   UNL     1      10.258  20.996  16.559  1.00  0.00    -0.000 C 
BRANCH  17  18
ATOM     18  C   UNL     1       9.407  19.913  17.235  1.00  0.00    -0.003 C 
ATOM     19  C   UNL     1      10.282  18.906  17.975  1.00  0.00     0.004 C 
ENDBRANCH  17  18
ENDBRANCH  16  17
ENDBRANCH  15  16
ENDBRANCH  14  15
ENDBRANCH  13  14
ENDBRANCH  12  13
ENDBRANCH   1  12
TORSDOF 14
ENDMDL
MODEL 5
REMARK VINA RESULT:    -3.303      2.033      3.796
REMARK INTER + INTRA:          -8.148
REMARK INTER:                  -6.180
REMARK INTRA:                  -1.968
REMARK UNBOUND:                -2.143
REMARK SMILES CCCCCCCCCCCCCC[C@H](C)C(=O)[O-]
REMARK SMILES IDX 9 1 10 2 11 3 12 4 13 5 14 6 15 7 16 8 17 9 18 10 19 11 8 12
REMARK SMILES IDX 7 13 6 14 5 15 4 16 3 17 2 18 1 19
REMARK H PARENT
REMARK Flexibility Score: inf
ROOT
ATOM      1  C   UNL     1       9.091  19.802  18.122  1.00  0.00     0.000 C 
ENDROOT
BRANCH   1   2
ATOM      2  C   UNL     1       8.570  21.180  17.696  1.00  0.00     0.000 C 
BRANCH   2   3
ATOM      3  C   UNL     1       8.200  22.031  18.917  1.00  0.00     0.000 C 
BRANCH   3   4
ATOM      4  C   UNL     1       7.481  21.190  19.978  1.00  0.00     0.000 C 
BRANCH   4   5
ATOM      5  C   UNL     1       7.848  21.655  21.392  1.00  0.00     0.001 C 
BRANCH   5   6
ATOM      6  C   UNL     1       6.583  21.934  22.223  1.00  0.00     0.009 C 
BRANCH   6   7
ATOM      7  C   UNL     1       5.695  20.693  22.468  1.00  0.00     0.032 C 
ATOM      8  C   UNL     1       4.277  20.854  21.898  1.00  0.00     0.014 C 
BRANCH   7   9
ATOM      9  C   UNL     1       5.675  20.300  23.922  1.00  0.00     0.044 C 
ATOM     10  O   UNL     1       5.564  19.092  24.265  1.00  0.00    -0.550 OA
ATOM     11  O   UNL     1       5.729  21.284  24.901  1.00  0.00    -0.550 OA
ENDBRANCH   7   9
ENDBRANCH   6   7
ENDBRANCH   5   6
ENDBRANCH   4   5
ENDBRANCH   3   4
ENDBRANCH   2   3
ENDBRANCH   1   2
BRANCH   1  12
ATOM     12  C   UNL     1      10.375  19.440  17.367  1.00  0.00     0.000 C 
BRANCH  12  13
ATOM     13  C   UNL     1      10.659  20.451  16.247  1.00  0.00    -0.000 C 
BRANCH  13  14
ATOM     14  C   UNL     1      12.141  20.849  16.169  1.00  0.00    -0.000 C 
BRANCH  14  15
ATOM     15  C   UNL     1      12.361  22.359  16.365  1.00  0.00    -0.000 C 
BRANCH  15  16
ATOM     16  C   UNL     1      12.896  22.690  17.775  1.00  0.00    -0.000 C 
BRANCH  16  17
ATOM     17  C   UNL     1      11.795  22.791  18.844  1.00  0.00    -0.000 C 
BRANCH  17  18
ATOM     18  C   UNL     1      12.238  22.252  20.210  1.00  0.00    -0.003 C 
ATOM     19  C   UNL     1      11.453  20.999  20.588  1.00  0.00     0.004 C 
ENDBRANCH  17  18
ENDBRANCH  16  17
ENDBRANCH  15  16
ENDBRANCH  14  15
ENDBRANCH  13  14
ENDBRANCH  12  13
ENDBRANCH   1  12
TORSDOF 14
ENDMDL
MODEL 6
REMARK VINA RESULT:    -3.286      1.654      4.324
REMARK INTER + INTRA:          -8.118
REMARK INTER:                  -5.831
REMARK INTRA:                  -2.287
REMARK UNBOUND:                -2.143
REMARK SMILES CCCCCCCCCCCCCC[C@H](C)C(=O)[O-]
REMARK SMILES IDX 9 1 10 2 11 3 12 4 13 5 14 6 15 7 16 8 17 9 18 10 19 11 8 12
REMARK SMILES IDX 7 13 6 14 5 15 4 16 3 17 2 18 1 19
REMARK H PARENT
REMARK Flexibility Score: inf
ROOT
ATOM      1  C   UNL     1       8.769  18.385  16.552  1.00  0.00     0.000 C 
ENDROOT
BRANCH   1   2
ATOM      2  C   UNL     1       7.558  19.304  16.349  1.00  0.00     0.000 C 
BRANCH   2   3
ATOM      3  C   UNL     1       7.990  20.771  16.239  1.00  0.00     0.000 C 
BRANCH   3   4
ATOM      4  C   UNL     1       7.672  21.537  17.529  1.00  0.00     0.000 C 
BRANCH   4   5
ATOM      5  C   UNL     1       6.389  21.008  18.182  1.00  0.00     0.001 C 
BRANCH   5   6
ATOM      6  C   UNL     1       6.679  20.452  19.587  1.00  0.00     0.009 C 
BRANCH   6   7
ATOM      7  C   UNL     1       6.465  21.469  20.731  1.00  0.00     0.032 C 
ATOM      8  C   UNL     1       7.778  22.104  21.215  1.00  0.00     0.014 C 
BRANCH   7   9
ATOM      9  C   UNL     1       5.676  20.872  21.868  1.00  0.00     0.044 C 
ATOM     10  O   UNL     1       6.237  20.561  22.952  1.00  0.00    -0.550 OA
ATOM     11  O   UNL     1       4.322  20.613  21.702  1.00  0.00    -0.550 OA
ENDBRANCH   7   9
ENDBRANCH   6   7
ENDBRANCH   5   6
ENDBRANCH   4   5
ENDBRANCH   3   4
ENDBRANCH   2   3
ENDBRANCH   1   2
BRANCH   1  12
ATOM     12  C   UNL     1       9.087  18.212  18.042  1.00  0.00     0.000 C 
BRANCH  12  13
ATOM     13  C   UNL     1      10.425  18.876  18.399  1.00  0.00    -0.000 C 
BRANCH  13  14
ATOM     14  C   UNL     1      10.307  19.848  19.583  1.00  0.00    -0.000 C 
BRANCH  14  15
ATOM     15  C   UNL     1      11.355  20.973  19.535  1.00  0.00    -0.000 C 
BRANCH  15  16
ATOM     16  C   UNL     1      11.183  21.875  18.294  1.00  0.00    -0.000 C 
BRANCH  16  17
ATOM     17  C   UNL     1      12.515  22.346  17.685  1.00  0.00    -0.000 C 
BRANCH  17  18
ATOM     18  C   UNL     1      12.893  21.580  16.411  1.00  0.00    -0.003 C 
ATOM     19  C   UNL     1      11.707  20.784  15.875  1.00  0.00     0.004 C 
ENDBRANCH  17  18
ENDBRANCH  16  17
ENDBRANCH  15  16
ENDBRANCH  14  15
ENDBRANCH  13  14
ENDBRANCH  12  13
ENDBRANCH   1  12
TORSDOF 14
ENDMDL
MODEL 7
REMARK VINA RESULT:    -3.222      2.443      4.186
REMARK INTER + INTRA:          -8.002
REMARK INTER:                  -5.701
REMARK INTRA:                  -2.302
REMARK UNBOUND:                -2.143
REMARK SMILES CCCCCCCCCCCCCC[C@H](C)C(=O)[O-]
REMARK SMILES IDX 9 1 10 2 11 3 12 4 13 5 14 6 15 7 16 8 17 9 18 10 19 11 8 12
REMARK SMILES IDX 7 13 6 14 5 15 4 16 3 17 2 18 1 19
REMARK H PARENT
REMARK Flexibility Score: inf
ROOT
ATOM      1  C   UNL     1       8.412  19.945  17.190  1.00  0.00     0.000 C 
ENDROOT
BRANCH   1   2
ATOM      2  C   UNL     1       7.946  21.393  17.384  1.00  0.00     0.000 C 
BRANCH   2   3
ATOM      3  C   UNL     1       7.475  21.634  18.823  1.00  0.00     0.000 C 
BRANCH   3   4
ATOM      4  C   UNL     1       6.799  20.383  19.398  1.00  0.00     0.000 C 
BRANCH   4   5
ATOM      5  C   UNL     1       5.308  20.632  19.655  1.00  0.00     0.001 C 
BRANCH   5   6
ATOM      6  C   UNL     1       4.514  20.612  18.336  1.00  0.00     0.009 C 
BRANCH   6   7
ATOM      7  C   UNL     1       4.504  19.243  17.619  1.00  0.00     0.032 C 
ATOM      8  C   UNL     1       4.901  19.345  16.138  1.00  0.00     0.014 C 
BRANCH   7   9
ATOM      9  C   UNL     1       3.190  18.528  17.801  1.00  0.00     0.044 C 
ATOM     10  O   UNL     1       3.151  17.350  18.248  1.00  0.00    -0.550 OA
ATOM     11  O   UNL     1       2.009  19.154  17.425  1.00  0.00    -0.550 OA
ENDBRANCH   7   9
ENDBRANCH   6   7
ENDBRANCH   5   6
ENDBRANCH   4   5
ENDBRANCH   3   4
ENDBRANCH   2   3
ENDBRANCH   1   2
BRANCH   1  12
ATOM     12  C   UNL     1       9.344  19.822  15.979  1.00  0.00     0.000 C 
BRANCH  12  13
ATOM     13  C   UNL     1      10.332  20.996  15.924  1.00  0.00    -0.000 C 
BRANCH  13  14
ATOM     14  C   UNL     1      11.797  20.544  16.029  1.00  0.00    -0.000 C 
BRANCH  14  15
ATOM     15  C   UNL     1      12.708  21.619  16.646  1.00  0.00    -0.000 C 
BRANCH  15  16
ATOM     16  C   UNL     1      11.973  22.464  17.709  1.00  0.00    -0.000 C 
BRANCH  16  17
ATOM     17  C   UNL     1      12.278  22.038  19.154  1.00  0.00    -0.000 C 
BRANCH  17  18
ATOM     18  C   UNL     1      11.026  21.599  19.925  1.00  0.00    -0.003 C 
ATOM     19  C   UNL     1      10.868  20.082  19.899  1.00  0.00     0.004 C 
ENDBRANCH  17  18
ENDBRANCH  16  17
ENDBRANCH  15  16
ENDBRANCH  14  15
ENDBRANCH  13  14
ENDBRANCH  12  13
ENDBRANCH   1  12
TORSDOF 14
ENDMDL
MODEL 8
REMARK VINA RESULT:    -3.170      0.973      2.117
REMARK INTER + INTRA:          -7.906
REMARK INTER:                  -5.341
REMARK INTRA:                  -2.566
REMARK UNBOUND:                -2.143
REMARK SMILES CCCCCCCCCCCCCC[C@H](C)C(=O)[O-]
REMARK SMILES IDX 9 1 10 2 11 3 12 4 13 5 14 6 15 7 16 8 17 9 18 10 19 11 8 12
REMARK SMILES IDX 7 13 6 14 5 15 4 16 3 17 2 18 1 19
REMARK H PARENT
REMARK Flexibility Score: inf
ROOT
ATOM      1  C   UNL     1      10.775  21.201  20.996  1.00  0.00     0.000 C 
ENDROOT
BRANCH   1   2
ATOM      2  C   UNL     1      10.661  22.487  21.824  1.00  0.00     0.000 C 
BRANCH   2   3
ATOM      3  C   UNL     1       9.298  22.575  22.521  1.00  0.00     0.000 C 
BRANCH   3   4
ATOM      4  C   UNL     1       8.421  21.367  22.172  1.00  0.00     0.000 C 
BRANCH   4   5
ATOM      5  C   UNL     1       6.998  21.806  21.809  1.00  0.00     0.001 C 
BRANCH   5   6
ATOM      6  C   UNL     1       6.988  22.597  20.488  1.00  0.00     0.009 C 
BRANCH   6   7
ATOM      7  C   UNL     1       7.694  21.884  19.313  1.00  0.00     0.032 C 
ATOM      8  C   UNL     1       8.539  22.840  18.459  1.00  0.00     0.014 C 
BRANCH   7   9
ATOM      9  C   UNL     1       6.723  21.091  18.478  1.00  0.00     0.044 C 
ATOM     10  O   UNL     1       6.567  19.854  18.665  1.00  0.00    -0.550 OA
ATOM     11  O   UNL     1       6.027  21.718  17.453  1.00  0.00    -0.550 OA
ENDBRANCH   7   9
ENDBRANCH   6   7
ENDBRANCH   5   6
ENDBRANCH   4   5
ENDBRANCH   3   4
ENDBRANCH   2   3
ENDBRANCH   1   2
BRANCH   1  12
ATOM     12  C   UNL     1      11.870  21.326  19.931  1.00  0.00     0.000 C 
BRANCH  12  13
ATOM     13  C   UNL     1      12.294  22.790  19.746  1.00  0.00    -0.000 C 
BRANCH  13  14
ATOM     14  C   UNL     1      12.971  23.044  18.390  1.00  0.00    -0.000 C 
BRANCH  14  15
ATOM     15  C   UNL     1      12.040  22.762  17.199  1.00  0.00    -0.000 C 
BRANCH  15  16
ATOM     16  C   UNL     1      12.666  21.773  16.193  1.00  0.00    -0.000 C 
BRANCH  16  17
ATOM     17  C   UNL     1      11.982  20.395  16.176  1.00  0.00    -0.000 C 
BRANCH  17  18
ATOM     18  C   UNL     1      10.461  20.481  16.356  1.00  0.00    -0.003 C 
ATOM     19  C   UNL     1       9.967  19.454  17.370  1.00  0.00     0.004 C 
ENDBRANCH  17  18
ENDBRANCH  16  17
ENDBRANCH  15  16
ENDBRANCH  14  15
ENDBRANCH  13  14
ENDBRANCH  12  13
ENDBRANCH   1  12
TORSDOF 14
ENDMDL
MODEL 9
REMARK VINA RESULT:    -2.637      1.906      4.073
REMARK INTER + INTRA:          -6.938
REMARK INTER:                  -4.514
REMARK INTRA:                  -2.424
REMARK UNBOUND:                -2.143
REMARK SMILES CCCCCCCCCCCCCC[C@H](C)C(=O)[O-]
REMARK SMILES IDX 9 1 10 2 11 3 12 4 13 5 14 6 15 7 16 8 17 9 18 10 19 11 8 12
REMARK SMILES IDX 7 13 6 14 5 15 4 16 3 17 2 18 1 19
REMARK H PARENT
REMARK Flexibility Score: inf
ROOT
ATOM      1  C   UNL     1       9.434  20.091  17.221  1.00  0.00     0.000 C 
ENDROOT
BRANCH   1   2
ATOM      2  C   UNL     1       8.866  20.555  15.875  1.00  0.00     0.000 C 
BRANCH   2   3
ATOM      3  C   UNL     1       8.101  21.875  16.024  1.00  0.00     0.000 C 
BRANCH   3   4
ATOM      4  C   UNL     1       8.326  22.489  17.411  1.00  0.00     0.000 C 
BRANCH   4   5
ATOM      5  C   UNL     1       7.020  22.537  18.211  1.00  0.00     0.001 C 
BRANCH   5   6
ATOM      6  C   UNL     1       5.835  22.052  17.357  1.00  0.00     0.009 C 
BRANCH   6   7
ATOM      7  C   UNL     1       5.099  20.819  17.928  1.00  0.00     0.032 C 
ATOM      8  C   UNL     1       5.833  20.189  19.121  1.00  0.00     0.014 C 
BRANCH   7   9
ATOM      9  C   UNL     1       4.794  19.806  16.855  1.00  0.00     0.044 C 
ATOM     10  O   UNL     1       3.604  19.548  16.528  1.00  0.00    -0.550 OA
ATOM     11  O   UNL     1       5.833  19.109  16.253  1.00  0.00    -0.550 OA
ENDBRANCH   7   9
ENDBRANCH   6   7
ENDBRANCH   5   6
ENDBRANCH   4   5
ENDBRANCH   3   4
ENDBRANCH   2   3
ENDBRANCH   1   2
BRANCH   1  12
ATOM     12  C   UNL     1      10.939  19.814  17.119  1.00  0.00     0.000 C 
BRANCH  12  13
ATOM     13  C   UNL     1      11.544  20.506  15.890  1.00  0.00    -0.000 C 
BRANCH  13  14
ATOM     14  C   UNL     1      12.646  21.512  16.258  1.00  0.00    -0.000 C 
BRANCH  14  15
ATOM     15  C   UNL     1      12.104  22.733  17.022  1.00  0.00    -0.000 C 
BRANCH  15  16
ATOM     16  C   UNL     1      13.006  23.120  18.213  1.00  0.00    -0.000 C 
BRANCH  16  17
ATOM     17  C   UNL     1      12.671  22.365  19.511  1.00  0.00    -0.000 C 
BRANCH  17  18
ATOM     18  C   UNL     1      11.163  22.295  19.789  1.00  0.00    -0.003 C 
ATOM     19  C   UNL     1      10.809  21.048  20.593  1.00  0.00     0.004 C 
ENDBRANCH  17  18
ENDBRANCH  16  17
ENDBRANCH  15  16
ENDBRANCH  14  15
ENDBRANCH  13  14
ENDBRANCH  12  13
ENDBRANCH   1  12
TORSDOF 14
ENDMDL
