MODEL 1
REMARK VINA RESULT:    -4.793      0.000      0.000
REMARK INTER + INTRA:          -7.754
REMARK INTER:                  -6.474
REMARK INTRA:                  -1.281
REMARK UNBOUND:                -1.281
REMARK SMILES CC(=O)CCC=C(C)CCC=C(C)C
REMARK SMILES IDX 7 1 6 2 8 3 9 4 10 5 11 6 13 7 12 8 14 9 5 10 4 11 2 12 3 13
REMARK SMILES IDX 1 14
REMARK H PARENT
REMARK Flexibility Score: inf
ROOT
ATOM      1  C   UNL     1      17.814 -33.950  20.353  1.00  0.00    -0.077 C 
ATOM      2  C   UNL     1      18.014 -32.637  20.097  1.00  0.00    -0.028 C 
ATOM      3  C   UNL     1      18.528 -34.664  21.476  1.00  0.00     0.039 C 
ENDROOT
BRANCH   1   4
ATOM      4  C   UNL     1      16.903 -34.751  19.445  1.00  0.00     0.034 C 
BRANCH   4   5
ATOM      5  C   UNL     1      15.525 -34.982  20.082  1.00  0.00     0.032 C 
BRANCH   5   6
ATOM      6  C   UNL     1      14.633 -33.769  19.954  1.00  0.00    -0.028 C 
ATOM      7  C   UNL     1      14.844 -33.148  22.372  1.00  0.00     0.039 C 
ATOM      8  C   UNL     1      14.344 -32.921  20.965  1.00  0.00    -0.080 C 
ATOM      9  C   UNL     1      13.476 -31.724  20.669  1.00  0.00     0.039 C 
ENDBRANCH   5   6
ENDBRANCH   4   5
ENDBRANCH   1   4
BRANCH   2  10
ATOM     10  C   UNL     1      18.889 -31.731  20.927  1.00  0.00     0.035 C 
BRANCH  10  11
ATOM     11  C   UNL     1      18.270 -30.334  21.042  1.00  0.00     0.079 C 
BRANCH  11  12
ATOM     12  C   UNL     1      17.326 -30.266  22.214  1.00  0.00     0.130 C 
ATOM     13  O   UNL     1      17.573 -30.910  23.223  1.00  0.00    -0.300 OA
ATOM     14  C   UNL     1      16.092 -29.416  22.175  1.00  0.00     0.087 C 
ENDBRANCH  11  12
ENDBRANCH  10  11
ENDBRANCH   2  10
TORSDOF 6
ENDMDL
MODEL 2
REMARK VINA RESULT:    -4.790      1.561      4.403
REMARK INTER + INTRA:          -7.750
REMARK INTER:                  -6.496
REMARK INTRA:                  -1.255
REMARK UNBOUND:                -1.281
REMARK SMILES CC(=O)CCC=C(C)CCC=C(C)C
REMARK SMILES IDX 7 1 6 2 8 3 9 4 10 5 11 6 13 7 12 8 14 9 5 10 4 11 2 12 3 13
REMARK SMILES IDX 1 14
REMARK H PARENT
REMARK Flexibility Score: inf
ROOT
ATOM      1  C   UNL     1      14.433 -32.911  21.296  1.00  0.00    -0.077 C 
ATOM      2  C   UNL     1      14.611 -33.604  20.149  1.00  0.00    -0.028 C 
ATOM      3  C   UNL     1      15.001 -33.383  22.613  1.00  0.00     0.039 C 
ENDROOT
BRANCH   1   4
ATOM      4  C   UNL     1      13.580 -31.659  21.280  1.00  0.00     0.034 C 
BRANCH   4   5
ATOM      5  C   UNL     1      14.150 -30.570  22.200  1.00  0.00     0.032 C 
BRANCH   5   6
ATOM      6  C   UNL     1      15.352 -29.887  21.588  1.00  0.00    -0.028 C 
ATOM      7  C   UNL     1      16.836 -30.368  23.547  1.00  0.00     0.039 C 
ATOM      8  C   UNL     1      16.570 -29.815  22.167  1.00  0.00    -0.080 C 
ATOM      9  C   UNL     1      17.685 -29.141  21.409  1.00  0.00     0.039 C 
ENDBRANCH   5   6
ENDBRANCH   4   5
ENDBRANCH   1   4
BRANCH   2  10
ATOM     10  C   UNL     1      15.441 -34.858  20.031  1.00  0.00     0.035 C 
BRANCH  10  11
ATOM     11  C   UNL     1      16.728 -34.586  19.244  1.00  0.00     0.079 C 
BRANCH  11  12
ATOM     12  C   UNL     1      17.837 -34.161  20.170  1.00  0.00     0.130 C 
ATOM     13  O   UNL     1      18.466 -35.009  20.785  1.00  0.00    -0.300 OA
ATOM     14  C   UNL     1      18.194 -32.715  20.350  1.00  0.00     0.087 C 
ENDBRANCH  11  12
ENDBRANCH  10  11
ENDBRANCH   2  10
TORSDOF 6
ENDMDL
MODEL 3
REMARK VINA RESULT:    -4.785      2.451      4.735
REMARK INTER + INTRA:          -7.744
REMARK INTER:                  -6.682
REMARK INTRA:                  -1.062
REMARK UNBOUND:                -1.281
REMARK SMILES CC(=O)CCC=C(C)CCC=C(C)C
REMARK SMILES IDX 7 1 6 2 8 3 9 4 10 5 11 6 13 7 12 8 14 9 5 10 4 11 2 12 3 13
REMARK SMILES IDX 1 14
REMARK H PARENT
REMARK Flexibility Score: inf
ROOT
ATOM      1  C   UNL     1      16.010 -33.191  22.060  1.00  0.00    -0.077 C 
ATOM      2  C   UNL     1      15.326 -34.158  21.408  1.00  0.00    -0.028 C 
ATOM      3  C   UNL     1      17.045 -32.336  21.368  1.00  0.00     0.039 C 
ENDROOT
BRANCH   1   4
ATOM      4  C   UNL     1      15.790 -33.002  23.548  1.00  0.00     0.034 C 
BRANCH   4   5
ATOM      5  C   UNL     1      14.297 -32.965  23.902  1.00  0.00     0.032 C 
BRANCH   5   6
ATOM      6  C   UNL     1      13.838 -31.572  24.269  1.00  0.00    -0.028 C 
ATOM      7  C   UNL     1      12.996 -31.059  21.966  1.00  0.00     0.039 C 
ATOM      8  C   UNL     1      13.226 -30.718  23.420  1.00  0.00    -0.080 C 
ATOM      9  C   UNL     1      12.782 -29.378  23.948  1.00  0.00     0.039 C 
ENDBRANCH   5   6
ENDBRANCH   4   5
ENDBRANCH   1   4
BRANCH   2  10
ATOM     10  C   UNL     1      15.449 -34.441  19.931  1.00  0.00     0.035 C 
BRANCH  10  11
ATOM     11  C   UNL     1      16.022 -35.841  19.692  1.00  0.00     0.079 C 
BRANCH  11  12
ATOM     12  C   UNL     1      17.488 -35.882  20.033  1.00  0.00     0.130 C 
ATOM     13  O   UNL     1      18.254 -35.103  19.486  1.00  0.00    -0.300 OA
ATOM     14  C   UNL     1      18.030 -36.854  21.039  1.00  0.00     0.087 C 
ENDBRANCH  11  12
ENDBRANCH  10  11
ENDBRANCH   2  10
TORSDOF 6
ENDMDL
MODEL 4
REMARK VINA RESULT:    -4.741      2.509      4.641
REMARK INTER + INTRA:          -7.685
REMARK INTER:                  -6.588
REMARK INTRA:                  -1.097
REMARK UNBOUND:                -1.281
REMARK SMILES CC(=O)CCC=C(C)CCC=C(C)C
REMARK SMILES IDX 7 1 6 2 8 3 9 4 10 5 11 6 13 7 12 8 14 9 5 10 4 11 2 12 3 13
REMARK SMILES IDX 1 14
REMARK H PARENT
REMARK Flexibility Score: inf
ROOT
ATOM      1  C   UNL     1      15.931 -32.521  23.405  1.00  0.00    -0.077 C 
ATOM      2  C   UNL     1      16.602 -33.118  22.394  1.00  0.00    -0.028 C 
ATOM      3  C   UNL     1      14.913 -33.263  24.239  1.00  0.00     0.039 C 
ENDROOT
BRANCH   1   4
ATOM      4  C   UNL     1      16.148 -31.045  23.670  1.00  0.00     0.034 C 
BRANCH   4   5
ATOM      5  C   UNL     1      15.583 -30.175  22.538  1.00  0.00     0.032 C 
BRANCH   5   6
ATOM      6  C   UNL     1      14.089 -29.984  22.665  1.00  0.00    -0.028 C 
ATOM      7  C   UNL     1      13.554 -31.610  20.837  1.00  0.00     0.039 C 
ATOM      8  C   UNL     1      13.167 -30.643  21.930  1.00  0.00    -0.080 C 
ATOM      9  C   UNL     1      11.709 -30.380  22.207  1.00  0.00     0.039 C 
ENDBRANCH   5   6
ENDBRANCH   4   5
ENDBRANCH   1   4
BRANCH   2  10
ATOM     10  C   UNL     1      16.479 -34.578  22.035  1.00  0.00     0.035 C 
BRANCH  10  11
ATOM     11  C   UNL     1      15.630 -34.757  20.772  1.00  0.00     0.079 C 
BRANCH  11  12
ATOM     12  C   UNL     1      16.500 -35.093  19.590  1.00  0.00     0.130 C 
ATOM     13  O   UNL     1      16.567 -36.250  19.201  1.00  0.00    -0.300 OA
ATOM     14  C   UNL     1      17.283 -34.036  18.870  1.00  0.00     0.087 C 
ENDBRANCH  11  12
ENDBRANCH  10  11
ENDBRANCH   2  10
TORSDOF 6
ENDMDL
MODEL 5
REMARK VINA RESULT:    -4.723      2.205      4.015
REMARK INTER + INTRA:          -7.661
REMARK INTER:                  -6.529
REMARK INTRA:                  -1.132
REMARK UNBOUND:                -1.281
REMARK SMILES CC(=O)CCC=C(C)CCC=C(C)C
REMARK SMILES IDX 7 1 6 2 8 3 9 4 10 5 11 6 13 7 12 8 14 9 5 10 4 11 2 12 3 13
REMARK SMILES IDX 1 14
REMARK H PARENT
REMARK Flexibility Score: inf
ROOT
ATOM      1  C   UNL     1      17.480 -31.709  21.890  1.00  0.00    -0.077 C 
ATOM      2  C   UNL     1      17.811 -32.038  20.620  1.00  0.00    -0.028 C 
ATOM      3  C   UNL     1      17.308 -32.752  22.968  1.00  0.00     0.039 C 
ENDROOT
BRANCH   1   4
ATOM      4  C   UNL     1      17.203 -30.259  22.231  1.00  0.00     0.034 C 
BRANCH   4   5
ATOM      5  C   UNL     1      16.063 -30.122  23.250  1.00  0.00     0.032 C 
BRANCH   5   6
ATOM      6  C   UNL     1      14.709 -30.063  22.580  1.00  0.00    -0.028 C 
ATOM      7  C   UNL     1      13.761 -31.936  23.945  1.00  0.00     0.039 C 
ATOM      8  C   UNL     1      13.659 -30.849  22.902  1.00  0.00    -0.080 C 
ATOM      9  C   UNL     1      12.356 -30.637  22.174  1.00  0.00     0.039 C 
ENDBRANCH   5   6
ENDBRANCH   4   5
ENDBRANCH   1   4
BRANCH   2  10
ATOM     10  C   UNL     1      18.117 -33.440  20.156  1.00  0.00     0.035 C 
BRANCH  10  11
ATOM     11  C   UNL     1      17.103 -33.898  19.103  1.00  0.00     0.079 C 
BRANCH  11  12
ATOM     12  C   UNL     1      15.902 -34.527  19.760  1.00  0.00     0.130 C 
ATOM     13  O   UNL     1      15.874 -35.737  19.929  1.00  0.00    -0.300 OA
ATOM     14  C   UNL     1      14.740 -33.699  20.221  1.00  0.00     0.087 C 
ENDBRANCH  11  12
ENDBRANCH  10  11
ENDBRANCH   2  10
TORSDOF 6
ENDMDL
MODEL 6
REMARK VINA RESULT:    -4.684      2.116      4.294
REMARK INTER + INTRA:          -7.608
REMARK INTER:                  -6.670
REMARK INTRA:                  -0.938
REMARK UNBOUND:                -1.281
REMARK SMILES CC(=O)CCC=C(C)CCC=C(C)C
REMARK SMILES IDX 7 1 6 2 8 3 9 4 10 5 11 6 13 7 12 8 14 9 5 10 4 11 2 12 3 13
REMARK SMILES IDX 1 14
REMARK H PARENT
REMARK Flexibility Score: inf
ROOT
ATOM      1  C   UNL     1      17.147 -31.397  21.830  1.00  0.00    -0.077 C 
ATOM      2  C   UNL     1      17.119 -32.720  21.552  1.00  0.00    -0.028 C 
ATOM      3  C   UNL     1      18.011 -30.434  21.052  1.00  0.00     0.039 C 
ENDROOT
BRANCH   1   4
ATOM      4  C   UNL     1      16.345 -30.869  23.003  1.00  0.00     0.034 C 
BRANCH   4   5
ATOM      5  C   UNL     1      15.149 -31.775  23.328  1.00  0.00     0.032 C 
BRANCH   5   6
ATOM      6  C   UNL     1      13.831 -31.056  23.154  1.00  0.00    -0.028 C 
ATOM      7  C   UNL     1      13.524 -31.833  20.793  1.00  0.00     0.039 C 
ATOM      8  C   UNL     1      13.078 -31.098  22.034  1.00  0.00    -0.080 C 
ATOM      9  C   UNL     1      11.760 -30.366  22.029  1.00  0.00     0.039 C 
ENDBRANCH   5   6
ENDBRANCH   4   5
ENDBRANCH   1   4
BRANCH   2  10
ATOM     10  C   UNL     1      17.865 -33.367  20.412  1.00  0.00     0.035 C 
BRANCH  10  11
ATOM     11  C   UNL     1      16.891 -33.885  19.349  1.00  0.00     0.079 C 
BRANCH  11  12
ATOM     12  C   UNL     1      16.235 -35.161  19.806  1.00  0.00     0.130 C 
ATOM     13  O   UNL     1      15.068 -35.141  20.169  1.00  0.00    -0.300 OA
ATOM     14  C   UNL     1      16.980 -36.462  19.818  1.00  0.00     0.087 C 
ENDBRANCH  11  12
ENDBRANCH  10  11
ENDBRANCH   2  10
TORSDOF 6
ENDMDL
MODEL 7
REMARK VINA RESULT:    -4.643      1.536      3.799
REMARK INTER + INTRA:          -7.552
REMARK INTER:                  -6.357
REMARK INTRA:                  -1.195
REMARK UNBOUND:                -1.281
REMARK SMILES CC(=O)CCC=C(C)CCC=C(C)C
REMARK SMILES IDX 7 1 6 2 8 3 9 4 10 5 11 6 13 7 12 8 14 9 5 10 4 11 2 12 3 13
REMARK SMILES IDX 1 14
REMARK H PARENT
REMARK Flexibility Score: inf
ROOT
ATOM      1  C   UNL     1      14.802 -33.514  21.073  1.00  0.00    -0.077 C 
ATOM      2  C   UNL     1      15.070 -33.581  22.397  1.00  0.00    -0.028 C 
ATOM      3  C   UNL     1      13.845 -32.496  20.501  1.00  0.00     0.039 C 
ENDROOT
BRANCH   1   4
ATOM      4  C   UNL     1      15.420 -34.535  20.139  1.00  0.00     0.034 C 
BRANCH   4   5
ATOM      5  C   UNL     1      16.690 -33.995  19.466  1.00  0.00     0.032 C 
BRANCH   5   6
ATOM      6  C   UNL     1      17.847 -33.903  20.434  1.00  0.00    -0.028 C 
ATOM      7  C   UNL     1      17.734 -31.407  20.599  1.00  0.00     0.039 C 
ATOM      8  C   UNL     1      18.306 -32.753  20.973  1.00  0.00    -0.080 C 
ATOM      9  C   UNL     1      19.440 -32.829  21.963  1.00  0.00     0.039 C 
ENDBRANCH   5   6
ENDBRANCH   4   5
ENDBRANCH   1   4
BRANCH   2  10
ATOM     10  C   UNL     1      14.525 -32.623  23.426  1.00  0.00     0.035 C 
BRANCH  10  11
ATOM     11  C   UNL     1      15.502 -31.468  23.667  1.00  0.00     0.079 C 
BRANCH  11  12
ATOM     12  C   UNL     1      14.877 -30.154  23.280  1.00  0.00     0.130 C 
ATOM     13  O   UNL     1      15.556 -29.307  22.718  1.00  0.00    -0.300 OA
ATOM     14  C   UNL     1      13.434 -29.862  23.563  1.00  0.00     0.087 C 
ENDBRANCH  11  12
ENDBRANCH  10  11
ENDBRANCH   2  10
TORSDOF 6
ENDMDL
MODEL 8
REMARK VINA RESULT:    -4.631      1.724      3.832
REMARK INTER + INTRA:          -7.536
REMARK INTER:                  -6.056
REMARK INTRA:                  -1.480
REMARK UNBOUND:                -1.281
REMARK SMILES CC(=O)CCC=C(C)CCC=C(C)C
REMARK SMILES IDX 7 1 6 2 8 3 9 4 10 5 11 6 13 7 12 8 14 9 5 10 4 11 2 12 3 13
REMARK SMILES IDX 1 14
REMARK H PARENT
REMARK Flexibility Score: inf
ROOT
ATOM      1  C   UNL     1      16.626 -35.075  19.599  1.00  0.00    -0.077 C 
ATOM      2  C   UNL     1      15.406 -34.922  20.161  1.00  0.00    -0.028 C 
ATOM      3  C   UNL     1      17.266 -33.990  18.767  1.00  0.00     0.039 C 
ENDROOT
BRANCH   1   4
ATOM      4  C   UNL     1      17.347 -36.400  19.743  1.00  0.00     0.034 C 
BRANCH   4   5
ATOM      5  C   UNL     1      17.819 -36.637  21.184  1.00  0.00     0.032 C 
BRANCH   5   6
ATOM      6  C   UNL     1      18.719 -35.526  21.673  1.00  0.00    -0.028 C 
ATOM      7  C   UNL     1      17.135 -34.803  23.473  1.00  0.00     0.039 C 
ATOM      8  C   UNL     1      18.439 -34.716  22.717  1.00  0.00    -0.080 C 
ATOM      9  C   UNL     1      19.461 -33.682  23.117  1.00  0.00     0.039 C 
ENDBRANCH   5   6
ENDBRANCH   4   5
ENDBRANCH   1   4
BRANCH   2  10
ATOM     10  C   UNL     1      14.591 -33.654  20.095  1.00  0.00     0.035 C 
BRANCH  10  11
ATOM     11  C   UNL     1      14.592 -32.936  21.449  1.00  0.00     0.079 C 
BRANCH  11  12
ATOM     12  C   UNL     1      15.317 -31.620  21.352  1.00  0.00     0.130 C 
ATOM     13  O   UNL     1      14.676 -30.589  21.209  1.00  0.00    -0.300 OA
ATOM     14  C   UNL     1      16.813 -31.543  21.435  1.00  0.00     0.087 C 
ENDBRANCH  11  12
ENDBRANCH  10  11
ENDBRANCH   2  10
TORSDOF 6
ENDMDL
MODEL 9
REMARK VINA RESULT:    -4.524      1.870      4.055
REMARK INTER + INTRA:          -7.392
REMARK INTER:                  -6.315
REMARK INTRA:                  -1.077
REMARK UNBOUND:                -1.281
REMARK SMILES CC(=O)CCC=C(C)CCC=C(C)C
REMARK SMILES IDX 7 1 6 2 8 3 9 4 10 5 11 6 13 7 12 8 14 9 5 10 4 11 2 12 3 13
REMARK SMILES IDX 1 14
REMARK H PARENT
REMARK Flexibility Score: inf
ROOT
ATOM      1  C   UNL     1      17.412 -31.732  21.764  1.00  0.00    -0.077 C 
ATOM      2  C   UNL     1      16.682 -32.276  22.764  1.00  0.00    -0.028 C 
ATOM      3  C   UNL     1      17.165 -30.328  21.265  1.00  0.00     0.039 C 
ENDROOT
BRANCH   1   4
ATOM      4  C   UNL     1      18.462 -32.575  21.070  1.00  0.00     0.034 C 
BRANCH   4   5
ATOM      5  C   UNL     1      17.950 -33.139  19.737  1.00  0.00     0.032 C 
BRANCH   5   6
ATOM      6  C   UNL     1      18.043 -34.647  19.690  1.00  0.00    -0.028 C 
ATOM      7  C   UNL     1      15.609 -34.982  20.180  1.00  0.00     0.039 C 
ATOM      8  C   UNL     1      16.996 -35.485  19.857  1.00  0.00    -0.080 C 
ATOM      9  C   UNL     1      17.239 -36.967  19.732  1.00  0.00     0.039 C 
ENDBRANCH   5   6
ENDBRANCH   4   5
ENDBRANCH   1   4
BRANCH   2  10
ATOM     10  C   UNL     1      15.615 -31.542  23.537  1.00  0.00     0.035 C 
BRANCH  10  11
ATOM     11  C   UNL     1      14.239 -32.170  23.294  1.00  0.00     0.079 C 
BRANCH  11  12
ATOM     12  C   UNL     1      13.459 -31.368  22.286  1.00  0.00     0.130 C 
ATOM     13  O   UNL     1      12.749 -30.449  22.667  1.00  0.00    -0.300 OA
ATOM     14  C   UNL     1      13.539 -31.668  20.819  1.00  0.00     0.087 C 
ENDBRANCH  11  12
ENDBRANCH  10  11
ENDBRANCH   2  10
TORSDOF 6
ENDMDL
