MODEL 1
REMARK VINA RESULT:    -3.266      0.000      0.000
REMARK INTER + INTRA:          -3.266
REMARK INTER:                  -3.266
REMARK INTRA:                   0.000
REMARK UNBOUND:                 0.000
REMARK SMILES CC1=CC(=O)[C@@H]2C[C@H]1C2(C)C
REMARK SMILES IDX 1 1 2 2 3 3 4 4 5 5 6 6 7 7 8 8 9 9 10 10 11 11
REMARK H PARENT
REMARK Flexibility Score: inf
ROOT
ATOM      1  C   UNL     1      80.157   3.145  65.074  1.00  0.00     0.040 C 
ATOM      2  C   UNL     1      79.827   2.697  66.463  1.00  0.00    -0.066 C 
ATOM      3  C   UNL     1      78.549   2.679  66.937  1.00  0.00     0.047 C 
ATOM      4  C   UNL     1      78.373   2.203  68.347  1.00  0.00     0.159 C 
ATOM      5  O   UNL     1      77.240   2.100  68.886  1.00  0.00    -0.295 OA
ATOM      6  C   UNL     1      79.666   1.850  69.085  1.00  0.00     0.067 C 
ATOM      7  C   UNL     1      80.617   3.023  68.762  1.00  0.00     0.021 C 
ATOM      8  C   UNL     1      80.941   2.282  67.445  1.00  0.00     0.022 C 
ATOM      9  C   UNL     1      80.538   0.959  68.157  1.00  0.00    -0.019 C 
ATOM     10  C   UNL     1      81.726   0.309  68.910  1.00  0.00     0.012 C 
ATOM     11  C   UNL     1      79.834  -0.143  67.316  1.00  0.00     0.012 C 
ENDROOT
TORSDOF 0
ENDMDL
MODEL 2
REMARK VINA RESULT:    -3.113     21.097     22.425
REMARK INTER + INTRA:          -3.113
REMARK INTER:                  -3.113
REMARK INTRA:                   0.000
REMARK UNBOUND:                 0.000
REMARK SMILES CC1=CC(=O)[C@@H]2C[C@H]1C2(C)C
REMARK SMILES IDX 1 1 2 2 3 3 4 4 5 5 6 6 7 7 8 8 9 9 10 10 11 11
REMARK H PARENT
REMARK Flexibility Score: inf
ROOT
ATOM      1  C   UNL     1      71.210 -10.212  52.787  1.00  0.00     0.040 C 
ATOM      2  C   UNL     1      71.682  -9.827  51.421  1.00  0.00    -0.066 C 
ATOM      3  C   UNL     1      71.376  -8.624  50.858  1.00  0.00     0.047 C 
ATOM      4  C   UNL     1      71.921  -8.378  49.484  1.00  0.00     0.159 C 
ATOM      5  O   UNL     1      71.743  -7.290  48.875  1.00  0.00    -0.295 OA
ATOM      6  C   UNL     1      72.708  -9.539  48.875  1.00  0.00     0.067 C 
ATOM      7  C   UNL     1      71.836 -10.780  49.166  1.00  0.00     0.021 C 
ATOM      8  C   UNL     1      72.501 -10.810  50.562  1.00  0.00     0.022 C 
ATOM      9  C   UNL     1      73.715 -10.065  49.935  1.00  0.00    -0.019 C 
ATOM     10  C   UNL     1      74.757 -11.039  49.329  1.00  0.00     0.012 C 
ATOM     11  C   UNL     1      74.473  -9.028  50.813  1.00  0.00     0.012 C 
ENDROOT
TORSDOF 0
ENDMDL
MODEL 3
REMARK VINA RESULT:    -3.001     14.393     16.009
REMARK INTER + INTRA:          -3.001
REMARK INTER:                  -3.001
REMARK INTRA:                   0.000
REMARK UNBOUND:                 0.000
REMARK SMILES CC1=CC(=O)[C@@H]2C[C@H]1C2(C)C
REMARK SMILES IDX 1 1 2 2 3 3 4 4 5 5 6 6 7 7 8 8 9 9 10 10 11 11
REMARK H PARENT
REMARK Flexibility Score: inf
ROOT
ATOM      1  C   UNL     1      62.943   3.895  64.996  1.00  0.00     0.040 C 
ATOM      2  C   UNL     1      63.509   4.058  66.371  1.00  0.00    -0.066 C 
ATOM      3  C   UNL     1      64.131   3.038  67.028  1.00  0.00     0.047 C 
ATOM      4  C   UNL     1      64.648   3.351  68.399  1.00  0.00     0.159 C 
ATOM      5  O   UNL     1      65.278   2.507  69.089  1.00  0.00    -0.295 OA
ATOM      6  C   UNL     1      64.361   4.767  68.899  1.00  0.00     0.067 C 
ATOM      7  C   UNL     1      62.875   4.997  68.547  1.00  0.00     0.021 C 
ATOM      8  C   UNL     1      63.362   5.390  67.133  1.00  0.00     0.022 C 
ATOM      9  C   UNL     1      64.727   5.774  67.773  1.00  0.00    -0.019 C 
ATOM     10  C   UNL     1      64.751   7.240  68.277  1.00  0.00     0.012 C 
ATOM     11  C   UNL     1      66.022   5.522  66.949  1.00  0.00     0.012 C 
ENDROOT
TORSDOF 0
ENDMDL
MODEL 4
REMARK VINA RESULT:    -2.995      2.077      3.012
REMARK INTER + INTRA:          -2.995
REMARK INTER:                  -2.995
REMARK INTRA:                   0.000
REMARK UNBOUND:                 0.000
REMARK SMILES CC1=CC(=O)[C@@H]2C[C@H]1C2(C)C
REMARK SMILES IDX 1 1 2 2 3 3 4 4 5 5 6 6 7 7 8 8 9 9 10 10 11 11
REMARK H PARENT
REMARK Flexibility Score: inf
ROOT
ATOM      1  C   UNL     1      79.279   3.880  64.254  1.00  0.00     0.040 C 
ATOM      2  C   UNL     1      79.435   2.743  65.214  1.00  0.00    -0.066 C 
ATOM      3  C   UNL     1      80.107   1.603  64.888  1.00  0.00     0.047 C 
ATOM      4  C   UNL     1      80.183   0.552  65.953  1.00  0.00     0.159 C 
ATOM      5  O   UNL     1      80.811  -0.527  65.789  1.00  0.00    -0.295 OA
ATOM      6  C   UNL     1      79.446   0.882  67.251  1.00  0.00     0.067 C 
ATOM      7  C   UNL     1      78.081   1.431  66.782  1.00  0.00     0.021 C 
ATOM      8  C   UNL     1      78.788   2.795  66.612  1.00  0.00     0.022 C 
ATOM      9  C   UNL     1      79.820   2.329  67.679  1.00  0.00    -0.019 C 
ATOM     10  C   UNL     1      79.363   2.655  69.123  1.00  0.00     0.012 C 
ATOM     11  C   UNL     1      81.297   2.788  67.521  1.00  0.00     0.012 C 
ENDROOT
TORSDOF 0
ENDMDL
MODEL 5
REMARK VINA RESULT:    -2.937      1.863      3.261
REMARK INTER + INTRA:          -2.937
REMARK INTER:                  -2.937
REMARK INTRA:                   0.000
REMARK UNBOUND:                 0.000
REMARK SMILES CC1=CC(=O)[C@@H]2C[C@H]1C2(C)C
REMARK SMILES IDX 1 1 2 2 3 3 4 4 5 5 6 6 7 7 8 8 9 9 10 10 11 11
REMARK H PARENT
REMARK Flexibility Score: inf
ROOT
ATOM      1  C   UNL     1      77.287   1.331  69.089  1.00  0.00     0.040 C 
ATOM      2  C   UNL     1      78.722   1.400  68.674  1.00  0.00    -0.066 C 
ATOM      3  C   UNL     1      79.641   0.475  69.075  1.00  0.00     0.047 C 
ATOM      4  C   UNL     1      81.040   0.674  68.579  1.00  0.00     0.159 C 
ATOM      5  O   UNL     1      81.969  -0.134  68.844  1.00  0.00    -0.295 OA
ATOM      6  C   UNL     1      81.261   1.925  67.728  1.00  0.00     0.067 C 
ATOM      7  C   UNL     1      80.535   3.044  68.505  1.00  0.00     0.021 C 
ATOM      8  C   UNL     1      79.240   2.566  67.809  1.00  0.00     0.022 C 
ATOM      9  C   UNL     1      80.131   2.006  66.663  1.00  0.00    -0.019 C 
ATOM     10  C   UNL     1      80.423   3.065  65.571  1.00  0.00     0.012 C 
ATOM     11  C   UNL     1      79.684   0.692  65.960  1.00  0.00     0.012 C 
ENDROOT
TORSDOF 0
ENDMDL
MODEL 6
REMARK VINA RESULT:    -2.933      1.711      2.443
REMARK INTER + INTRA:          -2.933
REMARK INTER:                  -2.933
REMARK INTRA:                   0.000
REMARK UNBOUND:                 0.000
REMARK SMILES CC1=CC(=O)[C@@H]2C[C@H]1C2(C)C
REMARK SMILES IDX 1 1 2 2 3 3 4 4 5 5 6 6 7 7 8 8 9 9 10 10 11 11
REMARK H PARENT
REMARK Flexibility Score: inf
ROOT
ATOM      1  C   UNL     1      79.827   1.790  64.745  1.00  0.00     0.040 C 
ATOM      2  C   UNL     1      80.191   1.777  66.196  1.00  0.00    -0.066 C 
ATOM      3  C   UNL     1      80.659   2.884  66.839  1.00  0.00     0.047 C 
ATOM      4  C   UNL     1      80.980   2.718  68.293  1.00  0.00     0.159 C 
ATOM      5  O   UNL     1      81.379   3.676  69.007  1.00  0.00    -0.295 OA
ATOM      6  C   UNL     1      80.787   1.307  68.849  1.00  0.00     0.067 C 
ATOM      7  C   UNL     1      81.439   0.391  67.790  1.00  0.00     0.021 C 
ATOM      8  C   UNL     1      80.100   0.477  67.021  1.00  0.00     0.022 C 
ATOM      9  C   UNL     1      79.404   0.774  68.381  1.00  0.00    -0.019 C 
ATOM     10  C   UNL     1      78.987  -0.519  69.125  1.00  0.00     0.012 C 
ATOM     11  C   UNL     1      78.195   1.752  68.389  1.00  0.00     0.012 C 
ENDROOT
TORSDOF 0
ENDMDL
MODEL 7
REMARK VINA RESULT:    -2.931     21.129     22.327
REMARK INTER + INTRA:          -2.931
REMARK INTER:                  -2.931
REMARK INTRA:                   0.000
REMARK UNBOUND:                 0.000
REMARK SMILES CC1=CC(=O)[C@@H]2C[C@H]1C2(C)C
REMARK SMILES IDX 1 1 2 2 3 3 4 4 5 5 6 6 7 7 8 8 9 9 10 10 11 11
REMARK H PARENT
REMARK Flexibility Score: inf
ROOT
ATOM      1  C   UNL     1      65.151   6.431  53.131  1.00  0.00     0.040 C 
ATOM      2  C   UNL     1      65.439   5.514  51.984  1.00  0.00    -0.066 C 
ATOM      3  C   UNL     1      66.674   5.430  51.413  1.00  0.00     0.047 C 
ATOM      4  C   UNL     1      66.813   4.466  50.274  1.00  0.00     0.159 C 
ATOM      5  O   UNL     1      67.911   4.266  49.692  1.00  0.00    -0.295 OA
ATOM      6  C   UNL     1      65.528   3.743  49.870  1.00  0.00     0.067 C 
ATOM      7  C   UNL     1      64.461   4.859  49.832  1.00  0.00     0.021 C 
ATOM      8  C   UNL     1      64.322   4.656  51.359  1.00  0.00     0.022 C 
ATOM      9  C   UNL     1      64.838   3.202  51.154  1.00  0.00    -0.019 C 
ATOM     10  C   UNL     1      63.692   2.209  50.835  1.00  0.00     0.012 C 
ATOM     11  C   UNL     1      65.730   2.576  52.263  1.00  0.00     0.012 C 
ENDROOT
TORSDOF 0
ENDMDL
MODEL 8
REMARK VINA RESULT:    -2.899     12.415     13.956
REMARK INTER + INTRA:          -2.899
REMARK INTER:                  -2.899
REMARK INTRA:                   0.000
REMARK UNBOUND:                 0.000
REMARK SMILES CC1=CC(=O)[C@@H]2C[C@H]1C2(C)C
REMARK SMILES IDX 1 1 2 2 3 3 4 4 5 5 6 6 7 7 8 8 9 9 10 10 11 11
REMARK H PARENT
REMARK Flexibility Score: inf
ROOT
ATOM      1  C   UNL     1      72.229  -9.631  65.495  1.00  0.00     0.040 C 
ATOM      2  C   UNL     1      71.599  -8.908  66.643  1.00  0.00    -0.066 C 
ATOM      3  C   UNL     1      72.243  -7.916  67.320  1.00  0.00     0.047 C 
ATOM      4  C   UNL     1      71.486  -7.284  68.448  1.00  0.00     0.159 C 
ATOM      5  O   UNL     1      71.955  -6.329  69.121  1.00  0.00    -0.295 OA
ATOM      6  C   UNL     1      70.103  -7.877  68.721  1.00  0.00     0.067 C 
ATOM      7  C   UNL     1      70.334  -9.403  68.686  1.00  0.00     0.021 C 
ATOM      8  C   UNL     1      70.197  -9.300  67.149  1.00  0.00     0.022 C 
ATOM      9  C   UNL     1      69.347  -8.015  67.370  1.00  0.00    -0.019 C 
ATOM     10  C   UNL     1      67.842  -8.329  67.564  1.00  0.00     0.012 C 
ATOM     11  C   UNL     1      69.474  -6.864  66.331  1.00  0.00     0.012 C 
ENDROOT
TORSDOF 0
ENDMDL
MODEL 9
REMARK VINA RESULT:    -2.871     19.965     21.244
REMARK INTER + INTRA:          -2.871
REMARK INTER:                  -2.871
REMARK INTRA:                   0.000
REMARK UNBOUND:                 0.000
REMARK SMILES CC1=CC(=O)[C@@H]2C[C@H]1C2(C)C
REMARK SMILES IDX 1 1 2 2 3 3 4 4 5 5 6 6 7 7 8 8 9 9 10 10 11 11
REMARK H PARENT
REMARK Flexibility Score: inf
ROOT
ATOM      1  C   UNL     1      69.529  -9.304  53.420  1.00  0.00     0.040 C 
ATOM      2  C   UNL     1      70.869  -9.183  52.765  1.00  0.00    -0.066 C 
ATOM      3  C   UNL     1      72.027  -9.492  53.415  1.00  0.00     0.047 C 
ATOM      4  C   UNL     1      73.292  -9.323  52.630  1.00  0.00     0.159 C 
ATOM      5  O   UNL     1      74.421  -9.616  53.103  1.00  0.00    -0.295 OA
ATOM      6  C   UNL     1      73.115  -8.772  51.214  1.00  0.00     0.067 C 
ATOM      7  C   UNL     1      72.132  -7.594  51.388  1.00  0.00     0.021 C 
ATOM      8  C   UNL     1      70.999  -8.644  51.327  1.00  0.00     0.022 C 
ATOM      9  C   UNL     1      71.967  -9.555  50.517  1.00  0.00    -0.019 C 
ATOM     10  C   UNL     1      71.903  -9.278  48.994  1.00  0.00     0.012 C 
ATOM     11  C   UNL     1      71.884 -11.093  50.736  1.00  0.00     0.012 C 
ENDROOT
TORSDOF 0
ENDMDL
