MODEL 1
REMARK VINA RESULT:    -3.544      0.000      0.000
REMARK INTER + INTRA:          -5.430
REMARK INTER:                  -5.201
REMARK INTRA:                  -0.229
REMARK UNBOUND:                -0.229
REMARK SMILES O=C([O-])CCCCCCCC(=O)[O-]
REMARK SMILES IDX 7 1 6 2 5 3 4 4 2 5 1 6 3 7 8 8 9 9 10 10 11 11 12 12 13 13
REMARK H PARENT
REMARK Flexibility Score: inf
ROOT
ATOM      1  C   UNL     1      16.010  -3.840  14.865  1.00  0.00     0.000 C 
ENDROOT
BRANCH   1   2
ATOM      2  C   UNL     1      15.658  -2.650  13.955  1.00  0.00     0.000 C 
BRANCH   2   3
ATOM      3  C   UNL     1      15.265  -1.352  14.691  1.00  0.00     0.006 C 
BRANCH   3   4
ATOM      4  C   UNL     1      16.353  -0.268  14.697  1.00  0.00     0.053 C 
BRANCH   4   5
ATOM      5  C   UNL     1      16.266   0.606  15.910  1.00  0.00     0.041 C 
ATOM      6  O   UNL     1      16.829   0.260  16.983  1.00  0.00    -0.550 OA
ATOM      7  O   UNL     1      15.537   1.787  15.866  1.00  0.00    -0.550 OA
ENDBRANCH   4   5
ENDBRANCH   3   4
ENDBRANCH   2   3
ENDBRANCH   1   2
BRANCH   1   8
ATOM      8  C   UNL     1      16.132  -5.167  14.097  1.00  0.00     0.000 C 
BRANCH   8   9
ATOM      9  C   UNL     1      15.823  -5.017  12.595  1.00  0.00     0.006 C 
BRANCH   9  10
ATOM     10  C   UNL     1      15.795  -6.342  11.817  1.00  0.00     0.053 C 
BRANCH  10  11
ATOM     11  C   UNL     1      15.350  -6.152  10.399  1.00  0.00     0.041 C 
ATOM     12  O   UNL     1      16.148  -5.694   9.540  1.00  0.00    -0.550 OA
ATOM     13  O   UNL     1      14.042  -6.449  10.034  1.00  0.00    -0.550 OA
ENDBRANCH  10  11
ENDBRANCH   9  10
ENDBRANCH   8   9
ENDBRANCH   1   8
TORSDOF 8
ENDMDL
MODEL 2
REMARK VINA RESULT:    -3.472      1.414      7.038
REMARK INTER + INTRA:          -5.325
REMARK INTER:                  -5.016
REMARK INTRA:                  -0.309
REMARK UNBOUND:                -0.229
REMARK SMILES O=C([O-])CCCCCCCC(=O)[O-]
REMARK SMILES IDX 7 1 6 2 5 3 4 4 2 5 1 6 3 7 8 8 9 9 10 10 11 11 12 12 13 13
REMARK H PARENT
REMARK Flexibility Score: inf
ROOT
ATOM      1  C   UNL     1      16.690  -5.429  13.597  1.00  0.00     0.000 C 
ENDROOT
BRANCH   1   2
ATOM      2  C   UNL     1      15.707  -6.237  12.732  1.00  0.00     0.000 C 
BRANCH   2   3
ATOM      3  C   UNL     1      15.551  -5.746  11.278  1.00  0.00     0.006 C 
BRANCH   3   4
ATOM      4  C   UNL     1      16.772  -6.005  10.382  1.00  0.00     0.053 C 
BRANCH   4   5
ATOM      5  C   UNL     1      16.415  -5.974   8.927  1.00  0.00     0.041 C 
ATOM      6  O   UNL     1      16.962  -5.140   8.158  1.00  0.00    -0.550 OA
ATOM      7  O   UNL     1      15.456  -6.846   8.427  1.00  0.00    -0.550 OA
ENDBRANCH   4   5
ENDBRANCH   3   4
ENDBRANCH   2   3
ENDBRANCH   1   2
BRANCH   1   8
ATOM      8  C   UNL     1      15.989  -4.384  14.483  1.00  0.00     0.000 C 
BRANCH   8   9
ATOM      9  C   UNL     1      15.754  -3.047  13.755  1.00  0.00     0.006 C 
BRANCH   9  10
ATOM     10  C   UNL     1      15.303  -1.897  14.669  1.00  0.00     0.053 C 
BRANCH  10  11
ATOM     11  C   UNL     1      16.405  -0.915  14.923  1.00  0.00     0.041 C 
ATOM     12  O   UNL     1      16.241   0.305  14.654  1.00  0.00    -0.550 OA
ATOM     13  O   UNL     1      17.624  -1.351  15.426  1.00  0.00    -0.550 OA
ENDBRANCH  10  11
ENDBRANCH   9  10
ENDBRANCH   8   9
ENDBRANCH   1   8
TORSDOF 8
ENDMDL
MODEL 3
REMARK VINA RESULT:    -3.458     16.324     18.706
REMARK INTER + INTRA:          -5.304
REMARK INTER:                  -4.899
REMARK INTRA:                  -0.406
REMARK UNBOUND:                -0.229
REMARK SMILES O=C([O-])CCCCCCCC(=O)[O-]
REMARK SMILES IDX 7 1 6 2 5 3 4 4 2 5 1 6 3 7 8 8 9 9 10 10 11 11 12 12 13 13
REMARK H PARENT
REMARK Flexibility Score: inf
ROOT
ATOM      1  C   UNL     1      24.662  10.184   5.321  1.00  0.00     0.000 C 
ENDROOT
BRANCH   1   2
ATOM      2  C   UNL     1      25.390   9.765   6.611  1.00  0.00     0.000 C 
BRANCH   2   3
ATOM      3  C   UNL     1      26.930   9.840   6.553  1.00  0.00     0.006 C 
BRANCH   3   4
ATOM      4  C   UNL     1      27.485  10.655   5.375  1.00  0.00     0.053 C 
BRANCH   4   5
ATOM      5  C   UNL     1      28.101  11.943   5.826  1.00  0.00     0.041 C 
ATOM      6  O   UNL     1      27.473  12.709   6.604  1.00  0.00    -0.550 OA
ATOM      7  O   UNL     1      29.357  12.314   5.362  1.00  0.00    -0.550 OA
ENDBRANCH   4   5
ENDBRANCH   3   4
ENDBRANCH   2   3
ENDBRANCH   1   2
BRANCH   1   8
ATOM      8  C   UNL     1      23.187  10.548   5.556  1.00  0.00     0.000 C 
BRANCH   8   9
ATOM      9  C   UNL     1      22.809  10.569   7.049  1.00  0.00     0.006 C 
BRANCH   9  10
ATOM     10  C   UNL     1      21.953  11.774   7.471  1.00  0.00     0.053 C 
BRANCH  10  11
ATOM     11  C   UNL     1      20.737  11.358   8.242  1.00  0.00     0.041 C 
ATOM     12  O   UNL     1      20.307  12.076   9.182  1.00  0.00    -0.550 OA
ATOM     13  O   UNL     1      20.099  10.161   7.942  1.00  0.00    -0.550 OA
ENDBRANCH  10  11
ENDBRANCH   9  10
ENDBRANCH   8   9
ENDBRANCH   1   8
TORSDOF 8
ENDMDL
MODEL 4
REMARK VINA RESULT:    -3.372     12.956     13.761
REMARK INTER + INTRA:          -5.178
REMARK INTER:                  -4.887
REMARK INTRA:                  -0.291
REMARK UNBOUND:                -0.229
REMARK SMILES O=C([O-])CCCCCCCC(=O)[O-]
REMARK SMILES IDX 7 1 6 2 5 3 4 4 2 5 1 6 3 7 8 8 9 9 10 10 11 11 12 12 13 13
REMARK H PARENT
REMARK Flexibility Score: inf
ROOT
ATOM      1  C   UNL     1      26.897   0.191   7.626  1.00  0.00     0.000 C 
ENDROOT
BRANCH   1   2
ATOM      2  C   UNL     1      26.910   0.664   9.090  1.00  0.00     0.000 C 
BRANCH   2   3
ATOM      3  C   UNL     1      27.809   1.885   9.379  1.00  0.00     0.006 C 
BRANCH   3   4
ATOM      4  C   UNL     1      28.739   1.720  10.590  1.00  0.00     0.053 C 
BRANCH   4   5
ATOM      5  C   UNL     1      29.810   2.767  10.620  1.00  0.00     0.041 C 
ATOM      6  O   UNL     1      30.331   3.111  11.714  1.00  0.00    -0.550 OA
ATOM      7  O   UNL     1      30.210   3.387   9.443  1.00  0.00    -0.550 OA
ENDBRANCH   4   5
ENDBRANCH   3   4
ENDBRANCH   2   3
ENDBRANCH   1   2
BRANCH   1   8
ATOM      8  C   UNL     1      26.490   1.300   6.641  1.00  0.00     0.000 C 
BRANCH   8   9
ATOM      9  C   UNL     1      24.966   1.517   6.584  1.00  0.00     0.006 C 
BRANCH   9  10
ATOM     10  C   UNL     1      24.541   2.961   6.274  1.00  0.00     0.053 C 
BRANCH  10  11
ATOM     11  C   UNL     1      23.123   3.040   5.798  1.00  0.00     0.041 C 
ATOM     12  O   UNL     1      22.213   2.421   6.410  1.00  0.00    -0.550 OA
ATOM     13  O   UNL     1      22.811   3.772   4.658  1.00  0.00    -0.550 OA
ENDBRANCH  10  11
ENDBRANCH   9  10
ENDBRANCH   8   9
ENDBRANCH   1   8
TORSDOF 8
ENDMDL
MODEL 5
REMARK VINA RESULT:    -3.357     12.446     13.728
REMARK INTER + INTRA:          -5.157
REMARK INTER:                  -4.705
REMARK INTRA:                  -0.451
REMARK UNBOUND:                -0.229
REMARK SMILES O=C([O-])CCCCCCCC(=O)[O-]
REMARK SMILES IDX 7 1 6 2 5 3 4 4 2 5 1 6 3 7 8 8 9 9 10 10 11 11 12 12 13 13
REMARK H PARENT
REMARK Flexibility Score: inf
ROOT
ATOM      1  C   UNL     1      26.191  -0.333   7.671  1.00  0.00     0.000 C 
ENDROOT
BRANCH   1   2
ATOM      2  C   UNL     1      24.938   0.185   6.944  1.00  0.00     0.000 C 
BRANCH   2   3
ATOM      3  C   UNL     1      25.190   1.306   5.914  1.00  0.00     0.006 C 
BRANCH   3   4
ATOM      4  C   UNL     1      24.646   2.683   6.322  1.00  0.00     0.053 C 
BRANCH   4   5
ATOM      5  C   UNL     1      23.248   2.901   5.829  1.00  0.00     0.041 C 
ATOM      6  O   UNL     1      23.030   3.685   4.868  1.00  0.00    -0.550 OA
ATOM      7  O   UNL     1      22.183   2.263   6.452  1.00  0.00    -0.550 OA
ENDBRANCH   4   5
ENDBRANCH   3   4
ENDBRANCH   2   3
ENDBRANCH   1   2
BRANCH   1   8
ATOM      8  C   UNL     1      26.000  -0.439   9.194  1.00  0.00     0.000 C 
BRANCH   8   9
ATOM      9  C   UNL     1      26.898   0.537   9.977  1.00  0.00     0.006 C 
BRANCH   9  10
ATOM     10  C   UNL     1      27.508   1.661   9.125  1.00  0.00     0.053 C 
BRANCH  10  11
ATOM     11  C   UNL     1      28.764   2.208   9.731  1.00  0.00     0.041 C 
ATOM     12  O   UNL     1      28.910   2.222  10.982  1.00  0.00    -0.550 OA
ATOM     13  O   UNL     1      29.760   2.731   8.916  1.00  0.00    -0.550 OA
ENDBRANCH  10  11
ENDBRANCH   9  10
ENDBRANCH   8   9
ENDBRANCH   1   8
TORSDOF 8
ENDMDL
MODEL 6
REMARK VINA RESULT:    -3.347     16.798     18.780
REMARK INTER + INTRA:          -5.142
REMARK INTER:                  -4.736
REMARK INTRA:                  -0.406
REMARK UNBOUND:                -0.229
REMARK SMILES O=C([O-])CCCCCCCC(=O)[O-]
REMARK SMILES IDX 7 1 6 2 5 3 4 4 2 5 1 6 3 7 8 8 9 9 10 10 11 11 12 12 13 13
REMARK H PARENT
REMARK Flexibility Score: inf
ROOT
ATOM      1  C   UNL     1      24.850  10.070   5.572  1.00  0.00     0.000 C 
ENDROOT
BRANCH   1   2
ATOM      2  C   UNL     1      23.871  11.107   6.151  1.00  0.00     0.000 C 
BRANCH   2   3
ATOM      3  C   UNL     1      22.701  10.523   6.969  1.00  0.00     0.006 C 
BRANCH   3   4
ATOM      4  C   UNL     1      21.803  11.574   7.640  1.00  0.00     0.053 C 
BRANCH   4   5
ATOM      5  C   UNL     1      20.382  11.474   7.177  1.00  0.00     0.041 C 
ATOM      6  O   UNL     1      19.471  12.089   7.791  1.00  0.00    -0.550 OA
ATOM      7  O   UNL     1      20.060  10.677   6.087  1.00  0.00    -0.550 OA
ENDBRANCH   4   5
ENDBRANCH   3   4
ENDBRANCH   2   3
ENDBRANCH   1   2
BRANCH   1   8
ATOM      8  C   UNL     1      25.711   9.391   6.651  1.00  0.00     0.000 C 
BRANCH   8   9
ATOM      9  C   UNL     1      27.207   9.733   6.523  1.00  0.00     0.006 C 
BRANCH   9  10
ATOM     10  C   UNL     1      27.551  10.642   5.332  1.00  0.00     0.053 C 
BRANCH  10  11
ATOM     11  C   UNL     1      28.095  11.965   5.773  1.00  0.00     0.041 C 
ATOM     12  O   UNL     1      29.240  12.336   5.402  1.00  0.00    -0.550 OA
ATOM     13  O   UNL     1      27.351  12.776   6.622  1.00  0.00    -0.550 OA
ENDBRANCH  10  11
ENDBRANCH   9  10
ENDBRANCH   8   9
ENDBRANCH   1   8
TORSDOF 8
ENDMDL
MODEL 7
REMARK VINA RESULT:    -3.292     11.693     12.785
REMARK INTER + INTRA:          -5.060
REMARK INTER:                  -4.649
REMARK INTRA:                  -0.411
REMARK UNBOUND:                -0.229
REMARK SMILES O=C([O-])CCCCCCCC(=O)[O-]
REMARK SMILES IDX 7 1 6 2 5 3 4 4 2 5 1 6 3 7 8 8 9 9 10 10 11 11 12 12 13 13
REMARK H PARENT
REMARK Flexibility Score: inf
ROOT
ATOM      1  C   UNL     1      19.957   3.724   4.120  1.00  0.00     0.000 C 
ENDROOT
BRANCH   1   2
ATOM      2  C   UNL     1      19.089   4.559   5.077  1.00  0.00     0.000 C 
BRANCH   2   3
ATOM      3  C   UNL     1      17.565   4.393   4.898  1.00  0.00     0.006 C 
BRANCH   3   4
ATOM      4  C   UNL     1      17.120   4.094   3.459  1.00  0.00     0.053 C 
BRANCH   4   5
ATOM      5  C   UNL     1      16.525   2.725   3.330  1.00  0.00     0.041 C 
ATOM      6  O   UNL     1      17.201   1.783   2.838  1.00  0.00    -0.550 OA
ATOM      7  O   UNL     1      15.213   2.497   3.725  1.00  0.00    -0.550 OA
ENDBRANCH   4   5
ENDBRANCH   3   4
ENDBRANCH   2   3
ENDBRANCH   1   2
BRANCH   1   8
ATOM      8  C   UNL     1      20.497   2.437   4.768  1.00  0.00     0.000 C 
BRANCH   8   9
ATOM      9  C   UNL     1      21.539   2.716   5.867  1.00  0.00     0.006 C 
BRANCH   9  10
ATOM     10  C   UNL     1      22.917   3.151   5.341  1.00  0.00     0.053 C 
BRANCH  10  11
ATOM     11  C   UNL     1      24.036   2.457   6.055  1.00  0.00     0.041 C 
ATOM     12  O   UNL     1      23.973   1.220   6.280  1.00  0.00    -0.550 OA
ATOM     13  O   UNL     1      25.134   3.183   6.499  1.00  0.00    -0.550 OA
ENDBRANCH  10  11
ENDBRANCH   9  10
ENDBRANCH   8   9
ENDBRANCH   1   8
TORSDOF 8
ENDMDL
MODEL 8
REMARK VINA RESULT:    -3.284      4.768      6.154
REMARK INTER + INTRA:          -5.049
REMARK INTER:                  -4.488
REMARK INTRA:                  -0.561
REMARK UNBOUND:                -0.229
REMARK SMILES O=C([O-])CCCCCCCC(=O)[O-]
REMARK SMILES IDX 7 1 6 2 5 3 4 4 2 5 1 6 3 7 8 8 9 9 10 10 11 11 12 12 13 13
REMARK H PARENT
REMARK Flexibility Score: inf
ROOT
ATOM      1  C   UNL     1      15.372  -7.016   9.348  1.00  0.00     0.000 C 
ENDROOT
BRANCH   1   2
ATOM      2  C   UNL     1      15.255  -5.930  10.433  1.00  0.00     0.000 C 
BRANCH   2   3
ATOM      3  C   UNL     1      15.755  -6.342  11.834  1.00  0.00     0.006 C 
BRANCH   3   4
ATOM      4  C   UNL     1      17.283  -6.416  11.971  1.00  0.00     0.053 C 
BRANCH   4   5
ATOM      5  C   UNL     1      17.738  -6.068  13.355  1.00  0.00     0.041 C 
ATOM      6  O   UNL     1      17.066  -5.271  14.062  1.00  0.00    -0.550 OA
ATOM      7  O   UNL     1      18.921  -6.599  13.852  1.00  0.00    -0.550 OA
ENDBRANCH   4   5
ENDBRANCH   3   4
ENDBRANCH   2   3
ENDBRANCH   1   2
BRANCH   1   8
ATOM      8  C   UNL     1      16.364  -6.645   8.233  1.00  0.00     0.000 C 
BRANCH   8   9
ATOM      9  C   UNL     1      16.958  -5.235   8.409  1.00  0.00     0.006 C 
BRANCH   9  10
ATOM     10  C   UNL     1      18.494  -5.194   8.453  1.00  0.00     0.053 C 
BRANCH  10  11
ATOM     11  C   UNL     1      19.062  -4.278   7.412  1.00  0.00     0.041 C 
ATOM     12  O   UNL     1      18.981  -4.578   6.192  1.00  0.00    -0.550 OA
ATOM     13  O   UNL     1      19.709  -3.109   7.792  1.00  0.00    -0.550 OA
ENDBRANCH  10  11
ENDBRANCH   9  10
ENDBRANCH   8   9
ENDBRANCH   1   8
TORSDOF 8
ENDMDL
MODEL 9
REMARK VINA RESULT:    -3.276     12.462     13.427
REMARK INTER + INTRA:          -5.038
REMARK INTER:                  -4.307
REMARK INTRA:                  -0.731
REMARK UNBOUND:                -0.229
REMARK SMILES O=C([O-])CCCCCCCC(=O)[O-]
REMARK SMILES IDX 7 1 6 2 5 3 4 4 2 5 1 6 3 7 8 8 9 9 10 10 11 11 12 12 13 13
REMARK H PARENT
REMARK Flexibility Score: inf
ROOT
ATOM      1  C   UNL     1      24.585  -0.376   5.800  1.00  0.00     0.000 C 
ENDROOT
BRANCH   1   2
ATOM      2  C   UNL     1      25.699   0.467   5.155  1.00  0.00     0.000 C 
BRANCH   2   3
ATOM      3  C   UNL     1      25.333   1.940   4.878  1.00  0.00     0.006 C 
BRANCH   3   4
ATOM      4  C   UNL     1      24.630   2.653   6.043  1.00  0.00     0.053 C 
BRANCH   4   5
ATOM      5  C   UNL     1      23.227   3.047   5.693  1.00  0.00     0.041 C 
ATOM      6  O   UNL     1      22.261   2.637   6.389  1.00  0.00    -0.550 OA
ATOM      7  O   UNL     1      22.985   3.840   4.579  1.00  0.00    -0.550 OA
ENDBRANCH   4   5
ENDBRANCH   3   4
ENDBRANCH   2   3
ENDBRANCH   1   2
BRANCH   1   8
ATOM      8  C   UNL     1      24.997  -0.977   7.155  1.00  0.00     0.000 C 
BRANCH   8   9
ATOM      9  C   UNL     1      26.400  -0.527   7.605  1.00  0.00     0.006 C 
BRANCH   9  10
ATOM     10  C   UNL     1      26.411   0.353   8.865  1.00  0.00     0.053 C 
BRANCH  10  11
ATOM     11  C   UNL     1      27.353   1.510   8.735  1.00  0.00     0.041 C 
ATOM     12  O   UNL     1      27.671   2.186   9.749  1.00  0.00    -0.550 OA
ATOM     13  O   UNL     1      27.855   1.861   7.488  1.00  0.00    -0.550 OA
ENDBRANCH  10  11
ENDBRANCH   9  10
ENDBRANCH   8   9
ENDBRANCH   1   8
TORSDOF 8
ENDMDL
