MODEL 1
REMARK VINA RESULT:    -3.900      0.000      0.000
REMARK INTER + INTRA:          -6.371
REMARK INTER:                  -5.725
REMARK INTRA:                  -0.646
REMARK UNBOUND:                -0.646
REMARK SMILES O=C([O-])CCCCCCCC(=O)[O-]
REMARK SMILES IDX 7 1 6 2 5 3 4 4 2 5 1 6 3 7 8 8 9 9 10 10 11 11 12 12 13 13
REMARK H PARENT
REMARK Flexibility Score: inf
ROOT
ATOM      1  C   UNL     1      18.748  29.107  33.515  1.00  0.00     0.000 C 
ENDROOT
BRANCH   1   2
ATOM      2  C   UNL     1      17.840  28.861  34.732  1.00  0.00     0.000 C 
BRANCH   2   3
ATOM      3  C   UNL     1      16.705  29.895  34.840  1.00  0.00     0.006 C 
BRANCH   3   4
ATOM      4  C   UNL     1      16.623  30.795  33.600  1.00  0.00     0.053 C 
BRANCH   4   5
ATOM      5  C   UNL     1      16.746  32.245  33.955  1.00  0.00     0.041 C 
ATOM      6  O   UNL     1      17.727  32.651  34.631  1.00  0.00    -0.550 OA
ATOM      7  O   UNL     1      15.763  33.144  33.562  1.00  0.00    -0.550 OA
ENDBRANCH   4   5
ENDBRANCH   3   4
ENDBRANCH   2   3
ENDBRANCH   1   2
BRANCH   1   8
ATOM      8  C   UNL     1      19.177  27.805  32.822  1.00  0.00     0.000 C 
BRANCH   8   9
ATOM      9  C   UNL     1      19.178  27.970  31.297  1.00  0.00     0.006 C 
BRANCH   9  10
ATOM     10  C   UNL     1      17.911  28.685  30.821  1.00  0.00     0.053 C 
BRANCH  10  11
ATOM     11  C   UNL     1      18.262  29.864  29.969  1.00  0.00     0.041 C 
ATOM     12  O   UNL     1      18.298  29.751  28.715  1.00  0.00    -0.550 OA
ATOM     13  O   UNL     1      18.500  31.100  30.555  1.00  0.00    -0.550 OA
ENDBRANCH  10  11
ENDBRANCH   9  10
ENDBRANCH   8   9
ENDBRANCH   1   8
TORSDOF 8
ENDMDL
MODEL 2
REMARK VINA RESULT:    -3.878      1.679      2.515
REMARK INTER + INTRA:          -6.338
REMARK INTER:                  -5.815
REMARK INTRA:                  -0.523
REMARK UNBOUND:                -0.646
REMARK SMILES O=C([O-])CCCCCCCC(=O)[O-]
REMARK SMILES IDX 7 1 6 2 5 3 4 4 2 5 1 6 3 7 8 8 9 9 10 10 11 11 12 12 13 13
REMARK H PARENT
REMARK Flexibility Score: inf
ROOT
ATOM      1  C   UNL     1      19.499  27.352  32.270  1.00  0.00     0.000 C 
ENDROOT
BRANCH   1   2
ATOM      2  C   UNL     1      19.418  27.488  33.800  1.00  0.00     0.000 C 
BRANCH   2   3
ATOM      3  C   UNL     1      19.016  28.905  34.247  1.00  0.00     0.006 C 
BRANCH   3   4
ATOM      4  C   UNL     1      17.620  28.936  34.885  1.00  0.00     0.053 C 
BRANCH   4   5
ATOM      5  C   UNL     1      16.861  30.170  34.506  1.00  0.00     0.041 C 
ATOM      6  O   UNL     1      16.591  30.402  33.298  1.00  0.00    -0.550 OA
ATOM      7  O   UNL     1      16.475  31.077  35.484  1.00  0.00    -0.550 OA
ENDBRANCH   4   5
ENDBRANCH   3   4
ENDBRANCH   2   3
ENDBRANCH   1   2
BRANCH   1   8
ATOM      8  C   UNL     1      19.212  28.673  31.541  1.00  0.00     0.000 C 
BRANCH   8   9
ATOM      9  C   UNL     1      18.002  28.533  30.608  1.00  0.00     0.006 C 
BRANCH   9  10
ATOM     10  C   UNL     1      18.301  27.561  29.464  1.00  0.00     0.053 C 
BRANCH  10  11
ATOM     11  C   UNL     1      18.334  28.286  28.155  1.00  0.00     0.041 C 
ATOM     12  O   UNL     1      19.239  29.130  27.922  1.00  0.00    -0.550 OA
ATOM     13  O   UNL     1      17.397  27.993  27.174  1.00  0.00    -0.550 OA
ENDBRANCH  10  11
ENDBRANCH   9  10
ENDBRANCH   8   9
ENDBRANCH   1   8
TORSDOF 8
ENDMDL
MODEL 3
REMARK VINA RESULT:    -3.874      1.866      5.461
REMARK INTER + INTRA:          -6.332
REMARK INTER:                  -5.811
REMARK INTRA:                  -0.521
REMARK UNBOUND:                -0.646
REMARK SMILES O=C([O-])CCCCCCCC(=O)[O-]
REMARK SMILES IDX 7 1 6 2 5 3 4 4 2 5 1 6 3 7 8 8 9 9 10 10 11 11 12 12 13 13
REMARK H PARENT
REMARK Flexibility Score: inf
ROOT
ATOM      1  C   UNL     1      19.321  27.350  32.437  1.00  0.00     0.000 C 
ENDROOT
BRANCH   1   2
ATOM      2  C   UNL     1      19.241  28.621  31.575  1.00  0.00     0.000 C 
BRANCH   2   3
ATOM      3  C   UNL     1      17.987  28.653  30.683  1.00  0.00     0.006 C 
BRANCH   3   4
ATOM      4  C   UNL     1      18.339  28.740  29.192  1.00  0.00     0.053 C 
BRANCH   4   5
ATOM      5  C   UNL     1      18.000  27.477  28.464  1.00  0.00     0.041 C 
ATOM      6  O   UNL     1      17.273  27.513  27.437  1.00  0.00    -0.550 OA
ATOM      7  O   UNL     1      18.465  26.255  28.935  1.00  0.00    -0.550 OA
ENDBRANCH   4   5
ENDBRANCH   3   4
ENDBRANCH   2   3
ENDBRANCH   1   2
BRANCH   1   8
ATOM      8  C   UNL     1      19.512  27.658  33.930  1.00  0.00     0.000 C 
BRANCH   8   9
ATOM      9  C   UNL     1      18.955  29.043  34.280  1.00  0.00     0.006 C 
BRANCH   9  10
ATOM     10  C   UNL     1      17.556  28.935  34.890  1.00  0.00     0.053 C 
BRANCH  10  11
ATOM     11  C   UNL     1      16.755  30.163  34.588  1.00  0.00     0.041 C 
ATOM     12  O   UNL     1      16.365  30.910  35.524  1.00  0.00    -0.550 OA
ATOM     13  O   UNL     1      16.483  30.509  33.271  1.00  0.00    -0.550 OA
ENDBRANCH  10  11
ENDBRANCH   9  10
ENDBRANCH   8   9
ENDBRANCH   1   8
TORSDOF 8
ENDMDL
MODEL 4
REMARK VINA RESULT:    -3.871      3.391      4.789
REMARK INTER + INTRA:          -6.328
REMARK INTER:                  -5.889
REMARK INTRA:                  -0.439
REMARK UNBOUND:                -0.646
REMARK SMILES O=C([O-])CCCCCCCC(=O)[O-]
REMARK SMILES IDX 7 1 6 2 5 3 4 4 2 5 1 6 3 7 8 8 9 9 10 10 11 11 12 12 13 13
REMARK H PARENT
REMARK Flexibility Score: inf
ROOT
ATOM      1  C   UNL     1      18.619  29.506  29.239  1.00  0.00     0.000 C 
ENDROOT
BRANCH   1   2
ATOM      2  C   UNL     1      17.945  28.679  30.346  1.00  0.00     0.000 C 
BRANCH   2   3
ATOM      3  C   UNL     1      18.363  29.127  31.757  1.00  0.00     0.006 C 
BRANCH   3   4
ATOM      4  C   UNL     1      19.085  28.013  32.527  1.00  0.00     0.053 C 
BRANCH   4   5
ATOM      5  C   UNL     1      18.838  28.104  34.002  1.00  0.00     0.041 C 
ATOM      6  O   UNL     1      19.526  27.418  34.803  1.00  0.00    -0.550 OA
ATOM      7  O   UNL     1      17.831  28.926  34.490  1.00  0.00    -0.550 OA
ENDBRANCH   4   5
ENDBRANCH   3   4
ENDBRANCH   2   3
ENDBRANCH   1   2
BRANCH   1   8
ATOM      8  C   UNL     1      18.372  28.932  27.835  1.00  0.00     0.000 C 
BRANCH   8   9
ATOM      9  C   UNL     1      17.616  27.600  27.913  1.00  0.00     0.006 C 
BRANCH   9  10
ATOM     10  C   UNL     1      18.337  26.512  27.113  1.00  0.00     0.053 C 
BRANCH  10  11
ATOM     11  C   UNL     1      18.863  25.451  28.027  1.00  0.00     0.041 C 
ATOM     12  O   UNL     1      19.340  25.761  29.150  1.00  0.00    -0.550 OA
ATOM     13  O   UNL     1      18.782  24.114  27.660  1.00  0.00    -0.550 OA
ENDBRANCH  10  11
ENDBRANCH   9  10
ENDBRANCH   8   9
ENDBRANCH   1   8
TORSDOF 8
ENDMDL
MODEL 5
REMARK VINA RESULT:    -3.871      3.139      4.265
REMARK INTER + INTRA:          -6.328
REMARK INTER:                  -5.925
REMARK INTRA:                  -0.403
REMARK UNBOUND:                -0.646
REMARK SMILES O=C([O-])CCCCCCCC(=O)[O-]
REMARK SMILES IDX 7 1 6 2 5 3 4 4 2 5 1 6 3 7 8 8 9 9 10 10 11 11 12 12 13 13
REMARK H PARENT
REMARK Flexibility Score: inf
ROOT
ATOM      1  C   UNL     1      18.373  29.576  29.485  1.00  0.00     0.000 C 
ENDROOT
BRANCH   1   2
ATOM      2  C   UNL     1      17.892  28.587  30.560  1.00  0.00     0.000 C 
BRANCH   2   3
ATOM      3  C   UNL     1      18.487  28.888  31.948  1.00  0.00     0.006 C 
BRANCH   3   4
ATOM      4  C   UNL     1      17.639  29.897  32.733  1.00  0.00     0.053 C 
BRANCH   4   5
ATOM      5  C   UNL     1      17.466  29.487  34.163  1.00  0.00     0.041 C 
ATOM      6  O   UNL     1      16.593  30.042  34.881  1.00  0.00    -0.550 OA
ATOM      7  O   UNL     1      18.288  28.511  34.711  1.00  0.00    -0.550 OA
ENDBRANCH   4   5
ENDBRANCH   3   4
ENDBRANCH   2   3
ENDBRANCH   1   2
BRANCH   1   8
ATOM      8  C   UNL     1      18.323  28.982  28.069  1.00  0.00     0.000 C 
BRANCH   8   9
ATOM      9  C   UNL     1      17.662  27.598  28.077  1.00  0.00     0.006 C 
BRANCH   9  10
ATOM     10  C   UNL     1      18.475  26.596  27.254  1.00  0.00     0.053 C 
BRANCH  10  11
ATOM     11  C   UNL     1      18.901  25.441  28.105  1.00  0.00     0.041 C 
ATOM     12  O   UNL     1      18.778  24.262  27.681  1.00  0.00    -0.550 OA
ATOM     13  O   UNL     1      19.480  25.669  29.347  1.00  0.00    -0.550 OA
ENDBRANCH  10  11
ENDBRANCH   9  10
ENDBRANCH   8   9
ENDBRANCH   1   8
TORSDOF 8
ENDMDL
MODEL 6
REMARK VINA RESULT:    -3.815      1.069      4.971
REMARK INTER + INTRA:          -6.245
REMARK INTER:                  -5.721
REMARK INTRA:                  -0.523
REMARK UNBOUND:                -0.646
REMARK SMILES O=C([O-])CCCCCCCC(=O)[O-]
REMARK SMILES IDX 7 1 6 2 5 3 4 4 2 5 1 6 3 7 8 8 9 9 10 10 11 11 12 12 13 13
REMARK H PARENT
REMARK Flexibility Score: inf
ROOT
ATOM      1  C   UNL     1      19.014  29.120  32.996  1.00  0.00     0.000 C 
ENDROOT
BRANCH   1   2
ATOM      2  C   UNL     1      18.930  28.128  31.824  1.00  0.00     0.000 C 
BRANCH   2   3
ATOM      3  C   UNL     1      17.993  28.615  30.704  1.00  0.00     0.006 C 
BRANCH   3   4
ATOM      4  C   UNL     1      18.388  30.004  30.183  1.00  0.00     0.053 C 
BRANCH   4   5
ATOM      5  C   UNL     1      18.401  30.055  28.686  1.00  0.00     0.041 C 
ATOM      6  O   UNL     1      18.429  31.163  28.090  1.00  0.00    -0.550 OA
ATOM      7  O   UNL     1      18.355  28.878  27.949  1.00  0.00    -0.550 OA
ENDBRANCH   4   5
ENDBRANCH   3   4
ENDBRANCH   2   3
ENDBRANCH   1   2
BRANCH   1   8
ATOM      8  C   UNL     1      18.479  28.532  34.310  1.00  0.00     0.000 C 
BRANCH   8   9
ATOM      9  C   UNL     1      17.258  29.317  34.805  1.00  0.00     0.006 C 
BRANCH   9  10
ATOM     10  C   UNL     1      16.888  30.433  33.825  1.00  0.00     0.053 C 
BRANCH  10  11
ATOM     11  C   UNL     1      16.579  31.698  34.563  1.00  0.00     0.041 C 
ATOM     12  O   UNL     1      16.800  31.779  35.800  1.00  0.00    -0.550 OA
ATOM     13  O   UNL     1      16.095  32.803  33.877  1.00  0.00    -0.550 OA
ENDBRANCH  10  11
ENDBRANCH   9  10
ENDBRANCH   8   9
ENDBRANCH   1   8
TORSDOF 8
ENDMDL
MODEL 7
REMARK VINA RESULT:    -3.806      2.956      6.328
REMARK INTER + INTRA:          -6.232
REMARK INTER:                  -5.581
REMARK INTRA:                  -0.651
REMARK UNBOUND:                -0.646
REMARK SMILES O=C([O-])CCCCCCCC(=O)[O-]
REMARK SMILES IDX 7 1 6 2 5 3 4 4 2 5 1 6 3 7 8 8 9 9 10 10 11 11 12 12 13 13
REMARK H PARENT
REMARK Flexibility Score: inf
ROOT
ATOM      1  C   UNL     1      18.399  30.102  28.489  1.00  0.00     0.000 C 
ENDROOT
BRANCH   1   2
ATOM      2  C   UNL     1      18.819  28.958  27.550  1.00  0.00     0.000 C 
BRANCH   2   3
ATOM      3  C   UNL     1      17.694  27.931  27.331  1.00  0.00     0.006 C 
BRANCH   3   4
ATOM      4  C   UNL     1      17.559  26.961  28.513  1.00  0.00     0.053 C 
BRANCH   4   5
ATOM      5  C   UNL     1      18.689  25.979  28.559  1.00  0.00     0.041 C 
ATOM      6  O   UNL     1      18.736  25.028  27.736  1.00  0.00    -0.550 OA
ATOM      7  O   UNL     1      19.675  26.098  29.530  1.00  0.00    -0.550 OA
ENDBRANCH   4   5
ENDBRANCH   3   4
ENDBRANCH   2   3
ENDBRANCH   1   2
BRANCH   1   8
ATOM      8  C   UNL     1      19.065  30.009  29.871  1.00  0.00     0.000 C 
BRANCH   8   9
ATOM      9  C   UNL     1      18.029  29.696  30.958  1.00  0.00     0.006 C 
BRANCH   9  10
ATOM     10  C   UNL     1      18.491  28.532  31.838  1.00  0.00     0.053 C 
BRANCH  10  11
ATOM     11  C   UNL     1      18.427  28.911  33.285  1.00  0.00     0.041 C 
ATOM     12  O   UNL     1      17.906  30.004  33.631  1.00  0.00    -0.550 OA
ATOM     13  O   UNL     1      18.897  28.035  34.254  1.00  0.00    -0.550 OA
ENDBRANCH  10  11
ENDBRANCH   9  10
ENDBRANCH   8   9
ENDBRANCH   1   8
TORSDOF 8
ENDMDL
MODEL 8
REMARK VINA RESULT:    -3.786      2.287      6.221
REMARK INTER + INTRA:          -6.202
REMARK INTER:                  -5.911
REMARK INTRA:                  -0.291
REMARK UNBOUND:                -0.646
REMARK SMILES O=C([O-])CCCCCCCC(=O)[O-]
REMARK SMILES IDX 7 1 6 2 5 3 4 4 2 5 1 6 3 7 8 8 9 9 10 10 11 11 12 12 13 13
REMARK H PARENT
REMARK Flexibility Score: inf
ROOT
ATOM      1  C   UNL     1      18.068  28.932  30.359  1.00  0.00     0.000 C 
ENDROOT
BRANCH   1   2
ATOM      2  C   UNL     1      18.418  30.183  29.536  1.00  0.00     0.000 C 
BRANCH   2   3
ATOM      3  C   UNL     1      18.484  29.898  28.025  1.00  0.00     0.006 C 
BRANCH   3   4
ATOM      4  C   UNL     1      17.983  28.489  27.681  1.00  0.00     0.053 C 
BRANCH   4   5
ATOM      5  C   UNL     1      19.030  27.681  26.977  1.00  0.00     0.041 C 
ATOM      6  O   UNL     1      19.414  28.009  25.824  1.00  0.00    -0.550 OA
ATOM      7  O   UNL     1      19.560  26.550  27.584  1.00  0.00    -0.550 OA
ENDBRANCH   4   5
ENDBRANCH   3   4
ENDBRANCH   2   3
ENDBRANCH   1   2
BRANCH   1   8
ATOM      8  C   UNL     1      17.747  29.257  31.825  1.00  0.00     0.000 C 
BRANCH   8   9
ATOM      9  C   UNL     1      18.857  28.751  32.755  1.00  0.00     0.006 C 
BRANCH   9  10
ATOM     10  C   UNL     1      18.348  28.608  34.192  1.00  0.00     0.053 C 
BRANCH  10  11
ATOM     11  C   UNL     1      17.662  29.862  34.632  1.00  0.00     0.041 C 
ATOM     12  O   UNL     1      16.440  29.843  34.935  1.00  0.00    -0.550 OA
ATOM     13  O   UNL     1      18.383  31.042  34.758  1.00  0.00    -0.550 OA
ENDBRANCH  10  11
ENDBRANCH   9  10
ENDBRANCH   8   9
ENDBRANCH   1   8
TORSDOF 8
ENDMDL
MODEL 9
REMARK VINA RESULT:    -3.704      1.420      4.335
REMARK INTER + INTRA:          -6.083
REMARK INTER:                  -5.396
REMARK INTRA:                  -0.686
REMARK UNBOUND:                -0.646
REMARK SMILES O=C([O-])CCCCCCCC(=O)[O-]
REMARK SMILES IDX 7 1 6 2 5 3 4 4 2 5 1 6 3 7 8 8 9 9 10 10 11 11 12 12 13 13
REMARK H PARENT
REMARK Flexibility Score: inf
ROOT
ATOM      1  C   UNL     1      19.862  28.149  32.612  1.00  0.00     0.000 C 
ENDROOT
BRANCH   1   2
ATOM      2  C   UNL     1      19.452  27.343  31.368  1.00  0.00     0.000 C 
BRANCH   2   3
ATOM      3  C   UNL     1      18.482  28.116  30.457  1.00  0.00     0.006 C 
BRANCH   3   4
ATOM      4  C   UNL     1      18.008  29.427  31.098  1.00  0.00     0.053 C 
BRANCH   4   5
ATOM      5  C   UNL     1      18.311  30.612  30.233  1.00  0.00     0.041 C 
ATOM      6  O   UNL     1      18.509  31.741  30.753  1.00  0.00    -0.550 OA
ATOM      7  O   UNL     1      18.347  30.475  28.852  1.00  0.00    -0.550 OA
ENDBRANCH   4   5
ENDBRANCH   3   4
ENDBRANCH   2   3
ENDBRANCH   1   2
BRANCH   1   8
ATOM      8  C   UNL     1      19.479  27.449  33.925  1.00  0.00     0.000 C 
BRANCH   8   9
ATOM      9  C   UNL     1      19.078  28.473  34.994  1.00  0.00     0.006 C 
BRANCH   9  10
ATOM     10  C   UNL     1      17.632  28.937  34.796  1.00  0.00     0.053 C 
BRANCH  10  11
ATOM     11  C   UNL     1      17.555  30.431  34.805  1.00  0.00     0.041 C 
ATOM     12  O   UNL     1      16.651  31.014  35.460  1.00  0.00    -0.550 OA
ATOM     13  O   UNL     1      18.509  31.181  34.130  1.00  0.00    -0.550 OA
ENDBRANCH  10  11
ENDBRANCH   9  10
ENDBRANCH   8   9
ENDBRANCH   1   8
TORSDOF 8
ENDMDL
