MODEL 1
REMARK VINA RESULT:    -3.130      0.000      0.000
REMARK INTER + INTRA:          -5.086
REMARK INTER:                  -4.411
REMARK INTRA:                  -0.675
REMARK UNBOUND:                -0.675
REMARK SMILES CCCCCCCCC(=O)[O-]
REMARK SMILES IDX 6 1 7 2 8 3 9 4 10 5 11 6 5 7 4 8 3 9 2 10 1 11
REMARK H PARENT
REMARK Flexibility Score: inf
ROOT
ATOM      1  C   UNL     1     -99.262  68.558  24.434  1.00  0.00     0.000 C 
ENDROOT
BRANCH   1   2
ATOM      2  C   UNL     1     -99.860  69.039  25.762  1.00  0.00     0.006 C 
BRANCH   2   3
ATOM      3  C   UNL     1     -98.766  69.228  26.818  1.00  0.00     0.053 C 
BRANCH   3   4
ATOM      4  C   UNL     1     -99.287  68.879  28.178  1.00  0.00     0.041 C 
ATOM      5  O   UNL     1    -100.421  68.349  28.304  1.00  0.00    -0.550 OA
ATOM      6  O   UNL     1     -98.498  69.095  29.300  1.00  0.00    -0.550 OA
ENDBRANCH   3   4
ENDBRANCH   2   3
ENDBRANCH   1   2
BRANCH   1   7
ATOM      7  C   UNL     1     -99.782  69.397  23.261  1.00  0.00     0.000 C 
BRANCH   7   8
ATOM      8  C   UNL     1     -98.631  70.130  22.555  1.00  0.00    -0.000 C 
BRANCH   8   9
ATOM      9  C   UNL     1     -98.581  71.628  22.922  1.00  0.00    -0.000 C 
BRANCH   9  10
ATOM     10  C   UNL     1     -97.651  71.940  24.108  1.00  0.00    -0.003 C 
ATOM     11  C   UNL     1     -98.375  72.598  25.280  1.00  0.00     0.004 C 
ENDBRANCH   9  10
ENDBRANCH   8   9
ENDBRANCH   7   8
ENDBRANCH   1   7
TORSDOF 7
ENDMDL
MODEL 2
REMARK VINA RESULT:    -3.096      1.360      2.616
REMARK INTER + INTRA:          -5.037
REMARK INTER:                  -4.525
REMARK INTRA:                  -0.512
REMARK UNBOUND:                -0.675
REMARK SMILES CCCCCCCCC(=O)[O-]
REMARK SMILES IDX 6 1 7 2 8 3 9 4 10 5 11 6 5 7 4 8 3 9 2 10 1 11
REMARK H PARENT
REMARK Flexibility Score: inf
ROOT
ATOM      1  C   UNL     1     -99.169  71.000  26.819  1.00  0.00     0.000 C 
ENDROOT
BRANCH   1   2
ATOM      2  C   UNL     1     -98.248  69.975  27.492  1.00  0.00     0.006 C 
BRANCH   2   3
ATOM      3  C   UNL     1     -98.653  69.748  28.951  1.00  0.00     0.053 C 
BRANCH   3   4
ATOM      4  C   UNL     1     -99.285  68.401  29.116  1.00  0.00     0.041 C 
ATOM      5  O   UNL     1    -100.377  68.141  28.547  1.00  0.00    -0.550 OA
ATOM      6  O   UNL     1     -98.643  67.419  29.857  1.00  0.00    -0.550 OA
ENDBRANCH   3   4
ENDBRANCH   2   3
ENDBRANCH   1   2
BRANCH   1   7
ATOM      7  C   UNL     1     -99.858  70.396  25.590  1.00  0.00     0.000 C 
BRANCH   7   8
ATOM      8  C   UNL     1     -99.332  68.982  25.301  1.00  0.00    -0.000 C 
BRANCH   8   9
ATOM      9  C   UNL     1     -99.175  68.715  23.789  1.00  0.00    -0.000 C 
BRANCH   9  10
ATOM     10  C   UNL     1     -99.587  69.907  22.908  1.00  0.00    -0.003 C 
ATOM     11  C   UNL     1     -98.400  70.595  22.239  1.00  0.00     0.004 C 
ENDBRANCH   9  10
ENDBRANCH   8   9
ENDBRANCH   7   8
ENDBRANCH   1   7
TORSDOF 7
ENDMDL
MODEL 3
REMARK VINA RESULT:    -3.087      2.594      4.061
REMARK INTER + INTRA:          -5.026
REMARK INTER:                  -4.523
REMARK INTRA:                  -0.503
REMARK UNBOUND:                -0.675
REMARK SMILES CCCCCCCCC(=O)[O-]
REMARK SMILES IDX 6 1 7 2 8 3 9 4 10 5 11 6 5 7 4 8 3 9 2 10 1 11
REMARK H PARENT
REMARK Flexibility Score: inf
ROOT
ATOM      1  C   UNL     1     -98.523  71.837  22.933  1.00  0.00     0.000 C 
ENDROOT
BRANCH   1   2
ATOM      2  C   UNL     1     -98.580  70.357  22.536  1.00  0.00     0.006 C 
BRANCH   2   3
ATOM      3  C   UNL     1     -99.759  69.653  23.214  1.00  0.00     0.053 C 
BRANCH   3   4
ATOM      4  C   UNL     1     -99.266  68.623  24.183  1.00  0.00     0.041 C 
ATOM      5  O   UNL     1     -98.762  67.549  23.763  1.00  0.00    -0.550 OA
ATOM      6  O   UNL     1     -99.320  68.871  25.547  1.00  0.00    -0.550 OA
ENDBRANCH   3   4
ENDBRANCH   2   3
ENDBRANCH   1   2
BRANCH   1   7
ATOM      7  C   UNL     1     -97.505  72.067  24.056  1.00  0.00     0.000 C 
BRANCH   7   8
ATOM      8  C   UNL     1     -96.591  73.260  23.737  1.00  0.00    -0.000 C 
BRANCH   8   9
ATOM      9  C   UNL     1     -95.362  72.847  22.900  1.00  0.00    -0.000 C 
BRANCH   9  10
ATOM     10  C   UNL     1     -95.238  73.611  21.570  1.00  0.00    -0.003 C 
ATOM     11  C   UNL     1     -95.917  72.896  20.404  1.00  0.00     0.004 C 
ENDBRANCH   9  10
ENDBRANCH   8   9
ENDBRANCH   7   8
ENDBRANCH   1   7
TORSDOF 7
ENDMDL
MODEL 4
REMARK VINA RESULT:    -3.085      1.570      2.208
REMARK INTER + INTRA:          -5.022
REMARK INTER:                  -4.612
REMARK INTRA:                  -0.411
REMARK UNBOUND:                -0.675
REMARK SMILES CCCCCCCCC(=O)[O-]
REMARK SMILES IDX 6 1 7 2 8 3 9 4 10 5 11 6 5 7 4 8 3 9 2 10 1 11
REMARK H PARENT
REMARK Flexibility Score: inf
ROOT
ATOM      1  C   UNL     1     -98.985  69.907  24.023  1.00  0.00     0.000 C 
ENDROOT
BRANCH   1   2
ATOM      2  C   UNL     1     -99.368  68.742  24.945  1.00  0.00     0.006 C 
BRANCH   2   3
ATOM      3  C   UNL     1     -99.211  69.134  26.418  1.00  0.00     0.053 C 
BRANCH   3   4
ATOM      4  C   UNL     1    -100.475  68.857  27.171  1.00  0.00     0.041 C 
ATOM      5  O   UNL     1    -101.589  69.156  26.668  1.00  0.00    -0.550 OA
ATOM      6  O   UNL     1    -100.423  68.225  28.405  1.00  0.00    -0.550 OA
ENDBRANCH   3   4
ENDBRANCH   2   3
ENDBRANCH   1   2
BRANCH   1   7
ATOM      7  C   UNL     1     -98.575  71.140  24.836  1.00  0.00     0.000 C 
BRANCH   7   8
ATOM      8  C   UNL     1     -97.628  72.042  24.030  1.00  0.00    -0.000 C 
BRANCH   8   9
ATOM      9  C   UNL     1     -97.597  71.667  22.533  1.00  0.00    -0.000 C 
BRANCH   9  10
ATOM     10  C   UNL     1     -96.318  72.126  21.810  1.00  0.00    -0.003 C 
ATOM     11  C   UNL     1     -95.327  72.827  22.735  1.00  0.00     0.004 C 
ENDBRANCH   9  10
ENDBRANCH   8   9
ENDBRANCH   7   8
ENDBRANCH   1   7
TORSDOF 7
ENDMDL
MODEL 5
REMARK VINA RESULT:    -3.073      2.625      3.653
REMARK INTER + INTRA:          -5.006
REMARK INTER:                  -4.502
REMARK INTRA:                  -0.504
REMARK UNBOUND:                -0.675
REMARK SMILES CCCCCCCCC(=O)[O-]
REMARK SMILES IDX 6 1 7 2 8 3 9 4 10 5 11 6 5 7 4 8 3 9 2 10 1 11
REMARK H PARENT
REMARK Flexibility Score: inf
ROOT
ATOM      1  C   UNL     1     -99.057  71.613  22.066  1.00  0.00     0.000 C 
ENDROOT
BRANCH   1   2
ATOM      2  C   UNL     1     -98.651  70.245  22.629  1.00  0.00     0.006 C 
BRANCH   2   3
ATOM      3  C   UNL     1     -98.842  70.198  24.148  1.00  0.00     0.053 C 
BRANCH   3   4
ATOM      4  C   UNL     1     -99.290  68.835  24.577  1.00  0.00     0.041 C 
ATOM      5  O   UNL     1     -99.030  67.830  23.865  1.00  0.00    -0.550 OA
ATOM      6  O   UNL     1     -99.951  68.670  25.786  1.00  0.00    -0.550 OA
ENDBRANCH   3   4
ENDBRANCH   2   3
ENDBRANCH   1   2
BRANCH   1   7
ATOM      7  C   UNL     1     -98.198  71.985  20.852  1.00  0.00     0.000 C 
BRANCH   7   8
ATOM      8  C   UNL     1     -96.712  71.701  21.119  1.00  0.00    -0.000 C 
BRANCH   8   9
ATOM      9  C   UNL     1     -95.817  72.915  20.792  1.00  0.00    -0.000 C 
BRANCH   9  10
ATOM     10  C   UNL     1     -95.172  73.555  22.034  1.00  0.00    -0.003 C 
ATOM     11  C   UNL     1     -95.630  72.917  23.343  1.00  0.00     0.004 C 
ENDBRANCH   9  10
ENDBRANCH   8   9
ENDBRANCH   7   8
ENDBRANCH   1   7
TORSDOF 7
ENDMDL
MODEL 6
REMARK VINA RESULT:    -3.059      3.216      5.044
REMARK INTER + INTRA:          -4.985
REMARK INTER:                  -4.405
REMARK INTRA:                  -0.580
REMARK UNBOUND:                -0.675
REMARK SMILES CCCCCCCCC(=O)[O-]
REMARK SMILES IDX 6 1 7 2 8 3 9 4 10 5 11 6 5 7 4 8 3 9 2 10 1 11
REMARK H PARENT
REMARK Flexibility Score: inf
ROOT
ATOM      1  C   UNL     1    -100.505  69.631  25.776  1.00  0.00     0.000 C 
ENDROOT
BRANCH   1   2
ATOM      2  C   UNL     1     -99.193  69.004  25.291  1.00  0.00     0.006 C 
BRANCH   2   3
ATOM      3  C   UNL     1     -99.292  68.593  23.818  1.00  0.00     0.053 C 
BRANCH   3   4
ATOM      4  C   UNL     1     -99.280  69.803  22.936  1.00  0.00     0.041 C 
ATOM      5  O   UNL     1    -100.273  70.065  22.208  1.00  0.00    -0.550 OA
ATOM      6  O   UNL     1     -98.193  70.666  22.956  1.00  0.00    -0.550 OA
ENDBRANCH   3   4
ENDBRANCH   2   3
ENDBRANCH   1   2
BRANCH   1   7
ATOM      7  C   UNL     1    -101.180  68.748  26.831  1.00  0.00     0.000 C 
BRANCH   7   8
ATOM      8  C   UNL     1    -100.907  69.274  28.249  1.00  0.00    -0.000 C 
BRANCH   8   9
ATOM      9  C   UNL     1     -99.931  68.369  29.029  1.00  0.00    -0.000 C 
BRANCH   9  10
ATOM     10  C   UNL     1     -98.455  68.771  28.867  1.00  0.00    -0.003 C 
ATOM     11  C   UNL     1     -98.258  70.278  28.718  1.00  0.00     0.004 C 
ENDBRANCH   9  10
ENDBRANCH   8   9
ENDBRANCH   7   8
ENDBRANCH   1   7
TORSDOF 7
ENDMDL
MODEL 7
REMARK VINA RESULT:    -2.999      1.504      2.767
REMARK INTER + INTRA:          -4.901
REMARK INTER:                  -4.276
REMARK INTRA:                  -0.625
REMARK UNBOUND:                -0.675
REMARK SMILES CCCCCCCCC(=O)[O-]
REMARK SMILES IDX 6 1 7 2 8 3 9 4 10 5 11 6 5 7 4 8 3 9 2 10 1 11
REMARK H PARENT
REMARK Flexibility Score: inf
ROOT
ATOM      1  C   UNL     1    -101.086  70.463  26.855  1.00  0.00     0.000 C 
ENDROOT
BRANCH   1   2
ATOM      2  C   UNL     1    -100.453  69.088  27.099  1.00  0.00     0.006 C 
BRANCH   2   3
ATOM      3  C   UNL     1    -100.417  68.759  28.594  1.00  0.00     0.053 C 
BRANCH   3   4
ATOM      4  C   UNL     1     -99.005  68.729  29.090  1.00  0.00     0.041 C 
ATOM      5  O   UNL     1     -98.516  67.662  29.545  1.00  0.00    -0.550 OA
ATOM      6  O   UNL     1     -98.214  69.867  29.003  1.00  0.00    -0.550 OA
ENDBRANCH   3   4
ENDBRANCH   2   3
ENDBRANCH   1   2
BRANCH   1   7
ATOM      7  C   UNL     1    -100.286  71.261  25.819  1.00  0.00     0.000 C 
BRANCH   7   8
ATOM      8  C   UNL     1     -98.935  70.590  25.529  1.00  0.00    -0.000 C 
BRANCH   8   9
ATOM      9  C   UNL     1     -98.639  70.502  24.017  1.00  0.00    -0.000 C 
BRANCH   9  10
ATOM     10  C   UNL     1     -99.371  69.345  23.313  1.00  0.00    -0.003 C 
ATOM     11  C   UNL     1     -99.082  67.984  23.942  1.00  0.00     0.004 C 
ENDBRANCH   9  10
ENDBRANCH   8   9
ENDBRANCH   7   8
ENDBRANCH   1   7
TORSDOF 7
ENDMDL
MODEL 8
REMARK VINA RESULT:    -2.971      1.194      2.915
REMARK INTER + INTRA:          -4.862
REMARK INTER:                  -4.173
REMARK INTRA:                  -0.689
REMARK UNBOUND:                -0.675
REMARK SMILES CCCCCCCCC(=O)[O-]
REMARK SMILES IDX 6 1 7 2 8 3 9 4 10 5 11 6 5 7 4 8 3 9 2 10 1 11
REMARK H PARENT
REMARK Flexibility Score: inf
ROOT
ATOM      1  C   UNL     1     -99.444  71.546  26.632  1.00  0.00     0.000 C 
ENDROOT
BRANCH   1   2
ATOM      2  C   UNL     1     -98.545  70.647  27.489  1.00  0.00     0.006 C 
BRANCH   2   3
ATOM      3  C   UNL     1     -98.882  69.168  27.273  1.00  0.00     0.053 C 
BRANCH   3   4
ATOM      4  C   UNL     1    -100.242  68.857  27.815  1.00  0.00     0.041 C 
ATOM      5  O   UNL     1    -100.426  68.779  29.058  1.00  0.00    -0.550 OA
ATOM      6  O   UNL     1    -101.316  68.701  26.949  1.00  0.00    -0.550 OA
ENDBRANCH   3   4
ENDBRANCH   2   3
ENDBRANCH   1   2
BRANCH   1   7
ATOM      7  C   UNL     1     -98.637  72.241  25.531  1.00  0.00     0.000 C 
BRANCH   7   8
ATOM      8  C   UNL     1     -99.150  71.847  24.137  1.00  0.00    -0.000 C 
BRANCH   8   9
ATOM      9  C   UNL     1     -98.591  70.486  23.672  1.00  0.00    -0.000 C 
BRANCH   9  10
ATOM     10  C   UNL     1     -99.656  69.378  23.592  1.00  0.00    -0.003 C 
ATOM     11  C   UNL     1     -99.098  67.988  23.887  1.00  0.00     0.004 C 
ENDBRANCH   9  10
ENDBRANCH   8   9
ENDBRANCH   7   8
ENDBRANCH   1   7
TORSDOF 7
ENDMDL
MODEL 9
REMARK VINA RESULT:    -2.970      1.189      2.600
REMARK INTER + INTRA:          -4.860
REMARK INTER:                  -4.136
REMARK INTRA:                  -0.724
REMARK UNBOUND:                -0.675
REMARK SMILES CCCCCCCCC(=O)[O-]
REMARK SMILES IDX 6 1 7 2 8 3 9 4 10 5 11 6 5 7 4 8 3 9 2 10 1 11
REMARK H PARENT
REMARK Flexibility Score: inf
ROOT
ATOM      1  C   UNL     1     -98.685  70.935  26.706  1.00  0.00     0.000 C 
ENDROOT
BRANCH   1   2
ATOM      2  C   UNL     1     -98.830  69.440  26.400  1.00  0.00     0.006 C 
BRANCH   2   3
ATOM      3  C   UNL     1    -100.304  69.024  26.380  1.00  0.00     0.053 C 
BRANCH   3   4
ATOM      4  C   UNL     1    -100.830  68.894  27.776  1.00  0.00     0.041 C 
ATOM      5  O   UNL     1    -100.298  68.084  28.579  1.00  0.00    -0.550 OA
ATOM      6  O   UNL     1    -101.875  69.702  28.202  1.00  0.00    -0.550 OA
ENDBRANCH   3   4
ENDBRANCH   2   3
ENDBRANCH   1   2
BRANCH   1   7
ATOM      7  C   UNL     1     -99.008  71.783  25.471  1.00  0.00     0.000 C 
BRANCH   7   8
ATOM      8  C   UNL     1     -97.901  71.663  24.413  1.00  0.00    -0.000 C 
BRANCH   8   9
ATOM      9  C   UNL     1     -98.469  71.469  22.991  1.00  0.00    -0.000 C 
BRANCH   9  10
ATOM     10  C   UNL     1     -98.902  70.023  22.694  1.00  0.00    -0.003 C 
ATOM     11  C   UNL     1    -100.418  69.844  22.680  1.00  0.00     0.004 C 
ENDBRANCH   9  10
ENDBRANCH   8   9
ENDBRANCH   7   8
ENDBRANCH   1   7
TORSDOF 7
ENDMDL
