MODEL 1
REMARK VINA RESULT:    -0.304      0.000      0.000
REMARK INTER + INTRA:          -1.854
REMARK INTER:                  -0.696
REMARK INTRA:                  -1.158
REMARK UNBOUND:                -1.158
REMARK SMILES CCCCCCCCCCCCCCCCCCCCCCCC(=O)[O-]
REMARK SMILES IDX 13 1 14 2 15 3 16 4 17 5 18 6 19 7 20 8 21 9 22 10 23 11
REMARK SMILES IDX 24 12 25 13 26 14 12 15 11 16 10 17 9 18 8 19 7 20 6 21 5 22
REMARK SMILES IDX 4 23 3 24 2 25 1 26
REMARK H PARENT
REMARK Flexibility Score: inf
ROOT
ATOM      1  C   UNL     1      -1.354 -22.639  15.606  1.00  0.00     0.000 C 
ENDROOT
BRANCH   1   2
ATOM      2  C   UNL     1      -2.368 -23.124  16.657  1.00  0.00     0.000 C 
BRANCH   2   3
ATOM      3  C   UNL     1      -3.683 -22.328  16.625  1.00  0.00     0.000 C 
BRANCH   3   4
ATOM      4  C   UNL     1      -4.836 -23.113  15.976  1.00  0.00     0.000 C 
BRANCH   4   5
ATOM      5  C   UNL     1      -6.193 -22.408  16.123  1.00  0.00     0.000 C 
BRANCH   5   6
ATOM      6  C   UNL     1      -6.669 -22.335  17.585  1.00  0.00     0.000 C 
BRANCH   6   7
ATOM      7  C   UNL     1      -8.085 -22.904  17.773  1.00  0.00     0.000 C 
BRANCH   7   8
ATOM      8  C   UNL     1      -9.163 -21.992  17.167  1.00  0.00     0.000 C 
BRANCH   8   9
ATOM      9  C   UNL     1     -10.587 -22.378  17.600  1.00  0.00     0.000 C 
BRANCH   9  10
ATOM     10  C   UNL     1     -10.807 -22.313  19.128  1.00  0.00     0.006 C 
BRANCH  10  11
ATOM     11  C   UNL     1     -10.530 -20.913  19.688  1.00  0.00     0.053 C 
BRANCH  11  12
ATOM     12  C   UNL     1      -9.887 -21.001  21.036  1.00  0.00     0.041 C 
ATOM     13  O   UNL     1      -8.895 -21.757  21.216  1.00  0.00    -0.550 OA
ATOM     14  O   UNL     1     -10.403 -20.272  22.102  1.00  0.00    -0.550 OA
ENDBRANCH  11  12
ENDBRANCH  10  11
ENDBRANCH   9  10
ENDBRANCH   8   9
ENDBRANCH   7   8
ENDBRANCH   6   7
ENDBRANCH   5   6
ENDBRANCH   4   5
ENDBRANCH   3   4
ENDBRANCH   2   3
ENDBRANCH   1   2
BRANCH   1  15
ATOM     15  C   UNL     1       0.082 -23.124  15.901  1.00  0.00     0.000 C 
BRANCH  15  16
ATOM     16  C   UNL     1       1.039 -23.020  14.697  1.00  0.00     0.000 C 
BRANCH  16  17
ATOM     17  C   UNL     1       2.536 -23.115  15.041  1.00  0.00     0.000 C 
BRANCH  17  18
ATOM     18  C   UNL     1       2.996 -22.209  16.201  1.00  0.00    -0.000 C 
BRANCH  18  19
ATOM     19  C   UNL     1       4.228 -22.746  16.959  1.00  0.00    -0.000 C 
BRANCH  19  20
ATOM     20  C   UNL     1       5.425 -21.779  16.894  1.00  0.00    -0.000 C 
BRANCH  20  21
ATOM     21  C   UNL     1       6.770 -22.488  17.127  1.00  0.00    -0.000 C 
BRANCH  21  22
ATOM     22  C   UNL     1       7.975 -21.627  16.714  1.00  0.00    -0.000 C 
BRANCH  22  23
ATOM     23  C   UNL     1       9.019 -22.469  15.972  1.00  0.00    -0.000 C 
BRANCH  23  24
ATOM     24  C   UNL     1       9.067 -22.101  14.482  1.00  0.00    -0.000 C 
BRANCH  24  25
ATOM     25  C   UNL     1       7.696 -21.673  13.936  1.00  0.00    -0.003 C 
ATOM     26  C   UNL     1       6.861 -22.854  13.436  1.00  0.00     0.004 C 
ENDBRANCH  24  25
ENDBRANCH  23  24
ENDBRANCH  22  23
ENDBRANCH  21  22
ENDBRANCH  20  21
ENDBRANCH  19  20
ENDBRANCH  18  19
ENDBRANCH  17  18
ENDBRANCH  16  17
ENDBRANCH  15  16
ENDBRANCH   1  15
TORSDOF 22
ENDMDL
MODEL 2
REMARK VINA RESULT:    -0.136      1.396      2.511
REMARK INTER + INTRA:          -1.469
REMARK INTER:                  -0.858
REMARK INTRA:                  -0.611
REMARK UNBOUND:                -1.158
REMARK SMILES CCCCCCCCCCCCCCCCCCCCCCCC(=O)[O-]
REMARK SMILES IDX 13 1 14 2 15 3 16 4 17 5 18 6 19 7 20 8 21 9 22 10 23 11
REMARK SMILES IDX 24 12 25 13 26 14 12 15 11 16 10 17 9 18 8 19 7 20 6 21 5 22
REMARK SMILES IDX 4 23 3 24 2 25 1 26
REMARK H PARENT
REMARK Flexibility Score: inf
ROOT
ATOM      1  C   UNL     1      -3.483 -22.890  16.450  1.00  0.00     0.000 C 
ENDROOT
BRANCH   1   2
ATOM      2  C   UNL     1      -4.717 -21.973  16.372  1.00  0.00     0.000 C 
BRANCH   2   3
ATOM      3  C   UNL     1      -6.014 -22.686  16.785  1.00  0.00     0.000 C 
BRANCH   3   4
ATOM      4  C   UNL     1      -7.260 -22.092  16.105  1.00  0.00     0.000 C 
BRANCH   4   5
ATOM      5  C   UNL     1      -8.531 -22.912  16.370  1.00  0.00     0.000 C 
BRANCH   5   6
ATOM      6  C   UNL     1      -8.798 -23.125  17.872  1.00  0.00     0.000 C 
BRANCH   6   7
ATOM      7  C   UNL     1      -9.138 -21.815  18.602  1.00  0.00     0.000 C 
BRANCH   7   8
ATOM      8  C   UNL     1     -10.420 -21.932  19.440  1.00  0.00     0.000 C 
BRANCH   8   9
ATOM      9  C   UNL     1     -10.151 -22.381  20.886  1.00  0.00     0.000 C 
BRANCH   9  10
ATOM     10  C   UNL     1     -10.745 -21.429  21.948  1.00  0.00     0.006 C 
BRANCH  10  11
ATOM     11  C   UNL     1     -10.271 -21.781  23.364  1.00  0.00     0.053 C 
BRANCH  11  12
ATOM     12  C   UNL     1      -8.778 -21.759  23.441  1.00  0.00     0.041 C 
ATOM     13  O   UNL     1      -8.163 -22.656  24.078  1.00  0.00    -0.550 OA
ATOM     14  O   UNL     1      -8.064 -20.729  22.837  1.00  0.00    -0.550 OA
ENDBRANCH  11  12
ENDBRANCH  10  11
ENDBRANCH   9  10
ENDBRANCH   8   9
ENDBRANCH   7   8
ENDBRANCH   6   7
ENDBRANCH   5   6
ENDBRANCH   4   5
ENDBRANCH   3   4
ENDBRANCH   2   3
ENDBRANCH   1   2
BRANCH   1  15
ATOM     15  C   UNL     1      -2.183 -22.170  16.032  1.00  0.00     0.000 C 
BRANCH  15  16
ATOM     16  C   UNL     1      -1.019 -23.123  15.693  1.00  0.00     0.000 C 
BRANCH  16  17
ATOM     17  C   UNL     1       0.364 -22.671  16.194  1.00  0.00     0.000 C 
BRANCH  17  18
ATOM     18  C   UNL     1       1.552 -23.117  15.318  1.00  0.00    -0.000 C 
BRANCH  18  19
ATOM     19  C   UNL     1       2.910 -23.090  16.050  1.00  0.00    -0.000 C 
BRANCH  19  20
ATOM     20  C   UNL     1       4.096 -22.929  15.080  1.00  0.00    -0.000 C 
BRANCH  20  21
ATOM     21  C   UNL     1       5.456 -23.019  15.792  1.00  0.00    -0.000 C 
BRANCH  21  22
ATOM     22  C   UNL     1       5.551 -22.088  17.012  1.00  0.00    -0.000 C 
BRANCH  22  23
ATOM     23  C   UNL     1       7.015 -21.829  17.388  1.00  0.00    -0.000 C 
BRANCH  23  24
ATOM     24  C   UNL     1       7.871 -21.582  16.137  1.00  0.00    -0.000 C 
BRANCH  24  25
ATOM     25  C   UNL     1       8.722 -22.803  15.754  1.00  0.00    -0.003 C 
ATOM     26  C   UNL     1       8.745 -23.061  14.246  1.00  0.00     0.004 C 
ENDBRANCH  24  25
ENDBRANCH  23  24
ENDBRANCH  22  23
ENDBRANCH  21  22
ENDBRANCH  20  21
ENDBRANCH  19  20
ENDBRANCH  18  19
ENDBRANCH  17  18
ENDBRANCH  16  17
ENDBRANCH  15  16
ENDBRANCH   1  15
TORSDOF 22
ENDMDL
MODEL 3
REMARK VINA RESULT:     0.440      5.821     14.957
REMARK INTER + INTRA:          -0.153
REMARK INTER:                   0.758
REMARK INTRA:                  -0.911
REMARK UNBOUND:                -1.158
REMARK SMILES CCCCCCCCCCCCCCCCCCCCCCCC(=O)[O-]
REMARK SMILES IDX 13 1 14 2 15 3 16 4 17 5 18 6 19 7 20 8 21 9 22 10 23 11
REMARK SMILES IDX 24 12 25 13 26 14 12 15 11 16 10 17 9 18 8 19 7 20 6 21 5 22
REMARK SMILES IDX 4 23 3 24 2 25 1 26
REMARK H PARENT
REMARK Flexibility Score: inf
ROOT
ATOM      1  C   UNL     1      -1.256 -22.299  16.109  1.00  0.00     0.000 C 
ENDROOT
BRANCH   1   2
ATOM      2  C   UNL     1       0.015 -23.109  15.795  1.00  0.00     0.000 C 
BRANCH   2   3
ATOM      3  C   UNL     1       1.305 -22.304  16.026  1.00  0.00     0.000 C 
BRANCH   3   4
ATOM      4  C   UNL     1       2.560 -23.037  15.520  1.00  0.00     0.000 C 
BRANCH   4   5
ATOM      5  C   UNL     1       3.666 -23.125  16.583  1.00  0.00     0.000 C 
BRANCH   5   6
ATOM      6  C   UNL     1       4.781 -22.086  16.366  1.00  0.00     0.000 C 
BRANCH   6   7
ATOM      7  C   UNL     1       6.148 -22.737  16.096  1.00  0.00     0.000 C 
BRANCH   7   8
ATOM      8  C   UNL     1       6.359 -23.050  14.606  1.00  0.00     0.000 C 
BRANCH   8   9
ATOM      9  C   UNL     1       7.843 -23.069  14.203  1.00  0.00     0.000 C 
BRANCH   9  10
ATOM     10  C   UNL     1       8.359 -21.708  13.684  1.00  0.00     0.006 C 
BRANCH  10  11
ATOM     11  C   UNL     1       9.115 -21.849  12.357  1.00  0.00     0.053 C 
BRANCH  11  12
ATOM     12  C   UNL     1       8.840 -20.680  11.466  1.00  0.00     0.041 C 
ATOM     13  O   UNL     1       8.404 -19.602  11.950  1.00  0.00    -0.550 OA
ATOM     14  O   UNL     1       9.034 -20.791  10.093  1.00  0.00    -0.550 OA
ENDBRANCH  11  12
ENDBRANCH  10  11
ENDBRANCH   9  10
ENDBRANCH   8   9
ENDBRANCH   7   8
ENDBRANCH   6   7
ENDBRANCH   5   6
ENDBRANCH   4   5
ENDBRANCH   3   4
ENDBRANCH   2   3
ENDBRANCH   1   2
BRANCH   1  15
ATOM     15  C   UNL     1      -2.548 -23.067  15.762  1.00  0.00     0.000 C 
BRANCH  15  16
ATOM     16  C   UNL     1      -3.843 -22.281  16.050  1.00  0.00     0.000 C 
BRANCH  16  17
ATOM     17  C   UNL     1      -4.991 -23.109  16.653  1.00  0.00     0.000 C 
BRANCH  17  18
ATOM     18  C   UNL     1      -6.037 -22.296  17.441  1.00  0.00    -0.000 C 
BRANCH  18  19
ATOM     19  C   UNL     1      -6.958 -21.436  16.549  1.00  0.00    -0.000 C 
BRANCH  19  20
ATOM     20  C   UNL     1      -8.407 -21.956  16.529  1.00  0.00    -0.000 C 
BRANCH  20  21
ATOM     21  C   UNL     1      -8.875 -22.454  17.906  1.00  0.00    -0.000 C 
BRANCH  21  22
ATOM     22  C   UNL     1     -10.073 -21.660  18.450  1.00  0.00    -0.000 C 
BRANCH  22  23
ATOM     23  C   UNL     1      -9.841 -21.253  19.910  1.00  0.00    -0.000 C 
BRANCH  23  24
ATOM     24  C   UNL     1      -9.083 -22.349  20.674  1.00  0.00    -0.000 C 
BRANCH  24  25
ATOM     25  C   UNL     1      -8.809 -21.966  22.137  1.00  0.00    -0.003 C 
ATOM     26  C   UNL     1      -9.222 -23.060  23.123  1.00  0.00     0.004 C 
ENDBRANCH  24  25
ENDBRANCH  23  24
ENDBRANCH  22  23
ENDBRANCH  21  22
ENDBRANCH  20  21
ENDBRANCH  19  20
ENDBRANCH  18  19
ENDBRANCH  17  18
ENDBRANCH  16  17
ENDBRANCH  15  16
ENDBRANCH   1  15
TORSDOF 22
ENDMDL
MODEL 4
REMARK VINA RESULT:     0.471      2.211      2.675
REMARK INTER + INTRA:          -0.081
REMARK INTER:                   1.045
REMARK INTRA:                  -1.125
REMARK UNBOUND:                -1.158
REMARK SMILES CCCCCCCCCCCCCCCCCCCCCCCC(=O)[O-]
REMARK SMILES IDX 13 1 14 2 15 3 16 4 17 5 18 6 19 7 20 8 21 9 22 10 23 11
REMARK SMILES IDX 24 12 25 13 26 14 12 15 11 16 10 17 9 18 8 19 7 20 6 21 5 22
REMARK SMILES IDX 4 23 3 24 2 25 1 26
REMARK H PARENT
REMARK Flexibility Score: inf
ROOT
ATOM      1  C   UNL     1      -1.282 -22.245  15.363  1.00  0.00     0.000 C 
ENDROOT
BRANCH   1   2
ATOM      2  C   UNL     1      -2.330 -22.458  16.469  1.00  0.00     0.000 C 
BRANCH   2   3
ATOM      3  C   UNL     1      -3.740 -22.018  16.044  1.00  0.00     0.000 C 
BRANCH   3   4
ATOM      4  C   UNL     1      -4.825 -23.032  16.448  1.00  0.00     0.000 C 
BRANCH   4   5
ATOM      5  C   UNL     1      -6.166 -22.364  16.790  1.00  0.00     0.000 C 
BRANCH   5   6
ATOM      6  C   UNL     1      -6.548 -22.526  18.273  1.00  0.00     0.000 C 
BRANCH   6   7
ATOM      7  C   UNL     1      -7.849 -21.788  18.630  1.00  0.00     0.000 C 
BRANCH   7   8
ATOM      8  C   UNL     1      -8.961 -22.751  19.074  1.00  0.00     0.000 C 
BRANCH   8   9
ATOM      9  C   UNL     1     -10.319 -22.437  18.426  1.00  0.00     0.000 C 
BRANCH   9  10
ATOM     10  C   UNL     1     -10.252 -22.295  16.889  1.00  0.00     0.006 C 
BRANCH  10  11
ATOM     11  C   UNL     1     -10.631 -20.883  16.425  1.00  0.00     0.053 C 
BRANCH  11  12
ATOM     12  C   UNL     1     -10.055 -20.598  15.075  1.00  0.00     0.041 C 
ATOM     13  O   UNL     1     -10.788 -20.145  14.156  1.00  0.00    -0.550 OA
ATOM     14  O   UNL     1      -8.714 -20.863  14.821  1.00  0.00    -0.550 OA
ENDBRANCH  11  12
ENDBRANCH  10  11
ENDBRANCH   9  10
ENDBRANCH   8   9
ENDBRANCH   7   8
ENDBRANCH   6   7
ENDBRANCH   5   6
ENDBRANCH   4   5
ENDBRANCH   3   4
ENDBRANCH   2   3
ENDBRANCH   1   2
BRANCH   1  15
ATOM     15  C   UNL     1       0.030 -23.012  15.634  1.00  0.00     0.000 C 
BRANCH  15  16
ATOM     16  C   UNL     1       1.034 -22.972  14.464  1.00  0.00     0.000 C 
BRANCH  16  17
ATOM     17  C   UNL     1       2.373 -22.281  14.775  1.00  0.00     0.000 C 
BRANCH  17  18
ATOM     18  C   UNL     1       2.687 -22.113  16.275  1.00  0.00    -0.000 C 
BRANCH  18  19
ATOM     19  C   UNL     1       3.801 -23.050  16.787  1.00  0.00    -0.000 C 
BRANCH  19  20
ATOM     20  C   UNL     1       4.979 -22.276  17.408  1.00  0.00    -0.000 C 
BRANCH  20  21
ATOM     21  C   UNL     1       6.301 -22.514  16.658  1.00  0.00    -0.000 C 
BRANCH  21  22
ATOM     22  C   UNL     1       7.294 -21.352  16.822  1.00  0.00    -0.000 C 
BRANCH  22  23
ATOM     23  C   UNL     1       8.639 -21.687  16.164  1.00  0.00    -0.000 C 
BRANCH  23  24
ATOM     24  C   UNL     1       8.468 -21.938  14.658  1.00  0.00    -0.000 C 
BRANCH  24  25
ATOM     25  C   UNL     1       8.322 -20.636  13.855  1.00  0.00    -0.003 C 
ATOM     26  C   UNL     1       8.228 -20.877  12.347  1.00  0.00     0.004 C 
ENDBRANCH  24  25
ENDBRANCH  23  24
ENDBRANCH  22  23
ENDBRANCH  21  22
ENDBRANCH  20  21
ENDBRANCH  19  20
ENDBRANCH  18  19
ENDBRANCH  17  18
ENDBRANCH  16  17
ENDBRANCH  15  16
ENDBRANCH   1  15
TORSDOF 22
ENDMDL
MODEL 5
REMARK VINA RESULT:     0.523      1.526      3.674
REMARK INTER + INTRA:           0.036
REMARK INTER:                   0.948
REMARK INTRA:                  -0.912
REMARK UNBOUND:                -1.158
REMARK SMILES CCCCCCCCCCCCCCCCCCCCCCCC(=O)[O-]
REMARK SMILES IDX 13 1 14 2 15 3 16 4 17 5 18 6 19 7 20 8 21 9 22 10 23 11
REMARK SMILES IDX 24 12 25 13 26 14 12 15 11 16 10 17 9 18 8 19 7 20 6 21 5 22
REMARK SMILES IDX 4 23 3 24 2 25 1 26
REMARK H PARENT
REMARK Flexibility Score: inf
ROOT
ATOM      1  C   UNL     1      -5.407 -22.587  15.419  1.00  0.00     0.000 C 
ENDROOT
BRANCH   1   2
ATOM      2  C   UNL     1      -6.852 -22.158  15.732  1.00  0.00     0.000 C 
BRANCH   2   3
ATOM      3  C   UNL     1      -7.212 -20.796  15.118  1.00  0.00     0.000 C 
BRANCH   3   4
ATOM      4  C   UNL     1      -8.727 -20.622  14.907  1.00  0.00     0.000 C 
BRANCH   4   5
ATOM      5  C   UNL     1      -9.562 -21.514  15.838  1.00  0.00     0.000 C 
BRANCH   5   6
ATOM      6  C   UNL     1     -10.306 -20.710  16.921  1.00  0.00     0.000 C 
BRANCH   6   7
ATOM      7  C   UNL     1     -10.030 -21.235  18.339  1.00  0.00     0.000 C 
BRANCH   7   8
ATOM      8  C   UNL     1     -11.121 -22.204  18.823  1.00  0.00     0.000 C 
BRANCH   8   9
ATOM      9  C   UNL     1     -10.643 -23.125  19.957  1.00  0.00     0.000 C 
BRANCH   9  10
ATOM     10  C   UNL     1     -10.784 -22.498  21.362  1.00  0.00     0.006 C 
BRANCH  10  11
ATOM     11  C   UNL     1      -9.593 -22.841  22.266  1.00  0.00     0.053 C 
BRANCH  11  12
ATOM     12  C   UNL     1      -9.263 -21.692  23.164  1.00  0.00     0.041 C 
ATOM     13  O   UNL     1      -8.127 -21.615  23.703  1.00  0.00    -0.550 OA
ATOM     14  O   UNL     1     -10.222 -20.720  23.431  1.00  0.00    -0.550 OA
ENDBRANCH  11  12
ENDBRANCH  10  11
ENDBRANCH   9  10
ENDBRANCH   8   9
ENDBRANCH   7   8
ENDBRANCH   6   7
ENDBRANCH   5   6
ENDBRANCH   4   5
ENDBRANCH   3   4
ENDBRANCH   2   3
ENDBRANCH   1   2
BRANCH   1  15
ATOM     15  C   UNL     1      -4.415 -22.182  16.531  1.00  0.00     0.000 C 
BRANCH  15  16
ATOM     16  C   UNL     1      -3.078 -22.948  16.490  1.00  0.00     0.000 C 
BRANCH  16  17
ATOM     17  C   UNL     1      -1.971 -22.287  15.652  1.00  0.00     0.000 C 
BRANCH  17  18
ATOM     18  C   UNL     1      -0.686 -23.125  15.492  1.00  0.00    -0.000 C 
BRANCH  18  19
ATOM     19  C   UNL     1       0.572 -22.454  16.081  1.00  0.00    -0.000 C 
BRANCH  19  20
ATOM     20  C   UNL     1       1.865 -22.915  15.382  1.00  0.00    -0.000 C 
BRANCH  20  21
ATOM     21  C   UNL     1       3.126 -22.584  16.196  1.00  0.00    -0.000 C 
BRANCH  21  22
ATOM     22  C   UNL     1       4.396 -22.531  15.330  1.00  0.00    -0.000 C 
BRANCH  22  23
ATOM     23  C   UNL     1       5.600 -23.097  16.092  1.00  0.00    -0.000 C 
BRANCH  23  24
ATOM     24  C   UNL     1       5.823 -22.343  17.411  1.00  0.00    -0.000 C 
BRANCH  24  25
ATOM     25  C   UNL     1       6.959 -21.313  17.317  1.00  0.00    -0.003 C 
ATOM     26  C   UNL     1       8.203 -21.865  16.618  1.00  0.00     0.004 C 
ENDBRANCH  24  25
ENDBRANCH  23  24
ENDBRANCH  22  23
ENDBRANCH  21  22
ENDBRANCH  20  21
ENDBRANCH  19  20
ENDBRANCH  18  19
ENDBRANCH  17  18
ENDBRANCH  16  17
ENDBRANCH  15  16
ENDBRANCH   1  15
TORSDOF 22
ENDMDL
MODEL 6
REMARK VINA RESULT:     1.596      5.231     14.225
REMARK INTER + INTRA:           2.490
REMARK INTER:                   3.396
REMARK INTRA:                  -0.906
REMARK UNBOUND:                -1.158
REMARK SMILES CCCCCCCCCCCCCCCCCCCCCCCC(=O)[O-]
REMARK SMILES IDX 13 1 14 2 15 3 16 4 17 5 18 6 19 7 20 8 21 9 22 10 23 11
REMARK SMILES IDX 24 12 25 13 26 14 12 15 11 16 10 17 9 18 8 19 7 20 6 21 5 22
REMARK SMILES IDX 4 23 3 24 2 25 1 26
REMARK H PARENT
REMARK Flexibility Score: inf
ROOT
ATOM      1  C   UNL     1      -4.371 -20.892  15.067  1.00  0.00     0.000 C 
ENDROOT
BRANCH   1   2
ATOM      2  C   UNL     1      -3.312 -21.989  14.852  1.00  0.00     0.000 C 
BRANCH   2   3
ATOM      3  C   UNL     1      -2.374 -22.153  16.059  1.00  0.00     0.000 C 
BRANCH   3   4
ATOM      4  C   UNL     1      -1.180 -23.076  15.760  1.00  0.00     0.000 C 
BRANCH   4   5
ATOM      5  C   UNL     1       0.054 -22.310  15.259  1.00  0.00     0.000 C 
BRANCH   5   6
ATOM      6  C   UNL     1       1.353 -23.124  15.392  1.00  0.00     0.000 C 
BRANCH   6   7
ATOM      7  C   UNL     1       2.604 -22.302  15.038  1.00  0.00     0.000 C 
BRANCH   7   8
ATOM      8  C   UNL     1       3.366 -21.836  16.288  1.00  0.00     0.000 C 
BRANCH   8   9
ATOM      9  C   UNL     1       4.300 -22.917  16.858  1.00  0.00     0.000 C 
BRANCH   9  10
ATOM     10  C   UNL     1       5.719 -22.399  17.181  1.00  0.00     0.006 C 
BRANCH  10  11
ATOM     11  C   UNL     1       6.607 -22.340  15.932  1.00  0.00     0.053 C 
BRANCH  11  12
ATOM     12  C   UNL     1       7.879 -21.610  16.223  1.00  0.00     0.041 C 
ATOM     13  O   UNL     1       8.081 -21.119  17.365  1.00  0.00    -0.550 OA
ATOM     14  O   UNL     1       8.830 -21.442  15.221  1.00  0.00    -0.550 OA
ENDBRANCH  11  12
ENDBRANCH  10  11
ENDBRANCH   9  10
ENDBRANCH   8   9
ENDBRANCH   7   8
ENDBRANCH   6   7
ENDBRANCH   5   6
ENDBRANCH   4   5
ENDBRANCH   3   4
ENDBRANCH   2   3
ENDBRANCH   1   2
BRANCH   1  15
ATOM     15  C   UNL     1      -5.469 -21.317  16.066  1.00  0.00     0.000 C 
BRANCH  15  16
ATOM     16  C   UNL     1      -6.838 -21.595  15.414  1.00  0.00     0.000 C 
BRANCH  16  17
ATOM     17  C   UNL     1      -7.848 -22.337  16.306  1.00  0.00     0.000 C 
BRANCH  17  18
ATOM     18  C   UNL     1      -8.613 -21.446  17.304  1.00  0.00    -0.000 C 
BRANCH  18  19
ATOM     19  C   UNL     1      -9.520 -22.233  18.273  1.00  0.00    -0.000 C 
BRANCH  19  20
ATOM     20  C   UNL     1     -10.723 -21.402  18.758  1.00  0.00    -0.000 C 
BRANCH  20  21
ATOM     21  C   UNL     1     -11.125 -21.733  20.205  1.00  0.00    -0.000 C 
BRANCH  21  22
ATOM     22  C   UNL     1     -10.988 -20.528  21.150  1.00  0.00    -0.000 C 
BRANCH  22  23
ATOM     23  C   UNL     1      -9.895 -20.777  22.197  1.00  0.00    -0.000 C 
BRANCH  23  24
ATOM     24  C   UNL     1      -9.089 -22.041  21.863  1.00  0.00    -0.000 C 
BRANCH  24  25
ATOM     25  C   UNL     1      -7.960 -22.304  22.871  1.00  0.00    -0.003 C 
ATOM     26  C   UNL     1      -8.435 -23.071  24.107  1.00  0.00     0.004 C 
ENDBRANCH  24  25
ENDBRANCH  23  24
ENDBRANCH  22  23
ENDBRANCH  21  22
ENDBRANCH  20  21
ENDBRANCH  19  20
ENDBRANCH  18  19
ENDBRANCH  17  18
ENDBRANCH  16  17
ENDBRANCH  15  16
ENDBRANCH   1  15
TORSDOF 22
ENDMDL
