MODEL 1
REMARK VINA RESULT:    -3.698      0.000      0.000
REMARK INTER + INTRA:          -4.779
REMARK INTER:                  -4.562
REMARK INTRA:                  -0.216
REMARK UNBOUND:                -0.216
REMARK SMILES COC(=O)c1ccccc1C(=O)OC
REMARK SMILES IDX 5 1 6 2 7 3 8 4 9 5 10 6 3 7 4 8 2 9 1 10 11 11 12 12 13 13
REMARK SMILES IDX 14 14
REMARK H PARENT
REMARK Flexibility Score: inf
ROOT
ATOM      1  C   UNL     1      77.535  34.190  51.860  1.00  0.00     0.074 A 
ATOM      2  C   UNL     1      76.739  33.067  52.150  1.00  0.00     0.016 A 
ATOM      3  C   UNL     1      77.322  31.828  52.415  1.00  0.00     0.001 A 
ATOM      4  C   UNL     1      78.708  31.690  52.395  1.00  0.00     0.001 A 
ATOM      5  C   UNL     1      79.518  32.795  52.132  1.00  0.00     0.016 A 
ATOM      6  C   UNL     1      78.952  34.060  51.885  1.00  0.00     0.074 A 
ENDROOT
BRANCH   1   7
ATOM      7  C   UNL     1      76.846  35.444  51.477  1.00  0.00     0.338 C 
ATOM      8  O   UNL     1      76.944  35.891  50.301  1.00  0.00    -0.246 OA
BRANCH   7   9
ATOM      9  O   UNL     1      76.040  36.102  52.412  1.00  0.00    -0.465 OA
ATOM     10  C   UNL     1      74.621  36.125  52.320  1.00  0.00     0.282 C 
ENDBRANCH   7   9
ENDBRANCH   1   7
BRANCH   6  11
ATOM     11  C   UNL     1      79.871  35.210  51.727  1.00  0.00     0.338 C 
ATOM     12  O   UNL     1      80.432  35.720  52.736  1.00  0.00    -0.246 OA
BRANCH  11  13
ATOM     13  O   UNL     1      80.158  35.690  50.446  1.00  0.00    -0.465 OA
ATOM     14  C   UNL     1      80.087  34.870  49.284  1.00  0.00     0.282 C 
ENDBRANCH  11  13
ENDBRANCH   6  11
TORSDOF 4
ENDMDL
MODEL 2
REMARK VINA RESULT:    -3.690      0.128      3.801
REMARK INTER + INTRA:          -4.769
REMARK INTER:                  -4.501
REMARK INTRA:                  -0.269
REMARK UNBOUND:                -0.216
REMARK SMILES COC(=O)c1ccccc1C(=O)OC
REMARK SMILES IDX 5 1 6 2 7 3 8 4 9 5 10 6 3 7 4 8 2 9 1 10 11 11 12 12 13 13
REMARK SMILES IDX 14 14
REMARK H PARENT
REMARK Flexibility Score: inf
ROOT
ATOM      1  C   UNL     1      78.962  34.027  51.940  1.00  0.00     0.074 A 
ATOM      2  C   UNL     1      79.521  32.754  52.155  1.00  0.00     0.016 A 
ATOM      3  C   UNL     1      78.705  31.647  52.393  1.00  0.00     0.001 A 
ATOM      4  C   UNL     1      77.320  31.793  52.420  1.00  0.00     0.001 A 
ATOM      5  C   UNL     1      76.744  33.043  52.188  1.00  0.00     0.016 A 
ATOM      6  C   UNL     1      77.546  34.168  51.923  1.00  0.00     0.074 A 
ENDROOT
BRANCH   1   7
ATOM      7  C   UNL     1      79.889  35.174  51.808  1.00  0.00     0.338 C 
ATOM      8  O   UNL     1      80.472  35.642  52.824  1.00  0.00    -0.246 OA
BRANCH   7   9
ATOM      9  O   UNL     1      80.160  35.700  50.540  1.00  0.00    -0.465 OA
ATOM     10  C   UNL     1      80.107  34.914  49.356  1.00  0.00     0.282 C 
ENDBRANCH   7   9
ENDBRANCH   1   7
BRANCH   6  11
ATOM     11  C   UNL     1      76.866  35.435  51.573  1.00  0.00     0.338 C 
ATOM     12  O   UNL     1      76.890  35.865  50.386  1.00  0.00    -0.246 OA
BRANCH  11  13
ATOM     13  O   UNL     1      76.147  36.125  52.554  1.00  0.00    -0.465 OA
ATOM     14  C   UNL     1      74.728  36.074  52.644  1.00  0.00     0.282 C 
ENDBRANCH  11  13
ENDBRANCH   6  11
TORSDOF 4
ENDMDL
MODEL 3
REMARK VINA RESULT:    -3.399     15.232     16.663
REMARK INTER + INTRA:          -4.410
REMARK INTER:                  -4.327
REMARK INTRA:                  -0.083
REMARK UNBOUND:                -0.216
REMARK SMILES COC(=O)c1ccccc1C(=O)OC
REMARK SMILES IDX 5 1 6 2 7 3 8 4 9 5 10 6 3 7 4 8 2 9 1 10 11 11 12 12 13 13
REMARK SMILES IDX 14 14
REMARK H PARENT
REMARK Flexibility Score: inf
ROOT
ATOM      1  C   UNL     1      85.456  30.899  65.854  1.00  0.00     0.074 A 
ATOM      2  C   UNL     1      84.846  31.753  66.792  1.00  0.00     0.016 A 
ATOM      3  C   UNL     1      85.616  32.490  67.692  1.00  0.00     0.001 A 
ATOM      4  C   UNL     1      87.005  32.386  67.672  1.00  0.00     0.001 A 
ATOM      5  C   UNL     1      87.632  31.562  66.736  1.00  0.00     0.016 A 
ATOM      6  C   UNL     1      86.876  30.828  65.803  1.00  0.00     0.074 A 
ENDROOT
BRANCH   1   7
ATOM      7  C   UNL     1      84.575  30.062  65.007  1.00  0.00     0.338 C 
ATOM      8  O   UNL     1      84.790  28.824  64.893  1.00  0.00    -0.246 OA
BRANCH   7   9
ATOM      9  O   UNL     1      83.468  30.643  64.380  1.00  0.00    -0.465 OA
ATOM     10  C   UNL     1      82.169  30.063  64.424  1.00  0.00     0.282 C 
ENDBRANCH   7   9
ENDBRANCH   1   7
BRANCH   6  11
ATOM     11  C   UNL     1      87.609  30.065  64.768  1.00  0.00     0.338 C 
ATOM     12  O   UNL     1      87.813  30.569  63.629  1.00  0.00    -0.246 OA
BRANCH  11  13
ATOM     13  O   UNL     1      88.125  28.802  65.079  1.00  0.00    -0.465 OA
ATOM     14  C   UNL     1      87.950  27.672  64.232  1.00  0.00     0.282 C 
ENDBRANCH  11  13
ENDBRANCH   6  11
TORSDOF 4
ENDMDL
MODEL 4
REMARK VINA RESULT:    -3.388     15.182     16.959
REMARK INTER + INTRA:          -4.397
REMARK INTER:                  -4.280
REMARK INTRA:                  -0.116
REMARK UNBOUND:                -0.216
REMARK SMILES COC(=O)c1ccccc1C(=O)OC
REMARK SMILES IDX 5 1 6 2 7 3 8 4 9 5 10 6 3 7 4 8 2 9 1 10 11 11 12 12 13 13
REMARK SMILES IDX 14 14
REMARK H PARENT
REMARK Flexibility Score: inf
ROOT
ATOM      1  C   UNL     1      86.828  30.821  65.778  1.00  0.00     0.074 A 
ATOM      2  C   UNL     1      87.541  31.566  66.736  1.00  0.00     0.016 A 
ATOM      3  C   UNL     1      86.869  32.352  67.672  1.00  0.00     0.001 A 
ATOM      4  C   UNL     1      85.478  32.409  67.668  1.00  0.00     0.001 A 
ATOM      5  C   UNL     1      84.750  31.661  66.741  1.00  0.00     0.016 A 
ATOM      6  C   UNL     1      85.406  30.843  65.802  1.00  0.00     0.074 A 
ENDROOT
BRANCH   1   7
ATOM      7  C   UNL     1      87.607  30.101  64.745  1.00  0.00     0.338 C 
ATOM      8  O   UNL     1      87.847  30.646  63.632  1.00  0.00    -0.246 OA
BRANCH   7   9
ATOM      9  O   UNL     1      88.125  28.833  65.031  1.00  0.00    -0.465 OA
ATOM     10  C   UNL     1      87.965  27.723  64.156  1.00  0.00     0.282 C 
ENDBRANCH   7   9
ENDBRANCH   1   7
BRANCH   6  11
ATOM     11  C   UNL     1      84.571  29.991  64.925  1.00  0.00     0.338 C 
ATOM     12  O   UNL     1      84.796  28.752  64.840  1.00  0.00    -0.246 OA
BRANCH  11  13
ATOM     13  O   UNL     1      83.494  30.559  64.236  1.00  0.00    -0.465 OA
ATOM     14  C   UNL     1      82.156  30.101  64.393  1.00  0.00     0.282 C 
ENDBRANCH  11  13
ENDBRANCH   6  11
TORSDOF 4
ENDMDL
MODEL 5
REMARK VINA RESULT:    -3.333     14.733     16.385
REMARK INTER + INTRA:          -4.328
REMARK INTER:                  -4.162
REMARK INTRA:                  -0.166
REMARK UNBOUND:                -0.216
REMARK SMILES COC(=O)c1ccccc1C(=O)OC
REMARK SMILES IDX 5 1 6 2 7 3 8 4 9 5 10 6 3 7 4 8 2 9 1 10 11 11 12 12 13 13
REMARK SMILES IDX 14 14
REMARK H PARENT
REMARK Flexibility Score: inf
ROOT
ATOM      1  C   UNL     1      86.882  31.741  64.789  1.00  0.00     0.074 A 
ATOM      2  C   UNL     1      88.003  31.150  64.178  1.00  0.00     0.016 A 
ATOM      3  C   UNL     1      88.125  29.762  64.100  1.00  0.00     0.001 A 
ATOM      4  C   UNL     1      87.131  28.943  64.631  1.00  0.00     0.001 A 
ATOM      5  C   UNL     1      86.000  29.508  65.222  1.00  0.00     0.016 A 
ATOM      6  C   UNL     1      85.845  30.905  65.291  1.00  0.00     0.074 A 
ENDROOT
BRANCH   1   7
ATOM      7  C   UNL     1      86.873  33.214  64.937  1.00  0.00     0.338 C 
ATOM      8  O   UNL     1      86.017  33.911  64.325  1.00  0.00    -0.246 OA
BRANCH   7   9
ATOM      9  O   UNL     1      87.784  33.826  65.805  1.00  0.00    -0.465 OA
ATOM     10  C   UNL     1      88.124  33.276  67.072  1.00  0.00     0.282 C 
ENDBRANCH   7   9
ENDBRANCH   1   7
BRANCH   6  11
ATOM     11  C   UNL     1      84.571  31.434  65.827  1.00  0.00     0.338 C 
ATOM     12  O   UNL     1      84.506  31.859  67.013  1.00  0.00    -0.246 OA
BRANCH  11  13
ATOM     13  O   UNL     1      83.452  31.513  64.991  1.00  0.00    -0.465 OA
ATOM     14  C   UNL     1      82.602  30.400  64.738  1.00  0.00     0.282 C 
ENDBRANCH  11  13
ENDBRANCH   6  11
TORSDOF 4
ENDMDL
MODEL 6
REMARK VINA RESULT:    -3.306     14.735     16.177
REMARK INTER + INTRA:          -4.296
REMARK INTER:                  -4.182
REMARK INTRA:                  -0.114
REMARK UNBOUND:                -0.216
REMARK SMILES COC(=O)c1ccccc1C(=O)OC
REMARK SMILES IDX 5 1 6 2 7 3 8 4 9 5 10 6 3 7 4 8 2 9 1 10 11 11 12 12 13 13
REMARK SMILES IDX 14 14
REMARK H PARENT
REMARK Flexibility Score: inf
ROOT
ATOM      1  C   UNL     1      85.859  30.871  65.259  1.00  0.00     0.074 A 
ATOM      2  C   UNL     1      85.962  29.469  65.203  1.00  0.00     0.016 A 
ATOM      3  C   UNL     1      87.086  28.857  64.648  1.00  0.00     0.001 A 
ATOM      4  C   UNL     1      88.125  29.635  64.140  1.00  0.00     0.001 A 
ATOM      5  C   UNL     1      88.054  31.027  64.205  1.00  0.00     0.016 A 
ATOM      6  C   UNL     1      86.940  31.664  64.781  1.00  0.00     0.074 A 
ENDROOT
BRANCH   1   7
ATOM      7  C   UNL     1      84.590  31.451  65.756  1.00  0.00     0.338 C 
ATOM      8  O   UNL     1      84.523  31.931  66.921  1.00  0.00    -0.246 OA
BRANCH   7   9
ATOM      9  O   UNL     1      83.481  31.516  64.906  1.00  0.00    -0.465 OA
ATOM     10  C   UNL     1      82.598  30.418  64.711  1.00  0.00     0.282 C 
ENDBRANCH   7   9
ENDBRANCH   1   7
BRANCH   6  11
ATOM     11  C   UNL     1      86.982  33.138  64.921  1.00  0.00     0.338 C 
ATOM     12  O   UNL     1      86.095  33.855  64.381  1.00  0.00    -0.246 OA
BRANCH  11  13
ATOM     13  O   UNL     1      87.980  33.727  65.704  1.00  0.00    -0.465 OA
ATOM     14  C   UNL     1      88.125  33.457  67.094  1.00  0.00     0.282 C 
ENDBRANCH  11  13
ENDBRANCH   6  11
TORSDOF 4
ENDMDL
MODEL 7
REMARK VINA RESULT:    -3.257     15.333     16.829
REMARK INTER + INTRA:          -4.235
REMARK INTER:                  -4.295
REMARK INTRA:                   0.060
REMARK UNBOUND:                -0.216
REMARK SMILES COC(=O)c1ccccc1C(=O)OC
REMARK SMILES IDX 5 1 6 2 7 3 8 4 9 5 10 6 3 7 4 8 2 9 1 10 11 11 12 12 13 13
REMARK SMILES IDX 14 14
REMARK H PARENT
REMARK Flexibility Score: inf
ROOT
ATOM      1  C   UNL     1      85.743  31.818  66.291  1.00  0.00     0.074 A 
ATOM      2  C   UNL     1      84.477  32.172  66.792  1.00  0.00     0.016 A 
ATOM      3  C   UNL     1      83.313  31.663  66.216  1.00  0.00     0.001 A 
ATOM      4  C   UNL     1      83.393  30.793  65.131  1.00  0.00     0.001 A 
ATOM      5  C   UNL     1      84.639  30.411  64.631  1.00  0.00     0.016 A 
ATOM      6  C   UNL     1      85.826  30.893  65.212  1.00  0.00     0.074 A 
ENDROOT
BRANCH   1   7
ATOM      7  C   UNL     1      86.928  32.483  66.877  1.00  0.00     0.338 C 
ATOM      8  O   UNL     1      87.013  32.650  68.125  1.00  0.00    -0.246 OA
BRANCH   7   9
ATOM      9  O   UNL     1      87.981  32.875  66.044  1.00  0.00    -0.465 OA
ATOM     10  C   UNL     1      87.960  34.086  65.297  1.00  0.00     0.282 C 
ENDBRANCH   7   9
ENDBRANCH   1   7
BRANCH   6  11
ATOM     11  C   UNL     1      87.110  30.358  64.706  1.00  0.00     0.338 C 
ATOM     12  O   UNL     1      87.695  30.915  63.736  1.00  0.00    -0.246 OA
BRANCH  11  13
ATOM     13  O   UNL     1      87.701  29.264  65.348  1.00  0.00    -0.465 OA
ATOM     14  C   UNL     1      88.125  28.100  64.647  1.00  0.00     0.282 C 
ENDBRANCH  11  13
ENDBRANCH   6  11
TORSDOF 4
ENDMDL
MODEL 8
REMARK VINA RESULT:    -3.119     15.527     16.891
REMARK INTER + INTRA:          -4.064
REMARK INTER:                  -4.002
REMARK INTRA:                  -0.062
REMARK UNBOUND:                -0.216
REMARK SMILES COC(=O)c1ccccc1C(=O)OC
REMARK SMILES IDX 5 1 6 2 7 3 8 4 9 5 10 6 3 7 4 8 2 9 1 10 11 11 12 12 13 13
REMARK SMILES IDX 14 14
REMARK H PARENT
REMARK Flexibility Score: inf
ROOT
ATOM      1  C   UNL     1      86.170  30.457  65.312  1.00  0.00     0.074 A 
ATOM      2  C   UNL     1      85.066  29.761  64.787  1.00  0.00     0.016 A 
ATOM      3  C   UNL     1      83.799  30.344  64.766  1.00  0.00     0.001 A 
ATOM      4  C   UNL     1      83.613  31.630  65.268  1.00  0.00     0.001 A 
ATOM      5  C   UNL     1      84.698  32.347  65.773  1.00  0.00     0.016 A 
ATOM      6  C   UNL     1      85.989  31.788  65.783  1.00  0.00     0.074 A 
ENDROOT
BRANCH   1   7
ATOM      7  C   UNL     1      87.460  29.736  65.407  1.00  0.00     0.338 C 
ATOM      8  O   UNL     1      88.125  29.758  66.479  1.00  0.00    -0.246 OA
BRANCH   7   9
ATOM      9  O   UNL     1      87.910  28.981  64.319  1.00  0.00    -0.465 OA
ATOM     10  C   UNL     1      88.125  27.577  64.394  1.00  0.00     0.282 C 
ENDBRANCH   7   9
ENDBRANCH   1   7
BRANCH   6  11
ATOM     11  C   UNL     1      87.111  32.646  66.226  1.00  0.00     0.338 C 
ATOM     12  O   UNL     1      87.366  32.778  67.455  1.00  0.00    -0.246 OA
BRANCH  11  13
ATOM     13  O   UNL     1      87.924  33.266  65.271  1.00  0.00    -0.465 OA
ATOM     14  C   UNL     1      87.928  34.674  65.063  1.00  0.00     0.282 C 
ENDBRANCH  11  13
ENDBRANCH   6  11
TORSDOF 4
ENDMDL
