MODEL 1
REMARK VINA RESULT:    -3.684      0.000      0.000
REMARK INTER + INTRA:          -4.951
REMARK INTER:                  -5.192
REMARK INTRA:                   0.241
REMARK UNBOUND:                 0.241
REMARK SMILES CC1=CCC(=C(C)C)C(=O)CC(C)=CCC1
REMARK SMILES IDX 12 1 14 2 13 3 15 4 16 5 2 6 1 7 3 8 11 10 9 11 10 12 5 13
REMARK SMILES IDX 6 14 7 15 8 16 4 17
REMARK H PARENT
REMARK Flexibility Score: 60.00
ROOT
ATOM      1  C   UNL     1      31.630  70.871 106.495  1.00  0.00    -0.070 C 
ATOM      2  C   UNL     1      32.479  71.868 106.828  1.00  0.00    -0.027 C 
ATOM      3  C   UNL     1      30.163  71.064 106.792  1.00  0.00     0.039 C 
ENDROOT
BRANCH   2   4
ATOM      4  C   UNL     1      33.986  71.824 106.700  1.00  0.00     0.032 C 
BRANCH   4   5
ATOM      5  C   UNL     1      34.513  71.836 105.250  1.00  0.00     0.034 C 
BRANCH   5   6
ATOM      6  C   UNL     1      35.505  70.722 104.965  1.00  0.00    -0.077 C 
ATOM      7  C   UNL     1      36.764  70.677 105.791  1.00  0.00     0.039 C 
ATOM      8  C   UNL     1      35.363  69.809 103.974  1.00  0.00    -0.023 CG0
ATOM      9  G   UNL     1      34.180  69.651 103.038  1.00  0.00     0.000 G0
ENDBRANCH   5   6
ENDBRANCH   4   5
ENDBRANCH   2   4
BRANCH   1  10
ATOM     10  C   UNL     1      32.087  69.544 105.925  1.00  0.00     0.111 C 
BRANCH  10  11
ATOM     11  C   UNL     1      32.035  69.536 104.421  1.00  0.00     0.163 C 
ATOM     12  O   UNL     1      31.069  70.117 103.857  1.00  0.00    -0.294 OA
BRANCH  11  13
ATOM     13  C   UNL     1      33.045  68.819 103.587  1.00  0.00    -0.002 C 
ATOM     14  C   UNL     1      32.986  67.462 103.430  1.00  0.00    -0.069 C 
ATOM     15  C   UNL     1      34.080  66.690 102.725  1.00  0.00     0.039 C 
ATOM     16  C   UNL     1      31.817  66.660 103.960  1.00  0.00     0.039 C 
BRANCH  13  17
ATOM     17  C   UNL     1      34.181  69.646 103.007  1.00  0.00     0.066 CG0
ATOM     18  G   UNL     1      35.334  69.804 103.979  1.00  0.00     0.000 G0
ENDBRANCH  13  17
ENDBRANCH  11  13
ENDBRANCH  10  11
ENDBRANCH   1  10
TORSDOF 0
ENDMDL
MODEL 2
REMARK VINA RESULT:    -3.485      1.857      2.300
REMARK INTER + INTRA:          -4.671
REMARK INTER:                  -5.232
REMARK INTRA:                   0.561
REMARK UNBOUND:                 0.241
REMARK SMILES CC1=CCC(=C(C)C)C(=O)CC(C)=CCC1
REMARK SMILES IDX 12 1 14 2 13 3 15 4 16 5 2 6 1 7 3 8 11 10 9 11 10 12 5 13
REMARK SMILES IDX 6 14 7 15 8 16 4 17
REMARK H PARENT
REMARK Flexibility Score: 60.00
ROOT
ATOM      1  C   UNL     1      31.116  71.109 106.228  1.00  0.00    -0.070 C 
ATOM      2  C   UNL     1      32.115  71.833 106.779  1.00  0.00    -0.027 C 
ATOM      3  C   UNL     1      29.943  70.744 107.103  1.00  0.00     0.039 C 
ENDROOT
BRANCH   2   4
ATOM      4  C   UNL     1      33.411  72.213 106.096  1.00  0.00     0.032 C 
BRANCH   4   5
ATOM      5  C   UNL     1      34.686  71.694 106.792  1.00  0.00     0.034 C 
BRANCH   5   6
ATOM      6  C   UNL     1      35.313  70.506 106.083  1.00  0.00    -0.077 C 
ATOM      7  C   UNL     1      36.582  70.744 105.306  1.00  0.00     0.039 C 
ATOM      8  C   UNL     1      34.770  69.266 106.046  1.00  0.00    -0.023 CG0
ATOM      9  G   UNL     1      33.519  68.792 106.762  1.00  0.00     0.000 G0
ENDBRANCH   5   6
ENDBRANCH   4   5
ENDBRANCH   2   4
BRANCH   1  10
ATOM     10  C   UNL     1      31.161  70.571 104.813  1.00  0.00     0.111 C 
BRANCH  10  11
ATOM     11  C   UNL     1      32.121  69.419 104.685  1.00  0.00     0.163 C 
ATOM     12  O   UNL     1      32.692  69.242 103.575  1.00  0.00    -0.294 OA
BRANCH  11  13
ATOM     13  C   UNL     1      32.371  68.455 105.798  1.00  0.00    -0.002 C 
ATOM     14  C   UNL     1      31.557  67.372 105.980  1.00  0.00    -0.069 C 
ATOM     15  C   UNL     1      31.687  66.468 107.187  1.00  0.00     0.039 C 
ATOM     16  C   UNL     1      30.477  67.024 104.979  1.00  0.00     0.039 C 
BRANCH  13  17
ATOM     17  C   UNL     1      33.500  68.783 106.761  1.00  0.00     0.066 CG0
ATOM     18  G   UNL     1      34.748  69.263 106.045  1.00  0.00     0.000 G0
ENDBRANCH  13  17
ENDBRANCH  11  13
ENDBRANCH  10  11
ENDBRANCH   1  10
TORSDOF 0
ENDMDL
MODEL 3
REMARK VINA RESULT:    -3.457      2.964      4.895
REMARK INTER + INTRA:          -4.631
REMARK INTER:                  -5.037
REMARK INTRA:                   0.406
REMARK UNBOUND:                 0.241
REMARK SMILES CC1=CCC(=C(C)C)C(=O)CC(C)=CCC1
REMARK SMILES IDX 12 1 14 2 13 3 15 4 16 5 2 6 1 7 3 8 11 10 9 11 10 12 5 13
REMARK SMILES IDX 6 14 7 15 8 16 4 17
REMARK H PARENT
REMARK Flexibility Score: 60.00
ROOT
ATOM      1  C   UNL     1      35.914  71.808 107.777  1.00  0.00    -0.070 C 
ATOM      2  C   UNL     1      36.338  70.885 108.669  1.00  0.00    -0.027 C 
ATOM      3  C   UNL     1      36.957  72.648 107.082  1.00  0.00     0.039 C 
ENDROOT
BRANCH   2   4
ATOM      4  C   UNL     1      35.447  70.019 109.533  1.00  0.00     0.032 C 
BRANCH   4   5
ATOM      5  C   UNL     1      35.268  68.571 109.031  1.00  0.00     0.034 C 
BRANCH   5   6
ATOM      6  C   UNL     1      33.825  68.100 109.069  1.00  0.00    -0.077 C 
ATOM      7  C   UNL     1      33.337  67.438 110.332  1.00  0.00     0.039 C 
ATOM      8  C   UNL     1      32.970  68.172 108.020  1.00  0.00    -0.023 CG0
ATOM      9  G   UNL     1      33.233  68.807 106.668  1.00  0.00     0.000 G0
ENDBRANCH   5   6
ENDBRANCH   4   5
ENDBRANCH   2   4
BRANCH   1  10
ATOM     10  C   UNL     1      34.452  72.100 107.512  1.00  0.00     0.111 C 
BRANCH  10  11
ATOM     11  C   UNL     1      33.909  71.250 106.394  1.00  0.00     0.163 C 
ATOM     12  O   UNL     1      34.372  71.425 105.235  1.00  0.00    -0.294 OA
BRANCH  11  13
ATOM     13  C   UNL     1      32.809  70.261 106.600  1.00  0.00    -0.002 C 
ATOM     14  C   UNL     1      31.523  70.677 106.806  1.00  0.00    -0.069 C 
ATOM     15  C   UNL     1      30.418  69.710 107.174  1.00  0.00     0.039 C 
ATOM     16  C   UNL     1      31.140  72.135 106.678  1.00  0.00     0.039 C 
BRANCH  13  17
ATOM     17  C   UNL     1      33.198  68.792 106.664  1.00  0.00     0.066 CG0
ATOM     18  G   UNL     1      32.961  68.192 108.036  1.00  0.00     0.000 G0
ENDBRANCH  13  17
ENDBRANCH  11  13
ENDBRANCH  10  11
ENDBRANCH   1  10
TORSDOF 0
ENDMDL
MODEL 4
REMARK VINA RESULT:    -3.380      9.726     11.505
REMARK INTER + INTRA:          -4.522
REMARK INTER:                  -4.716
REMARK INTRA:                   0.194
REMARK UNBOUND:                 0.241
REMARK SMILES CC1=CCC(=C(C)C)C(=O)CC(C)=CCC1
REMARK SMILES IDX 12 1 14 2 13 3 15 4 16 5 2 6 1 7 3 8 11 10 9 11 10 12 5 13
REMARK SMILES IDX 6 14 7 15 8 16 4 17
REMARK H PARENT
REMARK Flexibility Score: 60.00
ROOT
ATOM      1  C   UNL     1      24.344  72.831 108.708  1.00  0.00    -0.070 C 
ATOM      2  C   UNL     1      23.210  72.105 108.593  1.00  0.00    -0.027 C 
ATOM      3  C   UNL     1      24.820  73.183 110.096  1.00  0.00     0.039 C 
ENDROOT
BRANCH   2   4
ATOM      4  C   UNL     1      22.525  71.738 107.295  1.00  0.00     0.032 C 
BRANCH   4   5
ATOM      5  C   UNL     1      21.712  72.877 106.646  1.00  0.00     0.034 C 
BRANCH   5   6
ATOM      6  C   UNL     1      22.073  73.114 105.190  1.00  0.00    -0.077 C 
ATOM      7  C   UNL     1      21.781  72.008 104.208  1.00  0.00     0.039 C 
ATOM      8  C   UNL     1      22.700  74.222 104.729  1.00  0.00    -0.023 CG0
ATOM      9  G   UNL     1      23.072  75.460 105.522  1.00  0.00     0.000 G0
ENDBRANCH   5   6
ENDBRANCH   4   5
ENDBRANCH   2   4
BRANCH   1  10
ATOM     10  C   UNL     1      25.104  73.382 107.519  1.00  0.00     0.111 C 
BRANCH  10  11
ATOM     11  C   UNL     1      24.828  74.848 107.313  1.00  0.00     0.163 C 
ATOM     12  O   UNL     1      24.789  75.594 108.328  1.00  0.00    -0.294 OA
BRANCH  11  13
ATOM     13  C   UNL     1      24.541  75.428 105.967  1.00  0.00    -0.002 C 
ATOM     14  C   UNL     1      25.541  75.980 105.215  1.00  0.00    -0.069 C 
ATOM     15  C   UNL     1      25.259  76.715 103.923  1.00  0.00     0.039 C 
ATOM     16  C   UNL     1      26.989  75.884 105.645  1.00  0.00     0.039 C 
BRANCH  13  17
ATOM     17  C   UNL     1      23.089  75.461 105.520  1.00  0.00     0.066 CG0
ATOM     18  G   UNL     1      22.703  74.232 104.720  1.00  0.00     0.000 G0
ENDBRANCH  13  17
ENDBRANCH  11  13
ENDBRANCH  10  11
ENDBRANCH   1  10
TORSDOF 0
ENDMDL
MODEL 5
REMARK VINA RESULT:    -3.342      1.592      3.291
REMARK INTER + INTRA:          -4.468
REMARK INTER:                  -4.744
REMARK INTRA:                   0.276
REMARK UNBOUND:                 0.241
REMARK SMILES CC1=CCC(=C(C)C)C(=O)CC(C)=CCC1
REMARK SMILES IDX 12 1 14 2 13 3 15 4 16 5 2 6 1 7 3 8 11 10 9 11 10 12 5 13
REMARK SMILES IDX 6 14 7 15 8 16 4 17
REMARK H PARENT
REMARK Flexibility Score: 60.00
ROOT
ATOM      1  C   UNL     1      34.456  71.106 106.509  1.00  0.00    -0.070 C 
ATOM      2  C   UNL     1      35.424  71.115 105.566  1.00  0.00    -0.027 C 
ATOM      3  C   UNL     1      34.422  72.246 107.495  1.00  0.00     0.039 C 
ENDROOT
BRANCH   2   4
ATOM      4  C   UNL     1      35.682  70.019 104.554  1.00  0.00     0.032 C 
BRANCH   4   5
ATOM      5  C   UNL     1      34.595  69.871 103.469  1.00  0.00     0.034 C 
BRANCH   5   6
ATOM      6  C   UNL     1      34.091  68.446 103.320  1.00  0.00    -0.077 C 
ATOM      7  C   UNL     1      35.099  67.378 102.982  1.00  0.00     0.039 C 
ATOM      8  C   UNL     1      32.788  68.085 103.403  1.00  0.00    -0.023 CG0
ATOM      9  G   UNL     1      31.611  68.977 103.748  1.00  0.00     0.000 G0
ENDBRANCH   5   6
ENDBRANCH   4   5
ENDBRANCH   2   4
BRANCH   1  10
ATOM     10  C   UNL     1      33.469  69.969 106.678  1.00  0.00     0.111 C 
BRANCH  10  11
ATOM     11  C   UNL     1      32.186  70.231 105.936  1.00  0.00     0.163 C 
ATOM     12  O   UNL     1      31.733  71.407 105.929  1.00  0.00    -0.294 OA
BRANCH  11  13
ATOM     13  C   UNL     1      31.410  69.144 105.267  1.00  0.00    -0.002 C 
ATOM     14  C   UNL     1      30.645  68.279 105.997  1.00  0.00    -0.069 C 
ATOM     15  C   UNL     1      29.976  67.075 105.369  1.00  0.00     0.039 C 
ATOM     16  C   UNL     1      30.431  68.482 107.482  1.00  0.00     0.039 C 
BRANCH  13  17
ATOM     17  C   UNL     1      31.585  68.990 103.764  1.00  0.00     0.066 CG0
ATOM     18  G   UNL     1      32.767  68.108 103.409  1.00  0.00     0.000 G0
ENDBRANCH  13  17
ENDBRANCH  11  13
ENDBRANCH  10  11
ENDBRANCH   1  10
TORSDOF 0
ENDMDL
MODEL 6
REMARK VINA RESULT:    -3.250      2.729      3.292
REMARK INTER + INTRA:          -4.339
REMARK INTER:                  -4.583
REMARK INTRA:                   0.244
REMARK UNBOUND:                 0.241
REMARK SMILES CC1=CCC(=C(C)C)C(=O)CC(C)=CCC1
REMARK SMILES IDX 12 1 14 2 13 3 15 4 16 5 2 6 1 7 3 8 11 10 9 11 10 12 5 13
REMARK SMILES IDX 6 14 7 15 8 16 4 17
REMARK H PARENT
REMARK Flexibility Score: 60.00
ROOT
ATOM      1  C   UNL     1      31.500  70.881 106.399  1.00  0.00    -0.070 C 
ATOM      2  C   UNL     1      32.327  71.950 106.370  1.00  0.00    -0.027 C 
ATOM      3  C   UNL     1      30.071  71.105 106.825  1.00  0.00     0.039 C 
ENDROOT
BRANCH   2   4
ATOM      4  C   UNL     1      33.808  71.912 106.065  1.00  0.00     0.032 C 
BRANCH   4   5
ATOM      5  C   UNL     1      34.700  71.455 107.238  1.00  0.00     0.034 C 
BRANCH   5   6
ATOM      6  C   UNL     1      35.612  70.295 106.877  1.00  0.00    -0.077 C 
ATOM      7  C   UNL     1      36.715  70.554 105.883  1.00  0.00     0.039 C 
ATOM      8  C   UNL     1      35.456  69.030 107.337  1.00  0.00    -0.023 CG0
ATOM      9  G   UNL     1      34.437  68.543 108.349  1.00  0.00     0.000 G0
ENDBRANCH   5   6
ENDBRANCH   4   5
ENDBRANCH   2   4
BRANCH   1  10
ATOM     10  C   UNL     1      31.960  69.465 106.114  1.00  0.00     0.111 C 
BRANCH  10  11
ATOM     11  C   UNL     1      32.067  68.651 107.375  1.00  0.00     0.163 C 
ATOM     12  O   UNL     1      31.124  68.718 108.208  1.00  0.00    -0.294 OA
BRANCH  11  13
ATOM     13  C   UNL     1      33.269  67.824 107.696  1.00  0.00    -0.002 C 
ATOM     14  C   UNL     1      33.265  66.473 107.486  1.00  0.00    -0.069 C 
ATOM     15  C   UNL     1      34.403  65.589 107.946  1.00  0.00     0.039 C 
ATOM     16  C   UNL     1      32.113  65.792 106.780  1.00  0.00     0.039 C 
BRANCH  13  17
ATOM     17  C   UNL     1      34.446  68.532 108.349  1.00  0.00     0.066 CG0
ATOM     18  G   UNL     1      35.454  69.032 107.331  1.00  0.00     0.000 G0
ENDBRANCH  13  17
ENDBRANCH  11  13
ENDBRANCH  10  11
ENDBRANCH   1  10
TORSDOF 0
ENDMDL
MODEL 7
REMARK VINA RESULT:    -3.208     10.488     12.054
REMARK INTER + INTRA:          -4.280
REMARK INTER:                  -4.464
REMARK INTRA:                   0.184
REMARK UNBOUND:                 0.241
REMARK SMILES CC1=CCC(=C(C)C)C(=O)CC(C)=CCC1
REMARK SMILES IDX 12 1 14 2 13 3 15 4 16 5 2 6 1 7 3 8 11 10 9 11 10 12 5 13
REMARK SMILES IDX 6 14 7 15 8 16 4 17
REMARK H PARENT
REMARK Flexibility Score: 60.00
ROOT
ATOM      1  C   UNL     1      23.753  74.466 105.093  1.00  0.00    -0.070 C 
ATOM      2  C   UNL     1      23.255  73.728 104.076  1.00  0.00    -0.027 C 
ATOM      3  C   UNL     1      24.973  75.311 104.820  1.00  0.00     0.039 C 
ENDROOT
BRANCH   2   4
ATOM      4  C   UNL     1      22.104  72.751 104.177  1.00  0.00     0.032 C 
BRANCH   4   5
ATOM      5  C   UNL     1      22.439  71.426 104.893  1.00  0.00     0.034 C 
BRANCH   5   6
ATOM      6  C   UNL     1      21.460  71.084 106.004  1.00  0.00    -0.077 C 
ATOM      7  C   UNL     1      20.018  70.867 105.623  1.00  0.00     0.039 C 
ATOM      8  C   UNL     1      21.785  71.030 107.318  1.00  0.00    -0.023 CG0
ATOM      9  G   UNL     1      23.164  71.194 107.927  1.00  0.00     0.000 G0
ENDBRANCH   5   6
ENDBRANCH   4   5
ENDBRANCH   2   4
BRANCH   1  10
ATOM     10  C   UNL     1      23.204  74.417 106.504  1.00  0.00     0.111 C 
BRANCH  10  11
ATOM     11  C   UNL     1      24.048  73.548 107.399  1.00  0.00     0.163 C 
ATOM     12  O   UNL     1      25.299  73.581 107.250  1.00  0.00    -0.294 OA
BRANCH  11  13
ATOM     13  C   UNL     1      23.454  72.615 108.402  1.00  0.00    -0.002 C 
ATOM     14  C   UNL     1      23.259  73.011 109.696  1.00  0.00    -0.069 C 
ATOM     15  C   UNL     1      22.810  72.044 110.770  1.00  0.00     0.039 C 
ATOM     16  C   UNL     1      23.489  74.445 110.121  1.00  0.00     0.039 C 
BRANCH  13  17
ATOM     17  C   UNL     1      23.170  71.193 107.946  1.00  0.00     0.066 CG0
ATOM     18  G   UNL     1      21.793  71.052 107.323  1.00  0.00     0.000 G0
ENDBRANCH  13  17
ENDBRANCH  11  13
ENDBRANCH  10  11
ENDBRANCH   1  10
TORSDOF 0
ENDMDL
MODEL 8
REMARK VINA RESULT:    -3.192      1.939      5.262
REMARK INTER + INTRA:          -4.258
REMARK INTER:                  -4.960
REMARK INTRA:                   0.703
REMARK UNBOUND:                 0.241
REMARK SMILES CC1=CCC(=C(C)C)C(=O)CC(C)=CCC1
REMARK SMILES IDX 12 1 14 2 13 3 15 4 16 5 2 6 1 7 3 8 11 10 9 11 10 12 5 13
REMARK SMILES IDX 6 14 7 15 8 16 4 17
REMARK H PARENT
REMARK Flexibility Score: 60.00
ROOT
ATOM      1  C   UNL     1      34.900  68.380 102.851  1.00  0.00    -0.070 C 
ATOM      2  C   UNL     1      34.257  67.357 102.246  1.00  0.00    -0.027 C 
ATOM      3  C   UNL     1      35.957  69.114 102.064  1.00  0.00     0.039 C 
ENDROOT
BRANCH   2   4
ATOM      4  C   UNL     1      33.241  66.445 102.897  1.00  0.00     0.032 C 
BRANCH   4   5
ATOM      5  C   UNL     1      31.807  67.010 102.957  1.00  0.00     0.034 C 
BRANCH   5   6
ATOM      6  C   UNL     1      31.338  67.299 104.373  1.00  0.00    -0.077 C 
ATOM      7  C   UNL     1      30.904  66.131 105.219  1.00  0.00     0.039 C 
ATOM      8  C   UNL     1      31.219  68.542 104.898  1.00  0.00    -0.023 CG0
ATOM      9  G   UNL     1      31.610  69.854 104.244  1.00  0.00     0.000 G0
ENDBRANCH   5   6
ENDBRANCH   4   5
ENDBRANCH   2   4
BRANCH   1  10
ATOM     10  C   UNL     1      34.677  68.763 104.300  1.00  0.00     0.111 C 
BRANCH  10  11
ATOM     11  C   UNL     1      34.179  70.178 104.431  1.00  0.00     0.163 C 
ATOM     12  O   UNL     1      34.969  71.115 104.136  1.00  0.00    -0.294 OA
BRANCH  11  13
ATOM     13  C   UNL     1      32.818  70.505 104.952  1.00  0.00    -0.002 C 
ATOM     14  C   UNL     1      32.663  71.286 106.063  1.00  0.00    -0.069 C 
ATOM     15  C   UNL     1      31.310  71.504 106.705  1.00  0.00     0.039 C 
ATOM     16  C   UNL     1      33.846  71.972 106.711  1.00  0.00     0.039 C 
BRANCH  13  17
ATOM     17  C   UNL     1      31.633  69.859 104.253  1.00  0.00     0.066 CG0
ATOM     18  G   UNL     1      31.220  68.554 104.906  1.00  0.00     0.000 G0
ENDBRANCH  13  17
ENDBRANCH  11  13
ENDBRANCH  10  11
ENDBRANCH   1  10
TORSDOF 0
ENDMDL
MODEL 9
REMARK VINA RESULT:    -3.191      9.706     11.020
REMARK INTER + INTRA:          -4.255
REMARK INTER:                  -4.400
REMARK INTRA:                   0.145
REMARK UNBOUND:                 0.241
REMARK SMILES CC1=CCC(=C(C)C)C(=O)CC(C)=CCC1
REMARK SMILES IDX 12 1 14 2 13 3 15 4 16 5 2 6 1 7 3 8 11 10 9 11 10 12 5 13
REMARK SMILES IDX 6 14 7 15 8 16 4 17
REMARK H PARENT
REMARK Flexibility Score: 60.00
ROOT
ATOM      1  C   UNL     1      21.919  72.448 105.002  1.00  0.00    -0.070 C 
ATOM      2  C   UNL     1      22.216  73.572 104.312  1.00  0.00    -0.027 C 
ATOM      3  C   UNL     1      20.500  71.938 104.941  1.00  0.00     0.039 C 
ENDROOT
BRANCH   2   4
ATOM      4  C   UNL     1      23.548  74.289 104.326  1.00  0.00     0.032 C 
BRANCH   4   5
ATOM      5  C   UNL     1      23.749  75.262 105.506  1.00  0.00     0.034 C 
BRANCH   5   6
ATOM      6  C   UNL     1      25.068  75.058 106.231  1.00  0.00    -0.077 C 
ATOM      7  C   UNL     1      26.330  75.469 105.517  1.00  0.00     0.039 C 
ATOM      8  C   UNL     1      25.189  74.469 107.445  1.00  0.00    -0.023 CG0
ATOM      9  G   UNL     1      24.067  73.996 108.349  1.00  0.00     0.000 G0
ENDBRANCH   5   6
ENDBRANCH   4   5
ENDBRANCH   2   4
BRANCH   1  10
ATOM     10  C   UNL     1      22.909  71.735 105.899  1.00  0.00     0.111 C 
BRANCH  10  11
ATOM     11  C   UNL     1      22.688  72.070 107.349  1.00  0.00     0.163 C 
ATOM     12  O   UNL     1      21.510  72.024 107.797  1.00  0.00    -0.294 OA
BRANCH  11  13
ATOM     13  C   UNL     1      23.796  72.509 108.250  1.00  0.00    -0.002 C 
ATOM     14  C   UNL     1      24.482  71.602 109.008  1.00  0.00    -0.069 C 
ATOM     15  C   UNL     1      25.498  72.031 110.044  1.00  0.00     0.039 C 
ATOM     16  C   UNL     1      24.254  70.114 108.850  1.00  0.00     0.039 C 
BRANCH  13  17
ATOM     17  C   UNL     1      24.057  74.003 108.353  1.00  0.00     0.066 CG0
ATOM     18  G   UNL     1      25.193  74.453 107.454  1.00  0.00     0.000 G0
ENDBRANCH  13  17
ENDBRANCH  11  13
ENDBRANCH  10  11
ENDBRANCH   1  10
TORSDOF 0
ENDMDL
