MODEL 1
REMARK VINA RESULT:    -3.423      0.000      0.000
REMARK INTER + INTRA:          -4.383
REMARK INTER:                  -4.223
REMARK INTRA:                  -0.160
REMARK UNBOUND:                -0.160
REMARK SMILES CCCCCC(=O)[O-]
REMARK SMILES IDX 4 1 5 2 6 3 7 4 8 5 3 6 2 7 1 8
REMARK H PARENT
REMARK Flexibility Score: inf
ROOT
ATOM      1  C   UNL     1     -10.558   1.067  15.321  1.00  0.00     0.006 C 
ENDROOT
BRANCH   1   2
ATOM      2  C   UNL     1     -11.823   1.463  16.095  1.00  0.00     0.053 C 
BRANCH   2   3
ATOM      3  C   UNL     1     -11.927   2.947  16.272  1.00  0.00     0.041 C 
ATOM      4  O   UNL     1     -11.162   3.716  15.632  1.00  0.00    -0.550 OA
ATOM      5  O   UNL     1     -12.889   3.482  17.118  1.00  0.00    -0.550 OA
ENDBRANCH   2   3
ENDBRANCH   1   2
BRANCH   1   6
ATOM      6  C   UNL     1     -10.885   0.289  14.035  1.00  0.00     0.000 C 
BRANCH   6   7
ATOM      7  C   UNL     1     -12.396   0.101  13.829  1.00  0.00    -0.003 C 
ATOM      8  C   UNL     1     -12.767  -1.331  13.441  1.00  0.00     0.004 C 
ENDBRANCH   6   7
ENDBRANCH   1   6
TORSDOF 4
ENDMDL
MODEL 2
REMARK VINA RESULT:    -3.343      2.368      3.999
REMARK INTER + INTRA:          -4.285
REMARK INTER:                  -4.066
REMARK INTRA:                  -0.219
REMARK UNBOUND:                -0.160
REMARK SMILES CCCCCC(=O)[O-]
REMARK SMILES IDX 4 1 5 2 6 3 7 4 8 5 3 6 2 7 1 8
REMARK H PARENT
REMARK Flexibility Score: inf
ROOT
ATOM      1  C   UNL     1      -9.840   0.888  15.396  1.00  0.00     0.006 C 
ENDROOT
BRANCH   1   2
ATOM      2  C   UNL     1     -10.528   0.637  14.048  1.00  0.00     0.053 C 
BRANCH   2   3
ATOM      3  C   UNL     1     -11.976   0.289  14.217  1.00  0.00     0.041 C 
ATOM      4  O   UNL     1     -12.642   0.790  15.161  1.00  0.00    -0.550 OA
ATOM      5  O   UNL     1     -12.597  -0.565  13.315  1.00  0.00    -0.550 OA
ENDBRANCH   2   3
ENDBRANCH   1   2
BRANCH   1   6
ATOM      6  C   UNL     1      -9.512   2.375  15.613  1.00  0.00     0.000 C 
BRANCH   6   7
ATOM      7  C   UNL     1     -10.311   2.992  16.771  1.00  0.00    -0.003 C 
ATOM      8  C   UNL     1     -11.424   3.924  16.292  1.00  0.00     0.004 C 
ENDBRANCH   6   7
ENDBRANCH   1   6
TORSDOF 4
ENDMDL
MODEL 3
REMARK VINA RESULT:    -3.328      2.730      4.038
REMARK INTER + INTRA:          -4.266
REMARK INTER:                  -4.116
REMARK INTRA:                  -0.150
REMARK UNBOUND:                -0.160
REMARK SMILES CCCCCC(=O)[O-]
REMARK SMILES IDX 4 1 5 2 6 3 7 4 8 5 3 6 2 7 1 8
REMARK H PARENT
REMARK Flexibility Score: inf
ROOT
ATOM      1  C   UNL     1      -9.551   2.419  15.847  1.00  0.00     0.006 C 
ENDROOT
BRANCH   1   2
ATOM      2  C   UNL     1      -9.973   0.947  15.744  1.00  0.00     0.053 C 
BRANCH   2   3
ATOM      3  C   UNL     1     -10.141   0.514  14.319  1.00  0.00     0.041 C 
ATOM      4  O   UNL     1      -9.141   0.440  13.558  1.00  0.00    -0.550 OA
ATOM      5  O   UNL     1     -11.397   0.163  13.842  1.00  0.00    -0.550 OA
ENDBRANCH   2   3
ENDBRANCH   1   2
BRANCH   1   6
ATOM      6  C   UNL     1     -10.760   3.370  15.852  1.00  0.00     0.000 C 
BRANCH   6   7
ATOM      7  C   UNL     1     -11.998   2.746  16.515  1.00  0.00    -0.003 C 
ATOM      8  C   UNL     1     -12.889   3.781  17.201  1.00  0.00     0.004 C 
ENDBRANCH   6   7
ENDBRANCH   1   6
TORSDOF 4
ENDMDL
MODEL 4
REMARK VINA RESULT:    -3.316      2.572      3.958
REMARK INTER + INTRA:          -4.251
REMARK INTER:                  -4.128
REMARK INTRA:                  -0.124
REMARK UNBOUND:                -0.160
REMARK SMILES CCCCCC(=O)[O-]
REMARK SMILES IDX 4 1 5 2 6 3 7 4 8 5 3 6 2 7 1 8
REMARK H PARENT
REMARK Flexibility Score: inf
ROOT
ATOM      1  C   UNL     1      -9.784   0.845  15.389  1.00  0.00     0.006 C 
ENDROOT
BRANCH   1   2
ATOM      2  C   UNL     1     -10.500   0.613  14.051  1.00  0.00     0.053 C 
BRANCH   2   3
ATOM      3  C   UNL     1     -11.969   0.381  14.237  1.00  0.00     0.041 C 
ATOM      4  O   UNL     1     -12.644  -0.165  13.326  1.00  0.00    -0.550 OA
ATOM      5  O   UNL     1     -12.585   0.741  15.428  1.00  0.00    -0.550 OA
ENDBRANCH   2   3
ENDBRANCH   1   2
BRANCH   1   6
ATOM      6  C   UNL     1      -9.536   2.338  15.662  1.00  0.00     0.000 C 
BRANCH   6   7
ATOM      7  C   UNL     1      -9.311   2.634  17.153  1.00  0.00    -0.003 C 
ATOM      8  C   UNL     1      -9.673   1.452  18.053  1.00  0.00     0.004 C 
ENDBRANCH   6   7
ENDBRANCH   1   6
TORSDOF 4
ENDMDL
MODEL 5
REMARK VINA RESULT:    -3.254      1.328      2.035
REMARK INTER + INTRA:          -4.175
REMARK INTER:                  -3.998
REMARK INTRA:                  -0.176
REMARK UNBOUND:                -0.160
REMARK SMILES CCCCCC(=O)[O-]
REMARK SMILES IDX 4 1 5 2 6 3 7 4 8 5 3 6 2 7 1 8
REMARK H PARENT
REMARK Flexibility Score: inf
ROOT
ATOM      1  C   UNL     1     -11.757   1.329  16.121  1.00  0.00     0.006 C 
ENDROOT
BRANCH   1   2
ATOM      2  C   UNL     1     -12.320   2.740  16.343  1.00  0.00     0.053 C 
BRANCH   2   3
ATOM      3  C   UNL     1     -11.249   3.785  16.271  1.00  0.00     0.041 C 
ATOM      4  O   UNL     1     -11.550   5.006  16.341  1.00  0.00    -0.550 OA
ATOM      5  O   UNL     1      -9.917   3.411  16.157  1.00  0.00    -0.550 OA
ENDBRANCH   2   3
ENDBRANCH   1   2
BRANCH   1   6
ATOM      6  C   UNL     1     -12.443   0.610  14.947  1.00  0.00     0.000 C 
BRANCH   6   7
ATOM      7  C   UNL     1     -11.444   0.148  13.875  1.00  0.00    -0.003 C 
ATOM      8  C   UNL     1      -9.993   0.456  14.245  1.00  0.00     0.004 C 
ENDBRANCH   6   7
ENDBRANCH   1   6
TORSDOF 4
ENDMDL
MODEL 6
REMARK VINA RESULT:    -3.234      2.536      4.284
REMARK INTER + INTRA:          -4.150
REMARK INTER:                  -4.033
REMARK INTRA:                  -0.118
REMARK UNBOUND:                -0.160
REMARK SMILES CCCCCC(=O)[O-]
REMARK SMILES IDX 4 1 5 2 6 3 7 4 8 5 3 6 2 7 1 8
REMARK H PARENT
REMARK Flexibility Score: inf
ROOT
ATOM      1  C   UNL     1     -11.372   1.417  16.205  1.00  0.00     0.006 C 
ENDROOT
BRANCH   1   2
ATOM      2  C   UNL     1     -12.450   0.885  15.251  1.00  0.00     0.053 C 
BRANCH   2   3
ATOM      3  C   UNL     1     -11.855   0.129  14.103  1.00  0.00     0.041 C 
ATOM      4  O   UNL     1     -10.630   0.242  13.837  1.00  0.00    -0.550 OA
ATOM      5  O   UNL     1     -12.647  -0.724  13.346  1.00  0.00    -0.550 OA
ENDBRANCH   2   3
ENDBRANCH   1   2
BRANCH   1   6
ATOM      6  C   UNL     1     -11.332   2.954  16.236  1.00  0.00     0.000 C 
BRANCH   6   7
ATOM      7  C   UNL     1     -12.658   3.568  16.712  1.00  0.00    -0.003 C 
ATOM      8  C   UNL     1     -12.613   4.018  18.172  1.00  0.00     0.004 C 
ENDBRANCH   6   7
ENDBRANCH   1   6
TORSDOF 4
ENDMDL
MODEL 7
REMARK VINA RESULT:    -3.185     13.431     14.321
REMARK INTER + INTRA:          -4.090
REMARK INTER:                  -3.883
REMARK INTRA:                  -0.207
REMARK UNBOUND:                -0.160
REMARK SMILES CCCCCC(=O)[O-]
REMARK SMILES IDX 4 1 5 2 6 3 7 4 8 5 3 6 2 7 1 8
REMARK H PARENT
REMARK Flexibility Score: inf
ROOT
ATOM      1  C   UNL     1      -1.098  -2.885  22.280  1.00  0.00     0.006 C 
ENDROOT
BRANCH   1   2
ATOM      2  C   UNL     1      -0.482  -4.188  22.807  1.00  0.00     0.053 C 
BRANCH   2   3
ATOM      3  C   UNL     1      -0.380  -4.192  24.302  1.00  0.00     0.041 C 
ATOM      4  O   UNL     1       0.156  -5.164  24.897  1.00  0.00    -0.550 OA
ATOM      5  O   UNL     1      -0.850  -3.111  25.035  1.00  0.00    -0.550 OA
ENDBRANCH   2   3
ENDBRANCH   1   2
BRANCH   1   6
ATOM      6  C   UNL     1      -2.501  -3.103  21.691  1.00  0.00     0.000 C 
BRANCH   6   7
ATOM      7  C   UNL     1      -3.599  -2.411  22.513  1.00  0.00    -0.003 C 
ATOM      8  C   UNL     1      -3.100  -1.157  23.232  1.00  0.00     0.004 C 
ENDBRANCH   6   7
ENDBRANCH   1   6
TORSDOF 4
ENDMDL
MODEL 8
REMARK VINA RESULT:    -3.183     12.612     13.201
REMARK INTER + INTRA:          -4.087
REMARK INTER:                  -4.024
REMARK INTRA:                  -0.063
REMARK UNBOUND:                -0.160
REMARK SMILES CCCCCC(=O)[O-]
REMARK SMILES IDX 4 1 5 2 6 3 7 4 8 5 3 6 2 7 1 8
REMARK H PARENT
REMARK Flexibility Score: inf
ROOT
ATOM      1  C   UNL     1      -2.972  -8.728  16.658  1.00  0.00     0.006 C 
ENDROOT
BRANCH   1   2
ATOM      2  C   UNL     1      -3.532  -8.633  18.084  1.00  0.00     0.053 C 
BRANCH   2   3
ATOM      3  C   UNL     1      -3.443  -7.239  18.627  1.00  0.00     0.041 C 
ATOM      4  O   UNL     1      -3.887  -6.978  19.776  1.00  0.00    -0.550 OA
ATOM      5  O   UNL     1      -2.842  -6.238  17.877  1.00  0.00    -0.550 OA
ENDBRANCH   2   3
ENDBRANCH   1   2
BRANCH   1   6
ATOM      6  C   UNL     1      -3.255 -10.096  16.014  1.00  0.00     0.000 C 
BRANCH   6   7
ATOM      7  C   UNL     1      -4.725 -10.257  15.597  1.00  0.00    -0.003 C 
ATOM      8  C   UNL     1      -4.928 -11.360  14.557  1.00  0.00     0.004 C 
ENDBRANCH   6   7
ENDBRANCH   1   6
TORSDOF 4
ENDMDL
MODEL 9
REMARK VINA RESULT:    -3.077      2.871      4.195
REMARK INTER + INTRA:          -3.957
REMARK INTER:                  -3.845
REMARK INTRA:                  -0.112
REMARK UNBOUND:                -0.160
REMARK SMILES CCCCCC(=O)[O-]
REMARK SMILES IDX 4 1 5 2 6 3 7 4 8 5 3 6 2 7 1 8
REMARK H PARENT
REMARK Flexibility Score: inf
ROOT
ATOM      1  C   UNL     1     -11.518   1.890  16.024  1.00  0.00     0.006 C 
ENDROOT
BRANCH   1   2
ATOM      2  C   UNL     1     -12.500   1.000  15.251  1.00  0.00     0.053 C 
BRANCH   2   3
ATOM      3  C   UNL     1     -11.822   0.250  14.145  1.00  0.00     0.041 C 
ATOM      4  O   UNL     1     -10.592   0.415  13.929  1.00  0.00    -0.550 OA
ATOM      5  O   UNL     1     -12.540  -0.654  13.374  1.00  0.00    -0.550 OA
ENDBRANCH   2   3
ENDBRANCH   1   2
BRANCH   1   6
ATOM      6  C   UNL     1     -11.268   1.375  17.452  1.00  0.00     0.000 C 
BRANCH   6   7
ATOM      7  C   UNL     1      -9.779   1.127  17.737  1.00  0.00    -0.003 C 
ATOM      8  C   UNL     1      -9.547   0.300  19.001  1.00  0.00     0.004 C 
ENDBRANCH   6   7
ENDBRANCH   1   6
TORSDOF 4
ENDMDL
