MODEL 1
REMARK VINA RESULT:     0.539      0.000      0.000
REMARK INTER + INTRA:           3.919
REMARK INTER:                   0.981
REMARK INTRA:                   2.939
REMARK UNBOUND:                 2.939
REMARK SMILES CCCCCC=CCC=CCCCCCCCC(=O)[O-]
REMARK SMILES IDX 11 1 12 2 13 3 14 4 15 5 16 6 17 7 18 8 19 9 20 10 10 11
REMARK SMILES IDX 9 12 8 13 7 14 6 15 5 16 4 17 3 18 2 19 1 20
REMARK H PARENT
REMARK Flexibility Score: inf
ROOT
ATOM      1  C   UNL     1      22.765   7.536  -4.108  1.00  0.00     0.027 C 
ENDROOT
BRANCH   1   2
ATOM      2  C   UNL     1      21.257   7.333  -3.899  1.00  0.00     0.004 C 
BRANCH   2   3
ATOM      3  C   UNL     1      20.875   5.852  -3.736  1.00  0.00     0.000 C 
BRANCH   3   4
ATOM      4  C   UNL     1      22.065   4.905  -3.972  1.00  0.00     0.000 C 
BRANCH   4   5
ATOM      5  C   UNL     1      23.050   4.875  -2.791  1.00  0.00     0.000 C 
BRANCH   5   6
ATOM      6  C   UNL     1      24.513   5.217  -3.145  1.00  0.00     0.006 C 
BRANCH   6   7
ATOM      7  C   UNL     1      25.484   5.177  -1.954  1.00  0.00     0.053 C 
BRANCH   7   8
ATOM      8  C   UNL     1      26.311   6.423  -1.865  1.00  0.00     0.041 C 
ATOM      9  O   UNL     1      27.246   6.505  -1.025  1.00  0.00    -0.550 OA
ATOM     10  O   UNL     1      26.072   7.479  -2.734  1.00  0.00    -0.550 OA
ENDBRANCH   7   8
ENDBRANCH   6   7
ENDBRANCH   5   6
ENDBRANCH   4   5
ENDBRANCH   3   4
ENDBRANCH   2   3
ENDBRANCH   1   2
BRANCH   1  11
ATOM     11  C   UNL     1      23.050   8.122  -5.470  1.00  0.00    -0.031 C 
ATOM     12  C   UNL     1      22.287   9.071  -6.040  1.00  0.00    -0.027 C 
BRANCH  12  13
ATOM     13  C   UNL     1      21.058   9.667  -5.400  1.00  0.00     0.054 C 
BRANCH  13  14
ATOM     14  C   UNL     1      21.289   9.981  -3.949  1.00  0.00    -0.027 C 
ATOM     15  C   UNL     1      21.638  11.211  -3.544  1.00  0.00    -0.031 C 
BRANCH  15  16
ATOM     16  C   UNL     1      21.866  11.530  -2.091  1.00  0.00     0.027 C 
BRANCH  16  17
ATOM     17  C   UNL     1      23.357  11.538  -1.713  1.00  0.00     0.004 C 
BRANCH  17  18
ATOM     18  C   UNL     1      24.226  10.578  -2.547  1.00  0.00     0.000 C 
BRANCH  18  19
ATOM     19  C   UNL     1      24.099   9.117  -2.093  1.00  0.00    -0.003 C 
ATOM     20  C   UNL     1      23.662   9.032  -0.633  1.00  0.00     0.004 C 
ENDBRANCH  18  19
ENDBRANCH  17  18
ENDBRANCH  16  17
ENDBRANCH  15  16
ENDBRANCH  13  14
ENDBRANCH  12  13
ENDBRANCH   1  11
TORSDOF 14
ENDMDL
MODEL 2
REMARK VINA RESULT:     0.607      2.320      5.316
REMARK INTER + INTRA:           4.042
REMARK INTER:                   1.848
REMARK INTRA:                   2.194
REMARK UNBOUND:                 2.939
REMARK SMILES CCCCCC=CCC=CCCCCCCCC(=O)[O-]
REMARK SMILES IDX 11 1 12 2 13 3 14 4 15 5 16 6 17 7 18 8 19 9 20 10 10 11
REMARK SMILES IDX 9 12 8 13 7 14 6 15 5 16 4 17 3 18 2 19 1 20
REMARK H PARENT
REMARK Flexibility Score: inf
ROOT
ATOM      1  C   UNL     1      21.093   7.410  -5.677  1.00  0.00     0.027 C 
ENDROOT
BRANCH   1   2
ATOM      2  C   UNL     1      22.159   8.398  -6.170  1.00  0.00     0.004 C 
BRANCH   2   3
ATOM      3  C   UNL     1      21.953   9.818  -5.615  1.00  0.00     0.000 C 
BRANCH   3   4
ATOM      4  C   UNL     1      22.231   9.908  -4.104  1.00  0.00     0.000 C 
BRANCH   4   5
ATOM      5  C   UNL     1      23.724  10.095  -3.780  1.00  0.00     0.000 C 
BRANCH   5   6
ATOM      6  C   UNL     1      24.059  11.326  -2.912  1.00  0.00     0.006 C 
BRANCH   6   7
ATOM      7  C   UNL     1      23.182  11.481  -1.659  1.00  0.00     0.053 C 
BRANCH   7   8
ATOM      8  C   UNL     1      21.730  11.608  -2.005  1.00  0.00     0.041 C 
ATOM      9  O   UNL     1      21.016  10.579  -2.138  1.00  0.00    -0.550 OA
ATOM     10  O   UNL     1      21.157  12.866  -2.145  1.00  0.00    -0.550 OA
ENDBRANCH   7   8
ENDBRANCH   6   7
ENDBRANCH   5   6
ENDBRANCH   4   5
ENDBRANCH   3   4
ENDBRANCH   2   3
ENDBRANCH   1   2
BRANCH   1  11
ATOM     11  C   UNL     1      20.890   7.530  -4.186  1.00  0.00    -0.031 C 
ATOM     12  C   UNL     1      21.153   6.535  -3.321  1.00  0.00    -0.027 C 
BRANCH  12  13
ATOM     13  C   UNL     1      21.680   5.180  -3.725  1.00  0.00     0.054 C 
BRANCH  13  14
ATOM     14  C   UNL     1      23.035   4.917  -3.133  1.00  0.00    -0.027 C 
ATOM     15  C   UNL     1      24.161   5.185  -3.811  1.00  0.00    -0.031 C 
BRANCH  15  16
ATOM     16  C   UNL     1      25.520   4.927  -3.219  1.00  0.00     0.027 C 
BRANCH  16  17
ATOM     17  C   UNL     1      25.626   5.391  -1.755  1.00  0.00     0.004 C 
BRANCH  17  18
ATOM     18  C   UNL     1      25.778   6.914  -1.585  1.00  0.00     0.000 C 
BRANCH  18  19
ATOM     19  C   UNL     1      24.526   7.687  -2.021  1.00  0.00    -0.003 C 
ATOM     20  C   UNL     1      23.914   8.447  -0.848  1.00  0.00     0.004 C 
ENDBRANCH  18  19
ENDBRANCH  17  18
ENDBRANCH  16  17
ENDBRANCH  15  16
ENDBRANCH  13  14
ENDBRANCH  12  13
ENDBRANCH   1  11
TORSDOF 14
ENDMDL
MODEL 3
REMARK VINA RESULT:     1.125      1.690      4.169
REMARK INTER + INTRA:           4.984
REMARK INTER:                   2.996
REMARK INTRA:                   1.988
REMARK UNBOUND:                 2.939
REMARK SMILES CCCCCC=CCC=CCCCCCCCC(=O)[O-]
REMARK SMILES IDX 11 1 12 2 13 3 14 4 15 5 16 6 17 7 18 8 19 9 20 10 10 11
REMARK SMILES IDX 9 12 8 13 7 14 6 15 5 16 4 17 3 18 2 19 1 20
REMARK H PARENT
REMARK Flexibility Score: inf
ROOT
ATOM      1  C   UNL     1      23.541  10.918  -2.646  1.00  0.00     0.027 C 
ENDROOT
BRANCH   1   2
ATOM      2  C   UNL     1      23.543   9.383  -2.610  1.00  0.00     0.004 C 
BRANCH   2   3
ATOM      3  C   UNL     1      24.907   8.801  -2.201  1.00  0.00     0.000 C 
BRANCH   3   4
ATOM      4  C   UNL     1      24.779   7.663  -1.173  1.00  0.00     0.000 C 
BRANCH   4   5
ATOM      5  C   UNL     1      25.953   6.670  -1.230  1.00  0.00     0.000 C 
BRANCH   5   6
ATOM      6  C   UNL     1      25.562   5.205  -1.521  1.00  0.00     0.006 C 
BRANCH   6   7
ATOM      7  C   UNL     1      25.388   4.876  -3.012  1.00  0.00     0.053 C 
BRANCH   7   8
ATOM      8  C   UNL     1      24.105   5.421  -3.560  1.00  0.00     0.041 C 
ATOM      9  O   UNL     1      24.122   6.333  -4.428  1.00  0.00    -0.550 OA
ATOM     10  O   UNL     1      22.890   4.897  -3.135  1.00  0.00    -0.550 OA
ENDBRANCH   7   8
ENDBRANCH   6   7
ENDBRANCH   5   6
ENDBRANCH   4   5
ENDBRANCH   3   4
ENDBRANCH   2   3
ENDBRANCH   1   2
BRANCH   1  11
ATOM     11  C   UNL     1      22.221  11.470  -2.164  1.00  0.00    -0.031 C 
ATOM     12  C   UNL     1      21.126  10.713  -1.981  1.00  0.00    -0.027 C 
BRANCH  12  13
ATOM     13  C   UNL     1      21.073   9.226  -2.232  1.00  0.00     0.054 C 
BRANCH  13  14
ATOM     14  C   UNL     1      20.980   8.919  -3.700  1.00  0.00    -0.027 C 
ATOM     15  C   UNL     1      20.973   7.656  -4.153  1.00  0.00    -0.031 C 
BRANCH  15  16
ATOM     16  C   UNL     1      20.875   7.345  -5.622  1.00  0.00     0.027 C 
BRANCH  16  17
ATOM     17  C   UNL     1      22.038   7.944  -6.432  1.00  0.00     0.004 C 
BRANCH  17  18
ATOM     18  C   UNL     1      22.895   8.958  -5.653  1.00  0.00     0.000 C 
BRANCH  18  19
ATOM     19  C   UNL     1      22.769  10.387  -6.201  1.00  0.00    -0.003 C 
ATOM     20  C   UNL     1      21.436  11.013  -5.800  1.00  0.00     0.004 C 
ENDBRANCH  18  19
ENDBRANCH  17  18
ENDBRANCH  16  17
ENDBRANCH  15  16
ENDBRANCH  13  14
ENDBRANCH  12  13
ENDBRANCH   1  11
TORSDOF 14
ENDMDL
MODEL 4
REMARK VINA RESULT:     1.612      2.380      5.256
REMARK INTER + INTRA:           5.869
REMARK INTER:                   4.549
REMARK INTRA:                   1.321
REMARK UNBOUND:                 2.939
REMARK SMILES CCCCCC=CCC=CCCCCCCCC(=O)[O-]
REMARK SMILES IDX 11 1 12 2 13 3 14 4 15 5 16 6 17 7 18 8 19 9 20 10 10 11
REMARK SMILES IDX 9 12 8 13 7 14 6 15 5 16 4 17 3 18 2 19 1 20
REMARK H PARENT
REMARK Flexibility Score: inf
ROOT
ATOM      1  C   UNL     1      22.941   9.793  -5.453  1.00  0.00     0.027 C 
ENDROOT
BRANCH   1   2
ATOM      2  C   UNL     1      24.189   9.236  -4.754  1.00  0.00     0.004 C 
BRANCH   2   3
ATOM      3  C   UNL     1      23.880   8.651  -3.365  1.00  0.00     0.000 C 
BRANCH   3   4
ATOM      4  C   UNL     1      24.491   9.485  -2.225  1.00  0.00     0.000 C 
BRANCH   4   5
ATOM      5  C   UNL     1      23.464   9.858  -1.141  1.00  0.00     0.000 C 
BRANCH   5   6
ATOM      6  C   UNL     1      21.988   9.626  -1.525  1.00  0.00     0.006 C 
BRANCH   6   7
ATOM      7  C   UNL     1      21.122  10.896  -1.527  1.00  0.00     0.053 C 
BRANCH   7   8
ATOM      8  C   UNL     1      21.865  12.079  -2.067  1.00  0.00     0.041 C 
ATOM      9  O   UNL     1      23.103  12.007  -2.285  1.00  0.00    -0.550 OA
ATOM     10  O   UNL     1      21.182  13.253  -2.362  1.00  0.00    -0.550 OA
ENDBRANCH   7   8
ENDBRANCH   6   7
ENDBRANCH   5   6
ENDBRANCH   4   5
ENDBRANCH   3   4
ENDBRANCH   2   3
ENDBRANCH   1   2
BRANCH   1  11
ATOM     11  C   UNL     1      21.734   9.716  -4.550  1.00  0.00    -0.031 C 
ATOM     12  C   UNL     1      20.875   8.681  -4.550  1.00  0.00    -0.027 C 
BRANCH  12  13
ATOM     13  C   UNL     1      21.005   7.474  -5.445  1.00  0.00     0.054 C 
BRANCH  13  14
ATOM     14  C   UNL     1      21.403   6.251  -4.667  1.00  0.00    -0.027 C 
ATOM     15  C   UNL     1      22.636   6.116  -4.157  1.00  0.00    -0.031 C 
BRANCH  15  16
ATOM     16  C   UNL     1      23.037   4.895  -3.373  1.00  0.00     0.027 C 
BRANCH  16  17
ATOM     17  C   UNL     1      24.534   4.884  -3.018  1.00  0.00     0.004 C 
BRANCH  17  18
ATOM     18  C   UNL     1      24.995   6.095  -2.186  1.00  0.00     0.000 C 
BRANCH  18  19
ATOM     19  C   UNL     1      26.268   5.808  -1.377  1.00  0.00    -0.003 C 
ATOM     20  C   UNL     1      27.226   4.915  -2.160  1.00  0.00     0.004 C 
ENDBRANCH  18  19
ENDBRANCH  17  18
ENDBRANCH  16  17
ENDBRANCH  15  16
ENDBRANCH  13  14
ENDBRANCH  12  13
ENDBRANCH   1  11
TORSDOF 14
ENDMDL
MODEL 5
REMARK VINA RESULT:     2.124     11.272     14.319
REMARK INTER + INTRA:           6.801
REMARK INTER:                   7.623
REMARK INTRA:                  -0.821
REMARK UNBOUND:                 2.939
REMARK SMILES CCCCCC=CCC=CCCCCCCCC(=O)[O-]
REMARK SMILES IDX 11 1 12 2 13 3 14 4 15 5 16 6 17 7 18 8 19 9 20 10 10 11
REMARK SMILES IDX 9 12 8 13 7 14 6 15 5 16 4 17 3 18 2 19 1 20
REMARK H PARENT
REMARK Flexibility Score: inf
ROOT
ATOM      1  C   UNL     1      29.273  18.093   3.651  1.00  0.00     0.027 C 
ENDROOT
BRANCH   1   2
ATOM      2  C   UNL     1      29.557  18.382   2.170  1.00  0.00     0.004 C 
BRANCH   2   3
ATOM      3  C   UNL     1      28.371  19.054   1.459  1.00  0.00     0.000 C 
BRANCH   3   4
ATOM      4  C   UNL     1      28.149  18.508   0.037  1.00  0.00     0.000 C 
BRANCH   4   5
ATOM      5  C   UNL     1      28.882  17.179  -0.215  1.00  0.00     0.000 C 
BRANCH   5   6
ATOM      6  C   UNL     1      28.293  16.307  -1.344  1.00  0.00     0.006 C 
BRANCH   6   7
ATOM      7  C   UNL     1      29.163  15.103  -1.740  1.00  0.00     0.053 C 
BRANCH   7   8
ATOM      8  C   UNL     1      30.502  15.527  -2.260  1.00  0.00     0.041 C 
ATOM      9  O   UNL     1      31.538  15.351  -1.567  1.00  0.00    -0.550 OA
ATOM     10  O   UNL     1      30.609  16.085  -3.528  1.00  0.00    -0.550 OA
ENDBRANCH   7   8
ENDBRANCH   6   7
ENDBRANCH   5   6
ENDBRANCH   4   5
ENDBRANCH   3   4
ENDBRANCH   2   3
ENDBRANCH   1   2
BRANCH   1  11
ATOM     11  C   UNL     1      30.303  18.749   4.539  1.00  0.00    -0.031 C 
ATOM     12  C   UNL     1      31.040  18.075   5.439  1.00  0.00    -0.027 C 
BRANCH  12  13
ATOM     13  C   UNL     1      30.934  16.589   5.677  1.00  0.00     0.054 C 
BRANCH  13  14
ATOM     14  C   UNL     1      30.743  16.277   7.134  1.00  0.00    -0.027 C 
ATOM     15  C   UNL     1      29.902  15.315   7.541  1.00  0.00    -0.031 C 
BRANCH  15  16
ATOM     16  C   UNL     1      29.712  14.997   9.000  1.00  0.00     0.027 C 
BRANCH  16  17
ATOM     17  C   UNL     1      29.824  16.242   9.897  1.00  0.00     0.004 C 
BRANCH  17  18
ATOM     18  C   UNL     1      28.486  16.961  10.148  1.00  0.00     0.000 C 
BRANCH  18  19
ATOM     19  C   UNL     1      28.620  18.139  11.125  1.00  0.00    -0.003 C 
ATOM     20  C   UNL     1      27.605  19.233  10.808  1.00  0.00     0.004 C 
ENDBRANCH  18  19
ENDBRANCH  17  18
ENDBRANCH  16  17
ENDBRANCH  15  16
ENDBRANCH  13  14
ENDBRANCH  12  13
ENDBRANCH   1  11
TORSDOF 14
ENDMDL
MODEL 6
REMARK VINA RESULT:     2.295      1.363      3.046
REMARK INTER + INTRA:           7.112
REMARK INTER:                   6.254
REMARK INTRA:                   0.858
REMARK UNBOUND:                 2.939
REMARK SMILES CCCCCC=CCC=CCCCCCCCC(=O)[O-]
REMARK SMILES IDX 11 1 12 2 13 3 14 4 15 5 16 6 17 7 18 8 19 9 20 10 10 11
REMARK SMILES IDX 9 12 8 13 7 14 6 15 5 16 4 17 3 18 2 19 1 20
REMARK H PARENT
REMARK Flexibility Score: inf
ROOT
ATOM      1  C   UNL     1      22.098  10.027  -4.392  1.00  0.00     0.027 C 
ENDROOT
BRANCH   1   2
ATOM      2  C   UNL     1      21.260   9.390  -5.511  1.00  0.00     0.004 C 
BRANCH   2   3
ATOM      3  C   UNL     1      21.313   7.853  -5.489  1.00  0.00     0.000 C 
BRANCH   3   4
ATOM      4  C   UNL     1      22.205   7.308  -4.359  1.00  0.00     0.000 C 
BRANCH   4   5
ATOM      5  C   UNL     1      21.766   5.918  -3.867  1.00  0.00     0.000 C 
BRANCH   5   6
ATOM      6  C   UNL     1      22.904   5.016  -3.345  1.00  0.00     0.006 C 
BRANCH   6   7
ATOM      7  C   UNL     1      24.314   5.601  -3.520  1.00  0.00     0.053 C 
BRANCH   7   8
ATOM      8  C   UNL     1      25.259   5.111  -2.466  1.00  0.00     0.041 C 
ATOM      9  O   UNL     1      24.844   4.875  -1.301  1.00  0.00    -0.550 OA
ATOM     10  O   UNL     1      26.593   4.882  -2.782  1.00  0.00    -0.550 OA
ENDBRANCH   7   8
ENDBRANCH   6   7
ENDBRANCH   5   6
ENDBRANCH   4   5
ENDBRANCH   3   4
ENDBRANCH   2   3
ENDBRANCH   1   2
BRANCH   1  11
ATOM     11  C   UNL     1      21.250  10.316  -3.177  1.00  0.00    -0.031 C 
ATOM     12  C   UNL     1      21.600  11.196  -2.224  1.00  0.00    -0.027 C 
BRANCH  12  13
ATOM     13  C   UNL     1      22.875  12.003  -2.243  1.00  0.00     0.054 C 
BRANCH  13  14
ATOM     14  C   UNL     1      24.086  11.123  -2.113  1.00  0.00    -0.027 C 
ATOM     15  C   UNL     1      24.253  10.039  -2.886  1.00  0.00    -0.031 C 
BRANCH  15  16
ATOM     16  C   UNL     1      25.466   9.159  -2.760  1.00  0.00     0.027 C 
BRANCH  16  17
ATOM     17  C   UNL     1      25.296   8.064  -1.693  1.00  0.00     0.004 C 
BRANCH  17  18
ATOM     18  C   UNL     1      23.890   8.003  -1.068  1.00  0.00     0.000 C 
BRANCH  18  19
ATOM     19  C   UNL     1      23.904   7.483   0.376  1.00  0.00    -0.003 C 
ATOM     20  C   UNL     1      23.415   8.551   1.349  1.00  0.00     0.004 C 
ENDBRANCH  18  19
ENDBRANCH  17  18
ENDBRANCH  16  17
ENDBRANCH  15  16
ENDBRANCH  13  14
ENDBRANCH  12  13
ENDBRANCH   1  11
TORSDOF 14
ENDMDL
MODEL 7
REMARK VINA RESULT:     2.378     11.338     14.268
REMARK INTER + INTRA:           7.263
REMARK INTER:                   8.083
REMARK INTRA:                  -0.820
REMARK UNBOUND:                 2.939
REMARK SMILES CCCCCC=CCC=CCCCCCCCC(=O)[O-]
REMARK SMILES IDX 11 1 12 2 13 3 14 4 15 5 16 6 17 7 18 8 19 9 20 10 10 11
REMARK SMILES IDX 9 12 8 13 7 14 6 15 5 16 4 17 3 18 2 19 1 20
REMARK H PARENT
REMARK Flexibility Score: inf
ROOT
ATOM      1  C   UNL     1      30.893  18.335   5.024  1.00  0.00     0.027 C 
ENDROOT
BRANCH   1   2
ATOM      2  C   UNL     1      31.514  17.230   5.891  1.00  0.00     0.004 C 
BRANCH   2   3
ATOM      3  C   UNL     1      30.617  16.833   7.076  1.00  0.00     0.000 C 
BRANCH   3   4
ATOM      4  C   UNL     1      30.216  15.348   7.040  1.00  0.00     0.000 C 
BRANCH   4   5
ATOM      5  C   UNL     1      30.083  14.729   8.443  1.00  0.00     0.000 C 
BRANCH   5   6
ATOM      6  C   UNL     1      28.635  14.546   8.946  1.00  0.00     0.006 C 
BRANCH   6   7
ATOM      7  C   UNL     1      28.289  15.358  10.204  1.00  0.00     0.053 C 
BRANCH   7   8
ATOM      8  C   UNL     1      28.861  16.742  10.152  1.00  0.00     0.041 C 
ATOM      9  O   UNL     1      28.168  17.699   9.717  1.00  0.00    -0.550 OA
ATOM     10  O   UNL     1      30.148  16.979  10.617  1.00  0.00    -0.550 OA
ENDBRANCH   7   8
ENDBRANCH   6   7
ENDBRANCH   5   6
ENDBRANCH   4   5
ENDBRANCH   3   4
ENDBRANCH   2   3
ENDBRANCH   1   2
BRANCH   1  11
ATOM     11  C   UNL     1      29.533  17.923   4.513  1.00  0.00    -0.031 C 
ATOM     12  C   UNL     1      29.075  18.244   3.290  1.00  0.00    -0.027 C 
BRANCH  12  13
ATOM     13  C   UNL     1      29.852  19.051   2.280  1.00  0.00     0.054 C 
BRANCH  13  14
ATOM     14  C   UNL     1      29.184  19.038   0.934  1.00  0.00    -0.027 C 
ATOM     15  C   UNL     1      28.543  17.951   0.479  1.00  0.00    -0.031 C 
BRANCH  15  16
ATOM     16  C   UNL     1      27.869  17.937  -0.866  1.00  0.00     0.027 C 
BRANCH  16  17
ATOM     17  C   UNL     1      27.821  16.532  -1.491  1.00  0.00     0.004 C 
BRANCH  17  18
ATOM     18  C   UNL     1      29.065  15.671  -1.205  1.00  0.00     0.000 C 
BRANCH  18  19
ATOM     19  C   UNL     1      29.912  15.417  -2.460  1.00  0.00    -0.003 C 
ATOM     20  C   UNL     1      31.396  15.622  -2.172  1.00  0.00     0.004 C 
ENDBRANCH  18  19
ENDBRANCH  17  18
ENDBRANCH  16  17
ENDBRANCH  15  16
ENDBRANCH  13  14
ENDBRANCH  12  13
ENDBRANCH   1  11
TORSDOF 14
ENDMDL
MODEL 8
REMARK VINA RESULT:     2.723      1.691      3.882
REMARK INTER + INTRA:           7.891
REMARK INTER:                   5.157
REMARK INTRA:                   2.734
REMARK UNBOUND:                 2.939
REMARK SMILES CCCCCC=CCC=CCCCCCCCC(=O)[O-]
REMARK SMILES IDX 11 1 12 2 13 3 14 4 15 5 16 6 17 7 18 8 19 9 20 10 10 11
REMARK SMILES IDX 9 12 8 13 7 14 6 15 5 16 4 17 3 18 2 19 1 20
REMARK H PARENT
REMARK Flexibility Score: inf
ROOT
ATOM      1  C   UNL     1      21.748  10.001  -4.703  1.00  0.00     0.027 C 
ENDROOT
BRANCH   1   2
ATOM      2  C   UNL     1      20.877   9.722  -5.937  1.00  0.00     0.004 C 
BRANCH   2   3
ATOM      3  C   UNL     1      20.942   8.254  -6.390  1.00  0.00     0.000 C 
BRANCH   3   4
ATOM      4  C   UNL     1      21.389   7.307  -5.262  1.00  0.00     0.000 C 
BRANCH   4   5
ATOM      5  C   UNL     1      21.043   5.835  -5.545  1.00  0.00     0.000 C 
BRANCH   5   6
ATOM      6  C   UNL     1      20.899   4.941  -4.295  1.00  0.00     0.006 C 
BRANCH   6   7
ATOM      7  C   UNL     1      22.024   5.105  -3.261  1.00  0.00     0.053 C 
BRANCH   7   8
ATOM      8  C   UNL     1      23.158   5.927  -3.792  1.00  0.00     0.041 C 
ATOM      9  O   UNL     1      23.093   7.184  -3.776  1.00  0.00    -0.550 OA
ATOM     10  O   UNL     1      24.302   5.303  -4.274  1.00  0.00    -0.550 OA
ENDBRANCH   7   8
ENDBRANCH   6   7
ENDBRANCH   5   6
ENDBRANCH   4   5
ENDBRANCH   3   4
ENDBRANCH   2   3
ENDBRANCH   1   2
BRANCH   1  11
ATOM     11  C   UNL     1      20.972   9.770  -3.429  1.00  0.00    -0.031 C 
ATOM     12  C   UNL     1      21.353  10.255  -2.234  1.00  0.00    -0.027 C 
BRANCH  12  13
ATOM     13  C   UNL     1      22.594  11.084  -2.013  1.00  0.00     0.054 C 
BRANCH  13  14
ATOM     14  C   UNL     1      23.773  10.226  -1.651  1.00  0.00    -0.027 C 
ATOM     15  C   UNL     1      24.587   9.720  -2.589  1.00  0.00    -0.031 C 
BRANCH  15  16
ATOM     16  C   UNL     1      25.771   8.865  -2.229  1.00  0.00     0.027 C 
BRANCH  16  17
ATOM     17  C   UNL     1      25.392   7.390  -2.011  1.00  0.00     0.004 C 
BRANCH  17  18
ATOM     18  C   UNL     1      26.594   6.431  -1.943  1.00  0.00     0.000 C 
BRANCH  18  19
ATOM     19  C   UNL     1      26.224   5.054  -1.374  1.00  0.00    -0.003 C 
ATOM     20  C   UNL     1      24.761   5.014  -0.941  1.00  0.00     0.004 C 
ENDBRANCH  18  19
ENDBRANCH  17  18
ENDBRANCH  16  17
ENDBRANCH  15  16
ENDBRANCH  13  14
ENDBRANCH  12  13
ENDBRANCH   1  11
TORSDOF 14
ENDMDL
