MODEL 1
REMARK VINA RESULT:    -4.029      0.000      0.000
REMARK INTER + INTRA:          -8.298
REMARK INTER:                  -7.444
REMARK INTRA:                  -0.854
REMARK UNBOUND:                -0.854
REMARK SMILES CCCCCCCCCCCCCCCCO
REMARK SMILES IDX 9 1 8 2 7 3 6 4 5 5 4 6 3 7 2 8 1 9 10 10 11 11 12 12 13 13
REMARK SMILES IDX 14 14 15 15 16 16 17 17
REMARK H PARENT 17 18
REMARK Flexibility Score: inf
ROOT
ATOM      1  C   UNL     1     164.096 165.039 169.217  1.00  0.00     0.000 C 
ENDROOT
BRANCH   1   2
ATOM      2  C   UNL     1     163.281 164.887 167.921  1.00  0.00    -0.000 C 
BRANCH   2   3
ATOM      3  C   UNL     1     161.802 164.544 168.178  1.00  0.00    -0.000 C 
BRANCH   3   4
ATOM      4  C   UNL     1     160.911 164.491 166.925  1.00  0.00    -0.000 C 
BRANCH   4   5
ATOM      5  C   UNL     1     159.412 164.614 167.249  1.00  0.00    -0.000 C 
BRANCH   5   6
ATOM      6  C   UNL     1     159.158 165.090 168.688  1.00  0.00    -0.000 C 
BRANCH   6   7
ATOM      7  C   UNL     1     158.293 164.102 169.492  1.00  0.00    -0.000 C 
BRANCH   7   8
ATOM      8  C   UNL     1     159.131 163.029 170.203  1.00  0.00    -0.003 C 
ATOM      9  C   UNL     1     158.982 161.645 169.573  1.00  0.00     0.004 C 
ENDBRANCH   7   8
ENDBRANCH   6   7
ENDBRANCH   5   6
ENDBRANCH   4   5
ENDBRANCH   3   4
ENDBRANCH   2   3
ENDBRANCH   1   2
BRANCH   1  10
ATOM     10  C   UNL     1     165.228 166.072 169.084  1.00  0.00     0.000 C 
BRANCH  10  11
ATOM     11  C   UNL     1     164.732 167.518 169.241  1.00  0.00     0.000 C 
BRANCH  11  12
ATOM     12  C   UNL     1     164.835 168.281 167.915  1.00  0.00     0.000 C 
BRANCH  12  13
ATOM     13  C   UNL     1     164.548 169.776 168.117  1.00  0.00     0.000 C 
BRANCH  13  14
ATOM     14  C   UNL     1     164.469 170.549 166.791  1.00  0.00     0.002 C 
BRANCH  14  15
ATOM     15  C   UNL     1     164.976 171.996 166.919  1.00  0.00     0.028 C 
BRANCH  15  16
ATOM     16  C   UNL     1     164.416 172.681 168.166  1.00  0.00     0.156 C 
BRANCH  16  17
ATOM     17  O   UNL     1     165.462 173.079 169.010  1.00  0.00    -0.396 OA
ATOM     18  H   UNL     1     165.736 173.982 168.702  1.00  0.00     0.210 HD
ENDBRANCH  16  17
ENDBRANCH  15  16
ENDBRANCH  14  15
ENDBRANCH  13  14
ENDBRANCH  12  13
ENDBRANCH  11  12
ENDBRANCH  10  11
ENDBRANCH   1  10
TORSDOF 15
ENDMDL
MODEL 2
REMARK VINA RESULT:    -3.957      1.485      3.029
REMARK INTER + INTRA:          -8.166
REMARK INTER:                  -6.918
REMARK INTRA:                  -1.248
REMARK UNBOUND:                -0.854
REMARK SMILES CCCCCCCCCCCCCCCCO
REMARK SMILES IDX 9 1 8 2 7 3 6 4 5 5 4 6 3 7 2 8 1 9 10 10 11 11 12 12 13 13
REMARK SMILES IDX 14 14 15 15 16 16 17 17
REMARK H PARENT 17 18
REMARK Flexibility Score: inf
ROOT
ATOM      1  C   UNL     1     167.184 165.882 168.155  1.00  0.00     0.000 C 
ENDROOT
BRANCH   1   2
ATOM      2  C   UNL     1     166.673 164.434 168.257  1.00  0.00    -0.000 C 
BRANCH   2   3
ATOM      3  C   UNL     1     165.865 163.995 167.021  1.00  0.00    -0.000 C 
BRANCH   3   4
ATOM      4  C   UNL     1     165.111 165.122 166.294  1.00  0.00    -0.000 C 
BRANCH   4   5
ATOM      5  C   UNL     1     163.610 165.152 166.629  1.00  0.00    -0.000 C 
BRANCH   5   6
ATOM      6  C   UNL     1     163.332 164.869 168.114  1.00  0.00    -0.000 C 
BRANCH   6   7
ATOM      7  C   UNL     1     161.839 164.630 168.400  1.00  0.00    -0.000 C 
BRANCH   7   8
ATOM      8  C   UNL     1     160.994 164.580 167.118  1.00  0.00    -0.003 C 
ATOM      9  C   UNL     1     159.520 164.282 167.389  1.00  0.00     0.004 C 
ENDBRANCH   7   8
ENDBRANCH   6   7
ENDBRANCH   5   6
ENDBRANCH   4   5
ENDBRANCH   3   4
ENDBRANCH   2   3
ENDBRANCH   1   2
BRANCH   1  10
ATOM     10  C   UNL     1     167.049 166.648 169.481  1.00  0.00     0.000 C 
BRANCH  10  11
ATOM     11  C   UNL     1     165.608 166.659 170.015  1.00  0.00     0.000 C 
BRANCH  11  12
ATOM     12  C   UNL     1     165.033 168.081 170.016  1.00  0.00     0.000 C 
BRANCH  12  13
ATOM     13  C   UNL     1     164.837 168.597 168.583  1.00  0.00     0.000 C 
BRANCH  13  14
ATOM     14  C   UNL     1     164.262 170.022 168.539  1.00  0.00     0.002 C 
BRANCH  14  15
ATOM     15  C   UNL     1     164.580 170.747 167.220  1.00  0.00     0.028 C 
BRANCH  15  16
ATOM     16  C   UNL     1     164.646 172.263 167.412  1.00  0.00     0.156 C 
BRANCH  16  17
ATOM     17  O   UNL     1     165.575 172.583 168.411  1.00  0.00    -0.396 OA
ATOM     18  H   UNL     1     166.469 172.532 167.983  1.00  0.00     0.210 HD
ENDBRANCH  16  17
ENDBRANCH  15  16
ENDBRANCH  14  15
ENDBRANCH  13  14
ENDBRANCH  12  13
ENDBRANCH  11  12
ENDBRANCH  10  11
ENDBRANCH   1  10
TORSDOF 15
ENDMDL
MODEL 3
REMARK VINA RESULT:    -3.941      4.297      7.850
REMARK INTER + INTRA:          -8.136
REMARK INTER:                  -7.067
REMARK INTRA:                  -1.069
REMARK UNBOUND:                -0.854
REMARK SMILES CCCCCCCCCCCCCCCCO
REMARK SMILES IDX 9 1 8 2 7 3 6 4 5 5 4 6 3 7 2 8 1 9 10 10 11 11 12 12 13 13
REMARK SMILES IDX 14 14 15 15 16 16 17 17
REMARK H PARENT 17 18
REMARK Flexibility Score: inf
ROOT
ATOM      1  C   UNL     1     163.212 164.881 168.746  1.00  0.00     0.000 C 
ENDROOT
BRANCH   1   2
ATOM      2  C   UNL     1     163.752 165.272 167.360  1.00  0.00    -0.000 C 
BRANCH   2   3
ATOM      3  C   UNL     1     165.108 166.000 167.428  1.00  0.00    -0.000 C 
BRANCH   3   4
ATOM      4  C   UNL     1     166.312 165.199 166.902  1.00  0.00    -0.000 C 
BRANCH   4   5
ATOM      5  C   UNL     1     165.989 163.712 166.673  1.00  0.00    -0.000 C 
BRANCH   5   6
ATOM      6  C   UNL     1     166.373 162.834 167.875  1.00  0.00    -0.000 C 
BRANCH   6   7
ATOM      7  C   UNL     1     166.716 161.391 167.465  1.00  0.00    -0.000 C 
BRANCH   7   8
ATOM      8  C   UNL     1     167.165 160.531 168.656  1.00  0.00    -0.003 C 
ATOM      9  C   UNL     1     166.773 161.134 170.005  1.00  0.00     0.004 C 
ENDBRANCH   7   8
ENDBRANCH   6   7
ENDBRANCH   5   6
ENDBRANCH   4   5
ENDBRANCH   3   4
ENDBRANCH   2   3
ENDBRANCH   1   2
BRANCH   1  10
ATOM     10  C   UNL     1     161.711 164.547 168.721  1.00  0.00     0.000 C 
BRANCH  10  11
ATOM     11  C   UNL     1     161.155 164.427 167.293  1.00  0.00     0.000 C 
BRANCH  11  12
ATOM     12  C   UNL     1     159.671 164.811 167.247  1.00  0.00     0.000 C 
BRANCH  12  13
ATOM     13  C   UNL     1     159.069 164.852 168.660  1.00  0.00     0.000 C 
BRANCH  13  14
ATOM     14  C   UNL     1     158.037 163.739 168.897  1.00  0.00     0.002 C 
BRANCH  14  15
ATOM     15  C   UNL     1     158.372 162.875 170.125  1.00  0.00     0.028 C 
BRANCH  15  16
ATOM     16  C   UNL     1     159.542 161.929 169.847  1.00  0.00     0.156 C 
BRANCH  16  17
ATOM     17  O   UNL     1     159.341 161.254 168.636  1.00  0.00    -0.396 OA
ATOM     18  H   UNL     1     158.683 161.795 168.126  1.00  0.00     0.210 HD
ENDBRANCH  16  17
ENDBRANCH  15  16
ENDBRANCH  14  15
ENDBRANCH  13  14
ENDBRANCH  12  13
ENDBRANCH  11  12
ENDBRANCH  10  11
ENDBRANCH   1  10
TORSDOF 15
ENDMDL
MODEL 4
REMARK VINA RESULT:    -3.934      6.832     10.598
REMARK INTER + INTRA:          -8.122
REMARK INTER:                  -7.212
REMARK INTRA:                  -0.910
REMARK UNBOUND:                -0.854
REMARK SMILES CCCCCCCCCCCCCCCCO
REMARK SMILES IDX 9 1 8 2 7 3 6 4 5 5 4 6 3 7 2 8 1 9 10 10 11 11 12 12 13 13
REMARK SMILES IDX 14 14 15 15 16 16 17 17
REMARK H PARENT 17 18
REMARK Flexibility Score: inf
ROOT
ATOM      1  C   UNL     1     166.472 162.540 168.130  1.00  0.00     0.000 C 
ENDROOT
BRANCH   1   2
ATOM      2  C   UNL     1     165.790 163.907 167.955  1.00  0.00    -0.000 C 
BRANCH   2   3
ATOM      3  C   UNL     1     165.818 164.409 166.499  1.00  0.00    -0.000 C 
BRANCH   3   4
ATOM      4  C   UNL     1     166.648 165.683 166.257  1.00  0.00    -0.000 C 
BRANCH   4   5
ATOM      5  C   UNL     1     167.476 166.100 167.485  1.00  0.00    -0.000 C 
BRANCH   5   6
ATOM      6  C   UNL     1     168.946 166.381 167.137  1.00  0.00    -0.000 C 
BRANCH   6   7
ATOM      7  C   UNL     1     169.770 166.816 168.362  1.00  0.00    -0.000 C 
BRANCH   7   8
ATOM      8  C   UNL     1     171.254 167.029 168.028  1.00  0.00    -0.003 C 
ATOM      9  C   UNL     1     171.718 166.202 166.830  1.00  0.00     0.004 C 
ENDBRANCH   7   8
ENDBRANCH   6   7
ENDBRANCH   5   6
ENDBRANCH   4   5
ENDBRANCH   3   4
ENDBRANCH   2   3
ENDBRANCH   1   2
BRANCH   1  10
ATOM     10  C   UNL     1     166.407 161.681 166.857  1.00  0.00     0.000 C 
BRANCH  10  11
ATOM     11  C   UNL     1     167.162 160.350 167.000  1.00  0.00     0.000 C 
BRANCH  11  12
ATOM     12  C   UNL     1     166.604 159.525 168.166  1.00  0.00     0.000 C 
BRANCH  12  13
ATOM     13  C   UNL     1     167.724 158.756 168.882  1.00  0.00     0.000 C 
BRANCH  13  14
ATOM     14  C   UNL     1     168.868 159.671 169.347  1.00  0.00     0.002 C 
BRANCH  14  15
ATOM     15  C   UNL     1     169.891 158.936 170.230  1.00  0.00     0.028 C 
BRANCH  15  16
ATOM     16  C   UNL     1     170.470 157.711 169.521  1.00  0.00     0.156 C 
BRANCH  16  17
ATOM     17  O   UNL     1     171.160 158.102 168.365  1.00  0.00    -0.396 OA
ATOM     18  H   UNL     1     171.451 157.263 167.922  1.00  0.00     0.210 HD
ENDBRANCH  16  17
ENDBRANCH  15  16
ENDBRANCH  14  15
ENDBRANCH  13  14
ENDBRANCH  12  13
ENDBRANCH  11  12
ENDBRANCH  10  11
ENDBRANCH   1  10
TORSDOF 15
ENDMDL
MODEL 5
REMARK VINA RESULT:    -3.912      5.028      7.063
REMARK INTER + INTRA:          -8.083
REMARK INTER:                  -7.305
REMARK INTRA:                  -0.778
REMARK UNBOUND:                -0.854
REMARK SMILES CCCCCCCCCCCCCCCCO
REMARK SMILES IDX 9 1 8 2 7 3 6 4 5 5 4 6 3 7 2 8 1 9 10 10 11 11 12 12 13 13
REMARK SMILES IDX 14 14 15 15 16 16 17 17
REMARK H PARENT 17 18
REMARK Flexibility Score: inf
ROOT
ATOM      1  C   UNL     1     164.303 164.897 168.209  1.00  0.00     0.000 C 
ENDROOT
BRANCH   1   2
ATOM      2  C   UNL     1     163.059 164.948 167.306  1.00  0.00    -0.000 C 
BRANCH   2   3
ATOM      3  C   UNL     1     161.768 164.535 168.039  1.00  0.00    -0.000 C 
BRANCH   3   4
ATOM      4  C   UNL     1     160.584 164.166 167.128  1.00  0.00    -0.000 C 
BRANCH   4   5
ATOM      5  C   UNL     1     159.408 165.150 167.245  1.00  0.00    -0.000 C 
BRANCH   5   6
ATOM      6  C   UNL     1     158.144 164.493 167.822  1.00  0.00    -0.000 C 
BRANCH   6   7
ATOM      7  C   UNL     1     158.339 164.009 169.270  1.00  0.00    -0.000 C 
BRANCH   7   8
ATOM      8  C   UNL     1     158.771 165.140 170.216  1.00  0.00    -0.003 C 
ATOM      9  C   UNL     1     157.789 165.360 171.366  1.00  0.00     0.004 C 
ENDBRANCH   7   8
ENDBRANCH   6   7
ENDBRANCH   5   6
ENDBRANCH   4   5
ENDBRANCH   3   4
ENDBRANCH   2   3
ENDBRANCH   1   2
BRANCH   1  10
ATOM     10  C   UNL     1     165.614 164.952 167.408  1.00  0.00     0.000 C 
BRANCH  10  11
ATOM     11  C   UNL     1     166.311 163.585 167.318  1.00  0.00     0.000 C 
BRANCH  11  12
ATOM     12  C   UNL     1     166.319 162.881 168.680  1.00  0.00     0.000 C 
BRANCH  12  13
ATOM     13  C   UNL     1     166.820 161.436 168.550  1.00  0.00     0.000 C 
BRANCH  13  14
ATOM     14  C   UNL     1     166.648 160.873 167.130  1.00  0.00     0.002 C 
BRANCH  14  15
ATOM     15  C   UNL     1     166.615 159.336 167.103  1.00  0.00     0.028 C 
BRANCH  15  16
ATOM     16  C   UNL     1     166.832 158.743 168.496  1.00  0.00     0.156 C 
BRANCH  16  17
ATOM     17  O   UNL     1     165.692 158.040 168.906  1.00  0.00    -0.396 OA
ATOM     18  H   UNL     1     165.726 158.015 169.898  1.00  0.00     0.210 HD
ENDBRANCH  16  17
ENDBRANCH  15  16
ENDBRANCH  14  15
ENDBRANCH  13  14
ENDBRANCH  12  13
ENDBRANCH  11  12
ENDBRANCH  10  11
ENDBRANCH   1  10
TORSDOF 15
ENDMDL
MODEL 6
REMARK VINA RESULT:    -3.845      5.935      8.596
REMARK INTER + INTRA:          -7.959
REMARK INTER:                  -6.854
REMARK INTRA:                  -1.106
REMARK UNBOUND:                -0.854
REMARK SMILES CCCCCCCCCCCCCCCCO
REMARK SMILES IDX 9 1 8 2 7 3 6 4 5 5 4 6 3 7 2 8 1 9 10 10 11 11 12 12 13 13
REMARK SMILES IDX 14 14 15 15 16 16 17 17
REMARK H PARENT 17 18
REMARK Flexibility Score: inf
ROOT
ATOM      1  C   UNL     1     166.696 161.358 167.763  1.00  0.00     0.000 C 
ENDROOT
BRANCH   1   2
ATOM      2  C   UNL     1     166.432 162.644 166.960  1.00  0.00    -0.000 C 
BRANCH   2   3
ATOM      3  C   UNL     1     166.001 163.827 167.847  1.00  0.00    -0.000 C 
BRANCH   3   4
ATOM      4  C   UNL     1     165.324 164.993 167.104  1.00  0.00    -0.000 C 
BRANCH   4   5
ATOM      5  C   UNL     1     163.791 164.977 167.232  1.00  0.00    -0.000 C 
BRANCH   5   6
ATOM      6  C   UNL     1     163.324 164.889 168.694  1.00  0.00    -0.000 C 
BRANCH   6   7
ATOM      7  C   UNL     1     161.835 164.519 168.816  1.00  0.00    -0.000 C 
BRANCH   7   8
ATOM      8  C   UNL     1     161.119 164.502 167.457  1.00  0.00    -0.003 C 
ATOM      9  C   UNL     1     159.643 164.122 167.569  1.00  0.00     0.004 C 
ENDBRANCH   7   8
ENDBRANCH   6   7
ENDBRANCH   5   6
ENDBRANCH   4   5
ENDBRANCH   3   4
ENDBRANCH   2   3
ENDBRANCH   1   2
BRANCH   1  10
ATOM     10  C   UNL     1     166.584 160.091 166.900  1.00  0.00     0.000 C 
BRANCH  10  11
ATOM     11  C   UNL     1     166.259 158.837 167.728  1.00  0.00     0.000 C 
BRANCH  11  12
ATOM     12  C   UNL     1     166.070 159.190 169.208  1.00  0.00     0.000 C 
BRANCH  12  13
ATOM     13  C   UNL     1     166.727 158.138 170.113  1.00  0.00     0.000 C 
BRANCH  13  14
ATOM     14  C   UNL     1     167.578 158.765 171.229  1.00  0.00     0.002 C 
BRANCH  14  15
ATOM     15  C   UNL     1     168.443 159.933 170.728  1.00  0.00     0.028 C 
BRANCH  15  16
ATOM     16  C   UNL     1     169.779 159.444 170.165  1.00  0.00     0.156 C 
BRANCH  16  17
ATOM     17  O   UNL     1     169.728 159.406 168.765  1.00  0.00    -0.396 OA
ATOM     18  H   UNL     1     170.539 158.912 168.474  1.00  0.00     0.210 HD
ENDBRANCH  16  17
ENDBRANCH  15  16
ENDBRANCH  14  15
ENDBRANCH  13  14
ENDBRANCH  12  13
ENDBRANCH  11  12
ENDBRANCH  10  11
ENDBRANCH   1  10
TORSDOF 15
ENDMDL
MODEL 7
REMARK VINA RESULT:    -3.823      5.723      7.604
REMARK INTER + INTRA:          -7.918
REMARK INTER:                  -6.679
REMARK INTRA:                  -1.239
REMARK UNBOUND:                -0.854
REMARK SMILES CCCCCCCCCCCCCCCCO
REMARK SMILES IDX 9 1 8 2 7 3 6 4 5 5 4 6 3 7 2 8 1 9 10 10 11 11 12 12 13 13
REMARK SMILES IDX 14 14 15 15 16 16 17 17
REMARK H PARENT 17 18
REMARK Flexibility Score: inf
ROOT
ATOM      1  C   UNL     1     170.122 166.702 167.195  1.00  0.00     0.000 C 
ENDROOT
BRANCH   1   2
ATOM      2  C   UNL     1     169.336 166.697 168.517  1.00  0.00    -0.000 C 
BRANCH   2   3
ATOM      3  C   UNL     1     167.859 166.299 168.336  1.00  0.00    -0.000 C 
BRANCH   3   4
ATOM      4  C   UNL     1     167.456 165.902 166.904  1.00  0.00    -0.000 C 
BRANCH   4   5
ATOM      5  C   UNL     1     166.098 166.489 166.480  1.00  0.00    -0.000 C 
BRANCH   5   6
ATOM      6  C   UNL     1     165.167 166.745 167.676  1.00  0.00    -0.000 C 
BRANCH   6   7
ATOM      7  C   UNL     1     164.839 168.238 167.858  1.00  0.00    -0.000 C 
BRANCH   7   8
ATOM      8  C   UNL     1     164.751 168.645 169.336  1.00  0.00    -0.003 C 
ATOM      9  C   UNL     1     164.797 167.449 170.286  1.00  0.00     0.004 C 
ENDBRANCH   7   8
ENDBRANCH   6   7
ENDBRANCH   5   6
ENDBRANCH   4   5
ENDBRANCH   3   4
ENDBRANCH   2   3
ENDBRANCH   1   2
BRANCH   1  10
ATOM     10  C   UNL     1     171.643 166.660 167.414  1.00  0.00     0.000 C 
BRANCH  10  11
ATOM     11  C   UNL     1     172.025 166.237 168.841  1.00  0.00     0.000 C 
BRANCH  11  12
ATOM     12  C   UNL     1     173.037 167.214 169.451  1.00  0.00     0.000 C 
BRANCH  12  13
ATOM     13  C   UNL     1     172.372 168.110 170.506  1.00  0.00     0.000 C 
BRANCH  13  14
ATOM     14  C   UNL     1     171.819 169.415 169.912  1.00  0.00     0.002 C 
BRANCH  14  15
ATOM     15  C   UNL     1     172.675 170.640 170.277  1.00  0.00     0.028 C 
BRANCH  15  16
ATOM     16  C   UNL     1     173.754 170.906 169.226  1.00  0.00     0.156 C 
BRANCH  16  17
ATOM     17  O   UNL     1     173.233 171.684 168.184  1.00  0.00    -0.396 OA
ATOM     18  H   UNL     1     173.345 171.146 167.357  1.00  0.00     0.210 HD
ENDBRANCH  16  17
ENDBRANCH  15  16
ENDBRANCH  14  15
ENDBRANCH  13  14
ENDBRANCH  12  13
ENDBRANCH  11  12
ENDBRANCH  10  11
ENDBRANCH   1  10
TORSDOF 15
ENDMDL
MODEL 8
REMARK VINA RESULT:    -3.821      3.694      6.633
REMARK INTER + INTRA:          -7.914
REMARK INTER:                  -6.301
REMARK INTRA:                  -1.614
REMARK UNBOUND:                -0.854
REMARK SMILES CCCCCCCCCCCCCCCCO
REMARK SMILES IDX 9 1 8 2 7 3 6 4 5 5 4 6 3 7 2 8 1 9 10 10 11 11 12 12 13 13
REMARK SMILES IDX 14 14 15 15 16 16 17 17
REMARK H PARENT 17 18
REMARK Flexibility Score: inf
ROOT
ATOM      1  C   UNL     1     164.872 167.801 168.184  1.00  0.00     0.000 C 
ENDROOT
BRANCH   1   2
ATOM      2  C   UNL     1     165.247 167.325 166.770  1.00  0.00    -0.000 C 
BRANCH   2   3
ATOM      3  C   UNL     1     164.821 165.870 166.494  1.00  0.00    -0.000 C 
BRANCH   3   4
ATOM      4  C   UNL     1     165.908 164.973 165.875  1.00  0.00    -0.000 C 
BRANCH   4   5
ATOM      5  C   UNL     1     165.974 163.579 166.522  1.00  0.00    -0.000 C 
BRANCH   5   6
ATOM      6  C   UNL     1     166.496 163.623 167.967  1.00  0.00    -0.000 C 
BRANCH   6   7
ATOM      7  C   UNL     1     166.349 162.273 168.690  1.00  0.00    -0.000 C 
BRANCH   7   8
ATOM      8  C   UNL     1     166.714 161.081 167.792  1.00  0.00    -0.003 C 
ATOM      9  C   UNL     1     167.768 160.168 168.417  1.00  0.00     0.004 C 
ENDBRANCH   7   8
ENDBRANCH   6   7
ENDBRANCH   5   6
ENDBRANCH   4   5
ENDBRANCH   3   4
ENDBRANCH   2   3
ENDBRANCH   1   2
BRANCH   1  10
ATOM     10  C   UNL     1     165.255 166.782 169.270  1.00  0.00     0.000 C 
BRANCH  10  11
ATOM     11  C   UNL     1     164.062 166.381 170.153  1.00  0.00     0.000 C 
BRANCH  11  12
ATOM     12  C   UNL     1     163.704 164.903 169.954  1.00  0.00     0.000 C 
BRANCH  12  13
ATOM     13  C   UNL     1     162.212 164.737 169.629  1.00  0.00     0.000 C 
BRANCH  13  14
ATOM     14  C   UNL     1     161.951 164.542 168.127  1.00  0.00     0.002 C 
BRANCH  14  15
ATOM     15  C   UNL     1     160.451 164.529 167.785  1.00  0.00     0.028 C 
BRANCH  15  16
ATOM     16  C   UNL     1     159.592 164.854 169.007  1.00  0.00     0.156 C 
BRANCH  16  17
ATOM     17  O   UNL     1     158.352 165.369 168.603  1.00  0.00    -0.396 OA
ATOM     18  H   UNL     1     158.248 166.236 169.075  1.00  0.00     0.210 HD
ENDBRANCH  16  17
ENDBRANCH  15  16
ENDBRANCH  14  15
ENDBRANCH  13  14
ENDBRANCH  12  13
ENDBRANCH  11  12
ENDBRANCH  10  11
ENDBRANCH   1  10
TORSDOF 15
ENDMDL
MODEL 9
REMARK VINA RESULT:    -3.800      3.230      5.071
REMARK INTER + INTRA:          -7.875
REMARK INTER:                  -6.209
REMARK INTRA:                  -1.665
REMARK UNBOUND:                -0.854
REMARK SMILES CCCCCCCCCCCCCCCCO
REMARK SMILES IDX 9 1 8 2 7 3 6 4 5 5 4 6 3 7 2 8 1 9 10 10 11 11 12 12 13 13
REMARK SMILES IDX 14 14 15 15 16 16 17 17
REMARK H PARENT 17 18
REMARK Flexibility Score: inf
ROOT
ATOM      1  C   UNL     1     164.854 168.221 169.644  1.00  0.00     0.000 C 
ENDROOT
BRANCH   1   2
ATOM      2  C   UNL     1     165.147 166.764 170.045  1.00  0.00    -0.000 C 
BRANCH   2   3
ATOM      3  C   UNL     1     163.925 165.840 169.882  1.00  0.00    -0.000 C 
BRANCH   3   4
ATOM      4  C   UNL     1     164.074 164.733 168.824  1.00  0.00    -0.000 C 
BRANCH   4   5
ATOM      5  C   UNL     1     163.465 165.117 167.464  1.00  0.00    -0.000 C 
BRANCH   5   6
ATOM      6  C   UNL     1     164.509 165.139 166.336  1.00  0.00    -0.000 C 
BRANCH   6   7
ATOM      7  C   UNL     1     165.919 164.770 166.830  1.00  0.00    -0.000 C 
BRANCH   7   8
ATOM      8  C   UNL     1     166.945 165.883 166.568  1.00  0.00    -0.003 C 
ATOM      9  C   UNL     1     167.847 166.154 167.772  1.00  0.00     0.004 C 
ENDBRANCH   7   8
ENDBRANCH   6   7
ENDBRANCH   5   6
ENDBRANCH   4   5
ENDBRANCH   3   4
ENDBRANCH   2   3
ENDBRANCH   1   2
BRANCH   1  10
ATOM     10  C   UNL     1     164.829 168.419 168.120  1.00  0.00     0.000 C 
BRANCH  10  11
ATOM     11  C   UNL     1     164.475 169.858 167.715  1.00  0.00     0.000 C 
BRANCH  11  12
ATOM     12  C   UNL     1     164.026 170.676 168.932  1.00  0.00     0.000 C 
BRANCH  12  13
ATOM     13  C   UNL     1     164.835 171.976 169.050  1.00  0.00     0.000 C 
BRANCH  13  14
ATOM     14  C   UNL     1     164.113 173.051 169.878  1.00  0.00     0.002 C 
BRANCH  14  15
ATOM     15  C   UNL     1     162.770 173.472 169.257  1.00  0.00     0.028 C 
BRANCH  15  16
ATOM     16  C   UNL     1     161.604 173.224 170.215  1.00  0.00     0.156 C 
BRANCH  16  17
ATOM     17  O   UNL     1     160.919 172.057 169.851  1.00  0.00    -0.396 OA
ATOM     18  H   UNL     1     161.612 171.355 169.739  1.00  0.00     0.210 HD
ENDBRANCH  16  17
ENDBRANCH  15  16
ENDBRANCH  14  15
ENDBRANCH  13  14
ENDBRANCH  12  13
ENDBRANCH  11  12
ENDBRANCH  10  11
ENDBRANCH   1  10
TORSDOF 15
ENDMDL
