MODEL 1
REMARK VINA RESULT:    -6.322      0.000      0.000
REMARK INTER + INTRA:          -6.322
REMARK INTER:                  -6.322
REMARK INTRA:                   0.000
REMARK UNBOUND:                 0.000
REMARK SMILES CC(C)=C1CC[C@@H](C)CC1=O
REMARK SMILES IDX 8 1 7 2 6 3 5 4 4 5 2 6 1 7 3 8 10 9 11 10 9 11
REMARK H PARENT
REMARK Flexibility Score: inf
ROOT
ATOM      1  C   UNL     1     -14.829 -12.436  28.950  1.00  0.00     0.008 C 
ATOM      2  C   UNL     1     -13.738 -13.412  29.404  1.00  0.00    -0.006 C 
ATOM      3  C   UNL     1     -13.290 -14.305  28.235  1.00  0.00     0.008 C 
ATOM      4  C   UNL     1     -12.128 -15.218  28.644  1.00  0.00     0.039 C 
ATOM      5  C   UNL     1     -12.427 -16.014  29.907  1.00  0.00    -0.006 C 
ATOM      6  C   UNL     1     -11.908 -17.263  30.099  1.00  0.00    -0.070 C 
ATOM      7  C   UNL     1     -10.997 -17.898  29.073  1.00  0.00     0.039 C 
ATOM      8  C   UNL     1     -12.244 -18.086  31.321  1.00  0.00     0.039 C 
ATOM      9  C   UNL     1     -13.218 -15.306  30.957  1.00  0.00     0.159 C 
ATOM     10  O   UNL     1     -13.041 -15.544  32.182  1.00  0.00    -0.295 OA
ATOM     11  C   UNL     1     -14.243 -14.282  30.564  1.00  0.00     0.084 C 
ENDROOT
TORSDOF 0
ENDMDL
MODEL 2
REMARK VINA RESULT:    -6.081      1.867      3.866
REMARK INTER + INTRA:          -6.081
REMARK INTER:                  -6.081
REMARK INTRA:                   0.000
REMARK UNBOUND:                 0.000
REMARK SMILES CC(C)=C1CC[C@@H](C)CC1=O
REMARK SMILES IDX 8 1 7 2 6 3 5 4 4 5 2 6 1 7 3 8 10 9 11 10 9 11
REMARK H PARENT
REMARK Flexibility Score: inf
ROOT
ATOM      1  C   UNL     1     -10.821 -17.268  25.953  1.00  0.00     0.008 C 
ATOM      2  C   UNL     1     -11.017 -16.521  27.277  1.00  0.00    -0.006 C 
ATOM      3  C   UNL     1     -10.987 -17.501  28.461  1.00  0.00     0.008 C 
ATOM      4  C   UNL     1     -11.080 -16.760  29.801  1.00  0.00     0.039 C 
ATOM      5  C   UNL     1     -12.266 -15.807  29.860  1.00  0.00    -0.006 C 
ATOM      6  C   UNL     1     -12.915 -15.553  31.036  1.00  0.00    -0.070 C 
ATOM      7  C   UNL     1     -12.468 -16.193  32.330  1.00  0.00     0.039 C 
ATOM      8  C   UNL     1     -14.128 -14.655  31.097  1.00  0.00     0.039 C 
ATOM      9  C   UNL     1     -12.596 -15.090  28.592  1.00  0.00     0.159 C 
ATOM     10  O   UNL     1     -13.079 -13.926  28.605  1.00  0.00    -0.295 OA
ATOM     11  C   UNL     1     -12.346 -15.750  27.269  1.00  0.00     0.084 C 
ENDROOT
TORSDOF 0
ENDMDL
MODEL 3
REMARK VINA RESULT:    -5.894      2.197      4.965
REMARK INTER + INTRA:          -5.894
REMARK INTER:                  -5.894
REMARK INTRA:                   0.000
REMARK UNBOUND:                 0.000
REMARK SMILES CC(C)=C1CC[C@@H](C)CC1=O
REMARK SMILES IDX 8 1 7 2 6 3 5 4 4 5 2 6 1 7 3 8 10 9 11 10 9 11
REMARK H PARENT
REMARK Flexibility Score: inf
ROOT
ATOM      1  C   UNL     1     -11.778 -20.158  31.534  1.00  0.00     0.008 C 
ATOM      2  C   UNL     1     -11.545 -18.898  30.694  1.00  0.00    -0.006 C 
ATOM      3  C   UNL     1     -12.356 -17.717  31.253  1.00  0.00     0.008 C 
ATOM      4  C   UNL     1     -12.055 -16.422  30.487  1.00  0.00     0.039 C 
ATOM      5  C   UNL     1     -12.218 -16.583  28.982  1.00  0.00    -0.006 C 
ATOM      6  C   UNL     1     -12.630 -15.544  28.196  1.00  0.00    -0.070 C 
ATOM      7  C   UNL     1     -12.924 -14.184  28.789  1.00  0.00     0.039 C 
ATOM      8  C   UNL     1     -12.850 -15.707  26.711  1.00  0.00     0.039 C 
ATOM      9  C   UNL     1     -11.792 -17.897  28.412  1.00  0.00     0.159 C 
ATOM     10  O   UNL     1     -11.309 -17.981  27.251  1.00  0.00    -0.295 OA
ATOM     11  C   UNL     1     -11.927 -19.149  29.228  1.00  0.00     0.084 C 
ENDROOT
TORSDOF 0
ENDMDL
MODEL 4
REMARK VINA RESULT:    -5.854      1.549      2.439
REMARK INTER + INTRA:          -5.854
REMARK INTER:                  -5.854
REMARK INTRA:                   0.000
REMARK UNBOUND:                 0.000
REMARK SMILES CC(C)=C1CC[C@@H](C)CC1=O
REMARK SMILES IDX 8 1 7 2 6 3 5 4 4 5 2 6 1 7 3 8 10 9 11 10 9 11
REMARK H PARENT
REMARK Flexibility Score: inf
ROOT
ATOM      1  C   UNL     1     -14.893 -12.374  29.001  1.00  0.00     0.008 C 
ATOM      2  C   UNL     1     -14.312 -13.770  29.256  1.00  0.00    -0.006 C 
ATOM      3  C   UNL     1     -13.994 -13.959  30.747  1.00  0.00     0.008 C 
ATOM      4  C   UNL     1     -13.508 -15.385  31.037  1.00  0.00     0.039 C 
ATOM      5  C   UNL     1     -12.355 -15.804  30.135  1.00  0.00    -0.006 C 
ATOM      6  C   UNL     1     -11.387 -16.665  30.572  1.00  0.00    -0.070 C 
ATOM      7  C   UNL     1     -11.433 -17.252  31.964  1.00  0.00     0.039 C 
ATOM      8  C   UNL     1     -10.209 -17.042  29.706  1.00  0.00     0.039 C 
ATOM      9  C   UNL     1     -12.413 -15.313  28.726  1.00  0.00     0.159 C 
ATOM     10  O   UNL     1     -11.945 -15.995  27.775  1.00  0.00    -0.295 OA
ATOM     11  C   UNL     1     -13.044 -13.987  28.417  1.00  0.00     0.084 C 
ENDROOT
TORSDOF 0
ENDMDL
MODEL 5
REMARK VINA RESULT:    -5.785      1.852      4.551
REMARK INTER + INTRA:          -5.785
REMARK INTER:                  -5.785
REMARK INTRA:                   0.000
REMARK UNBOUND:                 0.000
REMARK SMILES CC(C)=C1CC[C@@H](C)CC1=O
REMARK SMILES IDX 8 1 7 2 6 3 5 4 4 5 2 6 1 7 3 8 10 9 11 10 9 11
REMARK H PARENT
REMARK Flexibility Score: inf
ROOT
ATOM      1  C   UNL     1     -11.755 -20.549  31.625  1.00  0.00     0.008 C 
ATOM      2  C   UNL     1     -12.340 -19.438  30.747  1.00  0.00    -0.006 C 
ATOM      3  C   UNL     1     -11.837 -19.569  29.300  1.00  0.00     0.008 C 
ATOM      4  C   UNL     1     -12.493 -18.527  28.385  1.00  0.00     0.039 C 
ATOM      5  C   UNL     1     -12.359 -17.109  28.925  1.00  0.00    -0.006 C 
ATOM      6  C   UNL     1     -12.261 -16.035  28.085  1.00  0.00    -0.070 C 
ATOM      7  C   UNL     1     -12.302 -16.210  26.585  1.00  0.00     0.039 C 
ATOM      8  C   UNL     1     -12.070 -14.631  28.608  1.00  0.00     0.039 C 
ATOM      9  C   UNL     1     -12.456 -16.959  30.408  1.00  0.00     0.159 C 
ATOM     10  O   UNL     1     -12.950 -15.924  30.930  1.00  0.00    -0.295 OA
ATOM     11  C   UNL     1     -11.969 -18.057  31.308  1.00  0.00     0.084 C 
ENDROOT
TORSDOF 0
ENDMDL
MODEL 6
REMARK VINA RESULT:    -5.466      1.668      4.755
REMARK INTER + INTRA:          -5.466
REMARK INTER:                  -5.466
REMARK INTRA:                   0.000
REMARK UNBOUND:                 0.000
REMARK SMILES CC(C)=C1CC[C@@H](C)CC1=O
REMARK SMILES IDX 8 1 7 2 6 3 5 4 4 5 2 6 1 7 3 8 10 9 11 10 9 11
REMARK H PARENT
REMARK Flexibility Score: inf
ROOT
ATOM      1  C   UNL     1     -10.932 -19.553  31.356  1.00  0.00     0.008 C 
ATOM      2  C   UNL     1     -11.197 -18.067  31.092  1.00  0.00    -0.006 C 
ATOM      3  C   UNL     1     -12.540 -17.639  31.706  1.00  0.00     0.008 C 
ATOM      4  C   UNL     1     -12.775 -16.132  31.541  1.00  0.00     0.039 C 
ATOM      5  C   UNL     1     -12.619 -15.672  30.098  1.00  0.00    -0.006 C 
ATOM      6  C   UNL     1     -13.351 -14.631  29.601  1.00  0.00    -0.070 C 
ATOM      7  C   UNL     1     -14.333 -13.880  30.471  1.00  0.00     0.039 C 
ATOM      8  C   UNL     1     -13.248 -14.203  28.156  1.00  0.00     0.039 C 
ATOM      9  C   UNL     1     -11.547 -16.347  29.306  1.00  0.00     0.159 C 
ATOM     10  O   UNL     1     -10.917 -15.735  28.403  1.00  0.00    -0.295 OA
ATOM     11  C   UNL     1     -11.196 -17.779  29.583  1.00  0.00     0.084 C 
ENDROOT
TORSDOF 0
ENDMDL
MODEL 7
REMARK VINA RESULT:    -5.465      2.638      3.842
REMARK INTER + INTRA:          -5.465
REMARK INTER:                  -5.465
REMARK INTRA:                   0.000
REMARK UNBOUND:                 0.000
REMARK SMILES CC(C)=C1CC[C@@H](C)CC1=O
REMARK SMILES IDX 8 1 7 2 6 3 5 4 4 5 2 6 1 7 3 8 10 9 11 10 9 11
REMARK H PARENT
REMARK Flexibility Score: inf
ROOT
ATOM      1  C   UNL     1     -10.997 -16.499  25.660  1.00  0.00     0.008 C 
ATOM      2  C   UNL     1     -11.786 -16.749  26.951  1.00  0.00    -0.006 C 
ATOM      3  C   UNL     1     -11.328 -15.786  28.059  1.00  0.00     0.008 C 
ATOM      4  C   UNL     1     -12.176 -15.952  29.326  1.00  0.00     0.039 C 
ATOM      5  C   UNL     1     -12.245 -17.398  29.798  1.00  0.00    -0.006 C 
ATOM      6  C   UNL     1     -12.352 -17.708  31.125  1.00  0.00    -0.070 C 
ATOM      7  C   UNL     1     -12.426 -16.625  32.178  1.00  0.00     0.039 C 
ATOM      8  C   UNL     1     -12.363 -19.138  31.610  1.00  0.00     0.039 C 
ATOM      9  C   UNL     1     -12.304 -18.436  28.727  1.00  0.00     0.159 C 
ATOM     10  O   UNL     1     -12.932 -19.515  28.895  1.00  0.00    -0.295 OA
ATOM     11  C   UNL     1     -11.614 -18.203  27.415  1.00  0.00     0.084 C 
ENDROOT
TORSDOF 0
ENDMDL
MODEL 8
REMARK VINA RESULT:    -5.287      1.369      4.098
REMARK INTER + INTRA:          -5.287
REMARK INTER:                  -5.287
REMARK INTRA:                   0.000
REMARK UNBOUND:                 0.000
REMARK SMILES CC(C)=C1CC[C@@H](C)CC1=O
REMARK SMILES IDX 8 1 7 2 6 3 5 4 4 5 2 6 1 7 3 8 10 9 11 10 9 11
REMARK H PARENT
REMARK Flexibility Score: inf
ROOT
ATOM      1  C   UNL     1      -9.915 -18.041  31.999  1.00  0.00     0.008 C 
ATOM      2  C   UNL     1     -11.068 -17.567  31.107  1.00  0.00    -0.006 C 
ATOM      3  C   UNL     1     -10.645 -17.574  29.628  1.00  0.00     0.008 C 
ATOM      4  C   UNL     1     -11.817 -17.201  28.712  1.00  0.00     0.039 C 
ATOM      5  C   UNL     1     -12.487 -15.896  29.122  1.00  0.00    -0.006 C 
ATOM      6  C   UNL     1     -13.054 -15.067  28.196  1.00  0.00    -0.070 C 
ATOM      7  C   UNL     1     -13.057 -15.420  26.727  1.00  0.00     0.039 C 
ATOM      8  C   UNL     1     -13.671 -13.744  28.585  1.00  0.00     0.039 C 
ATOM      9  C   UNL     1     -12.585 -15.643  30.591  1.00  0.00     0.159 C 
ATOM     10  O   UNL     1     -13.554 -15.005  31.082  1.00  0.00    -0.295 OA
ATOM     11  C   UNL     1     -11.521 -16.157  31.515  1.00  0.00     0.084 C 
ENDROOT
TORSDOF 0
ENDMDL
MODEL 9
REMARK VINA RESULT:    -5.202      3.685      5.012
REMARK INTER + INTRA:          -5.202
REMARK INTER:                  -5.202
REMARK INTRA:                   0.000
REMARK UNBOUND:                 0.000
REMARK SMILES CC(C)=C1CC[C@@H](C)CC1=O
REMARK SMILES IDX 8 1 7 2 6 3 5 4 4 5 2 6 1 7 3 8 10 9 11 10 9 11
REMARK H PARENT
REMARK Flexibility Score: inf
ROOT
ATOM      1  C   UNL     1     -13.628 -20.635  28.451  1.00  0.00     0.008 C 
ATOM      2  C   UNL     1     -12.395 -19.916  29.010  1.00  0.00    -0.006 C 
ATOM      3  C   UNL     1     -12.510 -19.750  30.534  1.00  0.00     0.008 C 
ATOM      4  C   UNL     1     -11.239 -19.125  31.124  1.00  0.00     0.039 C 
ATOM      5  C   UNL     1     -10.844 -17.833  30.423  1.00  0.00    -0.006 C 
ATOM      6  C   UNL     1     -10.220 -16.821  31.097  1.00  0.00    -0.070 C 
ATOM      7  C   UNL     1      -9.878 -16.952  32.563  1.00  0.00     0.039 C 
ATOM      8  C   UNL     1      -9.875 -15.512  30.426  1.00  0.00     0.039 C 
ATOM      9  C   UNL     1     -11.075 -17.789  28.948  1.00  0.00     0.159 C 
ATOM     10  O   UNL     1     -10.317 -17.132  28.186  1.00  0.00    -0.295 OA
ATOM     11  C   UNL     1     -12.224 -18.543  28.344  1.00  0.00     0.084 C 
ENDROOT
TORSDOF 0
ENDMDL
