MODEL 1
REMARK VINA RESULT:    -2.057      0.000      0.000
REMARK INTER + INTRA:          -2.697
REMARK INTER:                  -2.478
REMARK INTRA:                  -0.219
REMARK UNBOUND:                -0.219
REMARK SMILES OCC(O)CO
REMARK SMILES IDX 3 1 5 2 6 3 2 5 1 6 4 8
REMARK H PARENT 6 4 1 7 4 9
REMARK Flexibility Score: inf
ROOT
ATOM      1  C   UNL     1     114.864 113.298 104.922  1.00  0.00     0.165 C 
ENDROOT
BRANCH   1   2
ATOM      2  C   UNL     1     113.514 113.098 105.630  1.00  0.00     0.190 C 
BRANCH   2   3
ATOM      3  O   UNL     1     113.540 111.946 106.429  1.00  0.00    -0.394 OA
ATOM      4  H   UNL     1     113.535 111.177 105.803  1.00  0.00     0.210 HD
ENDBRANCH   2   3
ENDBRANCH   1   2
BRANCH   1   5
ATOM      5  C   UNL     1     114.959 112.487 103.624  1.00  0.00     0.190 C 
BRANCH   5   6
ATOM      6  O   UNL     1     114.302 111.257 103.759  1.00  0.00    -0.394 OA
ATOM      7  H   UNL     1     113.365 111.471 104.008  1.00  0.00     0.210 HD
ENDBRANCH   5   6
ENDBRANCH   1   5
BRANCH   1   8
ATOM      8  O   UNL     1     115.073 114.658 104.643  1.00  0.00    -0.388 OA
ATOM      9  H   UNL     1     114.641 114.841 103.768  1.00  0.00     0.211 HD
ENDBRANCH   1   8
TORSDOF 5
ENDMDL
MODEL 2
REMARK VINA RESULT:    -2.044     11.849     12.612
REMARK INTER + INTRA:          -2.682
REMARK INTER:                  -2.460
REMARK INTRA:                  -0.222
REMARK UNBOUND:                -0.219
REMARK SMILES OCC(O)CO
REMARK SMILES IDX 3 1 5 2 6 3 2 5 1 6 4 8
REMARK H PARENT 6 4 1 7 4 9
REMARK Flexibility Score: inf
ROOT
ATOM      1  C   UNL     1     109.480 100.783 104.878  1.00  0.00     0.165 C 
ENDROOT
BRANCH   1   2
ATOM      2  C   UNL     1     110.017 102.005 105.641  1.00  0.00     0.190 C 
BRANCH   2   3
ATOM      3  O   UNL     1     108.995 102.613 106.383  1.00  0.00    -0.394 OA
ATOM      4  H   UNL     1     108.178 102.554 105.825  1.00  0.00     0.210 HD
ENDBRANCH   2   3
ENDBRANCH   1   2
BRANCH   1   5
ATOM      5  C   UNL     1     108.837 101.175 103.542  1.00  0.00     0.190 C 
BRANCH   5   6
ATOM      6  O   UNL     1     107.996 102.284 103.704  1.00  0.00    -0.394 OA
ATOM      7  H   UNL     1     108.569 103.016 104.051  1.00  0.00     0.210 HD
ENDBRANCH   5   6
ENDBRANCH   1   5
BRANCH   1   8
ATOM      8  O   UNL     1     110.510  99.856 104.650  1.00  0.00    -0.388 OA
ATOM      9  H   UNL     1     110.932  99.673 105.530  1.00  0.00     0.211 HD
ENDBRANCH   1   8
TORSDOF 5
ENDMDL
MODEL 3
REMARK VINA RESULT:    -2.044     11.754     12.522
REMARK INTER + INTRA:          -2.682
REMARK INTER:                  -2.462
REMARK INTRA:                  -0.220
REMARK UNBOUND:                -0.219
REMARK SMILES OCC(O)CO
REMARK SMILES IDX 3 1 5 2 6 3 2 5 1 6 4 8
REMARK H PARENT 6 4 1 7 4 9
REMARK Flexibility Score: inf
ROOT
ATOM      1  C   UNL     1     101.436 111.705 104.930  1.00  0.00     0.165 C 
ENDROOT
BRANCH   1   2
ATOM      2  C   UNL     1     102.203 110.667 105.765  1.00  0.00     0.190 C 
BRANCH   2   3
ATOM      3  O   UNL     1     103.263 111.272 106.454  1.00  0.00    -0.394 OA
ATOM      4  H   UNL     1     103.756 110.536 106.901  1.00  0.00     0.210 HD
ENDBRANCH   2   3
ENDBRANCH   1   2
BRANCH   1   5
ATOM      5  C   UNL     1     102.135 112.001 103.597  1.00  0.00     0.190 C 
BRANCH   5   6
ATOM      6  O   UNL     1     103.479 112.340 103.806  1.00  0.00    -0.394 OA
ATOM      7  H   UNL     1     104.001 111.819 103.143  1.00  0.00     0.210 HD
ENDBRANCH   5   6
ENDBRANCH   1   5
BRANCH   1   8
ATOM      8  O   UNL     1     100.125 111.266 104.685  1.00  0.00    -0.388 OA
ATOM      9  H   UNL     1     100.123 110.282 104.815  1.00  0.00     0.211 HD
ENDBRANCH   1   8
TORSDOF 5
ENDMDL
MODEL 4
REMARK VINA RESULT:    -2.014      1.487      2.655
REMARK INTER + INTRA:          -2.646
REMARK INTER:                  -2.643
REMARK INTRA:                  -0.002
REMARK UNBOUND:                -0.219
REMARK SMILES OCC(O)CO
REMARK SMILES IDX 3 1 5 2 6 3 2 5 1 6 4 8
REMARK H PARENT 6 4 1 7 4 9
REMARK Flexibility Score: inf
ROOT
ATOM      1  C   UNL     1     113.620 112.423 105.328  1.00  0.00     0.165 C 
ENDROOT
BRANCH   1   2
ATOM      2  C   UNL     1     114.752 112.827 104.371  1.00  0.00     0.190 C 
BRANCH   2   3
ATOM      3  O   UNL     1     115.457 113.929 104.877  1.00  0.00    -0.394 OA
ATOM      4  H   UNL     1     114.907 114.291 105.618  1.00  0.00     0.210 HD
ENDBRANCH   2   3
ENDBRANCH   1   2
BRANCH   1   5
ATOM      5  C   UNL     1     113.376 110.909 105.325  1.00  0.00     0.190 C 
BRANCH   5   6
ATOM      6  O   UNL     1     113.223 110.428 106.633  1.00  0.00    -0.394 OA
ATOM      7  H   UNL     1     113.408 109.454 106.592  1.00  0.00     0.210 HD
ENDBRANCH   5   6
ENDBRANCH   1   5
BRANCH   1   8
ATOM      8  O   UNL     1     113.907 112.849 106.635  1.00  0.00    -0.388 OA
ATOM      9  H   UNL     1     114.695 113.450 106.574  1.00  0.00     0.211 HD
ENDBRANCH   1   8
TORSDOF 5
ENDMDL
MODEL 5
REMARK VINA RESULT:    -2.007     11.496     12.373
REMARK INTER + INTRA:          -2.637
REMARK INTER:                  -2.635
REMARK INTRA:                  -0.003
REMARK UNBOUND:                -0.219
REMARK SMILES OCC(O)CO
REMARK SMILES IDX 3 1 5 2 6 3 2 5 1 6 4 8
REMARK H PARENT 6 4 1 7 4 9
REMARK Flexibility Score: inf
ROOT
ATOM      1  C   UNL     1     109.602 102.087 105.436  1.00  0.00     0.165 C 
ENDROOT
BRANCH   1   2
ATOM      2  C   UNL     1     109.334 100.860 104.550  1.00  0.00     0.190 C 
BRANCH   2   3
ATOM      3  O   UNL     1     110.433  99.990 104.563  1.00  0.00    -0.394 OA
ATOM      4  H   UNL     1     110.492  99.607 103.651  1.00  0.00     0.210 HD
ENDBRANCH   2   3
ENDBRANCH   1   2
BRANCH   1   5
ATOM      5  C   UNL     1     108.531 103.170 105.260  1.00  0.00     0.190 C 
BRANCH   5   6
ATOM      6  O   UNL     1     107.947 103.495 106.492  1.00  0.00    -0.394 OA
ATOM      7  H   UNL     1     107.060 103.050 106.503  1.00  0.00     0.210 HD
ENDBRANCH   5   6
ENDBRANCH   1   5
BRANCH   1   8
ATOM      8  O   UNL     1     109.671 101.709 106.787  1.00  0.00    -0.388 OA
ATOM      9  H   UNL     1     110.399 101.039 106.861  1.00  0.00     0.211 HD
ENDBRANCH   1   8
TORSDOF 5
ENDMDL
MODEL 6
REMARK VINA RESULT:    -1.998     13.019     13.682
REMARK INTER + INTRA:          -2.626
REMARK INTER:                  -2.406
REMARK INTRA:                  -0.221
REMARK UNBOUND:                -0.219
REMARK SMILES OCC(O)CO
REMARK SMILES IDX 3 1 5 2 6 3 2 5 1 6 4 8
REMARK H PARENT 6 4 1 7 4 9
REMARK Flexibility Score: inf
ROOT
ATOM      1  C   UNL     1     100.897 111.779 101.432  1.00  0.00     0.165 C 
ENDROOT
BRANCH   1   2
ATOM      2  C   UNL     1     102.121 112.339 100.689  1.00  0.00     0.190 C 
BRANCH   2   3
ATOM      3  O   UNL     1     102.071 113.739 100.639  1.00  0.00    -0.394 OA
ATOM      4  H   UNL     1     102.020 114.047 101.581  1.00  0.00     0.210 HD
ENDBRANCH   2   3
ENDBRANCH   1   2
BRANCH   1   5
ATOM      5  C   UNL     1     101.163 111.606 102.932  1.00  0.00     0.190 C 
BRANCH   5   6
ATOM      6  O   UNL     1     102.143 112.508 103.369  1.00  0.00    -0.394 OA
ATOM      7  H   UNL     1     101.706 113.082 104.050  1.00  0.00     0.210 HD
ENDBRANCH   5   6
ENDBRANCH   1   5
BRANCH   1   8
ATOM      8  O   UNL     1      99.785 112.617 101.246  1.00  0.00    -0.388 OA
ATOM      9  H   UNL     1     100.037 113.510 101.598  1.00  0.00     0.211 HD
ENDBRANCH   1   8
TORSDOF 5
ENDMDL
MODEL 7
REMARK VINA RESULT:    -1.998     10.979     11.986
REMARK INTER + INTRA:          -2.626
REMARK INTER:                  -2.624
REMARK INTRA:                  -0.002
REMARK UNBOUND:                -0.219
REMARK SMILES OCC(O)CO
REMARK SMILES IDX 3 1 5 2 6 3 2 5 1 6 4 8
REMARK H PARENT 6 4 1 7 4 9
REMARK Flexibility Score: inf
ROOT
ATOM      1  C   UNL     1     102.778 111.012 105.443  1.00  0.00     0.165 C 
ENDROOT
BRANCH   1   2
ATOM      2  C   UNL     1     101.873 111.720 104.422  1.00  0.00     0.190 C 
BRANCH   2   3
ATOM      3  O   UNL     1     100.623 112.010 104.986  1.00  0.00    -0.394 OA
ATOM      4  H   UNL     1     100.776 112.748 105.631  1.00  0.00     0.210 HD
ENDBRANCH   2   3
ENDBRANCH   1   2
BRANCH   1   5
ATOM      5  C   UNL     1     104.199 111.589 105.450  1.00  0.00     0.190 C 
BRANCH   5   6
ATOM      6  O   UNL     1     104.729 111.584 106.747  1.00  0.00    -0.394 OA
ATOM      7  H   UNL     1     105.453 110.905 106.746  1.00  0.00     0.210 HD
ENDBRANCH   5   6
ENDBRANCH   1   5
BRANCH   1   8
ATOM      8  O   UNL     1     102.227 111.103 106.731  1.00  0.00    -0.388 OA
ATOM      9  H   UNL     1     102.988 111.087 107.370  1.00  0.00     0.211 HD
ENDBRANCH   1   8
TORSDOF 5
ENDMDL
MODEL 8
REMARK VINA RESULT:    -1.993      0.899      2.822
REMARK INTER + INTRA:          -2.620
REMARK INTER:                  -2.397
REMARK INTRA:                  -0.224
REMARK UNBOUND:                -0.219
REMARK SMILES OCC(O)CO
REMARK SMILES IDX 3 1 5 2 6 3 2 5 1 6 4 8
REMARK H PARENT 6 4 1 7 4 9
REMARK Flexibility Score: inf
ROOT
ATOM      1  C   UNL     1     114.703 112.487 104.238  1.00  0.00     0.165 C 
ENDROOT
BRANCH   1   2
ATOM      2  C   UNL     1     114.627 113.905 103.650  1.00  0.00     0.190 C 
BRANCH   2   3
ATOM      3  O   UNL     1     114.992 114.859 104.610  1.00  0.00    -0.394 OA
ATOM      4  H   UNL     1     114.145 115.225 104.972  1.00  0.00     0.210 HD
ENDBRANCH   2   3
ENDBRANCH   1   2
BRANCH   1   5
ATOM      5  C   UNL     1     113.613 112.239 105.287  1.00  0.00     0.190 C 
BRANCH   5   6
ATOM      6  O   UNL     1     113.944 112.857 106.501  1.00  0.00    -0.394 OA
ATOM      7  H   UNL     1     113.705 113.815 106.397  1.00  0.00     0.210 HD
ENDBRANCH   5   6
ENDBRANCH   1   5
BRANCH   1   8
ATOM      8  O   UNL     1     114.600 111.528 103.217  1.00  0.00    -0.388 OA
ATOM      9  H   UNL     1     115.526 111.249 102.991  1.00  0.00     0.211 HD
ENDBRANCH   1   8
TORSDOF 5
ENDMDL
MODEL 9
REMARK VINA RESULT:    -1.988     11.969     12.782
REMARK INTER + INTRA:          -2.614
REMARK INTER:                  -2.391
REMARK INTRA:                  -0.222
REMARK UNBOUND:                -0.219
REMARK SMILES OCC(O)CO
REMARK SMILES IDX 3 1 5 2 6 3 2 5 1 6 4 8
REMARK H PARENT 6 4 1 7 4 9
REMARK Flexibility Score: inf
ROOT
ATOM      1  C   UNL     1     102.129 111.998 104.156  1.00  0.00     0.165 C 
ENDROOT
BRANCH   1   2
ATOM      2  C   UNL     1     100.819 111.269 103.816  1.00  0.00     0.190 C 
BRANCH   2   3
ATOM      3  O   UNL     1      99.829 111.562 104.764  1.00  0.00    -0.394 OA
ATOM      4  H   UNL     1      99.817 110.797 105.394  1.00  0.00     0.210 HD
ENDBRANCH   2   3
ENDBRANCH   1   2
BRANCH   1   5
ATOM      5  C   UNL     1     102.952 111.243 105.206  1.00  0.00     0.190 C 
BRANCH   5   6
ATOM      6  O   UNL     1     102.266 111.185 106.427  1.00  0.00    -0.394 OA
ATOM      7  H   UNL     1     101.670 111.979 106.445  1.00  0.00     0.210 HD
ENDBRANCH   5   6
ENDBRANCH   1   5
BRANCH   1   8
ATOM      8  O   UNL     1     102.902 112.184 102.998  1.00  0.00    -0.388 OA
ATOM      9  H   UNL     1     103.850 112.051 103.262  1.00  0.00     0.211 HD
ENDBRANCH   1   8
TORSDOF 5
ENDMDL
