MODEL 1
REMARK VINA RESULT:    -5.007      0.000      0.000
REMARK INTER + INTRA:          -5.007
REMARK INTER:                  -5.007
REMARK INTRA:                   0.000
REMARK UNBOUND:                 0.000
REMARK SMILES CC1=CC(=O)[C@H]2C[C@@H]1C2(C)C
REMARK SMILES IDX 1 1 2 2 3 3 4 4 5 5 6 6 7 7 8 8 9 9 10 10 11 11
REMARK H PARENT
REMARK Flexibility Score: inf
ROOT
ATOM      1  C   UNL     1      -2.229  28.912  56.084  1.00  0.00     0.040 C 
ATOM      2  C   UNL     1      -1.594  28.450  54.812  1.00  0.00    -0.066 C 
ATOM      3  C   UNL     1      -0.303  28.018  54.781  1.00  0.00     0.047 C 
ATOM      4  C   UNL     1       0.228  27.610  53.440  1.00  0.00     0.159 C 
ATOM      5  O   UNL     1       1.417  27.230  53.274  1.00  0.00    -0.295 OA
ATOM      6  C   UNL     1      -0.774  27.690  52.287  1.00  0.00     0.067 C 
ATOM      7  C   UNL     1      -2.056  27.043  52.856  1.00  0.00     0.021 C 
ATOM      8  C   UNL     1      -2.371  28.422  53.478  1.00  0.00     0.022 C 
ATOM      9  C   UNL     1      -1.502  29.063  52.358  1.00  0.00    -0.019 C 
ATOM     10  C   UNL     1      -2.318  29.363  51.076  1.00  0.00     0.012 C 
ATOM     11  C   UNL     1      -0.664  30.325  52.709  1.00  0.00     0.012 C 
ENDROOT
TORSDOF 0
ENDMDL
MODEL 2
REMARK VINA RESULT:    -4.791      1.698      3.067
REMARK INTER + INTRA:          -4.791
REMARK INTER:                  -4.791
REMARK INTRA:                   0.000
REMARK UNBOUND:                 0.000
REMARK SMILES CC1=CC(=O)[C@H]2C[C@@H]1C2(C)C
REMARK SMILES IDX 1 1 2 2 3 3 4 4 5 5 6 6 7 7 8 8 9 9 10 10 11 11
REMARK H PARENT
REMARK Flexibility Score: inf
ROOT
ATOM      1  C   UNL     1       2.292  27.178  53.775  1.00  0.00     0.040 C 
ATOM      2  C   UNL     1       0.929  27.783  53.879  1.00  0.00    -0.066 C 
ATOM      3  C   UNL     1       0.279  27.866  55.072  1.00  0.00     0.047 C 
ATOM      4  C   UNL     1      -1.095  28.464  55.040  1.00  0.00     0.159 C 
ATOM      5  O   UNL     1      -1.811  28.560  56.071  1.00  0.00    -0.295 OA
ATOM      6  C   UNL     1      -1.566  28.948  53.668  1.00  0.00     0.067 C 
ATOM      7  C   UNL     1      -0.355  29.725  53.106  1.00  0.00     0.021 C 
ATOM      8  C   UNL     1       0.198  28.358  52.646  1.00  0.00     0.022 C 
ATOM      9  C   UNL     1      -1.268  27.836  52.622  1.00  0.00    -0.019 C 
ATOM     10  C   UNL     1      -1.967  28.102  51.265  1.00  0.00     0.012 C 
ATOM     11  C   UNL     1      -1.528  26.356  53.023  1.00  0.00     0.012 C 
ENDROOT
TORSDOF 0
ENDMDL
MODEL 3
REMARK VINA RESULT:    -4.784      2.248      4.311
REMARK INTER + INTRA:          -4.784
REMARK INTER:                  -4.784
REMARK INTRA:                   0.000
REMARK UNBOUND:                 0.000
REMARK SMILES CC1=CC(=O)[C@H]2C[C@@H]1C2(C)C
REMARK SMILES IDX 1 1 2 2 3 3 4 4 5 5 6 6 7 7 8 8 9 9 10 10 11 11
REMARK H PARENT
REMARK Flexibility Score: inf
ROOT
ATOM      1  C   UNL     1      -4.125  30.749  50.090  1.00  0.00     0.040 C 
ATOM      2  C   UNL     1      -2.678  30.601  50.436  1.00  0.00    -0.066 C 
ATOM      3  C   UNL     1      -1.718  30.563  49.471  1.00  0.00     0.047 C 
ATOM      4  C   UNL     1      -0.308  30.381  49.945  1.00  0.00     0.159 C 
ATOM      5  O   UNL     1       0.662  30.290  49.147  1.00  0.00    -0.295 OA
ATOM      6  C   UNL     1      -0.131  30.309  51.462  1.00  0.00     0.067 C 
ATOM      7  C   UNL     1      -0.997  31.470  51.998  1.00  0.00     0.021 C 
ATOM      8  C   UNL     1      -2.198  30.503  51.901  1.00  0.00     0.022 C 
ATOM      9  C   UNL     1      -1.190  29.326  52.038  1.00  0.00    -0.019 C 
ATOM     10  C   UNL     1      -0.909  28.959  53.517  1.00  0.00     0.012 C 
ATOM     11  C   UNL     1      -1.481  28.013  51.257  1.00  0.00     0.012 C 
ENDROOT
TORSDOF 0
ENDMDL
MODEL 4
REMARK VINA RESULT:    -4.483      1.916      3.471
REMARK INTER + INTRA:          -4.483
REMARK INTER:                  -4.483
REMARK INTRA:                   0.000
REMARK UNBOUND:                 0.000
REMARK SMILES CC1=CC(=O)[C@H]2C[C@@H]1C2(C)C
REMARK SMILES IDX 1 1 2 2 3 3 4 4 5 5 6 6 7 7 8 8 9 9 10 10 11 11
REMARK H PARENT
REMARK Flexibility Score: inf
ROOT
ATOM      1  C   UNL     1      -0.942  29.953  50.521  1.00  0.00     0.040 C 
ATOM      2  C   UNL     1      -1.364  29.189  51.735  1.00  0.00    -0.066 C 
ATOM      3  C   UNL     1      -2.057  29.786  52.744  1.00  0.00     0.047 C 
ATOM      4  C   UNL     1      -2.394  28.921  53.920  1.00  0.00     0.159 C 
ATOM      5  O   UNL     1      -2.998  29.366  54.931  1.00  0.00    -0.295 OA
ATOM      6  C   UNL     1      -1.951  27.462  53.808  1.00  0.00     0.067 C 
ATOM      7  C   UNL     1      -2.373  27.048  52.381  1.00  0.00     0.021 C 
ATOM      8  C   UNL     1      -1.050  27.686  51.899  1.00  0.00     0.022 C 
ATOM      9  C   UNL     1      -0.474  27.429  53.322  1.00  0.00    -0.019 C 
ATOM     10  C   UNL     1       0.159  26.021  53.457  1.00  0.00     0.012 C 
ATOM     11  C   UNL     1       0.521  28.468  53.911  1.00  0.00     0.012 C 
ENDROOT
TORSDOF 0
ENDMDL
MODEL 5
REMARK VINA RESULT:    -4.429      1.657      3.004
REMARK INTER + INTRA:          -4.429
REMARK INTER:                  -4.429
REMARK INTRA:                   0.000
REMARK UNBOUND:                 0.000
REMARK SMILES CC1=CC(=O)[C@H]2C[C@@H]1C2(C)C
REMARK SMILES IDX 1 1 2 2 3 3 4 4 5 5 6 6 7 7 8 8 9 9 10 10 11 11
REMARK H PARENT
REMARK Flexibility Score: inf
ROOT
ATOM      1  C   UNL     1      -2.476  28.762  55.987  1.00  0.00     0.040 C 
ATOM      2  C   UNL     1      -1.930  28.651  54.600  1.00  0.00    -0.066 C 
ATOM      3  C   UNL     1      -2.742  28.402  53.536  1.00  0.00     0.047 C 
ATOM      4  C   UNL     1      -2.071  28.283  52.201  1.00  0.00     0.159 C 
ATOM      5  O   UNL     1      -2.708  28.016  51.149  1.00  0.00    -0.295 OA
ATOM      6  C   UNL     1      -0.558  28.507  52.207  1.00  0.00     0.067 C 
ATOM      7  C   UNL     1      -0.367  29.771  53.075  1.00  0.00     0.021 C 
ATOM      8  C   UNL     1      -0.425  28.832  54.301  1.00  0.00     0.022 C 
ATOM      9  C   UNL     1       0.060  27.681  53.372  1.00  0.00    -0.019 C 
ATOM     10  C   UNL     1       1.605  27.605  53.284  1.00  0.00     0.012 C 
ATOM     11  C   UNL     1      -0.485  26.248  53.631  1.00  0.00     0.012 C 
ENDROOT
TORSDOF 0
ENDMDL
MODEL 6
REMARK VINA RESULT:    -4.325      2.591      4.335
REMARK INTER + INTRA:          -4.325
REMARK INTER:                  -4.325
REMARK INTRA:                   0.000
REMARK UNBOUND:                 0.000
REMARK SMILES CC1=CC(=O)[C@H]2C[C@@H]1C2(C)C
REMARK SMILES IDX 1 1 2 2 3 3 4 4 5 5 6 6 7 7 8 8 9 9 10 10 11 11
REMARK H PARENT
REMARK Flexibility Score: inf
ROOT
ATOM      1  C   UNL     1      -0.517  30.405  48.806  1.00  0.00     0.040 C 
ATOM      2  C   UNL     1      -1.197  30.094  50.101  1.00  0.00    -0.066 C 
ATOM      3  C   UNL     1      -2.296  30.787  50.508  1.00  0.00     0.047 C 
ATOM      4  C   UNL     1      -2.868  30.402  51.839  1.00  0.00     0.159 C 
ATOM      5  O   UNL     1      -3.858  30.994  52.343  1.00  0.00    -0.295 OA
ATOM      6  C   UNL     1      -2.162  29.242  52.543  1.00  0.00     0.067 C 
ATOM      7  C   UNL     1      -1.972  28.186  51.433  1.00  0.00     0.021 C 
ATOM      8  C   UNL     1      -0.700  28.965  51.030  1.00  0.00     0.022 C 
ATOM      9  C   UNL     1      -0.627  29.492  52.492  1.00  0.00    -0.019 C 
ATOM     10  C   UNL     1       0.156  28.535  53.426  1.00  0.00     0.012 C 
ATOM     11  C   UNL     1      -0.106  30.938  52.728  1.00  0.00     0.012 C 
ENDROOT
TORSDOF 0
ENDMDL
MODEL 7
REMARK VINA RESULT:    -4.210      2.190      3.133
REMARK INTER + INTRA:          -4.210
REMARK INTER:                  -4.210
REMARK INTRA:                   0.000
REMARK UNBOUND:                 0.000
REMARK SMILES CC1=CC(=O)[C@H]2C[C@@H]1C2(C)C
REMARK SMILES IDX 1 1 2 2 3 3 4 4 5 5 6 6 7 7 8 8 9 9 10 10 11 11
REMARK H PARENT
REMARK Flexibility Score: inf
ROOT
ATOM      1  C   UNL     1      -1.871  27.243  53.109  1.00  0.00     0.040 C 
ATOM      2  C   UNL     1      -1.589  28.555  52.450  1.00  0.00    -0.066 C 
ATOM      3  C   UNL     1      -0.808  29.496  53.050  1.00  0.00     0.047 C 
ATOM      4  C   UNL     1      -0.626  30.782  52.301  1.00  0.00     0.159 C 
ATOM      5  O   UNL     1       0.040  31.743  52.768  1.00  0.00    -0.295 OA
ATOM      6  C   UNL     1      -1.308  30.845  50.934  1.00  0.00     0.067 C 
ATOM      7  C   UNL     1      -0.956  29.494  50.274  1.00  0.00     0.021 C 
ATOM      8  C   UNL     1      -2.151  28.901  51.054  1.00  0.00     0.022 C 
ATOM      9  C   UNL     1      -2.768  30.330  51.084  1.00  0.00    -0.019 C 
ATOM     10  C   UNL     1      -3.629  30.627  49.831  1.00  0.00     0.012 C 
ATOM     11  C   UNL     1      -3.576  30.756  52.343  1.00  0.00     0.012 C 
ENDROOT
TORSDOF 0
ENDMDL
MODEL 8
REMARK VINA RESULT:    -4.067      8.297     10.213
REMARK INTER + INTRA:          -4.067
REMARK INTER:                  -4.067
REMARK INTRA:                   0.000
REMARK UNBOUND:                 0.000
REMARK SMILES CC1=CC(=O)[C@H]2C[C@@H]1C2(C)C
REMARK SMILES IDX 1 1 2 2 3 3 4 4 5 5 6 6 7 7 8 8 9 9 10 10 11 11
REMARK H PARENT
REMARK Flexibility Score: inf
ROOT
ATOM      1  C   UNL     1      -1.138  30.342  60.593  1.00  0.00     0.040 C 
ATOM      2  C   UNL     1      -1.292  31.580  61.417  1.00  0.00    -0.066 C 
ATOM      3  C   UNL     1      -2.454  31.857  62.070  1.00  0.00     0.047 C 
ATOM      4  C   UNL     1      -2.494  33.144  62.838  1.00  0.00     0.159 C 
ATOM      5  O   UNL     1      -3.524  33.530  63.450  1.00  0.00    -0.295 OA
ATOM      6  C   UNL     1      -1.197  33.954  62.823  1.00  0.00     0.067 C 
ATOM      7  C   UNL     1      -0.095  32.908  63.097  1.00  0.00     0.021 C 
ATOM      8  C   UNL     1      -0.139  32.594  61.585  1.00  0.00     0.022 C 
ATOM      9  C   UNL     1      -0.680  34.035  61.359  1.00  0.00    -0.019 C 
ATOM     10  C   UNL     1       0.458  35.073  61.193  1.00  0.00     0.012 C 
ATOM     11  C   UNL     1      -1.716  34.262  60.221  1.00  0.00     0.012 C 
ENDROOT
TORSDOF 0
ENDMDL
MODEL 9
REMARK VINA RESULT:    -4.021      8.160      9.524
REMARK INTER + INTRA:          -4.021
REMARK INTER:                  -4.021
REMARK INTRA:                   0.000
REMARK UNBOUND:                 0.000
REMARK SMILES CC1=CC(=O)[C@H]2C[C@@H]1C2(C)C
REMARK SMILES IDX 1 1 2 2 3 3 4 4 5 5 6 6 7 7 8 8 9 9 10 10 11 11
REMARK H PARENT
REMARK Flexibility Score: inf
ROOT
ATOM      1  C   UNL     1      -0.010  33.610  63.635  1.00  0.00     0.040 C 
ATOM      2  C   UNL     1      -0.734  33.277  62.370  1.00  0.00    -0.066 C 
ATOM      3  C   UNL     1      -1.431  34.224  61.682  1.00  0.00     0.047 C 
ATOM      4  C   UNL     1      -2.139  33.758  60.446  1.00  0.00     0.159 C 
ATOM      5  O   UNL     1      -2.847  34.529  59.746  1.00  0.00    -0.295 OA
ATOM      6  C   UNL     1      -1.944  32.283  60.096  1.00  0.00     0.067 C 
ATOM      7  C   UNL     1      -0.427  32.052  60.267  1.00  0.00     0.021 C 
ATOM      8  C   UNL     1      -0.715  31.854  61.772  1.00  0.00     0.022 C 
ATOM      9  C   UNL     1      -2.162  31.436  61.382  1.00  0.00    -0.019 C 
ATOM     10  C   UNL     1      -2.277  29.921  61.077  1.00  0.00     0.012 C 
ATOM     11  C   UNL     1      -3.324  31.830  62.338  1.00  0.00     0.012 C 
ENDROOT
TORSDOF 0
ENDMDL
