MODEL 1
REMARK VINA RESULT:    -5.487      0.000      0.000
REMARK INTER + INTRA:          -6.575
REMARK INTER:                  -6.449
REMARK INTRA:                  -0.126
REMARK UNBOUND:                -0.126
REMARK SMILES O=C([O-])C=Cc1ccc(O)c(O)c1
REMARK SMILES IDX 6 1 13 2 7 3 11 4 8 5 9 6 5 7 4 8 2 9 1 10 3 11 12 12 10 14
REMARK H PARENT 12 13 10 15
REMARK Flexibility Score: inf
ROOT
ATOM      1  C   UNL     1      29.962  37.412  27.680  1.00  0.00    -0.022 A 
ATOM      2  C   UNL     1      28.565  37.554  27.706  1.00  0.00     0.058 A 
ATOM      3  C   UNL     1      30.513  36.178  27.279  1.00  0.00     0.012 A 
ATOM      4  C   UNL     1      27.729  36.501  27.317  1.00  0.00     0.157 A 
ATOM      5  C   UNL     1      29.679  35.125  26.891  1.00  0.00     0.051 A 
ATOM      6  C   UNL     1      28.287  35.281  26.905  1.00  0.00     0.157 A 
ENDROOT
BRANCH   1   7
ATOM      7  C   UNL     1      30.801  38.557  28.113  1.00  0.00     0.010 C 
ATOM      8  C   UNL     1      31.507  39.324  27.270  1.00  0.00     0.025 C 
BRANCH   8   9
ATOM      9  C   UNL     1      32.319  40.460  27.736  1.00  0.00     0.064 C 
ATOM     10  O   UNL     1      33.541  40.554  27.442  1.00  0.00    -0.545 OA
ATOM     11  O   UNL     1      31.728  41.448  28.513  1.00  0.00    -0.545 OA
ENDBRANCH   8   9
ENDBRANCH   1   7
BRANCH   4  12
ATOM     12  O   UNL     1      26.347  36.687  27.348  1.00  0.00    -0.504 OA
ATOM     13  H   UNL     1      25.914  37.558  27.063  1.00  0.00     0.293 HD
ENDBRANCH   4  12
BRANCH   6  14
ATOM     14  O   UNL     1      27.460  34.228  26.516  1.00  0.00    -0.504 OA
ATOM     15  H   UNL     1      27.643  33.274  26.806  1.00  0.00     0.293 HD
ENDBRANCH   6  14
TORSDOF 4
ENDMDL
MODEL 2
REMARK VINA RESULT:    -5.349      2.034      2.857
REMARK INTER + INTRA:          -6.413
REMARK INTER:                  -6.283
REMARK INTRA:                  -0.131
REMARK UNBOUND:                -0.126
REMARK SMILES O=C([O-])C=Cc1ccc(O)c(O)c1
REMARK SMILES IDX 6 1 13 2 7 3 11 4 8 5 9 6 5 7 4 8 2 9 1 10 3 11 12 12 10 14
REMARK H PARENT 12 13 10 15
REMARK Flexibility Score: inf
ROOT
ATOM      1  C   UNL     1      28.941  36.990  27.107  1.00  0.00    -0.022 A 
ATOM      2  C   UNL     1      29.417  35.696  26.838  1.00  0.00     0.058 A 
ATOM      3  C   UNL     1      27.721  37.398  26.531  1.00  0.00     0.012 A 
ATOM      4  C   UNL     1      28.684  34.814  26.035  1.00  0.00     0.157 A 
ATOM      5  C   UNL     1      26.989  36.519  25.728  1.00  0.00     0.051 A 
ATOM      6  C   UNL     1      27.463  35.225  25.478  1.00  0.00     0.157 A 
ENDROOT
BRANCH   1   7
ATOM      7  C   UNL     1      29.763  37.887  27.956  1.00  0.00     0.010 C 
ATOM      8  C   UNL     1      29.309  38.482  29.068  1.00  0.00     0.025 C 
BRANCH   8   9
ATOM      9  C   UNL     1      30.159  39.357  29.893  1.00  0.00     0.064 C 
ATOM     10  O   UNL     1      30.891  40.238  29.369  1.00  0.00    -0.545 OA
ATOM     11  O   UNL     1      30.152  39.210  31.273  1.00  0.00    -0.545 OA
ENDBRANCH   8   9
ENDBRANCH   1   7
BRANCH   4  12
ATOM     12  O   UNL     1      29.187  33.534  25.801  1.00  0.00    -0.504 OA
ATOM     13  H   UNL     1      29.175  33.110  24.881  1.00  0.00     0.293 HD
ENDBRANCH   4  12
BRANCH   6  14
ATOM     14  O   UNL     1      26.728  34.352  24.678  1.00  0.00    -0.504 OA
ATOM     15  H   UNL     1      26.886  33.351  24.702  1.00  0.00     0.293 HD
ENDBRANCH   6  14
TORSDOF 4
ENDMDL
MODEL 3
REMARK VINA RESULT:    -5.088      3.093      4.073
REMARK INTER + INTRA:          -6.107
REMARK INTER:                  -5.982
REMARK INTRA:                  -0.125
REMARK UNBOUND:                -0.126
REMARK SMILES O=C([O-])C=Cc1ccc(O)c(O)c1
REMARK SMILES IDX 6 1 13 2 7 3 11 4 8 5 9 6 5 7 4 8 2 9 1 10 3 11 12 12 10 14
REMARK H PARENT 12 13 10 15
REMARK Flexibility Score: inf
ROOT
ATOM      1  C   UNL     1      29.978  37.156  26.100  1.00  0.00    -0.022 A 
ATOM      2  C   UNL     1      28.585  37.132  26.283  1.00  0.00     0.058 A 
ATOM      3  C   UNL     1      30.527  38.073  25.181  1.00  0.00     0.012 A 
ATOM      4  C   UNL     1      27.754  38.018  25.586  1.00  0.00     0.157 A 
ATOM      5  C   UNL     1      29.699  38.958  24.484  1.00  0.00     0.051 A 
ATOM      6  C   UNL     1      28.313  38.937  24.684  1.00  0.00     0.157 A 
ENDROOT
BRANCH   1   7
ATOM      7  C   UNL     1      30.810  36.188  26.856  1.00  0.00     0.010 C 
ATOM      8  C   UNL     1      31.508  36.505  27.955  1.00  0.00     0.025 C 
BRANCH   8   9
ATOM      9  C   UNL     1      32.315  35.513  28.686  1.00  0.00     0.064 C 
ATOM     10  O   UNL     1      33.558  35.659  28.829  1.00  0.00    -0.545 OA
ATOM     11  O   UNL     1      31.693  34.396  29.229  1.00  0.00    -0.545 OA
ENDBRANCH   8   9
ENDBRANCH   1   7
BRANCH   4  12
ATOM     12  O   UNL     1      26.378  37.968  25.804  1.00  0.00    -0.504 OA
ATOM     13  H   UNL     1      25.725  38.520  25.259  1.00  0.00     0.293 HD
ENDBRANCH   4  12
BRANCH   6  14
ATOM     14  O   UNL     1      27.491  39.822  23.988  1.00  0.00    -0.504 OA
ATOM     15  H   UNL     1      27.017  40.586  24.457  1.00  0.00     0.293 HD
ENDBRANCH   6  14
TORSDOF 4
ENDMDL
MODEL 4
REMARK VINA RESULT:    -4.966      1.503      2.429
REMARK INTER + INTRA:          -5.964
REMARK INTER:                  -5.833
REMARK INTRA:                  -0.131
REMARK UNBOUND:                -0.126
REMARK SMILES O=C([O-])C=Cc1ccc(O)c(O)c1
REMARK SMILES IDX 6 1 13 2 7 3 11 4 8 5 9 6 5 7 4 8 2 9 1 10 3 11 12 12 10 14
REMARK H PARENT 12 13 10 15
REMARK Flexibility Score: inf
ROOT
ATOM      1  C   UNL     1      28.864  37.097  27.111  1.00  0.00    -0.022 A 
ATOM      2  C   UNL     1      29.397  35.827  26.833  1.00  0.00     0.058 A 
ATOM      3  C   UNL     1      27.612  37.444  26.564  1.00  0.00     0.012 A 
ATOM      4  C   UNL     1      28.689  34.909  26.048  1.00  0.00     0.157 A 
ATOM      5  C   UNL     1      26.905  36.528  25.779  1.00  0.00     0.051 A 
ATOM      6  C   UNL     1      27.436  35.259  25.521  1.00  0.00     0.157 A 
ENDROOT
BRANCH   1   7
ATOM      7  C   UNL     1      29.661  38.036  27.939  1.00  0.00     0.010 C 
ATOM      8  C   UNL     1      30.393  39.039  27.433  1.00  0.00     0.025 C 
BRANCH   8   9
ATOM      9  C   UNL     1      31.161  39.959  28.288  1.00  0.00     0.064 C 
ATOM     10  O   UNL     1      30.889  40.095  29.510  1.00  0.00    -0.545 OA
ATOM     11  O   UNL     1      32.206  40.689  27.737  1.00  0.00    -0.545 OA
ENDBRANCH   8   9
ENDBRANCH   1   7
BRANCH   4  12
ATOM     12  O   UNL     1      29.249  33.655  25.805  1.00  0.00    -0.504 OA
ATOM     13  H   UNL     1      29.513  33.027  26.556  1.00  0.00     0.293 HD
ENDBRANCH   4  12
BRANCH   6  14
ATOM     14  O   UNL     1      26.727  34.348  24.739  1.00  0.00    -0.504 OA
ATOM     15  H   UNL     1      25.758  34.506  24.488  1.00  0.00     0.293 HD
ENDBRANCH   6  14
TORSDOF 4
ENDMDL
MODEL 5
REMARK VINA RESULT:    -4.807      1.633      1.944
REMARK INTER + INTRA:          -5.776
REMARK INTER:                  -5.644
REMARK INTRA:                  -0.132
REMARK UNBOUND:                -0.126
REMARK SMILES O=C([O-])C=Cc1ccc(O)c(O)c1
REMARK SMILES IDX 6 1 13 2 7 3 11 4 8 5 9 6 5 7 4 8 2 9 1 10 3 11 12 12 10 14
REMARK H PARENT 12 13 10 15
REMARK Flexibility Score: inf
ROOT
ATOM      1  C   UNL     1      29.156  36.739  27.301  1.00  0.00    -0.022 A 
ATOM      2  C   UNL     1      27.928  37.239  26.836  1.00  0.00     0.058 A 
ATOM      3  C   UNL     1      29.503  35.405  27.006  1.00  0.00     0.012 A 
ATOM      4  C   UNL     1      27.072  36.439  26.069  1.00  0.00     0.157 A 
ATOM      5  C   UNL     1      28.648  34.605  26.241  1.00  0.00     0.051 A 
ATOM      6  C   UNL     1      27.434  35.117  25.767  1.00  0.00     0.157 A 
ENDROOT
BRANCH   1   7
ATOM      7  C   UNL     1      30.020  37.625  28.119  1.00  0.00     0.010 C 
ATOM      8  C   UNL     1      29.604  38.780  28.658  1.00  0.00     0.025 C 
BRANCH   8   9
ATOM      9  C   UNL     1      30.488  39.628  29.475  1.00  0.00     0.064 C 
ATOM     10  O   UNL     1      31.254  40.475  28.944  1.00  0.00    -0.545 OA
ATOM     11  O   UNL     1      30.476  39.493  30.857  1.00  0.00    -0.545 OA
ENDBRANCH   8   9
ENDBRANCH   1   7
BRANCH   4  12
ATOM     12  O   UNL     1      25.868  36.977  25.617  1.00  0.00    -0.504 OA
ATOM     13  H   UNL     1      25.372  36.596  24.819  1.00  0.00     0.293 HD
ENDBRANCH   4  12
BRANCH   6  14
ATOM     14  O   UNL     1      26.586  34.316  25.003  1.00  0.00    -0.504 OA
ATOM     15  H   UNL     1      26.602  34.343  23.990  1.00  0.00     0.293 HD
ENDBRANCH   6  14
TORSDOF 4
ENDMDL
MODEL 6
REMARK VINA RESULT:    -4.762      3.417      5.439
REMARK INTER + INTRA:          -5.724
REMARK INTER:                  -5.595
REMARK INTRA:                  -0.129
REMARK UNBOUND:                -0.126
REMARK SMILES O=C([O-])C=Cc1ccc(O)c(O)c1
REMARK SMILES IDX 6 1 13 2 7 3 11 4 8 5 9 6 5 7 4 8 2 9 1 10 3 11 12 12 10 14
REMARK H PARENT 12 13 10 15
REMARK Flexibility Score: inf
ROOT
ATOM      1  C   UNL     1      27.960  37.579  26.077  1.00  0.00    -0.022 A 
ATOM      2  C   UNL     1      28.681  38.325  25.129  1.00  0.00     0.058 A 
ATOM      3  C   UNL     1      26.855  38.177  26.715  1.00  0.00     0.012 A 
ATOM      4  C   UNL     1      28.296  39.630  24.800  1.00  0.00     0.157 A 
ATOM      5  C   UNL     1      26.470  39.481  26.388  1.00  0.00     0.051 A 
ATOM      6  C   UNL     1      27.184  40.211  25.430  1.00  0.00     0.157 A 
ENDROOT
BRANCH   1   7
ATOM      7  C   UNL     1      28.418  36.205  26.396  1.00  0.00     0.010 C 
ATOM      8  C   UNL     1      29.696  35.883  26.642  1.00  0.00     0.025 C 
BRANCH   8   9
ATOM      9  C   UNL     1      30.111  34.508  26.968  1.00  0.00     0.064 C 
ATOM     10  O   UNL     1      30.837  34.265  27.968  1.00  0.00    -0.545 OA
ATOM     11  O   UNL     1      29.694  33.460  26.158  1.00  0.00    -0.545 OA
ENDBRANCH   8   9
ENDBRANCH   1   7
BRANCH   4  12
ATOM     12  O   UNL     1      29.031  40.332  23.846  1.00  0.00    -0.504 OA
ATOM     13  H   UNL     1      30.015  40.542  23.971  1.00  0.00     0.293 HD
ENDBRANCH   4  12
BRANCH   6  14
ATOM     14  O   UNL     1      26.795  41.510  25.106  1.00  0.00    -0.504 OA
ATOM     15  H   UNL     1      26.321  42.105  25.776  1.00  0.00     0.293 HD
ENDBRANCH   6  14
TORSDOF 4
ENDMDL
MODEL 7
REMARK VINA RESULT:    -4.638      3.481      4.086
REMARK INTER + INTRA:          -5.577
REMARK INTER:                  -5.449
REMARK INTRA:                  -0.128
REMARK UNBOUND:                -0.126
REMARK SMILES O=C([O-])C=Cc1ccc(O)c(O)c1
REMARK SMILES IDX 6 1 13 2 7 3 11 4 8 5 9 6 5 7 4 8 2 9 1 10 3 11 12 12 10 14
REMARK H PARENT 12 13 10 15
REMARK Flexibility Score: inf
ROOT
ATOM      1  C   UNL     1      28.056  38.369  27.254  1.00  0.00    -0.022 A 
ATOM      2  C   UNL     1      28.833  38.721  28.371  1.00  0.00     0.058 A 
ATOM      3  C   UNL     1      26.890  37.603  27.452  1.00  0.00     0.012 A 
ATOM      4  C   UNL     1      28.446  38.342  29.662  1.00  0.00     0.157 A 
ATOM      5  C   UNL     1      26.503  37.224  28.740  1.00  0.00     0.051 A 
ATOM      6  C   UNL     1      27.275  37.592  29.849  1.00  0.00     0.157 A 
ENDROOT
BRANCH   1   7
ATOM      7  C   UNL     1      28.518  38.787  25.908  1.00  0.00     0.010 C 
ATOM      8  C   UNL     1      29.719  38.474  25.402  1.00  0.00     0.025 C 
BRANCH   8   9
ATOM      9  C   UNL     1      30.138  38.897  24.054  1.00  0.00     0.064 C 
ATOM     10  O   UNL     1      30.856  38.156  23.332  1.00  0.00    -0.545 OA
ATOM     11  O   UNL     1      29.732  40.134  23.571  1.00  0.00    -0.545 OA
ENDBRANCH   8   9
ENDBRANCH   1   7
BRANCH   4  12
ATOM     12  O   UNL     1      29.240  38.721  30.744  1.00  0.00    -0.504 OA
ATOM     13  H   UNL     1      29.328  38.147  31.575  1.00  0.00     0.293 HD
ENDBRANCH   4  12
BRANCH   6  14
ATOM     14  O   UNL     1      26.884  37.213  31.132  1.00  0.00    -0.504 OA
ATOM     15  H   UNL     1      27.402  36.522  31.663  1.00  0.00     0.293 HD
ENDBRANCH   6  14
TORSDOF 4
ENDMDL
MODEL 8
REMARK VINA RESULT:    -4.521      2.818      3.718
REMARK INTER + INTRA:          -5.441
REMARK INTER:                  -5.300
REMARK INTRA:                  -0.141
REMARK UNBOUND:                -0.126
REMARK SMILES O=C([O-])C=Cc1ccc(O)c(O)c1
REMARK SMILES IDX 6 1 13 2 7 3 11 4 8 5 9 6 5 7 4 8 2 9 1 10 3 11 12 12 10 14
REMARK H PARENT 12 13 10 15
REMARK Flexibility Score: inf
ROOT
ATOM      1  C   UNL     1      28.911  37.526  27.331  1.00  0.00    -0.022 A 
ATOM      2  C   UNL     1      28.546  38.757  26.760  1.00  0.00     0.058 A 
ATOM      3  C   UNL     1      27.897  36.614  27.687  1.00  0.00     0.012 A 
ATOM      4  C   UNL     1      27.202  39.066  26.521  1.00  0.00     0.157 A 
ATOM      5  C   UNL     1      26.554  36.923  27.450  1.00  0.00     0.051 A 
ATOM      6  C   UNL     1      26.200  38.145  26.865  1.00  0.00     0.157 A 
ENDROOT
BRANCH   1   7
ATOM      7  C   UNL     1      30.349  37.254  27.573  1.00  0.00     0.010 C 
ATOM      8  C   UNL     1      30.814  36.109  28.092  1.00  0.00     0.025 C 
BRANCH   8   9
ATOM      9  C   UNL     1      32.251  35.870  28.306  1.00  0.00     0.064 C 
ATOM     10  O   UNL     1      33.123  36.535  27.686  1.00  0.00    -0.545 OA
ATOM     11  O   UNL     1      32.653  34.894  29.208  1.00  0.00    -0.545 OA
ENDBRANCH   8   9
ENDBRANCH   1   7
BRANCH   4  12
ATOM     12  O   UNL     1      26.883  40.294  25.941  1.00  0.00    -0.504 OA
ATOM     13  H   UNL     1      27.257  40.580  25.044  1.00  0.00     0.293 HD
ENDBRANCH   4  12
BRANCH   6  14
ATOM     14  O   UNL     1      24.860  38.447  26.628  1.00  0.00    -0.504 OA
ATOM     15  H   UNL     1      24.422  38.253  25.735  1.00  0.00     0.293 HD
ENDBRANCH   6  14
TORSDOF 4
ENDMDL
MODEL 9
REMARK VINA RESULT:    -4.398      3.003      4.012
REMARK INTER + INTRA:          -5.296
REMARK INTER:                  -5.169
REMARK INTRA:                  -0.127
REMARK UNBOUND:                -0.126
REMARK SMILES O=C([O-])C=Cc1ccc(O)c(O)c1
REMARK SMILES IDX 6 1 13 2 7 3 11 4 8 5 9 6 5 7 4 8 2 9 1 10 3 11 12 12 10 14
REMARK H PARENT 12 13 10 15
REMARK Flexibility Score: inf
ROOT
ATOM      1  C   UNL     1      29.685  38.389  26.790  1.00  0.00    -0.022 A 
ATOM      2  C   UNL     1      28.336  38.004  26.865  1.00  0.00     0.058 A 
ATOM      3  C   UNL     1      30.289  38.976  27.921  1.00  0.00     0.012 A 
ATOM      4  C   UNL     1      27.606  38.175  28.048  1.00  0.00     0.157 A 
ATOM      5  C   UNL     1      29.561  39.147  29.102  1.00  0.00     0.051 A 
ATOM      6  C   UNL     1      28.221  38.746  29.173  1.00  0.00     0.157 A 
ENDROOT
BRANCH   1   7
ATOM      7  C   UNL     1      30.408  38.196  25.509  1.00  0.00     0.010 C 
ATOM      8  C   UNL     1      31.287  37.207  25.292  1.00  0.00     0.025 C 
BRANCH   8   9
ATOM      9  C   UNL     1      31.978  37.040  24.002  1.00  0.00     0.064 C 
ATOM     10  O   UNL     1      33.071  36.419  23.922  1.00  0.00    -0.545 OA
ATOM     11  O   UNL     1      31.413  37.576  22.852  1.00  0.00    -0.545 OA
ENDBRANCH   8   9
ENDBRANCH   1   7
BRANCH   4  12
ATOM     12  O   UNL     1      26.272  37.770  28.084  1.00  0.00    -0.504 OA
ATOM     13  H   UNL     1      25.820  37.478  28.943  1.00  0.00     0.293 HD
ENDBRANCH   4  12
BRANCH   6  14
ATOM     14  O   UNL     1      27.499  38.918  30.353  1.00  0.00    -0.504 OA
ATOM     15  H   UNL     1      26.739  38.297  30.605  1.00  0.00     0.293 HD
ENDBRANCH   6  14
TORSDOF 4
ENDMDL
