MODEL 1
REMARK VINA RESULT:    -3.868      0.000      0.000
REMARK INTER + INTRA:          -5.417
REMARK INTER:                  -4.998
REMARK INTRA:                  -0.418
REMARK UNBOUND:                -0.418
REMARK SMILES C=CC(=O)CCCCC
REMARK SMILES IDX 6 1 7 2 8 3 9 4 5 5 3 6 4 7 2 8 1 9
REMARK H PARENT
REMARK Flexibility Score: inf
ROOT
ATOM      1  C   UNL     1     142.404 144.413 112.661  1.00  0.00     0.008 C 
ENDROOT
BRANCH   1   2
ATOM      2  C   UNL     1     143.081 144.801 113.984  1.00  0.00     0.000 C 
BRANCH   2   3
ATOM      3  C   UNL     1     144.566 145.153 113.807  1.00  0.00    -0.003 C 
ATOM      4  C   UNL     1     144.782 146.350 112.882  1.00  0.00     0.004 C 
ENDBRANCH   2   3
ENDBRANCH   1   2
BRANCH   1   5
ATOM      5  C   UNL     1     140.878 144.501 112.781  1.00  0.00     0.080 C 
BRANCH   5   6
ATOM      6  C   UNL     1     140.359 145.736 112.093  1.00  0.00     0.155 C 
ATOM      7  O   UNL     1     140.051 145.662 110.874  1.00  0.00    -0.295 OA
BRANCH   6   8
ATOM      8  C   UNL     1     140.162 147.028 112.787  1.00  0.00     0.039 C 
ATOM      9  C   UNL     1     141.102 147.968 112.895  1.00  0.00     0.012 C 
ENDBRANCH   6   8
ENDBRANCH   5   6
ENDBRANCH   1   5
TORSDOF 5
ENDMDL
MODEL 2
REMARK VINA RESULT:    -3.532      1.680      2.289
REMARK INTER + INTRA:          -4.983
REMARK INTER:                  -4.725
REMARK INTRA:                  -0.258
REMARK UNBOUND:                -0.418
REMARK SMILES C=CC(=O)CCCCC
REMARK SMILES IDX 6 1 7 2 8 3 9 4 5 5 3 6 4 7 2 8 1 9
REMARK H PARENT
REMARK Flexibility Score: inf
ROOT
ATOM      1  C   UNL     1     144.059 144.324 113.587  1.00  0.00     0.008 C 
ENDROOT
BRANCH   1   2
ATOM      2  C   UNL     1     144.635 145.638 114.135  1.00  0.00     0.000 C 
BRANCH   2   3
ATOM      3  C   UNL     1     146.041 145.939 113.592  1.00  0.00    -0.003 C 
ATOM      4  C   UNL     1     146.123 147.291 112.884  1.00  0.00     0.004 C 
ENDBRANCH   2   3
ENDBRANCH   1   2
BRANCH   1   5
ATOM      5  C   UNL     1     142.794 143.919 114.353  1.00  0.00     0.080 C 
BRANCH   5   6
ATOM      6  C   UNL     1     141.590 143.948 113.450  1.00  0.00     0.155 C 
ATOM      7  O   UNL     1     140.855 142.926 113.394  1.00  0.00    -0.295 OA
BRANCH   6   8
ATOM      8  C   UNL     1     141.207 145.129 112.646  1.00  0.00     0.039 C 
ATOM      9  C   UNL     1     141.063 146.357 113.146  1.00  0.00     0.012 C 
ENDBRANCH   6   8
ENDBRANCH   5   6
ENDBRANCH   1   5
TORSDOF 5
ENDMDL
MODEL 3
REMARK VINA RESULT:    -3.525      2.309      4.391
REMARK INTER + INTRA:          -4.973
REMARK INTER:                  -4.758
REMARK INTRA:                  -0.215
REMARK UNBOUND:                -0.418
REMARK SMILES C=CC(=O)CCCCC
REMARK SMILES IDX 6 1 7 2 8 3 9 4 5 5 3 6 4 7 2 8 1 9
REMARK H PARENT
REMARK Flexibility Score: inf
ROOT
ATOM      1  C   UNL     1     142.294 145.220 112.732  1.00  0.00     0.008 C 
ENDROOT
BRANCH   1   2
ATOM      2  C   UNL     1     140.761 145.133 112.735  1.00  0.00     0.000 C 
BRANCH   2   3
ATOM      3  C   UNL     1     140.093 146.461 112.345  1.00  0.00    -0.003 C 
ATOM      4  C   UNL     1     140.778 147.673 112.976  1.00  0.00     0.004 C 
ENDBRANCH   2   3
ENDBRANCH   1   2
BRANCH   1   5
ATOM      5  C   UNL     1     142.894 144.332 113.829  1.00  0.00     0.080 C 
BRANCH   5   6
ATOM      6  C   UNL     1     144.396 144.437 113.838  1.00  0.00     0.155 C 
ATOM      7  O   UNL     1     145.064 143.474 114.302  1.00  0.00    -0.295 OA
BRANCH   6   8
ATOM      8  C   UNL     1     145.132 145.603 113.300  1.00  0.00     0.039 C 
ATOM      9  C   UNL     1     146.120 146.224 113.946  1.00  0.00     0.012 C 
ENDBRANCH   6   8
ENDBRANCH   5   6
ENDBRANCH   1   5
TORSDOF 5
ENDMDL
MODEL 4
REMARK VINA RESULT:    -3.334      3.210      4.539
REMARK INTER + INTRA:          -4.727
REMARK INTER:                  -4.579
REMARK INTRA:                  -0.148
REMARK UNBOUND:                -0.418
REMARK SMILES C=CC(=O)CCCCC
REMARK SMILES IDX 6 1 7 2 8 3 9 4 5 5 3 6 4 7 2 8 1 9
REMARK H PARENT
REMARK Flexibility Score: inf
ROOT
ATOM      1  C   UNL     1     141.651 142.539 114.540  1.00  0.00     0.008 C 
ENDROOT
BRANCH   1   2
ATOM      2  C   UNL     1     140.561 141.618 115.107  1.00  0.00     0.000 C 
BRANCH   2   3
ATOM      3  C   UNL     1     140.818 141.232 116.572  1.00  0.00    -0.003 C 
ATOM      4  C   UNL     1     139.527 141.029 117.364  1.00  0.00     0.004 C 
ENDBRANCH   2   3
ENDBRANCH   1   2
BRANCH   1   5
ATOM      5  C   UNL     1     141.097 143.409 113.405  1.00  0.00     0.080 C 
BRANCH   5   6
ATOM      6  C   UNL     1     141.893 144.680 113.268  1.00  0.00     0.155 C 
ATOM      7  O   UNL     1     141.314 145.778 113.482  1.00  0.00    -0.295 OA
BRANCH   6   8
ATOM      8  C   UNL     1     143.332 144.703 112.926  1.00  0.00     0.039 C 
ATOM      9  C   UNL     1     144.238 145.446 113.562  1.00  0.00     0.012 C 
ENDBRANCH   6   8
ENDBRANCH   5   6
ENDBRANCH   1   5
TORSDOF 5
ENDMDL
MODEL 5
REMARK VINA RESULT:    -3.245      2.535      4.333
REMARK INTER + INTRA:          -4.612
REMARK INTER:                  -4.412
REMARK INTRA:                  -0.200
REMARK UNBOUND:                -0.418
REMARK SMILES C=CC(=O)CCCCC
REMARK SMILES IDX 6 1 7 2 8 3 9 4 5 5 3 6 4 7 2 8 1 9
REMARK H PARENT
REMARK Flexibility Score: inf
ROOT
ATOM      1  C   UNL     1     141.401 145.005 112.418  1.00  0.00     0.008 C 
ENDROOT
BRANCH   1   2
ATOM      2  C   UNL     1     141.101 146.160 113.385  1.00  0.00     0.000 C 
BRANCH   2   3
ATOM      3  C   UNL     1     140.297 147.290 112.724  1.00  0.00    -0.003 C 
ATOM      4  C   UNL     1     140.950 148.660 112.900  1.00  0.00     0.004 C 
ENDBRANCH   2   3
ENDBRANCH   1   2
BRANCH   1   5
ATOM      5  C   UNL     1     142.557 144.142 112.937  1.00  0.00     0.080 C 
BRANCH   5   6
ATOM      6  C   UNL     1     142.151 143.397 114.181  1.00  0.00     0.155 C 
ATOM      7  O   UNL     1     142.705 143.699 115.271  1.00  0.00    -0.295 OA
BRANCH   6   8
ATOM      8  C   UNL     1     141.108 142.348 114.194  1.00  0.00     0.039 C 
ATOM      9  C   UNL     1     140.834 141.582 115.251  1.00  0.00     0.012 C 
ENDBRANCH   6   8
ENDBRANCH   5   6
ENDBRANCH   1   5
TORSDOF 5
ENDMDL
MODEL 6
REMARK VINA RESULT:    -3.082     12.783     14.522
REMARK INTER + INTRA:          -4.402
REMARK INTER:                  -4.138
REMARK INTRA:                  -0.264
REMARK UNBOUND:                -0.418
REMARK SMILES C=CC(=O)CCCCC
REMARK SMILES IDX 6 1 7 2 8 3 9 4 5 5 3 6 4 7 2 8 1 9
REMARK H PARENT
REMARK Flexibility Score: inf
ROOT
ATOM      1  C   UNL     1     130.100 137.344 115.072  1.00  0.00     0.008 C 
ENDROOT
BRANCH   1   2
ATOM      2  C   UNL     1     128.715 137.571 114.448  1.00  0.00     0.000 C 
BRANCH   2   3
ATOM      3  C   UNL     1     128.332 136.471 113.445  1.00  0.00    -0.003 C 
ATOM      4  C   UNL     1     127.179 136.882 112.530  1.00  0.00     0.004 C 
ENDBRANCH   2   3
ENDBRANCH   1   2
BRANCH   1   5
ATOM      5  C   UNL     1     131.174 138.144 114.326  1.00  0.00     0.080 C 
BRANCH   5   6
ATOM      6  C   UNL     1     131.720 139.245 115.196  1.00  0.00     0.155 C 
ATOM      7  O   UNL     1     132.660 138.975 115.990  1.00  0.00    -0.295 OA
BRANCH   6   8
ATOM      8  C   UNL     1     131.229 140.640 115.143  1.00  0.00     0.039 C 
ATOM      9  C   UNL     1     130.008 141.016 115.525  1.00  0.00     0.012 C 
ENDBRANCH   6   8
ENDBRANCH   5   6
ENDBRANCH   1   5
TORSDOF 5
ENDMDL
MODEL 7
REMARK VINA RESULT:    -3.082     12.205     13.420
REMARK INTER + INTRA:          -4.401
REMARK INTER:                  -4.226
REMARK INTRA:                  -0.175
REMARK UNBOUND:                -0.418
REMARK SMILES C=CC(=O)CCCCC
REMARK SMILES IDX 6 1 7 2 8 3 9 4 5 5 3 6 4 7 2 8 1 9
REMARK H PARENT
REMARK Flexibility Score: inf
ROOT
ATOM      1  C   UNL     1     131.592 139.317 115.046  1.00  0.00     0.008 C 
ENDROOT
BRANCH   1   2
ATOM      2  C   UNL     1     131.079 138.020 114.403  1.00  0.00     0.000 C 
BRANCH   2   3
ATOM      3  C   UNL     1     129.591 137.766 114.689  1.00  0.00    -0.003 C 
ATOM      4  C   UNL     1     129.018 136.617 113.862  1.00  0.00     0.004 C 
ENDBRANCH   2   3
ENDBRANCH   1   2
BRANCH   1   5
ATOM      5  C   UNL     1     130.429 140.257 115.384  1.00  0.00     0.080 C 
BRANCH   5   6
ATOM      6  C   UNL     1     130.912 141.677 115.518  1.00  0.00     0.155 C 
ATOM      7  O   UNL     1     131.994 141.889 116.128  1.00  0.00    -0.295 OA
BRANCH   6   8
ATOM      8  C   UNL     1     130.195 142.836 114.941  1.00  0.00     0.039 C 
ATOM      9  C   UNL     1     128.893 142.839 114.654  1.00  0.00     0.012 C 
ENDBRANCH   6   8
ENDBRANCH   5   6
ENDBRANCH   1   5
TORSDOF 5
ENDMDL
MODEL 8
REMARK VINA RESULT:    -3.073     13.592     15.008
REMARK INTER + INTRA:          -4.390
REMARK INTER:                  -3.925
REMARK INTRA:                  -0.465
REMARK UNBOUND:                -0.418
REMARK SMILES C=CC(=O)CCCCC
REMARK SMILES IDX 6 1 7 2 8 3 9 4 5 5 3 6 4 7 2 8 1 9
REMARK H PARENT
REMARK Flexibility Score: inf
ROOT
ATOM      1  C   UNL     1     129.991 137.566 115.116  1.00  0.00     0.008 C 
ENDROOT
BRANCH   1   2
ATOM      2  C   UNL     1     131.217 138.210 114.451  1.00  0.00     0.000 C 
BRANCH   2   3
ATOM      3  C   UNL     1     131.549 139.592 115.035  1.00  0.00    -0.003 C 
ATOM      4  C   UNL     1     130.301 140.376 115.441  1.00  0.00     0.004 C 
ENDBRANCH   2   3
ENDBRANCH   1   2
BRANCH   1   5
ATOM      5  C   UNL     1     129.259 136.642 114.136  1.00  0.00     0.080 C 
BRANCH   5   6
ATOM      6  C   UNL     1     127.985 137.281 113.650  1.00  0.00     0.155 C 
ATOM      7  O   UNL     1     127.494 136.889 112.558  1.00  0.00    -0.295 OA
BRANCH   6   8
ATOM      8  C   UNL     1     127.261 138.325 114.407  1.00  0.00     0.039 C 
ATOM      9  C   UNL     1     126.908 139.506 113.898  1.00  0.00     0.012 C 
ENDBRANCH   6   8
ENDBRANCH   5   6
ENDBRANCH   1   5
TORSDOF 5
ENDMDL
MODEL 9
REMARK VINA RESULT:    -2.984     15.009     15.886
REMARK INTER + INTRA:          -4.275
REMARK INTER:                  -4.133
REMARK INTRA:                  -0.141
REMARK UNBOUND:                -0.418
REMARK SMILES C=CC(=O)CCCCC
REMARK SMILES IDX 6 1 7 2 8 3 9 4 5 5 3 6 4 7 2 8 1 9
REMARK H PARENT
REMARK Flexibility Score: inf
ROOT
ATOM      1  C   UNL     1     143.810 134.162 122.548  1.00  0.00     0.008 C 
ENDROOT
BRANCH   1   2
ATOM      2  C   UNL     1     144.727 133.757 121.385  1.00  0.00     0.000 C 
BRANCH   2   3
ATOM      3  C   UNL     1     145.968 132.981 121.854  1.00  0.00    -0.003 C 
ATOM      4  C   UNL     1     145.799 132.387 123.252  1.00  0.00     0.004 C 
ENDBRANCH   2   3
ENDBRANCH   1   2
BRANCH   1   5
ATOM      5  C   UNL     1     142.408 134.521 122.041  1.00  0.00     0.080 C 
BRANCH   5   6
ATOM      6  C   UNL     1     141.349 133.927 122.930  1.00  0.00     0.155 C 
ATOM      7  O   UNL     1     141.702 133.410 124.024  1.00  0.00    -0.295 OA
BRANCH   6   8
ATOM      8  C   UNL     1     139.907 133.946 122.600  1.00  0.00     0.039 C 
ATOM      9  C   UNL     1     139.044 132.999 122.969  1.00  0.00     0.012 C 
ENDBRANCH   6   8
ENDBRANCH   5   6
ENDBRANCH   1   5
TORSDOF 5
ENDMDL
