MODEL 1
REMARK VINA RESULT:    -5.142      0.000      0.000
REMARK INTER + INTRA:          -5.532
REMARK INTER:                  -5.442
REMARK INTRA:                  -0.089
REMARK UNBOUND:                -0.089
REMARK SMILES C=C(C)[C@H]1CC=C(C)C(=O)C1
REMARK SMILES IDX 8 1 7 2 6 3 5 4 4 5 11 6 9 7 10 8 2 9 1 10 3 11
REMARK H PARENT
REMARK Flexibility Score: inf
ROOT
ATOM      1  C   UNL     1      10.637  16.269  11.106  1.00  0.00     0.048 C 
ATOM      2  C   UNL     1      11.535  15.913  12.258  1.00  0.00    -0.012 C 
ATOM      3  C   UNL     1      11.073  16.000  13.518  1.00  0.00    -0.019 C 
ATOM      4  C   UNL     1      11.935  15.673  14.708  1.00  0.00     0.036 C 
ATOM      5  C   UNL     1      12.946  14.560  14.373  1.00  0.00     0.025 C 
ATOM      6  C   UNL     1      13.780  14.950  13.139  1.00  0.00     0.089 C 
ATOM      7  C   UNL     1      12.883  15.348  11.999  1.00  0.00     0.158 C 
ATOM      8  O   UNL     1      13.305  15.231  10.816  1.00  0.00    -0.295 OA
ENDROOT
BRANCH   5   9
ATOM      9  C   UNL     1      13.830  14.225  15.567  1.00  0.00    -0.077 C 
ATOM     10  C   UNL     1      13.445  13.330  16.493  1.00  0.00     0.008 C 
ATOM     11  C   UNL     1      15.167  14.902  15.730  1.00  0.00     0.039 C 
ENDBRANCH   5   9
TORSDOF 1
ENDMDL
MODEL 2
REMARK VINA RESULT:    -5.009      2.273      4.798
REMARK INTER + INTRA:          -5.392
REMARK INTER:                  -5.296
REMARK INTRA:                  -0.095
REMARK UNBOUND:                -0.089
REMARK SMILES C=C(C)[C@H]1CC=C(C)C(=O)C1
REMARK SMILES IDX 8 1 7 2 6 3 5 4 4 5 11 6 9 7 10 8 2 9 1 10 3 11
REMARK H PARENT
REMARK Flexibility Score: inf
ROOT
ATOM      1  C   UNL     1      15.822  12.429  16.228  1.00  0.00     0.048 C 
ATOM      2  C   UNL     1      14.837  13.344  15.555  1.00  0.00    -0.012 C 
ATOM      3  C   UNL     1      15.271  14.266  14.679  1.00  0.00    -0.019 C 
ATOM      4  C   UNL     1      14.330  15.219  13.991  1.00  0.00     0.036 C 
ATOM      5  C   UNL     1      12.957  14.564  13.746  1.00  0.00     0.025 C 
ATOM      6  C   UNL     1      12.379  14.025  15.068  1.00  0.00     0.089 C 
ATOM      7  C   UNL     1      13.381  13.144  15.763  1.00  0.00     0.158 C 
ATOM      8  O   UNL     1      12.970  12.255  16.558  1.00  0.00    -0.295 OA
ENDROOT
BRANCH   5   9
ATOM      9  C   UNL     1      11.992  15.520  13.058  1.00  0.00    -0.077 C 
ATOM     10  C   UNL     1      11.066  16.199  13.756  1.00  0.00     0.008 C 
ATOM     11  C   UNL     1      12.062  15.721  11.566  1.00  0.00     0.039 C 
ENDBRANCH   5   9
TORSDOF 1
ENDMDL
MODEL 3
REMARK VINA RESULT:    -4.884      1.554      2.156
REMARK INTER + INTRA:          -5.259
REMARK INTER:                  -5.165
REMARK INTRA:                  -0.094
REMARK UNBOUND:                -0.089
REMARK SMILES C=C(C)[C@H]1CC=C(C)C(=O)C1
REMARK SMILES IDX 8 1 7 2 6 3 5 4 4 5 11 6 9 7 10 8 2 9 1 10 3 11
REMARK H PARENT
REMARK Flexibility Score: inf
ROOT
ATOM      1  C   UNL     1      10.758  16.916  10.707  1.00  0.00     0.048 C 
ATOM      2  C   UNL     1      11.371  16.180  11.866  1.00  0.00    -0.012 C 
ATOM      3  C   UNL     1      12.472  15.432  11.676  1.00  0.00    -0.019 C 
ATOM      4  C   UNL     1      13.116  14.661  12.798  1.00  0.00     0.036 C 
ATOM      5  C   UNL     1      12.948  15.393  14.143  1.00  0.00     0.025 C 
ATOM      6  C   UNL     1      11.460  15.682  14.412  1.00  0.00     0.089 C 
ATOM      7  C   UNL     1      10.835  16.380  13.236  1.00  0.00     0.158 C 
ATOM      8  O   UNL     1       9.823  17.110  13.421  1.00  0.00    -0.295 OA
ENDROOT
BRANCH   5   9
ATOM      9  C   UNL     1      13.588  14.619  15.288  1.00  0.00    -0.077 C 
ATOM     10  C   UNL     1      12.950  13.594  15.880  1.00  0.00     0.008 C 
ATOM     11  C   UNL     1      14.961  14.996  15.781  1.00  0.00     0.039 C 
ENDBRANCH   5   9
TORSDOF 1
ENDMDL
MODEL 4
REMARK VINA RESULT:    -4.828      1.493      2.356
REMARK INTER + INTRA:          -5.200
REMARK INTER:                  -5.111
REMARK INTRA:                  -0.089
REMARK UNBOUND:                -0.089
REMARK SMILES C=C(C)[C@H]1CC=C(C)C(=O)C1
REMARK SMILES IDX 8 1 7 2 6 3 5 4 4 5 11 6 9 7 10 8 2 9 1 10 3 11
REMARK H PARENT
REMARK Flexibility Score: inf
ROOT
ATOM      1  C   UNL     1      10.745  16.834  10.885  1.00  0.00     0.048 C 
ATOM      2  C   UNL     1      11.487  16.107  11.973  1.00  0.00    -0.012 C 
ATOM      3  C   UNL     1      12.660  15.512  11.699  1.00  0.00    -0.019 C 
ATOM      4  C   UNL     1      13.435  14.755  12.745  1.00  0.00     0.036 C 
ATOM      5  C   UNL     1      13.235  15.377  14.141  1.00  0.00     0.025 C 
ATOM      6  C   UNL     1      11.735  15.466  14.476  1.00  0.00     0.089 C 
ATOM      7  C   UNL     1      10.985  16.155  13.369  1.00  0.00     0.158 C 
ATOM      8  O   UNL     1       9.903  16.745  13.634  1.00  0.00    -0.295 OA
ENDROOT
BRANCH   5   9
ATOM      9  C   UNL     1      14.007  14.615  15.210  1.00  0.00    -0.077 C 
ATOM     10  C   UNL     1      15.251  14.979  15.567  1.00  0.00     0.008 C 
ATOM     11  C   UNL     1      13.379  13.427  15.894  1.00  0.00     0.039 C 
ENDBRANCH   5   9
TORSDOF 1
ENDMDL
MODEL 5
REMARK VINA RESULT:    -4.595      1.895      4.761
REMARK INTER + INTRA:          -4.953
REMARK INTER:                  -4.858
REMARK INTRA:                  -0.095
REMARK UNBOUND:                -0.089
REMARK SMILES C=C(C)[C@H]1CC=C(C)C(=O)C1
REMARK SMILES IDX 8 1 7 2 6 3 5 4 4 5 11 6 9 7 10 8 2 9 1 10 3 11
REMARK H PARENT
REMARK Flexibility Score: inf
ROOT
ATOM      1  C   UNL     1      14.364  13.588  15.739  1.00  0.00     0.048 C 
ATOM      2  C   UNL     1      13.658  14.430  14.712  1.00  0.00    -0.012 C 
ATOM      3  C   UNL     1      14.200  14.590  13.493  1.00  0.00    -0.019 C 
ATOM      4  C   UNL     1      13.546  15.437  12.433  1.00  0.00     0.036 C 
ATOM      5  C   UNL     1      12.010  15.388  12.554  1.00  0.00     0.025 C 
ATOM      6  C   UNL     1      11.573  15.789  13.974  1.00  0.00     0.089 C 
ATOM      7  C   UNL     1      12.310  14.977  15.004  1.00  0.00     0.158 C 
ATOM      8  O   UNL     1      11.784  14.797  16.136  1.00  0.00    -0.295 OA
ENDROOT
BRANCH   5   9
ATOM      9  C   UNL     1      11.336  16.248  11.493  1.00  0.00    -0.077 C 
ATOM     10  C   UNL     1      11.821  16.322  10.242  1.00  0.00     0.008 C 
ATOM     11  C   UNL     1      10.100  17.039  11.836  1.00  0.00     0.039 C 
ENDBRANCH   5   9
TORSDOF 1
ENDMDL
MODEL 6
REMARK VINA RESULT:    -4.588      1.347      2.027
REMARK INTER + INTRA:          -4.945
REMARK INTER:                  -4.851
REMARK INTRA:                  -0.094
REMARK UNBOUND:                -0.089
REMARK SMILES C=C(C)[C@H]1CC=C(C)C(=O)C1
REMARK SMILES IDX 8 1 7 2 6 3 5 4 4 5 11 6 9 7 10 8 2 9 1 10 3 11
REMARK H PARENT
REMARK Flexibility Score: inf
ROOT
ATOM      1  C   UNL     1      10.891  16.119  13.318  1.00  0.00     0.048 C 
ATOM      2  C   UNL     1      12.099  15.504  13.968  1.00  0.00    -0.012 C 
ATOM      3  C   UNL     1      12.066  15.181  15.272  1.00  0.00    -0.019 C 
ATOM      4  C   UNL     1      13.253  14.580  15.977  1.00  0.00     0.036 C 
ATOM      5  C   UNL     1      14.073  13.692  15.023  1.00  0.00     0.025 C 
ATOM      6  C   UNL     1      14.480  14.488  13.769  1.00  0.00     0.089 C 
ATOM      7  C   UNL     1      13.278  15.140  13.142  1.00  0.00     0.158 C 
ATOM      8  O   UNL     1      13.297  15.408  11.910  1.00  0.00    -0.295 OA
ENDROOT
BRANCH   5   9
ATOM      9  C   UNL     1      15.283  13.085  15.720  1.00  0.00    -0.077 C 
ATOM     10  C   UNL     1      16.031  13.804  16.575  1.00  0.00     0.008 C 
ATOM     11  C   UNL     1      15.665  11.650  15.460  1.00  0.00     0.039 C 
ENDBRANCH   5   9
TORSDOF 1
ENDMDL
MODEL 7
REMARK VINA RESULT:    -4.341      1.566      4.327
REMARK INTER + INTRA:          -4.684
REMARK INTER:                  -4.587
REMARK INTRA:                  -0.097
REMARK UNBOUND:                -0.089
REMARK SMILES C=C(C)[C@H]1CC=C(C)C(=O)C1
REMARK SMILES IDX 8 1 7 2 6 3 5 4 4 5 11 6 9 7 10 8 2 9 1 10 3 11
REMARK H PARENT
REMARK Flexibility Score: inf
ROOT
ATOM      1  C   UNL     1      14.667  13.856  16.826  1.00  0.00     0.048 C 
ATOM      2  C   UNL     1      13.695  14.284  15.761  1.00  0.00    -0.012 C 
ATOM      3  C   UNL     1      12.476  14.731  16.108  1.00  0.00    -0.019 C 
ATOM      4  C   UNL     1      11.459  15.154  15.082  1.00  0.00     0.036 C 
ATOM      5  C   UNL     1      12.141  15.770  13.846  1.00  0.00     0.025 C 
ATOM      6  C   UNL     1      13.181  14.792  13.267  1.00  0.00     0.089 C 
ATOM      7  C   UNL     1      14.127  14.330  14.341  1.00  0.00     0.158 C 
ATOM      8  O   UNL     1      15.284  13.945  14.017  1.00  0.00    -0.295 OA
ENDROOT
BRANCH   5   9
ATOM      9  C   UNL     1      11.123  16.195  12.796  1.00  0.00    -0.077 C 
ATOM     10  C   UNL     1      11.337  15.976  11.486  1.00  0.00     0.008 C 
ATOM     11  C   UNL     1       9.845  16.876  13.213  1.00  0.00     0.039 C 
ENDBRANCH   5   9
TORSDOF 1
ENDMDL
MODEL 8
REMARK VINA RESULT:    -4.256      1.350      4.124
REMARK INTER + INTRA:          -4.595
REMARK INTER:                  -4.498
REMARK INTRA:                  -0.096
REMARK UNBOUND:                -0.089
REMARK SMILES C=C(C)[C@H]1CC=C(C)C(=O)C1
REMARK SMILES IDX 8 1 7 2 6 3 5 4 4 5 11 6 9 7 10 8 2 9 1 10 3 11
REMARK H PARENT
REMARK Flexibility Score: inf
ROOT
ATOM      1  C   UNL     1      14.747  14.273  14.330  1.00  0.00     0.048 C 
ATOM      2  C   UNL     1      13.380  14.818  14.022  1.00  0.00    -0.012 C 
ATOM      3  C   UNL     1      12.539  15.118  15.027  1.00  0.00    -0.019 C 
ATOM      4  C   UNL     1      11.152  15.649  14.775  1.00  0.00     0.036 C 
ATOM      5  C   UNL     1      11.112  16.514  13.501  1.00  0.00     0.025 C 
ATOM      6  C   UNL     1      11.660  15.721  12.300  1.00  0.00     0.089 C 
ATOM      7  C   UNL     1      13.009  15.139  12.621  1.00  0.00     0.158 C 
ATOM      8  O   UNL     1      13.812  14.892  11.680  1.00  0.00    -0.295 OA
ENDROOT
BRANCH   5   9
ATOM      9  C   UNL     1       9.713  17.050  13.229  1.00  0.00    -0.077 C 
ATOM     10  C   UNL     1       8.741  16.967  14.155  1.00  0.00     0.008 C 
ATOM     11  C   UNL     1       9.392  17.688  11.902  1.00  0.00     0.039 C 
ENDBRANCH   5   9
TORSDOF 1
ENDMDL
MODEL 9
REMARK VINA RESULT:    -4.221      2.451      3.437
REMARK INTER + INTRA:          -4.557
REMARK INTER:                  -4.461
REMARK INTRA:                  -0.095
REMARK UNBOUND:                -0.089
REMARK SMILES C=C(C)[C@H]1CC=C(C)C(=O)C1
REMARK SMILES IDX 8 1 7 2 6 3 5 4 4 5 11 6 9 7 10 8 2 9 1 10 3 11
REMARK H PARENT
REMARK Flexibility Score: inf
ROOT
ATOM      1  C   UNL     1       8.517  18.387  11.740  1.00  0.00     0.048 C 
ATOM      2  C   UNL     1       9.464  17.389  12.348  1.00  0.00    -0.012 C 
ATOM      3  C   UNL     1      10.560  17.008  11.669  1.00  0.00    -0.019 C 
ATOM      4  C   UNL     1      11.531  15.999  12.223  1.00  0.00     0.036 C 
ATOM      5  C   UNL     1      11.615  16.094  13.758  1.00  0.00     0.025 C 
ATOM      6  C   UNL     1      10.213  15.956  14.379  1.00  0.00     0.089 C 
ATOM      7  C   UNL     1       9.254  16.924  13.742  1.00  0.00     0.158 C 
ATOM      8  O   UNL     1       8.245  17.308  14.394  1.00  0.00    -0.295 OA
ENDROOT
BRANCH   5   9
ATOM      9  C   UNL     1      12.588  15.073  14.333  1.00  0.00    -0.077 C 
ATOM     10  C   UNL     1      13.653  14.650  13.630  1.00  0.00     0.008 C 
ATOM     11  C   UNL     1      12.367  14.512  15.714  1.00  0.00     0.039 C 
ENDBRANCH   5   9
TORSDOF 1
ENDMDL
