MODEL 1
REMARK VINA RESULT:     9.881      0.000      0.000
REMARK INTER + INTRA:          16.216
REMARK INTER:                  16.813
REMARK INTRA:                  -0.597
REMARK UNBOUND:                -0.597
REMARK SMILES CCCCCCCCCCCCCC(=O)[O-]
REMARK SMILES IDX 8 1 9 2 10 3 11 4 12 5 13 6 14 7 15 8 16 9 7 10 6 11 5 12
REMARK SMILES IDX 4 13 3 14 2 15 1 16
REMARK H PARENT
REMARK Flexibility Score: inf
ROOT
ATOM      1  C   UNL     1       7.448  17.097  26.745  1.00  0.00     0.000 C 
ENDROOT
BRANCH   1   2
ATOM      2  C   UNL     1       8.700  17.875  27.167  1.00  0.00     0.000 C 
BRANCH   2   3
ATOM      3  C   UNL     1       9.358  17.236  28.397  1.00  0.00     0.000 C 
BRANCH   3   4
ATOM      4  C   UNL     1       8.510  17.461  29.654  1.00  0.00     0.000 C 
BRANCH   4   5
ATOM      5  C   UNL     1       9.308  18.213  30.729  1.00  0.00     0.006 C 
BRANCH   5   6
ATOM      6  C   UNL     1       9.447  17.401  32.025  1.00  0.00     0.053 C 
BRANCH   6   7
ATOM      7  C   UNL     1       8.153  17.326  32.776  1.00  0.00     0.041 C 
ATOM      8  O   UNL     1       7.685  16.210  33.122  1.00  0.00    -0.550 OA
ATOM      9  O   UNL     1       7.481  18.492  33.123  1.00  0.00    -0.550 OA
ENDBRANCH   6   7
ENDBRANCH   5   6
ENDBRANCH   4   5
ENDBRANCH   3   4
ENDBRANCH   2   3
ENDBRANCH   1   2
BRANCH   1  10
ATOM     10  C   UNL     1       6.196  17.980  26.837  1.00  0.00     0.000 C 
BRANCH  10  11
ATOM     11  C   UNL     1       6.014  18.877  25.602  1.00  0.00    -0.000 C 
BRANCH  11  12
ATOM     12  C   UNL     1       5.915  18.071  24.294  1.00  0.00    -0.000 C 
BRANCH  12  13
ATOM     13  C   UNL     1       5.296  18.885  23.147  1.00  0.00    -0.000 C 
BRANCH  13  14
ATOM     14  C   UNL     1       4.370  20.005  23.652  1.00  0.00    -0.000 C 
BRANCH  14  15
ATOM     15  C   UNL     1       3.839  20.888  22.512  1.00  0.00    -0.003 C 
ATOM     16  C   UNL     1       2.413  20.525  22.099  1.00  0.00     0.004 C 
ENDBRANCH  14  15
ENDBRANCH  13  14
ENDBRANCH  12  13
ENDBRANCH  11  12
ENDBRANCH  10  11
ENDBRANCH   1  10
TORSDOF 12
ENDMDL
MODEL 2
REMARK VINA RESULT:    10.172      2.187      2.660
REMARK INTER + INTRA:          16.711
REMARK INTER:                  17.323
REMARK INTRA:                  -0.612
REMARK UNBOUND:                -0.597
REMARK SMILES CCCCCCCCCCCCCC(=O)[O-]
REMARK SMILES IDX 8 1 9 2 10 3 11 4 12 5 13 6 14 7 15 8 16 9 7 10 6 11 5 12
REMARK SMILES IDX 4 13 3 14 2 15 1 16
REMARK H PARENT
REMARK Flexibility Score: inf
ROOT
ATOM      1  C   UNL     1       7.070  18.055  26.242  1.00  0.00     0.000 C 
ENDROOT
BRANCH   1   2
ATOM      2  C   UNL     1       7.471  17.247  27.482  1.00  0.00     0.000 C 
BRANCH   2   3
ATOM      3  C   UNL     1       8.996  17.112  27.582  1.00  0.00     0.000 C 
BRANCH   3   4
ATOM      4  C   UNL     1       9.515  17.694  28.902  1.00  0.00     0.000 C 
BRANCH   4   5
ATOM      5  C   UNL     1       8.495  17.494  30.031  1.00  0.00     0.006 C 
BRANCH   5   6
ATOM      6  C   UNL     1       9.079  17.834  31.410  1.00  0.00     0.053 C 
BRANCH   6   7
ATOM      7  C   UNL     1       8.130  17.489  32.516  1.00  0.00     0.041 C 
ATOM      8  O   UNL     1       7.510  18.400  33.125  1.00  0.00    -0.550 OA
ATOM      9  O   UNL     1       7.905  16.160  32.852  1.00  0.00    -0.550 OA
ENDBRANCH   6   7
ENDBRANCH   5   6
ENDBRANCH   4   5
ENDBRANCH   3   4
ENDBRANCH   2   3
ENDBRANCH   1   2
BRANCH   1  10
ATOM     10  C   UNL     1       5.553  18.286  26.204  1.00  0.00     0.000 C 
BRANCH  10  11
ATOM     11  C   UNL     1       4.839  17.727  27.446  1.00  0.00    -0.000 C 
BRANCH  11  12
ATOM     12  C   UNL     1       3.321  17.978  27.420  1.00  0.00    -0.000 C 
BRANCH  12  13
ATOM     13  C   UNL     1       2.710  17.749  26.029  1.00  0.00    -0.000 C 
BRANCH  13  14
ATOM     14  C   UNL     1       1.221  18.131  25.969  1.00  0.00    -0.000 C 
BRANCH  14  15
ATOM     15  C   UNL     1       0.784  18.577  24.565  1.00  0.00    -0.003 C 
ATOM     16  C   UNL     1       0.231  17.425  23.725  1.00  0.00     0.004 C 
ENDBRANCH  14  15
ENDBRANCH  13  14
ENDBRANCH  12  13
ENDBRANCH  11  12
ENDBRANCH  10  11
ENDBRANCH   1  10
TORSDOF 12
ENDMDL
MODEL 3
REMARK VINA RESULT:    10.192      4.344      8.627
REMARK INTER + INTRA:          16.746
REMARK INTER:                  17.221
REMARK INTRA:                  -0.475
REMARK UNBOUND:                -0.597
REMARK SMILES CCCCCCCCCCCCCC(=O)[O-]
REMARK SMILES IDX 8 1 9 2 10 3 11 4 12 5 13 6 14 7 15 8 16 9 7 10 6 11 5 12
REMARK SMILES IDX 4 13 3 14 2 15 1 16
REMARK H PARENT
REMARK Flexibility Score: inf
ROOT
ATOM      1  C   UNL     1       8.550  17.989  27.241  1.00  0.00     0.000 C 
ENDROOT
BRANCH   1   2
ATOM      2  C   UNL     1       7.280  17.301  26.726  1.00  0.00     0.000 C 
BRANCH   2   3
ATOM      3  C   UNL     1       6.180  18.327  26.427  1.00  0.00     0.000 C 
BRANCH   3   4
ATOM      4  C   UNL     1       5.724  18.237  24.966  1.00  0.00     0.000 C 
BRANCH   4   5
ATOM      5  C   UNL     1       5.095  19.559  24.503  1.00  0.00     0.006 C 
BRANCH   5   6
ATOM      6  C   UNL     1       4.710  19.531  23.017  1.00  0.00     0.053 C 
BRANCH   6   7
ATOM      7  C   UNL     1       3.822  20.679  22.650  1.00  0.00     0.041 C 
ATOM      8  O   UNL     1       4.272  21.855  22.659  1.00  0.00    -0.550 OA
ATOM      9  O   UNL     1       2.507  20.448  22.266  1.00  0.00    -0.550 OA
ENDBRANCH   6   7
ENDBRANCH   5   6
ENDBRANCH   4   5
ENDBRANCH   3   4
ENDBRANCH   2   3
ENDBRANCH   1   2
BRANCH   1  10
ATOM     10  C   UNL     1       9.205  17.167  28.359  1.00  0.00     0.000 C 
BRANCH  10  11
ATOM     11  C   UNL     1       9.154  17.876  29.722  1.00  0.00    -0.000 C 
BRANCH  11  12
ATOM     12  C   UNL     1       8.126  17.247  30.679  1.00  0.00    -0.000 C 
BRANCH  12  13
ATOM     13  C   UNL     1       8.577  17.302  32.147  1.00  0.00    -0.000 C 
BRANCH  13  14
ATOM     14  C   UNL     1       7.623  18.127  33.027  1.00  0.00    -0.000 C 
BRANCH  14  15
ATOM     15  C   UNL     1       7.820  19.641  32.851  1.00  0.00    -0.003 C 
ATOM     16  C   UNL     1       6.513  20.424  32.979  1.00  0.00     0.004 C 
ENDBRANCH  14  15
ENDBRANCH  13  14
ENDBRANCH  12  13
ENDBRANCH  11  12
ENDBRANCH  10  11
ENDBRANCH   1  10
TORSDOF 12
ENDMDL
MODEL 4
REMARK VINA RESULT:    10.228      4.505      8.297
REMARK INTER + INTRA:          16.807
REMARK INTER:                  17.462
REMARK INTRA:                  -0.655
REMARK UNBOUND:                -0.597
REMARK SMILES CCCCCCCCCCCCCC(=O)[O-]
REMARK SMILES IDX 8 1 9 2 10 3 11 4 12 5 13 6 14 7 15 8 16 9 7 10 6 11 5 12
REMARK SMILES IDX 4 13 3 14 2 15 1 16
REMARK H PARENT
REMARK Flexibility Score: inf
ROOT
ATOM      1  C   UNL     1       7.065  18.051  26.119  1.00  0.00     0.000 C 
ENDROOT
BRANCH   1   2
ATOM      2  C   UNL     1       5.553  18.300  26.140  1.00  0.00     0.000 C 
BRANCH   2   3
ATOM      3  C   UNL     1       4.922  17.756  27.428  1.00  0.00     0.000 C 
BRANCH   3   4
ATOM      4  C   UNL     1       3.396  17.897  27.396  1.00  0.00     0.000 C 
BRANCH   4   5
ATOM      5  C   UNL     1       2.871  17.889  25.953  1.00  0.00     0.006 C 
BRANCH   5   6
ATOM      6  C   UNL     1       1.375  17.557  25.880  1.00  0.00     0.053 C 
BRANCH   6   7
ATOM      7  C   UNL     1       0.726  18.171  24.678  1.00  0.00     0.041 C 
ATOM      8  O   UNL     1       0.251  17.437  23.772  1.00  0.00    -0.550 OA
ATOM      9  O   UNL     1       0.617  19.551  24.574  1.00  0.00    -0.550 OA
ENDBRANCH   6   7
ENDBRANCH   5   6
ENDBRANCH   4   5
ENDBRANCH   3   4
ENDBRANCH   2   3
ENDBRANCH   1   2
BRANCH   1  10
ATOM     10  C   UNL     1       7.485  17.121  27.266  1.00  0.00     0.000 C 
BRANCH  10  11
ATOM     11  C   UNL     1       8.994  17.178  27.551  1.00  0.00    -0.000 C 
BRANCH  11  12
ATOM     12  C   UNL     1       9.321  17.894  28.874  1.00  0.00    -0.000 C 
BRANCH  12  13
ATOM     13  C   UNL     1       8.380  17.479  30.016  1.00  0.00    -0.000 C 
BRANCH  13  14
ATOM     14  C   UNL     1       9.087  17.454  31.382  1.00  0.00    -0.000 C 
BRANCH  14  15
ATOM     15  C   UNL     1       8.109  17.239  32.547  1.00  0.00    -0.003 C 
ATOM     16  C   UNL     1       7.582  18.552  33.125  1.00  0.00     0.004 C 
ENDBRANCH  14  15
ENDBRANCH  13  14
ENDBRANCH  12  13
ENDBRANCH  11  12
ENDBRANCH  10  11
ENDBRANCH   1  10
TORSDOF 12
ENDMDL
MODEL 5
REMARK VINA RESULT:    10.384      4.398      8.107
REMARK INTER + INTRA:          17.071
REMARK INTER:                  17.563
REMARK INTRA:                  -0.492
REMARK UNBOUND:                -0.597
REMARK SMILES CCCCCCCCCCCCCC(=O)[O-]
REMARK SMILES IDX 8 1 9 2 10 3 11 4 12 5 13 6 14 7 15 8 16 9 7 10 6 11 5 12
REMARK SMILES IDX 4 13 3 14 2 15 1 16
REMARK H PARENT
REMARK Flexibility Score: inf
ROOT
ATOM      1  C   UNL     1       8.355  17.738  27.066  1.00  0.00     0.000 C 
ENDROOT
BRANCH   1   2
ATOM      2  C   UNL     1       6.926  17.187  27.141  1.00  0.00     0.000 C 
BRANCH   2   3
ATOM      3  C   UNL     1       5.902  18.255  26.737  1.00  0.00     0.000 C 
BRANCH   3   4
ATOM      4  C   UNL     1       4.496  17.883  27.224  1.00  0.00     0.000 C 
BRANCH   4   5
ATOM      5  C   UNL     1       3.500  17.850  26.056  1.00  0.00     0.006 C 
BRANCH   5   6
ATOM      6  C   UNL     1       2.042  17.871  26.536  1.00  0.00     0.053 C 
BRANCH   6   7
ATOM      7  C   UNL     1       1.084  18.038  25.396  1.00  0.00     0.041 C 
ATOM      8  O   UNL     1       0.698  17.034  24.742  1.00  0.00    -0.550 OA
ATOM      9  O   UNL     1       0.590  19.297  25.080  1.00  0.00    -0.550 OA
ENDBRANCH   6   7
ENDBRANCH   5   6
ENDBRANCH   4   5
ENDBRANCH   3   4
ENDBRANCH   2   3
ENDBRANCH   1   2
BRANCH   1  10
ATOM     10  C   UNL     1       9.241  17.116  28.154  1.00  0.00     0.000 C 
BRANCH  10  11
ATOM     11  C   UNL     1       9.232  17.928  29.459  1.00  0.00    -0.000 C 
BRANCH  11  12
ATOM     12  C   UNL     1       8.089  17.518  30.405  1.00  0.00    -0.000 C 
BRANCH  12  13
ATOM     13  C   UNL     1       8.586  17.187  31.820  1.00  0.00    -0.000 C 
BRANCH  13  14
ATOM     14  C   UNL     1       7.783  17.914  32.912  1.00  0.00    -0.000 C 
BRANCH  14  15
ATOM     15  C   UNL     1       7.958  19.440  32.855  1.00  0.00    -0.003 C 
ATOM     16  C   UNL     1       6.625  20.187  32.843  1.00  0.00     0.004 C 
ENDBRANCH  14  15
ENDBRANCH  13  14
ENDBRANCH  12  13
ENDBRANCH  11  12
ENDBRANCH  10  11
ENDBRANCH   1  10
TORSDOF 12
ENDMDL
MODEL 6
REMARK VINA RESULT:    10.408      1.286      1.784
REMARK INTER + INTRA:          17.113
REMARK INTER:                  17.459
REMARK INTRA:                  -0.346
REMARK UNBOUND:                -0.597
REMARK SMILES CCCCCCCCCCCCCC(=O)[O-]
REMARK SMILES IDX 8 1 9 2 10 3 11 4 12 5 13 6 14 7 15 8 16 9 7 10 6 11 5 12
REMARK SMILES IDX 4 13 3 14 2 15 1 16
REMARK H PARENT
REMARK Flexibility Score: inf
ROOT
ATOM      1  C   UNL     1       8.815  17.826  27.284  1.00  0.00     0.000 C 
ENDROOT
BRANCH   1   2
ATOM      2  C   UNL     1       9.648  17.307  28.462  1.00  0.00     0.000 C 
BRANCH   2   3
ATOM      3  C   UNL     1       9.298  18.053  29.756  1.00  0.00     0.000 C 
BRANCH   3   4
ATOM      4  C   UNL     1       8.266  17.274  30.579  1.00  0.00     0.000 C 
BRANCH   4   5
ATOM      5  C   UNL     1       8.686  17.193  32.054  1.00  0.00     0.006 C 
BRANCH   5   6
ATOM      6  C   UNL     1       7.666  17.860  32.987  1.00  0.00     0.053 C 
BRANCH   6   7
ATOM      7  C   UNL     1       7.613  19.343  32.784  1.00  0.00     0.041 C 
ATOM      8  O   UNL     1       8.653  19.974  32.459  1.00  0.00    -0.550 OA
ATOM      9  O   UNL     1       6.409  20.022  32.920  1.00  0.00    -0.550 OA
ENDBRANCH   6   7
ENDBRANCH   5   6
ENDBRANCH   4   5
ENDBRANCH   3   4
ENDBRANCH   2   3
ENDBRANCH   1   2
BRANCH   1  10
ATOM     10  C   UNL     1       7.481  17.073  27.180  1.00  0.00     0.000 C 
BRANCH  10  11
ATOM     11  C   UNL     1       6.316  17.988  26.772  1.00  0.00    -0.000 C 
BRANCH  11  12
ATOM     12  C   UNL     1       6.270  18.247  25.256  1.00  0.00    -0.000 C 
BRANCH  12  13
ATOM     13  C   UNL     1       5.253  19.334  24.875  1.00  0.00    -0.000 C 
BRANCH  13  14
ATOM     14  C   UNL     1       4.773  19.208  23.418  1.00  0.00    -0.000 C 
BRANCH  14  15
ATOM     15  C   UNL     1       4.419  20.567  22.795  1.00  0.00    -0.003 C 
ATOM     16  C   UNL     1       2.925  20.709  22.500  1.00  0.00     0.004 C 
ENDBRANCH  14  15
ENDBRANCH  13  14
ENDBRANCH  12  13
ENDBRANCH  11  12
ENDBRANCH  10  11
ENDBRANCH   1  10
TORSDOF 12
ENDMDL
MODEL 7
REMARK VINA RESULT:    10.907      3.584      7.260
REMARK INTER + INTRA:          17.962
REMARK INTER:                  18.732
REMARK INTRA:                  -0.770
REMARK UNBOUND:                -0.597
REMARK SMILES CCCCCCCCCCCCCC(=O)[O-]
REMARK SMILES IDX 8 1 9 2 10 3 11 4 12 5 13 6 14 7 15 8 16 9 7 10 6 11 5 12
REMARK SMILES IDX 4 13 3 14 2 15 1 16
REMARK H PARENT
REMARK Flexibility Score: inf
ROOT
ATOM      1  C   UNL     1       8.977  17.651  29.862  1.00  0.00     0.000 C 
ENDROOT
BRANCH   1   2
ATOM      2  C   UNL     1       9.751  18.147  28.635  1.00  0.00     0.000 C 
BRANCH   2   3
ATOM      3  C   UNL     1       9.948  17.019  27.614  1.00  0.00     0.000 C 
BRANCH   3   4
ATOM      4  C   UNL     1       8.607  16.380  27.234  1.00  0.00     0.000 C 
BRANCH   4   5
ATOM      5  C   UNL     1       7.643  17.426  26.656  1.00  0.00     0.006 C 
BRANCH   5   6
ATOM      6  C   UNL     1       6.380  17.590  27.513  1.00  0.00     0.053 C 
BRANCH   6   7
ATOM      7  C   UNL     1       5.257  18.206  26.738  1.00  0.00     0.041 C 
ATOM      8  O   UNL     1       5.502  18.944  25.747  1.00  0.00    -0.550 OA
ATOM      9  O   UNL     1       3.939  17.938  27.088  1.00  0.00    -0.550 OA
ENDBRANCH   6   7
ENDBRANCH   5   6
ENDBRANCH   4   5
ENDBRANCH   3   4
ENDBRANCH   2   3
ENDBRANCH   1   2
BRANCH   1  10
ATOM     10  C   UNL     1       9.938  17.212  30.976  1.00  0.00     0.000 C 
BRANCH  10  11
ATOM     11  C   UNL     1       9.383  17.497  32.381  1.00  0.00    -0.000 C 
BRANCH  11  12
ATOM     12  C   UNL     1       7.868  17.246  32.482  1.00  0.00    -0.000 C 
BRANCH  12  13
ATOM     13  C   UNL     1       7.101  18.472  33.001  1.00  0.00    -0.000 C 
BRANCH  13  14
ATOM     14  C   UNL     1       7.968  19.743  33.027  1.00  0.00    -0.000 C 
BRANCH  14  15
ATOM     15  C   UNL     1       7.128  21.026  33.125  1.00  0.00    -0.003 C 
ATOM     16  C   UNL     1       5.708  20.845  32.588  1.00  0.00     0.004 C 
ENDBRANCH  14  15
ENDBRANCH  13  14
ENDBRANCH  12  13
ENDBRANCH  11  12
ENDBRANCH  10  11
ENDBRANCH   1  10
TORSDOF 12
ENDMDL
