MODEL 1
REMARK VINA RESULT:    -3.581      0.000      0.000
REMARK INTER + INTRA:          -4.631
REMARK INTER:                  -5.046
REMARK INTRA:                   0.415
REMARK UNBOUND:                 0.415
REMARK SMILES CC1=CCC(=C(C)C)C(=O)CC(C)=CCC1
REMARK SMILES IDX 12 1 14 2 13 3 15 4 16 5 2 6 1 7 3 8 11 10 9 11 10 12 5 13
REMARK SMILES IDX 6 14 7 15 8 16 4 17
REMARK H PARENT
REMARK Flexibility Score: 60.00
ROOT
ATOM      1  C   UNL     1      -5.435  -2.682  -5.482  1.00  0.00    -0.070 C 
ATOM      2  C   UNL     1      -6.714  -3.087  -5.696  1.00  0.00    -0.027 C 
ATOM      3  C   UNL     1      -4.485  -3.688  -4.878  1.00  0.00     0.039 C 
ENDROOT
BRANCH   2   4
ATOM      4  C   UNL     1      -7.850  -2.225  -6.193  1.00  0.00     0.032 C 
BRANCH   4   5
ATOM      5  C   UNL     1      -8.653  -1.570  -5.061  1.00  0.00     0.034 C 
BRANCH   5   6
ATOM      6  C   UNL     1      -9.074  -0.169  -5.460  1.00  0.00    -0.077 C 
ATOM      7  C   UNL     1     -10.287  -0.011  -6.342  1.00  0.00     0.039 C 
ATOM      8  C   UNL     1      -8.464   0.952  -5.005  1.00  0.00    -0.023 CG0
ATOM      9  G   UNL     1      -7.234   0.992  -4.131  1.00  0.00     0.000 G0
ENDBRANCH   5   6
ENDBRANCH   4   5
ENDBRANCH   2   4
BRANCH   1  10
ATOM     10  C   UNL     1      -4.882  -1.318  -5.885  1.00  0.00     0.111 C 
BRANCH  10  11
ATOM     11  C   UNL     1      -5.037  -0.258  -4.825  1.00  0.00     0.163 C 
ATOM     12  O   UNL     1      -4.334  -0.367  -3.782  1.00  0.00    -0.294 OA
BRANCH  11  13
ATOM     13  C   UNL     1      -5.936   0.932  -4.991  1.00  0.00    -0.002 C 
ATOM     14  C   UNL     1      -5.593   1.956  -5.835  1.00  0.00    -0.069 C 
ATOM     15  C   UNL     1      -6.432   3.209  -5.947  1.00  0.00     0.039 C 
ATOM     16  C   UNL     1      -4.382   1.871  -6.739  1.00  0.00     0.039 C 
BRANCH  13  17
ATOM     17  C   UNL     1      -7.215   1.009  -4.160  1.00  0.00     0.066 CG0
ATOM     18  G   UNL     1      -8.457   0.938  -5.015  1.00  0.00     0.000 G0
ENDBRANCH  13  17
ENDBRANCH  11  13
ENDBRANCH  10  11
ENDBRANCH   1  10
TORSDOF 0
ENDMDL
MODEL 2
REMARK VINA RESULT:    -3.456      1.304      3.588
REMARK INTER + INTRA:          -4.456
REMARK INTER:                  -4.683
REMARK INTRA:                   0.227
REMARK UNBOUND:                 0.415
REMARK SMILES CC1=CCC(=C(C)C)C(=O)CC(C)=CCC1
REMARK SMILES IDX 12 1 14 2 13 3 15 4 16 5 2 6 1 7 3 8 11 10 9 11 10 12 5 13
REMARK SMILES IDX 6 14 7 15 8 16 4 17
REMARK H PARENT
REMARK Flexibility Score: 60.00
ROOT
ATOM      1  C   UNL     1      -3.692  -1.055  -6.151  1.00  0.00    -0.070 C 
ATOM      2  C   UNL     1      -3.455   0.279  -6.049  1.00  0.00    -0.027 C 
ATOM      3  C   UNL     1      -2.517  -1.982  -5.958  1.00  0.00     0.039 C 
ENDROOT
BRANCH   2   4
ATOM      4  C   UNL     1      -4.452   1.384  -6.303  1.00  0.00     0.032 C 
BRANCH   4   5
ATOM      5  C   UNL     1      -5.275   1.755  -5.062  1.00  0.00     0.034 C 
BRANCH   5   6
ATOM      6  C   UNL     1      -6.731   1.947  -5.438  1.00  0.00    -0.077 C 
ATOM      7  C   UNL     1      -7.089   3.093  -6.351  1.00  0.00     0.039 C 
ATOM      8  C   UNL     1      -7.718   1.100  -5.060  1.00  0.00    -0.023 CG0
ATOM      9  G   UNL     1      -7.556  -0.087  -4.141  1.00  0.00     0.000 G0
ENDBRANCH   5   6
ENDBRANCH   4   5
ENDBRANCH   2   4
BRANCH   1  10
ATOM     10  C   UNL     1      -5.071  -1.672  -6.365  1.00  0.00     0.111 C 
BRANCH  10  11
ATOM     11  C   UNL     1      -5.864  -1.858  -5.096  1.00  0.00     0.163 C 
ATOM     12  O   UNL     1      -5.275  -2.386  -4.113  1.00  0.00    -0.294 OA
BRANCH  11  13
ATOM     13  C   UNL     1      -7.282  -1.390  -4.949  1.00  0.00    -0.002 C 
ATOM     14  C   UNL     1      -8.308  -2.065  -5.554  1.00  0.00    -0.069 C 
ATOM     15  C   UNL     1      -9.733  -1.559  -5.502  1.00  0.00     0.039 C 
ATOM     16  C   UNL     1      -8.085  -3.381  -6.267  1.00  0.00     0.039 C 
BRANCH  13  17
ATOM     17  C   UNL     1      -7.555  -0.112  -4.157  1.00  0.00     0.066 CG0
ATOM     18  G   UNL     1      -7.720   1.091  -5.055  1.00  0.00     0.000 G0
ENDBRANCH  13  17
ENDBRANCH  11  13
ENDBRANCH  10  11
ENDBRANCH   1  10
TORSDOF 0
ENDMDL
MODEL 3
REMARK VINA RESULT:    -3.442      3.284      5.534
REMARK INTER + INTRA:          -4.436
REMARK INTER:                  -4.622
REMARK INTRA:                   0.186
REMARK UNBOUND:                 0.415
REMARK SMILES CC1=CCC(=C(C)C)C(=O)CC(C)=CCC1
REMARK SMILES IDX 12 1 14 2 13 3 15 4 16 5 2 6 1 7 3 8 11 10 9 11 10 12 5 13
REMARK SMILES IDX 6 14 7 15 8 16 4 17
REMARK H PARENT
REMARK Flexibility Score: 60.00
ROOT
ATOM      1  C   UNL     1      -3.959  -0.696  -6.745  1.00  0.00    -0.070 C 
ATOM      2  C   UNL     1      -5.303  -0.599  -6.574  1.00  0.00    -0.027 C 
ATOM      3  C   UNL     1      -3.170   0.590  -6.758  1.00  0.00     0.039 C 
ENDROOT
BRANCH   2   4
ATOM      4  C   UNL     1      -6.293  -1.738  -6.629  1.00  0.00     0.032 C 
BRANCH   4   5
ATOM      5  C   UNL     1      -6.367  -2.542  -5.324  1.00  0.00     0.034 C 
BRANCH   5   6
ATOM      6  C   UNL     1      -6.178  -4.019  -5.608  1.00  0.00    -0.077 C 
ATOM      7  C   UNL     1      -7.180  -4.711  -6.497  1.00  0.00     0.039 C 
ATOM      8  C   UNL     1      -5.114  -4.733  -5.168  1.00  0.00    -0.023 CG0
ATOM      9  G   UNL     1      -4.023  -4.220  -4.260  1.00  0.00     0.000 G0
ENDBRANCH   5   6
ENDBRANCH   4   5
ENDBRANCH   2   4
BRANCH   1  10
ATOM     10  C   UNL     1      -3.195  -2.013  -6.845  1.00  0.00     0.111 C 
BRANCH  10  11
ATOM     11  C   UNL     1      -2.584  -2.467  -5.543  1.00  0.00     0.163 C 
ATOM     12  O   UNL     1      -1.961  -1.607  -4.860  1.00  0.00    -0.294 OA
BRANCH  11  13
ATOM     13  C   UNL     1      -2.740  -3.863  -5.015  1.00  0.00    -0.002 C 
ATOM     14  C   UNL     1      -1.784  -4.814  -5.258  1.00  0.00    -0.069 C 
ATOM     15  C   UNL     1      -1.963  -6.251  -4.822  1.00  0.00     0.039 C 
ATOM     16  C   UNL     1      -0.473  -4.471  -5.931  1.00  0.00     0.039 C 
BRANCH  13  17
ATOM     17  C   UNL     1      -4.013  -4.221  -4.251  1.00  0.00     0.066 CG0
ATOM     18  G   UNL     1      -5.100  -4.738  -5.163  1.00  0.00     0.000 G0
ENDBRANCH  13  17
ENDBRANCH  11  13
ENDBRANCH  10  11
ENDBRANCH   1  10
TORSDOF 0
ENDMDL
MODEL 4
REMARK VINA RESULT:    -3.385      6.633      9.727
REMARK INTER + INTRA:          -4.355
REMARK INTER:                  -4.664
REMARK INTRA:                   0.309
REMARK UNBOUND:                 0.415
REMARK SMILES CC1=CCC(=C(C)C)C(=O)CC(C)=CCC1
REMARK SMILES IDX 12 1 14 2 13 3 15 4 16 5 2 6 1 7 3 8 11 10 9 11 10 12 5 13
REMARK SMILES IDX 6 14 7 15 8 16 4 17
REMARK H PARENT
REMARK Flexibility Score: 60.00
ROOT
ATOM      1  C   UNL     1       0.666  -6.544  -6.059  1.00  0.00    -0.070 C 
ATOM      2  C   UNL     1       1.738  -6.584  -5.225  1.00  0.00    -0.027 C 
ATOM      3  C   UNL     1       0.617  -5.421  -7.067  1.00  0.00     0.039 C 
ENDROOT
BRANCH   2   4
ATOM      4  C   UNL     1       1.943  -7.550  -4.083  1.00  0.00     0.032 C 
BRANCH   4   5
ATOM      5  C   UNL     1       1.749  -6.908  -2.703  1.00  0.00     0.034 C 
BRANCH   5   6
ATOM      6  C   UNL     1       0.509  -7.468  -2.034  1.00  0.00    -0.077 C 
ATOM      7  C   UNL     1       0.668  -8.648  -1.108  1.00  0.00     0.039 C 
ATOM      8  C   UNL     1      -0.722  -6.919  -2.164  1.00  0.00    -0.023 CG0
ATOM      9  G   UNL     1      -1.076  -5.752  -3.054  1.00  0.00     0.000 G0
ENDBRANCH   5   6
ENDBRANCH   4   5
ENDBRANCH   2   4
BRANCH   1  10
ATOM     10  C   UNL     1      -0.438  -7.596  -6.096  1.00  0.00     0.111 C 
BRANCH  10  11
ATOM     11  C   UNL     1      -1.425  -7.489  -4.962  1.00  0.00     0.163 C 
ATOM     12  O   UNL     1      -1.907  -8.562  -4.504  1.00  0.00    -0.294 OA
BRANCH  11  13
ATOM     13  C   UNL     1      -1.800  -6.179  -4.332  1.00  0.00    -0.002 C 
ATOM     14  C   UNL     1      -2.731  -5.363  -4.918  1.00  0.00    -0.069 C 
ATOM     15  C   UNL     1      -3.054  -3.995  -4.358  1.00  0.00     0.039 C 
ATOM     16  C   UNL     1      -3.524  -5.801  -6.130  1.00  0.00     0.039 C 
BRANCH  13  17
ATOM     17  C   UNL     1      -1.082  -5.746  -3.056  1.00  0.00     0.066 CG0
ATOM     18  G   UNL     1      -0.731  -6.919  -2.172  1.00  0.00     0.000 G0
ENDBRANCH  13  17
ENDBRANCH  11  13
ENDBRANCH  10  11
ENDBRANCH   1  10
TORSDOF 0
ENDMDL
MODEL 5
REMARK VINA RESULT:    -3.379     12.269     14.813
REMARK INTER + INTRA:          -4.347
REMARK INTER:                  -4.701
REMARK INTRA:                   0.354
REMARK UNBOUND:                 0.415
REMARK SMILES CC1=CCC(=C(C)C)C(=O)CC(C)=CCC1
REMARK SMILES IDX 12 1 14 2 13 3 15 4 16 5 2 6 1 7 3 8 11 10 9 11 10 12 5 13
REMARK SMILES IDX 6 14 7 15 8 16 4 17
REMARK H PARENT
REMARK Flexibility Score: 60.00
ROOT
ATOM      1  C   UNL     1       1.824   8.061  -5.479  1.00  0.00    -0.070 C 
ATOM      2  C   UNL     1       2.454   7.369  -6.464  1.00  0.00    -0.027 C 
ATOM      3  C   UNL     1       0.385   8.450  -5.721  1.00  0.00     0.039 C 
ENDROOT
BRANCH   2   4
ATOM      4  C   UNL     1       3.910   6.969  -6.480  1.00  0.00     0.032 C 
BRANCH   4   5
ATOM      5  C   UNL     1       4.869   8.164  -6.393  1.00  0.00     0.034 C 
BRANCH   5   6
ATOM      6  C   UNL     1       5.877   7.946  -5.281  1.00  0.00    -0.077 C 
ATOM      7  C   UNL     1       6.651   6.652  -5.262  1.00  0.00     0.039 C 
ATOM      8  C   UNL     1       6.175   8.883  -4.349  1.00  0.00    -0.023 CG0
ATOM      9  G   UNL     1       5.498  10.224  -4.201  1.00  0.00     0.000 G0
ENDBRANCH   5   6
ENDBRANCH   4   5
ENDBRANCH   2   4
BRANCH   1  10
ATOM     10  C   UNL     1       2.445   8.395  -4.126  1.00  0.00     0.111 C 
BRANCH  10  11
ATOM     11  C   UNL     1       2.951   9.811  -4.017  1.00  0.00     0.163 C 
ATOM     12  O   UNL     1       2.217  10.730  -4.472  1.00  0.00    -0.294 OA
BRANCH  11  13
ATOM     13  C   UNL     1       4.246  10.160  -3.344  1.00  0.00    -0.002 C 
ATOM     14  C   UNL     1       4.282  10.459  -2.007  1.00  0.00    -0.069 C 
ATOM     15  C   UNL     1       5.556  10.909  -1.326  1.00  0.00     0.039 C 
ATOM     16  C   UNL     1       3.062  10.310  -1.125  1.00  0.00     0.039 C 
BRANCH  13  17
ATOM     17  C   UNL     1       5.517  10.232  -4.189  1.00  0.00     0.066 CG0
ATOM     18  G   UNL     1       6.178   8.883  -4.340  1.00  0.00     0.000 G0
ENDBRANCH  13  17
ENDBRANCH  11  13
ENDBRANCH  10  11
ENDBRANCH   1  10
TORSDOF 0
ENDMDL
MODEL 6
REMARK VINA RESULT:    -3.371      6.060      8.909
REMARK INTER + INTRA:          -4.335
REMARK INTER:                  -4.638
REMARK INTRA:                   0.303
REMARK UNBOUND:                 0.415
REMARK SMILES CC1=CCC(=C(C)C)C(=O)CC(C)=CCC1
REMARK SMILES IDX 12 1 14 2 13 3 15 4 16 5 2 6 1 7 3 8 11 10 9 11 10 12 5 13
REMARK SMILES IDX 6 14 7 15 8 16 4 17
REMARK H PARENT
REMARK Flexibility Score: 60.00
ROOT
ATOM      1  C   UNL     1      -1.852  -7.717  -5.765  1.00  0.00    -0.070 C 
ATOM      2  C   UNL     1      -1.862  -8.492  -4.649  1.00  0.00    -0.027 C 
ATOM      3  C   UNL     1      -3.163  -7.533  -6.490  1.00  0.00     0.039 C 
ENDROOT
BRANCH   2   4
ATOM      4  C   UNL     1      -0.658  -8.892  -3.830  1.00  0.00     0.032 C 
BRANCH   4   5
ATOM      5  C   UNL     1      -0.558  -8.145  -2.494  1.00  0.00     0.034 C 
BRANCH   5   6
ATOM      6  C   UNL     1       0.447  -7.015  -2.599  1.00  0.00    -0.077 C 
ATOM      7  C   UNL     1       1.898  -7.320  -2.322  1.00  0.00     0.039 C 
ATOM      8  C   UNL     1       0.123  -5.763  -3.003  1.00  0.00    -0.023 CG0
ATOM      9  G   UNL     1      -1.270  -5.269  -3.307  1.00  0.00     0.000 G0
ENDBRANCH   5   6
ENDBRANCH   4   5
ENDBRANCH   2   4
BRANCH   1  10
ATOM     10  C   UNL     1      -0.629  -6.963  -6.280  1.00  0.00     0.111 C 
BRANCH  10  11
ATOM     11  C   UNL     1      -0.542  -5.536  -5.800  1.00  0.00     0.163 C 
ATOM     12  O   UNL     1       0.341  -4.799  -6.318  1.00  0.00    -0.294 OA
BRANCH  11  13
ATOM     13  C   UNL     1      -1.491  -4.960  -4.791  1.00  0.00    -0.002 C 
ATOM     14  C   UNL     1      -2.501  -4.120  -5.180  1.00  0.00    -0.069 C 
ATOM     15  C   UNL     1      -3.410  -3.449  -4.174  1.00  0.00     0.039 C 
ATOM     16  C   UNL     1      -2.798  -3.854  -6.640  1.00  0.00     0.039 C 
BRANCH  13  17
ATOM     17  C   UNL     1      -1.276  -5.281  -3.313  1.00  0.00     0.066 CG0
ATOM     18  G   UNL     1       0.129  -5.754  -3.031  1.00  0.00     0.000 G0
ENDBRANCH  13  17
ENDBRANCH  11  13
ENDBRANCH  10  11
ENDBRANCH   1  10
TORSDOF 0
ENDMDL
MODEL 7
REMARK VINA RESULT:    -3.333      1.778      3.665
REMARK INTER + INTRA:          -4.282
REMARK INTER:                  -4.481
REMARK INTRA:                   0.199
REMARK UNBOUND:                 0.415
REMARK SMILES CC1=CCC(=C(C)C)C(=O)CC(C)=CCC1
REMARK SMILES IDX 12 1 14 2 13 3 15 4 16 5 2 6 1 7 3 8 11 10 9 11 10 12 5 13
REMARK SMILES IDX 6 14 7 15 8 16 4 17
REMARK H PARENT
REMARK Flexibility Score: 60.00
ROOT
ATOM      1  C   UNL     1      -7.450  -1.856  -6.223  1.00  0.00    -0.070 C 
ATOM      2  C   UNL     1      -6.171  -2.295  -6.091  1.00  0.00    -0.027 C 
ATOM      3  C   UNL     1      -8.552  -2.866  -6.014  1.00  0.00     0.039 C 
ENDROOT
BRANCH   2   4
ATOM      4  C   UNL     1      -4.921  -1.490  -6.354  1.00  0.00     0.032 C 
BRANCH   4   5
ATOM      5  C   UNL     1      -4.578  -0.516  -5.219  1.00  0.00     0.034 C 
BRANCH   5   6
ATOM      6  C   UNL     1      -4.398   0.886  -5.769  1.00  0.00    -0.077 C 
ATOM      7  C   UNL     1      -3.340   1.112  -6.819  1.00  0.00     0.039 C 
ATOM      8  C   UNL     1      -5.189   1.930  -5.423  1.00  0.00    -0.023 CG0
ATOM      9  G   UNL     1      -6.283   1.900  -4.383  1.00  0.00     0.000 G0
ENDBRANCH   5   6
ENDBRANCH   4   5
ENDBRANCH   2   4
BRANCH   1  10
ATOM     10  C   UNL     1      -7.841  -0.405  -6.486  1.00  0.00     0.111 C 
BRANCH  10  11
ATOM     11  C   UNL     1      -8.198   0.368  -5.242  1.00  0.00     0.163 C 
ATOM     12  O   UNL     1      -8.925  -0.207  -4.386  1.00  0.00    -0.294 OA
BRANCH  11  13
ATOM     13  C   UNL     1      -7.679   1.749  -4.967  1.00  0.00    -0.002 C 
ATOM     14  C   UNL     1      -8.422   2.854  -5.293  1.00  0.00    -0.069 C 
ATOM     15  C   UNL     1      -7.881   4.256  -5.116  1.00  0.00     0.039 C 
ATOM     16  C   UNL     1      -9.842   2.737  -5.800  1.00  0.00     0.039 C 
BRANCH  13  17
ATOM     17  C   UNL     1      -6.282   1.903  -4.370  1.00  0.00     0.066 CG0
ATOM     18  G   UNL     1      -5.206   1.914  -5.429  1.00  0.00     0.000 G0
ENDBRANCH  13  17
ENDBRANCH  11  13
ENDBRANCH  10  11
ENDBRANCH   1  10
TORSDOF 0
ENDMDL
MODEL 8
REMARK VINA RESULT:    -3.323     13.198     15.775
REMARK INTER + INTRA:          -4.267
REMARK INTER:                  -4.446
REMARK INTRA:                   0.178
REMARK UNBOUND:                 0.415
REMARK SMILES CC1=CCC(=C(C)C)C(=O)CC(C)=CCC1
REMARK SMILES IDX 12 1 14 2 13 3 15 4 16 5 2 6 1 7 3 8 11 10 9 11 10 12 5 13
REMARK SMILES IDX 6 14 7 15 8 16 4 17
REMARK H PARENT
REMARK Flexibility Score: 60.00
ROOT
ATOM      1  C   UNL     1       4.089   7.031  -5.988  1.00  0.00    -0.070 C 
ATOM      2  C   UNL     1       5.076   6.227  -6.463  1.00  0.00    -0.027 C 
ATOM      3  C   UNL     1       2.858   7.194  -6.845  1.00  0.00     0.039 C 
ENDROOT
BRANCH   2   4
ATOM      4  C   UNL     1       6.426   6.001  -5.827  1.00  0.00     0.032 C 
BRANCH   4   5
ATOM      5  C   UNL     1       7.312   7.254  -5.824  1.00  0.00     0.034 C 
BRANCH   5   6
ATOM      6  C   UNL     1       7.920   7.462  -4.451  1.00  0.00    -0.077 C 
ATOM      7  C   UNL     1       8.762   6.356  -3.867  1.00  0.00     0.039 C 
ATOM      8  C   UNL     1       7.811   8.618  -3.753  1.00  0.00    -0.023 CG0
ATOM      9  G   UNL     1       7.002   9.823  -4.167  1.00  0.00     0.000 G0
ENDBRANCH   5   6
ENDBRANCH   4   5
ENDBRANCH   2   4
BRANCH   1  10
ATOM     10  C   UNL     1       4.112   7.709  -4.621  1.00  0.00     0.111 C 
BRANCH  10  11
ATOM     11  C   UNL     1       4.528   9.158  -4.662  1.00  0.00     0.163 C 
ATOM     12  O   UNL     1       3.959   9.904  -5.505  1.00  0.00    -0.294 OA
BRANCH  11  13
ATOM     13  C   UNL     1       5.531   9.741  -3.711  1.00  0.00    -0.002 C 
ATOM     14  C   UNL     1       5.141  10.222  -2.489  1.00  0.00    -0.069 C 
ATOM     15  C   UNL     1       6.115  10.903  -1.553  1.00  0.00     0.039 C 
ATOM     16  C   UNL     1       3.725  10.054  -1.983  1.00  0.00     0.039 C 
BRANCH  13  17
ATOM     17  C   UNL     1       6.990   9.843  -4.154  1.00  0.00     0.066 CG0
ATOM     18  G   UNL     1       7.796   8.634  -3.746  1.00  0.00     0.000 G0
ENDBRANCH  13  17
ENDBRANCH  11  13
ENDBRANCH  10  11
ENDBRANCH   1  10
TORSDOF 0
ENDMDL
MODEL 9
REMARK VINA RESULT:    -3.236      8.832     11.712
REMARK INTER + INTRA:          -4.146
REMARK INTER:                  -4.379
REMARK INTRA:                   0.233
REMARK UNBOUND:                 0.415
REMARK SMILES CC1=CCC(=C(C)C)C(=O)CC(C)=CCC1
REMARK SMILES IDX 12 1 14 2 13 3 15 4 16 5 2 6 1 7 3 8 11 10 9 11 10 12 5 13
REMARK SMILES IDX 6 14 7 15 8 16 4 17
REMARK H PARENT
REMARK Flexibility Score: 60.00
ROOT
ATOM      1  C   UNL     1       3.914  -8.316  -4.461  1.00  0.00    -0.070 C 
ATOM      2  C   UNL     1       4.514  -8.463  -3.251  1.00  0.00    -0.027 C 
ATOM      3  C   UNL     1       4.810  -8.061  -5.649  1.00  0.00     0.039 C 
ENDROOT
BRANCH   2   4
ATOM      4  C   UNL     1       3.814  -8.623  -1.923  1.00  0.00     0.032 C 
BRANCH   4   5
ATOM      5  C   UNL     1       3.034  -7.373  -1.494  1.00  0.00     0.034 C 
BRANCH   5   6
ATOM      6  C   UNL     1       1.618  -7.748  -1.102  1.00  0.00    -0.077 C 
ATOM      7  C   UNL     1       1.426  -8.760   0.000  1.00  0.00     0.039 C 
ATOM      8  C   UNL     1       0.517  -7.167  -1.635  1.00  0.00    -0.023 CG0
ATOM      9  G   UNL     1       0.511  -6.152  -2.753  1.00  0.00     0.000 G0
ENDBRANCH   5   6
ENDBRANCH   4   5
ENDBRANCH   2   4
BRANCH   1  10
ATOM     10  C   UNL     1       2.417  -8.473  -4.706  1.00  0.00     0.111 C 
BRANCH  10  11
ATOM     11  C   UNL     1       1.682  -7.167  -4.869  1.00  0.00     0.163 C 
ATOM     12  O   UNL     1       2.142  -6.338  -5.703  1.00  0.00    -0.294 OA
BRANCH  11  13
ATOM     13  C   UNL     1       0.414  -6.851  -4.131  1.00  0.00    -0.002 C 
ATOM     14  C   UNL     1      -0.807  -7.123  -4.689  1.00  0.00    -0.069 C 
ATOM     15  C   UNL     1      -2.099  -6.726  -4.009  1.00  0.00     0.039 C 
ATOM     16  C   UNL     1      -0.936  -7.881  -5.992  1.00  0.00     0.039 C 
BRANCH  13  17
ATOM     17  C   UNL     1       0.509  -6.167  -2.768  1.00  0.00     0.066 CG0
ATOM     18  G   UNL     1       0.527  -7.160  -1.631  1.00  0.00     0.000 G0
ENDBRANCH  13  17
ENDBRANCH  11  13
ENDBRANCH  10  11
ENDBRANCH   1  10
TORSDOF 0
ENDMDL
