MODEL 1
REMARK VINA RESULT:    -4.612      0.000      0.000
REMARK INTER + INTRA:          -5.588
REMARK INTER:                  -5.420
REMARK INTRA:                  -0.168
REMARK UNBOUND:                -0.168
REMARK SMILES COc1ccc(C=CC(=O)[O-])cc1
REMARK SMILES IDX 6 1 5 2 12 3 4 4 13 5 3 6 7 7 8 8 9 9 10 10 11 11 2 12 1 13
REMARK H PARENT
REMARK Flexibility Score: inf
ROOT
ATOM      1  C   UNL     1      -2.102   7.546   9.708  1.00  0.00    -0.025 A 
ATOM      2  C   UNL     1      -2.213   6.512  10.652  1.00  0.00     0.012 A 
ATOM      3  C   UNL     1      -2.402   7.268   8.360  1.00  0.00     0.012 A 
ATOM      4  C   UNL     1      -2.590   5.225  10.259  1.00  0.00     0.047 A 
ATOM      5  C   UNL     1      -2.780   5.980   7.970  1.00  0.00     0.047 A 
ATOM      6  C   UNL     1      -2.874   4.949   8.910  1.00  0.00     0.118 A 
ENDROOT
BRANCH   1   7
ATOM      7  C   UNL     1      -1.707   8.898  10.178  1.00  0.00     0.010 C 
ATOM      8  C   UNL     1      -1.953   9.358  11.412  1.00  0.00     0.025 C 
BRANCH   8   9
ATOM      9  C   UNL     1      -1.553  10.710  11.831  1.00  0.00     0.064 C 
ATOM     10  O   UNL     1      -2.413  11.629  11.868  1.00  0.00    -0.545 OA
ATOM     11  O   UNL     1      -0.240  10.991  12.190  1.00  0.00    -0.545 OA
ENDBRANCH   8   9
ENDBRANCH   1   7
BRANCH   6  12
ATOM     12  O   UNL     1      -3.255   3.674   8.466  1.00  0.00    -0.497 OA
ATOM     13  C   UNL     1      -2.368   2.569   8.339  1.00  0.00     0.278 C 
ENDBRANCH   6  12
TORSDOF 3
ENDMDL
MODEL 2
REMARK VINA RESULT:    -4.559      1.317      1.586
REMARK INTER + INTRA:          -5.527
REMARK INTER:                  -5.376
REMARK INTRA:                  -0.151
REMARK UNBOUND:                -0.168
REMARK SMILES COc1ccc(C=CC(=O)[O-])cc1
REMARK SMILES IDX 6 1 5 2 12 3 4 4 13 5 3 6 7 7 8 8 9 9 10 10 11 11 2 12 1 13
REMARK H PARENT
REMARK Flexibility Score: inf
ROOT
ATOM      1  C   UNL     1      -1.648   7.218   9.730  1.00  0.00    -0.025 A 
ATOM      2  C   UNL     1      -0.535   6.370   9.852  1.00  0.00     0.012 A 
ATOM      3  C   UNL     1      -2.662   6.879   8.813  1.00  0.00     0.012 A 
ATOM      4  C   UNL     1      -0.421   5.224   9.060  1.00  0.00     0.047 A 
ATOM      5  C   UNL     1      -2.546   5.731   8.023  1.00  0.00     0.047 A 
ATOM      6  C   UNL     1      -1.429   4.898   8.135  1.00  0.00     0.118 A 
ENDROOT
BRANCH   1   7
ATOM      7  C   UNL     1      -1.726   8.418  10.601  1.00  0.00     0.010 C 
ATOM      8  C   UNL     1      -1.436   9.658  10.187  1.00  0.00     0.025 C 
BRANCH   8   9
ATOM      9  C   UNL     1      -1.516  10.818  11.089  1.00  0.00     0.064 C 
ATOM     10  O   UNL     1      -0.489  11.514  11.299  1.00  0.00    -0.545 OA
ATOM     11  O   UNL     1      -2.709  11.159  11.715  1.00  0.00    -0.545 OA
ENDBRANCH   8   9
ENDBRANCH   1   7
BRANCH   6  12
ATOM     12  O   UNL     1      -1.360   3.760   7.317  1.00  0.00    -0.497 OA
ATOM     13  C   UNL     1      -1.330   2.422   7.802  1.00  0.00     0.278 C 
ENDBRANCH   6  12
TORSDOF 3
ENDMDL
MODEL 3
REMARK VINA RESULT:    -4.515      2.856      4.140
REMARK INTER + INTRA:          -5.475
REMARK INTER:                  -5.306
REMARK INTRA:                  -0.168
REMARK UNBOUND:                -0.168
REMARK SMILES COc1ccc(C=CC(=O)[O-])cc1
REMARK SMILES IDX 6 1 5 2 12 3 4 4 13 5 3 6 7 7 8 8 9 9 10 10 11 11 2 12 1 13
REMARK H PARENT
REMARK Flexibility Score: inf
ROOT
ATOM      1  C   UNL     1      -2.382  10.525  11.715  1.00  0.00    -0.025 A 
ATOM      2  C   UNL     1      -2.412   9.500  12.675  1.00  0.00     0.012 A 
ATOM      3  C   UNL     1      -1.736  10.286  10.486  1.00  0.00     0.012 A 
ATOM      4  C   UNL     1      -1.791   8.272  12.426  1.00  0.00     0.047 A 
ATOM      5  C   UNL     1      -1.116   9.057  10.240  1.00  0.00     0.047 A 
ATOM      6  C   UNL     1      -1.134   8.044  11.204  1.00  0.00     0.118 A 
ENDROOT
BRANCH   1   7
ATOM      7  C   UNL     1      -3.066  11.806  12.024  1.00  0.00     0.010 C 
ATOM      8  C   UNL     1      -4.339  11.891  12.431  1.00  0.00     0.025 C 
BRANCH   8   9
ATOM      9  C   UNL     1      -4.980  13.185  12.715  1.00  0.00     0.064 C 
ATOM     10  O   UNL     1      -6.107  13.211  13.275  1.00  0.00    -0.545 OA
ATOM     11  O   UNL     1      -4.360  14.382  12.377  1.00  0.00    -0.545 OA
ENDBRANCH   8   9
ENDBRANCH   1   7
BRANCH   6  12
ATOM     12  O   UNL     1      -0.495   6.830  10.908  1.00  0.00    -0.497 OA
ATOM     13  C   UNL     1      -0.679   6.098   9.701  1.00  0.00     0.278 C 
ENDBRANCH   6  12
TORSDOF 3
ENDMDL
MODEL 4
REMARK VINA RESULT:    -4.367      3.680      4.663
REMARK INTER + INTRA:          -5.301
REMARK INTER:                  -5.132
REMARK INTRA:                  -0.169
REMARK UNBOUND:                -0.168
REMARK SMILES COc1ccc(C=CC(=O)[O-])cc1
REMARK SMILES IDX 6 1 5 2 12 3 4 4 13 5 3 6 7 7 8 8 9 9 10 10 11 11 2 12 1 13
REMARK H PARENT
REMARK Flexibility Score: inf
ROOT
ATOM      1  C   UNL     1      -2.143   7.600  13.457  1.00  0.00    -0.025 A 
ATOM      2  C   UNL     1      -2.349   6.381  12.792  1.00  0.00     0.012 A 
ATOM      3  C   UNL     1      -2.399   7.671  14.840  1.00  0.00     0.012 A 
ATOM      4  C   UNL     1      -2.825   5.263  13.484  1.00  0.00     0.047 A 
ATOM      5  C   UNL     1      -2.874   6.551  15.530  1.00  0.00     0.047 A 
ATOM      6  C   UNL     1      -3.094   5.343  14.862  1.00  0.00     0.118 A 
ENDROOT
BRANCH   1   7
ATOM      7  C   UNL     1      -1.627   8.755  12.679  1.00  0.00     0.010 C 
ATOM      8  C   UNL     1      -2.095   9.109  11.474  1.00  0.00     0.025 C 
BRANCH   8   9
ATOM      9  C   UNL     1      -1.545  10.255  10.733  1.00  0.00     0.064 C 
ATOM     10  O   UNL     1      -1.434  10.190   9.481  1.00  0.00    -0.545 OA
ATOM     11  O   UNL     1      -1.147  11.412  11.393  1.00  0.00    -0.545 OA
ENDBRANCH   8   9
ENDBRANCH   1   7
BRANCH   6  12
ATOM     12  O   UNL     1      -3.573   4.250  15.600  1.00  0.00    -0.497 OA
ATOM     13  C   UNL     1      -4.260   3.139  15.037  1.00  0.00     0.278 C 
ENDBRANCH   6  12
TORSDOF 3
ENDMDL
MODEL 5
REMARK VINA RESULT:    -4.344     14.889     15.538
REMARK INTER + INTRA:          -5.274
REMARK INTER:                  -5.113
REMARK INTRA:                  -0.162
REMARK UNBOUND:                -0.168
REMARK SMILES COc1ccc(C=CC(=O)[O-])cc1
REMARK SMILES IDX 6 1 5 2 12 3 4 4 13 5 3 6 7 7 8 8 9 9 10 10 11 11 2 12 1 13
REMARK H PARENT
REMARK Flexibility Score: inf
ROOT
ATOM      1  C   UNL     1     -11.367   5.320  21.810  1.00  0.00    -0.025 A 
ATOM      2  C   UNL     1     -12.743   5.297  21.532  1.00  0.00     0.012 A 
ATOM      3  C   UNL     1     -10.613   4.148  21.607  1.00  0.00     0.012 A 
ATOM      4  C   UNL     1     -13.361   4.125  21.085  1.00  0.00     0.047 A 
ATOM      5  C   UNL     1     -11.233   2.978  21.159  1.00  0.00     0.047 A 
ATOM      6  C   UNL     1     -12.606   2.953  20.897  1.00  0.00     0.118 A 
ENDROOT
BRANCH   1   7
ATOM      7  C   UNL     1     -10.758   6.593  22.273  1.00  0.00     0.010 C 
ATOM      8  C   UNL     1     -11.100   7.211  23.411  1.00  0.00     0.025 C 
BRANCH   8   9
ATOM      9  C   UNL     1     -10.477   8.478  23.826  1.00  0.00     0.064 C 
ATOM     10  O   UNL     1     -10.733   8.953  24.963  1.00  0.00    -0.545 OA
ATOM     11  O   UNL     1      -9.608   9.160  22.983  1.00  0.00    -0.545 OA
ENDBRANCH   8   9
ENDBRANCH   1   7
BRANCH   6  12
ATOM     12  O   UNL     1     -13.180   1.753  20.452  1.00  0.00    -0.497 OA
ATOM     13  C   UNL     1     -13.335   0.589  21.256  1.00  0.00     0.278 C 
ENDBRANCH   6  12
TORSDOF 3
ENDMDL
MODEL 6
REMARK VINA RESULT:    -4.227      1.710      6.272
REMARK INTER + INTRA:          -5.137
REMARK INTER:                  -4.982
REMARK INTRA:                  -0.155
REMARK UNBOUND:                -0.168
REMARK SMILES COc1ccc(C=CC(=O)[O-])cc1
REMARK SMILES IDX 6 1 5 2 12 3 4 4 13 5 3 6 7 7 8 8 9 9 10 10 11 11 2 12 1 13
REMARK H PARENT
REMARK Flexibility Score: inf
ROOT
ATOM      1  C   UNL     1      -1.380   8.217  10.394  1.00  0.00    -0.025 A 
ATOM      2  C   UNL     1      -0.449   8.064  11.435  1.00  0.00     0.012 A 
ATOM      3  C   UNL     1      -1.602   9.504   9.866  1.00  0.00     0.012 A 
ATOM      4  C   UNL     1       0.227   9.171  11.955  1.00  0.00     0.047 A 
ATOM      5  C   UNL     1      -0.924  10.609  10.388  1.00  0.00     0.047 A 
ATOM      6  C   UNL     1      -0.009  10.456  11.435  1.00  0.00     0.118 A 
ENDROOT
BRANCH   1   7
ATOM      7  C   UNL     1      -2.064   7.008   9.870  1.00  0.00     0.010 C 
ATOM      8  C   UNL     1      -1.954   6.580   8.605  1.00  0.00     0.025 C 
BRANCH   8   9
ATOM      9  C   UNL     1      -2.660   5.381   8.126  1.00  0.00     0.064 C 
ATOM     10  O   UNL     1      -3.905   5.424   7.945  1.00  0.00    -0.545 OA
ATOM     11  O   UNL     1      -1.975   4.200   7.868  1.00  0.00    -0.545 OA
ENDBRANCH   8   9
ENDBRANCH   1   7
BRANCH   6  12
ATOM     12  O   UNL     1       0.643  11.598  11.924  1.00  0.00    -0.497 OA
ATOM     13  C   UNL     1       2.041  11.838  11.807  1.00  0.00     0.278 C 
ENDBRANCH   6  12
TORSDOF 3
ENDMDL
MODEL 7
REMARK VINA RESULT:    -4.226     15.185     17.019
REMARK INTER + INTRA:          -5.136
REMARK INTER:                  -4.978
REMARK INTRA:                  -0.157
REMARK UNBOUND:                -0.168
REMARK SMILES COc1ccc(C=CC(=O)[O-])cc1
REMARK SMILES IDX 6 1 5 2 12 3 4 4 13 5 3 6 7 7 8 8 9 9 10 10 11 11 2 12 1 13
REMARK H PARENT
REMARK Flexibility Score: inf
ROOT
ATOM      1  C   UNL     1     -10.926   7.401  23.246  1.00  0.00    -0.025 A 
ATOM      2  C   UNL     1     -10.012   8.441  23.008  1.00  0.00     0.012 A 
ATOM      3  C   UNL     1     -11.997   7.627  24.132  1.00  0.00     0.012 A 
ATOM      4  C   UNL     1     -10.148   9.671  23.658  1.00  0.00     0.047 A 
ATOM      5  C   UNL     1     -12.131   8.859  24.779  1.00  0.00     0.047 A 
ATOM      6  C   UNL     1     -11.212   9.888  24.553  1.00  0.00     0.118 A 
ENDROOT
BRANCH   1   7
ATOM      7  C   UNL     1     -10.742   6.116  22.524  1.00  0.00     0.010 C 
ATOM      8  C   UNL     1     -11.509   5.724  21.498  1.00  0.00     0.025 C 
BRANCH   8   9
ATOM      9  C   UNL     1     -11.298   4.436  20.818  1.00  0.00     0.064 C 
ATOM     10  O   UNL     1     -10.956   3.427  21.490  1.00  0.00    -0.545 OA
ATOM     11  O   UNL     1     -11.471   4.313  19.444  1.00  0.00    -0.545 OA
ENDBRANCH   8   9
ENDBRANCH   1   7
BRANCH   6  12
ATOM     12  O   UNL     1     -11.390  11.103  25.230  1.00  0.00    -0.497 OA
ATOM     13  C   UNL     1     -11.903  12.289  24.632  1.00  0.00     0.278 C 
ENDBRANCH   6  12
TORSDOF 3
ENDMDL
MODEL 8
REMARK VINA RESULT:    -4.169      4.909      5.588
REMARK INTER + INTRA:          -5.069
REMARK INTER:                  -4.900
REMARK INTRA:                  -0.168
REMARK UNBOUND:                -0.168
REMARK SMILES COc1ccc(C=CC(=O)[O-])cc1
REMARK SMILES IDX 6 1 5 2 12 3 4 4 13 5 3 6 7 7 8 8 9 9 10 10 11 11 2 12 1 13
REMARK H PARENT
REMARK Flexibility Score: inf
ROOT
ATOM      1  C   UNL     1      -2.602   3.520  10.764  1.00  0.00    -0.025 A 
ATOM      2  C   UNL     1      -1.198   3.510  10.780  1.00  0.00     0.012 A 
ATOM      3  C   UNL     1      -3.269   3.330   9.538  1.00  0.00     0.012 A 
ATOM      4  C   UNL     1      -0.473   3.340   9.596  1.00  0.00     0.047 A 
ATOM      5  C   UNL     1      -2.542   3.159   8.357  1.00  0.00     0.047 A 
ATOM      6  C   UNL     1      -1.143   3.166   8.372  1.00  0.00     0.118 A 
ENDROOT
BRANCH   1   7
ATOM      7  C   UNL     1      -3.325   3.694  12.050  1.00  0.00     0.010 C 
ATOM      8  C   UNL     1      -3.078   2.965  13.147  1.00  0.00     0.025 C 
BRANCH   8   9
ATOM      9  C   UNL     1      -3.828   3.165  14.397  1.00  0.00     0.064 C 
ATOM     10  O   UNL     1      -4.362   2.177  14.966  1.00  0.00    -0.545 OA
ATOM     11  O   UNL     1      -3.956   4.428  14.963  1.00  0.00    -0.545 OA
ENDBRANCH   8   9
ENDBRANCH   1   7
BRANCH   6  12
ATOM     12  O   UNL     1      -0.461   2.993   7.159  1.00  0.00    -0.497 OA
ATOM     13  C   UNL     1       0.918   3.282   6.963  1.00  0.00     0.278 C 
ENDBRANCH   6  12
TORSDOF 3
ENDMDL
MODEL 9
REMARK VINA RESULT:    -4.149      3.742      6.826
REMARK INTER + INTRA:          -5.045
REMARK INTER:                  -4.876
REMARK INTRA:                  -0.169
REMARK UNBOUND:                -0.168
REMARK SMILES COc1ccc(C=CC(=O)[O-])cc1
REMARK SMILES IDX 6 1 5 2 12 3 4 4 13 5 3 6 7 7 8 8 9 9 10 10 11 11 2 12 1 13
REMARK H PARENT
REMARK Flexibility Score: inf
ROOT
ATOM      1  C   UNL     1      -2.650   4.295  11.997  1.00  0.00    -0.025 A 
ATOM      2  C   UNL     1      -2.296   5.654  12.040  1.00  0.00     0.012 A 
ATOM      3  C   UNL     1      -3.206   3.701  13.146  1.00  0.00     0.012 A 
ATOM      4  C   UNL     1      -2.470   6.398  13.211  1.00  0.00     0.047 A 
ATOM      5  C   UNL     1      -3.380   4.448  14.315  1.00  0.00     0.047 A 
ATOM      6  C   UNL     1      -3.013   5.797  14.360  1.00  0.00     0.118 A 
ENDROOT
BRANCH   1   7
ATOM      7  C   UNL     1      -2.454   3.551  10.727  1.00  0.00     0.010 C 
ATOM      8  C   UNL     1      -1.293   3.510  10.060  1.00  0.00     0.025 C 
BRANCH   8   9
ATOM      9  C   UNL     1      -1.148   2.768   8.797  1.00  0.00     0.064 C 
ATOM     10  O   UNL     1      -2.122   2.697   8.003  1.00  0.00    -0.545 OA
ATOM     11  O   UNL     1       0.049   2.144   8.465  1.00  0.00    -0.545 OA
ENDBRANCH   8   9
ENDBRANCH   1   7
BRANCH   6  12
ATOM     12  O   UNL     1      -3.206   6.501  15.559  1.00  0.00    -0.497 OA
ATOM     13  C   UNL     1      -2.705   7.808  15.813  1.00  0.00     0.278 C 
ENDBRANCH   6  12
TORSDOF 3
ENDMDL
