MODEL 1
REMARK VINA RESULT:    -2.913      0.000      0.000
REMARK INTER + INTRA:          -3.996
REMARK INTER:                  -3.934
REMARK INTRA:                  -0.062
REMARK UNBOUND:                -0.062
REMARK SMILES [NH3+]CCCC[C@@H]([NH3+])C(=O)[O-]
REMARK SMILES IDX 4 1 3 2 2 3 1 4 5 8 6 9 7 10 8 14 9 15 10 16
REMARK H PARENT 1 5 1 6 1 7 7 11 7 12 7 13
REMARK Flexibility Score: inf
ROOT
ATOM      1  C   UNL     1       0.076  -2.065  -9.782  1.00  0.00     0.012 C 
ENDROOT
BRANCH   1   2
ATOM      2  C   UNL     1      -1.314  -2.717  -9.860  1.00  0.00     0.061 C 
BRANCH   2   3
ATOM      3  C   UNL     1      -1.431  -3.731 -11.010  1.00  0.00     0.258 C 
BRANCH   3   4
ATOM      4  N   UNL     1      -2.219  -4.894 -10.601  1.00  0.00    -0.358 N 
ATOM      5  H   UNL     1      -2.415  -5.504 -11.427  1.00  0.00     0.344 HD
ATOM      6  H   UNL     1      -3.128  -4.567 -10.199  1.00  0.00     0.344 HD
ATOM      7  H   UNL     1      -1.703  -5.439  -9.872  1.00  0.00     0.344 HD
ENDBRANCH   3   4
ENDBRANCH   2   3
ENDBRANCH   1   2
BRANCH   1   8
ATOM      8  C   UNL     1       0.129  -0.912  -8.760  1.00  0.00     0.072 C 
BRANCH   8   9
ATOM      9  C   UNL     1       1.543  -0.622  -8.203  1.00  0.00     0.227 C 
BRANCH   9  10
ATOM     10  N   UNL     1       2.390   0.084  -9.175  1.00  0.00    -0.350 N 
ATOM     11  H   UNL     1       2.234   1.117  -9.140  1.00  0.00     0.345 HD
ATOM     12  H   UNL     1       3.396  -0.108  -8.965  1.00  0.00     0.345 HD
ATOM     13  H   UNL     1       2.188  -0.262 -10.141  1.00  0.00     0.345 HD
ENDBRANCH   9  10
BRANCH   9  14
ATOM     14  C   UNL     1       1.482   0.110  -6.885  1.00  0.00     0.099 C 
ATOM     15  O   UNL     1       2.361  -0.073  -6.002  1.00  0.00    -0.544 OA
ATOM     16  O   UNL     1       0.472   1.036  -6.661  1.00  0.00    -0.544 OA
ENDBRANCH   9  14
ENDBRANCH   8   9
ENDBRANCH   1   8
TORSDOF 7
ENDMDL
MODEL 2
REMARK VINA RESULT:    -2.722      3.823      5.836
REMARK INTER + INTRA:          -3.738
REMARK INTER:                  -3.673
REMARK INTRA:                  -0.065
REMARK UNBOUND:                -0.062
REMARK SMILES [NH3+]CCCC[C@@H]([NH3+])C(=O)[O-]
REMARK SMILES IDX 4 1 3 2 2 3 1 4 5 8 6 9 7 10 8 14 9 15 10 16
REMARK H PARENT 1 5 1 6 1 7 7 11 7 12 7 13
REMARK Flexibility Score: inf
ROOT
ATOM      1  C   UNL     1       0.284   1.864  -5.737  1.00  0.00     0.012 C 
ENDROOT
BRANCH   1   2
ATOM      2  C   UNL     1      -1.078   2.576  -5.691  1.00  0.00     0.061 C 
BRANCH   2   3
ATOM      3  C   UNL     1      -1.119   3.714  -4.657  1.00  0.00     0.258 C 
BRANCH   3   4
ATOM      4  N   UNL     1      -1.857   4.864  -5.179  1.00  0.00    -0.358 N 
ATOM      5  H   UNL     1      -1.654   5.713  -4.603  1.00  0.00     0.344 HD
ATOM      6  H   UNL     1      -2.882   4.662  -5.134  1.00  0.00     0.344 HD
ATOM      7  H   UNL     1      -1.591   5.040  -6.175  1.00  0.00     0.344 HD
ENDBRANCH   3   4
ENDBRANCH   2   3
ENDBRANCH   1   2
BRANCH   1   8
ATOM      8  C   UNL     1       0.322   0.731  -6.781  1.00  0.00     0.072 C 
BRANCH   8   9
ATOM      9  C   UNL     1       1.734   0.427  -7.337  1.00  0.00     0.227 C 
BRANCH   9  10
ATOM     10  N   UNL     1       2.553  -0.335  -6.385  1.00  0.00    -0.350 N 
ATOM     11  H   UNL     1       2.874  -1.242  -6.794  1.00  0.00     0.345 HD
ATOM     12  H   UNL     1       3.395   0.227  -6.122  1.00  0.00     0.345 HD
ATOM     13  H   UNL     1       2.005  -0.525  -5.514  1.00  0.00     0.345 HD
ENDBRANCH   9  10
BRANCH   9  14
ATOM     14  C   UNL     1       1.666  -0.254  -8.681  1.00  0.00     0.099 C 
ATOM     15  O   UNL     1       2.539  -0.034  -9.563  1.00  0.00    -0.544 OA
ATOM     16  O   UNL     1       0.659  -1.176  -8.934  1.00  0.00    -0.544 OA
ENDBRANCH   9  14
ENDBRANCH   8   9
ENDBRANCH   1   8
TORSDOF 7
ENDMDL
MODEL 3
REMARK VINA RESULT:    -2.213      1.077      1.519
REMARK INTER + INTRA:          -3.051
REMARK INTER:                  -2.940
REMARK INTRA:                  -0.111
REMARK UNBOUND:                -0.062
REMARK SMILES [NH3+]CCCC[C@@H]([NH3+])C(=O)[O-]
REMARK SMILES IDX 4 1 3 2 2 3 1 4 5 8 6 9 7 10 8 14 9 15 10 16
REMARK H PARENT 1 5 1 6 1 7 7 11 7 12 7 13
REMARK Flexibility Score: inf
ROOT
ATOM      1  C   UNL     1       0.676  -1.596  -9.323  1.00  0.00     0.012 C 
ENDROOT
BRANCH   1   2
ATOM      2  C   UNL     1      -0.850  -1.735  -9.198  1.00  0.00     0.061 C 
BRANCH   2   3
ATOM      3  C   UNL     1      -1.461  -2.597 -10.315  1.00  0.00     0.258 C 
BRANCH   3   4
ATOM      4  N   UNL     1      -1.451  -4.012  -9.945  1.00  0.00    -0.358 N 
ATOM      5  H   UNL     1      -0.468  -4.348  -9.832  1.00  0.00     0.344 HD
ATOM      6  H   UNL     1      -1.913  -4.567 -10.702  1.00  0.00     0.344 HD
ATOM      7  H   UNL     1      -1.979  -4.153  -9.053  1.00  0.00     0.344 HD
ENDBRANCH   3   4
ENDBRANCH   2   3
ENDBRANCH   1   2
BRANCH   1   8
ATOM      8  C   UNL     1       1.190  -0.243  -8.792  1.00  0.00     0.072 C 
BRANCH   8   9
ATOM      9  C   UNL     1       1.984  -0.341  -7.468  1.00  0.00     0.227 C 
BRANCH   9  10
ATOM     10  N   UNL     1       3.426  -0.139  -7.669  1.00  0.00    -0.350 N 
ATOM     11  H   UNL     1       3.616   0.499  -8.475  1.00  0.00     0.345 HD
ATOM     12  H   UNL     1       3.842   0.282  -6.807  1.00  0.00     0.345 HD
ATOM     13  H   UNL     1       3.895  -1.058  -7.841  1.00  0.00     0.345 HD
ENDBRANCH   9  10
BRANCH   9  14
ATOM     14  C   UNL     1       1.434   0.594  -6.420  1.00  0.00     0.099 C 
ATOM     15  O   UNL     1       0.307   1.140  -6.568  1.00  0.00    -0.544 OA
ATOM     16  O   UNL     1       2.152   0.818  -5.253  1.00  0.00    -0.544 OA
ENDBRANCH   9  14
ENDBRANCH   8   9
ENDBRANCH   1   8
TORSDOF 7
ENDMDL
MODEL 4
REMARK VINA RESULT:    -2.152      4.432      6.479
REMARK INTER + INTRA:          -2.969
REMARK INTER:                  -2.905
REMARK INTRA:                  -0.064
REMARK UNBOUND:                -0.062
REMARK SMILES [NH3+]CCCC[C@@H]([NH3+])C(=O)[O-]
REMARK SMILES IDX 4 1 3 2 2 3 1 4 5 8 6 9 7 10 8 14 9 15 10 16
REMARK H PARENT 1 5 1 6 1 7 7 11 7 12 7 13
REMARK Flexibility Score: inf
ROOT
ATOM      1  C   UNL     1      -1.097   2.668  -6.112  1.00  0.00     0.012 C 
ENDROOT
BRANCH   1   2
ATOM      2  C   UNL     1      -1.101   3.375  -4.746  1.00  0.00     0.061 C 
BRANCH   2   3
ATOM      3  C   UNL     1      -1.842   4.722  -4.777  1.00  0.00     0.258 C 
BRANCH   3   4
ATOM      4  N   UNL     1      -1.817   5.360  -3.461  1.00  0.00    -0.358 N 
ATOM      5  H   UNL     1      -1.460   6.340  -3.542  1.00  0.00     0.344 HD
ATOM      6  H   UNL     1      -1.181   4.820  -2.830  1.00  0.00     0.344 HD
ATOM      7  H   UNL     1      -2.778   5.366  -3.047  1.00  0.00     0.344 HD
ENDBRANCH   3   4
ENDBRANCH   2   3
ENDBRANCH   1   2
BRANCH   1   8
ATOM      8  C   UNL     1      -0.431   1.279  -6.054  1.00  0.00     0.072 C 
BRANCH   8   9
ATOM      9  C   UNL     1       1.089   1.291  -6.343  1.00  0.00     0.227 C 
BRANCH   9  10
ATOM     10  N   UNL     1       1.882   1.568  -5.137  1.00  0.00    -0.350 N 
ATOM     11  H   UNL     1       1.639   0.913  -4.359  1.00  0.00     0.345 HD
ATOM     12  H   UNL     1       2.898   1.461  -5.357  1.00  0.00     0.345 HD
ATOM     13  H   UNL     1       1.719   2.552  -4.821  1.00  0.00     0.345 HD
ENDBRANCH   9  10
BRANCH   9  14
ATOM     14  C   UNL     1       1.535   0.020  -7.022  1.00  0.00     0.099 C 
ATOM     15  O   UNL     1       0.966  -0.388  -8.070  1.00  0.00    -0.544 OA
ATOM     16  O   UNL     1       2.620  -0.685  -6.516  1.00  0.00    -0.544 OA
ENDBRANCH   9  14
ENDBRANCH   8   9
ENDBRANCH   1   8
TORSDOF 7
ENDMDL
MODEL 5
REMARK VINA RESULT:    -1.959      4.823      6.401
REMARK INTER + INTRA:          -2.708
REMARK INTER:                  -2.615
REMARK INTRA:                  -0.094
REMARK UNBOUND:                -0.062
REMARK SMILES [NH3+]CCCC[C@@H]([NH3+])C(=O)[O-]
REMARK SMILES IDX 4 1 3 2 2 3 1 4 5 8 6 9 7 10 8 14 9 15 10 16
REMARK H PARENT 1 5 1 6 1 7 7 11 7 12 7 13
REMARK Flexibility Score: inf
ROOT
ATOM      1  C   UNL     1      -0.879   1.777  -6.093  1.00  0.00     0.012 C 
ENDROOT
BRANCH   1   2
ATOM      2  C   UNL     1       0.630   1.494  -6.011  1.00  0.00     0.061 C 
BRANCH   2   3
ATOM      3  C   UNL     1       1.095   0.451  -7.042  1.00  0.00     0.258 C 
BRANCH   3   4
ATOM      4  N   UNL     1       2.341  -0.184  -6.613  1.00  0.00    -0.358 N 
ATOM      5  H   UNL     1       3.026   0.542  -6.300  1.00  0.00     0.344 HD
ATOM      6  H   UNL     1       2.752  -0.711  -7.418  1.00  0.00     0.344 HD
ATOM      7  H   UNL     1       2.153  -0.853  -5.831  1.00  0.00     0.344 HD
ENDBRANCH   3   4
ENDBRANCH   2   3
ENDBRANCH   1   2
BRANCH   1   8
ATOM      8  C   UNL     1      -1.404   2.534  -4.857  1.00  0.00     0.072 C 
BRANCH   8   9
ATOM      9  C   UNL     1      -1.099   4.050  -4.864  1.00  0.00     0.227 C 
BRANCH   9  10
ATOM     10  N   UNL     1      -1.545   4.702  -6.103  1.00  0.00    -0.350 N 
ATOM     11  H   UNL     1      -0.771   5.240  -6.554  1.00  0.00     0.345 HD
ATOM     12  H   UNL     1      -1.882   3.975  -6.776  1.00  0.00     0.345 HD
ATOM     13  H   UNL     1      -2.341   5.349  -5.899  1.00  0.00     0.345 HD
ENDBRANCH   9  10
BRANCH   9  14
ATOM     14  C   UNL     1      -1.661   4.735  -3.642  1.00  0.00     0.099 C 
ATOM     15  O   UNL     1      -2.126   4.065  -2.682  1.00  0.00    -0.544 OA
ATOM     16  O   UNL     1      -1.619   6.120  -3.551  1.00  0.00    -0.544 OA
ENDBRANCH   9  14
ENDBRANCH   8   9
ENDBRANCH   1   8
TORSDOF 7
ENDMDL
MODEL 6
REMARK VINA RESULT:    -1.453      3.539      5.376
REMARK INTER + INTRA:          -2.024
REMARK INTER:                  -2.134
REMARK INTRA:                   0.109
REMARK UNBOUND:                -0.062
REMARK SMILES [NH3+]CCCC[C@@H]([NH3+])C(=O)[O-]
REMARK SMILES IDX 4 1 3 2 2 3 1 4 5 8 6 9 7 10 8 14 9 15 10 16
REMARK H PARENT 1 5 1 6 1 7 7 11 7 12 7 13
REMARK Flexibility Score: inf
ROOT
ATOM      1  C   UNL     1       0.099   0.880  -6.820  1.00  0.00     0.012 C 
ENDROOT
BRANCH   1   2
ATOM      2  C   UNL     1       0.159   1.946  -5.714  1.00  0.00     0.061 C 
BRANCH   2   3
ATOM      3  C   UNL     1      -1.123   2.792  -5.634  1.00  0.00     0.258 C 
BRANCH   3   4
ATOM      4  N   UNL     1      -1.078   3.696  -4.485  1.00  0.00    -0.358 N 
ATOM      5  H   UNL     1      -0.457   3.303  -3.741  1.00  0.00     0.344 HD
ATOM      6  H   UNL     1      -2.044   3.804  -4.096  1.00  0.00     0.344 HD
ATOM      7  H   UNL     1      -0.726   4.636  -4.780  1.00  0.00     0.344 HD
ENDBRANCH   3   4
ENDBRANCH   2   3
ENDBRANCH   1   2
BRANCH   1   8
ATOM      8  C   UNL     1       1.439   0.140  -6.999  1.00  0.00     0.072 C 
BRANCH   8   9
ATOM      9  C   UNL     1       1.979   0.147  -8.448  1.00  0.00     0.227 C 
BRANCH   9  10
ATOM     10  N   UNL     1       3.447   0.092  -8.494  1.00  0.00    -0.350 N 
ATOM     11  H   UNL     1       3.814   0.392  -9.426  1.00  0.00     0.345 HD
ATOM     12  H   UNL     1       3.842   0.726  -7.762  1.00  0.00     0.345 HD
ATOM     13  H   UNL     1       3.774  -0.881  -8.292  1.00  0.00     0.345 HD
ENDBRANCH   9  10
BRANCH   9  14
ATOM     14  C   UNL     1       1.357  -0.948  -9.279  1.00  0.00     0.099 C 
ATOM     15  O   UNL     1       2.010  -1.517 -10.193  1.00  0.00    -0.544 OA
ATOM     16  O   UNL     1       0.064  -1.371  -8.999  1.00  0.00    -0.544 OA
ENDBRANCH   9  14
ENDBRANCH   8   9
ENDBRANCH   1   8
TORSDOF 7
ENDMDL
MODEL 7
REMARK VINA RESULT:    -1.396      2.044      2.215
REMARK INTER + INTRA:          -1.947
REMARK INTER:                  -1.889
REMARK INTRA:                  -0.058
REMARK UNBOUND:                -0.062
REMARK SMILES [NH3+]CCCC[C@@H]([NH3+])C(=O)[O-]
REMARK SMILES IDX 4 1 3 2 2 3 1 4 5 8 6 9 7 10 8 14 9 15 10 16
REMARK H PARENT 1 5 1 6 1 7 7 11 7 12 7 13
REMARK Flexibility Score: inf
ROOT
ATOM      1  C   UNL     1      -0.655  -1.565  -9.793  1.00  0.00     0.012 C 
ENDROOT
BRANCH   1   2
ATOM      2  C   UNL     1      -1.462  -2.869  -9.679  1.00  0.00     0.061 C 
BRANCH   2   3
ATOM      3  C   UNL     1      -1.440  -3.697 -10.975  1.00  0.00     0.258 C 
BRANCH   3   4
ATOM      4  N   UNL     1      -2.176  -4.949 -10.805  1.00  0.00    -0.358 N 
ATOM      5  H   UNL     1      -1.509  -5.742 -10.661  1.00  0.00     0.344 HD
ATOM      6  H   UNL     1      -2.740  -5.135 -11.666  1.00  0.00     0.344 HD
ATOM      7  H   UNL     1      -2.823  -4.877  -9.986  1.00  0.00     0.344 HD
ENDBRANCH   3   4
ENDBRANCH   2   3
ENDBRANCH   1   2
BRANCH   1   8
ATOM      8  C   UNL     1       0.460  -1.468  -8.734  1.00  0.00     0.072 C 
BRANCH   8   9
ATOM      9  C   UNL     1       1.188  -0.103  -8.702  1.00  0.00     0.227 C 
BRANCH   9  10
ATOM     10  N   UNL     1       1.366   0.399  -7.332  1.00  0.00    -0.350 N 
ATOM     11  H   UNL     1       0.471   0.371  -6.793  1.00  0.00     0.345 HD
ATOM     12  H   UNL     1       2.073  -0.190  -6.835  1.00  0.00     0.345 HD
ATOM     13  H   UNL     1       1.723   1.382  -7.356  1.00  0.00     0.345 HD
ENDBRANCH   9  10
BRANCH   9  14
ATOM     14  C   UNL     1       2.497  -0.154  -9.450  1.00  0.00     0.099 C 
ATOM     15  O   UNL     1       3.489   0.520  -9.064  1.00  0.00    -0.544 OA
ATOM     16  O   UNL     1       2.629  -0.994 -10.548  1.00  0.00    -0.544 OA
ENDBRANCH   9  14
ENDBRANCH   8   9
ENDBRANCH   1   8
TORSDOF 7
ENDMDL
MODEL 8
REMARK VINA RESULT:    -1.229      3.710      5.906
REMARK INTER + INTRA:          -1.722
REMARK INTER:                  -1.583
REMARK INTRA:                  -0.138
REMARK UNBOUND:                -0.062
REMARK SMILES [NH3+]CCCC[C@@H]([NH3+])C(=O)[O-]
REMARK SMILES IDX 4 1 3 2 2 3 1 4 5 8 6 9 7 10 8 14 9 15 10 16
REMARK H PARENT 1 5 1 6 1 7 7 11 7 12 7 13
REMARK Flexibility Score: inf
ROOT
ATOM      1  C   UNL     1      -0.913   1.766  -5.875  1.00  0.00     0.012 C 
ENDROOT
BRANCH   1   2
ATOM      2  C   UNL     1      -0.750   2.931  -4.885  1.00  0.00     0.061 C 
BRANCH   2   3
ATOM      3  C   UNL     1      -1.680   4.114  -5.203  1.00  0.00     0.258 C 
BRANCH   3   4
ATOM      4  N   UNL     1      -1.967   4.889  -3.996  1.00  0.00    -0.358 N 
ATOM      5  H   UNL     1      -2.961   5.214  -4.004  1.00  0.00     0.344 HD
ATOM      6  H   UNL     1      -1.339   5.725  -3.969  1.00  0.00     0.344 HD
ATOM      7  H   UNL     1      -1.791   4.306  -3.145  1.00  0.00     0.344 HD
ENDBRANCH   3   4
ENDBRANCH   2   3
ENDBRANCH   1   2
BRANCH   1   8
ATOM      8  C   UNL     1       0.325   1.579  -6.774  1.00  0.00     0.072 C 
BRANCH   8   9
ATOM      9  C   UNL     1       0.967   0.174  -6.688  1.00  0.00     0.227 C 
BRANCH   9  10
ATOM     10  N   UNL     1       1.166  -0.428  -8.014  1.00  0.00    -0.350 N 
ATOM     11  H   UNL     1       0.326  -0.971  -8.319  1.00  0.00     0.345 HD
ATOM     12  H   UNL     1       1.346   0.327  -8.715  1.00  0.00     0.345 HD
ATOM     13  H   UNL     1       1.998  -1.061  -7.997  1.00  0.00     0.345 HD
ENDBRANCH   9  10
BRANCH   9  14
ATOM     14  C   UNL     1       2.247   0.196  -5.890  1.00  0.00     0.099 C 
ATOM     15  O   UNL     1       3.226  -0.527  -6.218  1.00  0.00    -0.544 OA
ATOM     16  O   UNL     1       2.369   1.062  -4.811  1.00  0.00    -0.544 OA
ENDBRANCH   9  14
ENDBRANCH   8   9
ENDBRANCH   1   8
TORSDOF 7
ENDMDL
MODEL 9
REMARK VINA RESULT:    -0.879      5.220      7.596
REMARK INTER + INTRA:          -1.248
REMARK INTER:                  -1.162
REMARK INTRA:                  -0.086
REMARK UNBOUND:                -0.062
REMARK SMILES [NH3+]CCCC[C@@H]([NH3+])C(=O)[O-]
REMARK SMILES IDX 4 1 3 2 2 3 1 4 5 8 6 9 7 10 8 14 9 15 10 16
REMARK H PARENT 1 5 1 6 1 7 7 11 7 12 7 13
REMARK Flexibility Score: inf
ROOT
ATOM      1  C   UNL     1      -1.686   3.979  -4.943  1.00  0.00     0.012 C 
ENDROOT
BRANCH   1   2
ATOM      2  C   UNL     1      -2.071   4.507  -3.551  1.00  0.00     0.061 C 
BRANCH   2   3
ATOM      3  C   UNL     1      -1.196   5.690  -3.102  1.00  0.00     0.258 C 
BRANCH   3   4
ATOM      4  N   UNL     1      -1.667   6.940  -3.697  1.00  0.00    -0.358 N 
ATOM      5  H   UNL     1      -2.699   6.895  -3.861  1.00  0.00     0.344 HD
ATOM      6  H   UNL     1      -1.185   7.086  -4.614  1.00  0.00     0.344 HD
ATOM      7  H   UNL     1      -1.443   7.745  -3.066  1.00  0.00     0.344 HD
ENDBRANCH   3   4
ENDBRANCH   2   3
ENDBRANCH   1   2
BRANCH   1   8
ATOM      8  C   UNL     1      -0.370   3.178  -4.925  1.00  0.00     0.072 C 
BRANCH   8   9
ATOM      9  C   UNL     1      -0.472   1.774  -5.567  1.00  0.00     0.227 C 
BRANCH   9  10
ATOM     10  N   UNL     1      -1.376   1.757  -6.726  1.00  0.00    -0.350 N 
ATOM     11  H   UNL     1      -0.979   1.199  -7.515  1.00  0.00     0.345 HD
ATOM     12  H   UNL     1      -2.291   1.334  -6.447  1.00  0.00     0.345 HD
ATOM     13  H   UNL     1      -1.556   2.734  -7.052  1.00  0.00     0.345 HD
ENDBRANCH   9  10
BRANCH   9  14
ATOM     14  C   UNL     1       0.888   1.222  -5.916  1.00  0.00     0.099 C 
ATOM     15  O   UNL     1       1.080   0.613  -7.002  1.00  0.00    -0.544 OA
ATOM     16  O   UNL     1       1.957   1.433  -5.054  1.00  0.00    -0.544 OA
ENDBRANCH   9  14
ENDBRANCH   8   9
ENDBRANCH   1   8
TORSDOF 7
ENDMDL
