MODEL 1
REMARK VINA RESULT:    -3.651      0.000      0.000
REMARK INTER + INTRA:          -3.885
REMARK INTER:                  -3.864
REMARK INTRA:                  -0.021
REMARK UNBOUND:                -0.021
REMARK SMILES O=C([O-])c1cccnc1
REMARK SMILES IDX 4 1 5 2 9 3 6 4 8 5 7 6 2 7 1 8 3 9
REMARK H PARENT
REMARK Flexibility Score: inf
ROOT
ATOM      1  C   UNL     1      14.834  18.121  40.435  1.00  0.00     0.016 A 
ATOM      2  C   UNL     1      15.901  17.253  40.147  1.00  0.00     0.013 A 
ATOM      3  C   UNL     1      13.584  17.561  40.749  1.00  0.00     0.120 A 
ATOM      4  C   UNL     1      15.708  15.871  40.177  1.00  0.00     0.021 A 
ATOM      5  N   UNL     1      13.422  16.211  40.771  1.00  0.00    -0.264 NA
ATOM      6  C   UNL     1      14.447  15.363  40.495  1.00  0.00     0.111 A 
ENDROOT
BRANCH   1   7
ATOM      7  C   UNL     1      15.027  19.587  40.407  1.00  0.00     0.073 C 
ATOM      8  O   UNL     1      14.098  20.348  40.025  1.00  0.00    -0.545 OA
ATOM      9  O   UNL     1      16.237  20.145  40.800  1.00  0.00    -0.545 OA
ENDBRANCH   1   7
TORSDOF 1
ENDMDL
MODEL 2
REMARK VINA RESULT:    -3.597      1.953      2.662
REMARK INTER + INTRA:          -3.828
REMARK INTER:                  -3.806
REMARK INTRA:                  -0.022
REMARK UNBOUND:                -0.021
REMARK SMILES O=C([O-])c1cccnc1
REMARK SMILES IDX 4 1 5 2 9 3 6 4 8 5 7 6 2 7 1 8 3 9
REMARK H PARENT
REMARK Flexibility Score: inf
ROOT
ATOM      1  C   UNL     1      15.514  16.268  40.456  1.00  0.00     0.016 A 
ATOM      2  C   UNL     1      15.321  14.895  40.228  1.00  0.00     0.013 A 
ATOM      3  C   UNL     1      14.396  17.054  40.789  1.00  0.00     0.120 A 
ATOM      4  C   UNL     1      14.044  14.339  40.334  1.00  0.00     0.021 A 
ATOM      5  N   UNL     1      13.163  16.488  40.885  1.00  0.00    -0.264 NA
ATOM      6  C   UNL     1      12.966  15.161  40.667  1.00  0.00     0.111 A 
ENDROOT
BRANCH   1   7
ATOM      7  C   UNL     1      16.861  16.867  40.348  1.00  0.00     0.073 C 
ATOM      8  O   UNL     1      17.711  16.392  39.547  1.00  0.00    -0.545 OA
ATOM      9  O   UNL     1      17.209  17.962  41.129  1.00  0.00    -0.545 OA
ENDBRANCH   1   7
TORSDOF 1
ENDMDL
MODEL 3
REMARK VINA RESULT:    -3.576      3.542      4.362
REMARK INTER + INTRA:          -3.806
REMARK INTER:                  -3.784
REMARK INTRA:                  -0.022
REMARK UNBOUND:                -0.021
REMARK SMILES O=C([O-])c1cccnc1
REMARK SMILES IDX 4 1 5 2 9 3 6 4 8 5 7 6 2 7 1 8 3 9
REMARK H PARENT
REMARK Flexibility Score: inf
ROOT
ATOM      1  C   UNL     1      12.925  14.563  40.716  1.00  0.00     0.016 A 
ATOM      2  C   UNL     1      14.155  15.126  40.335  1.00  0.00     0.013 A 
ATOM      3  C   UNL     1      12.778  13.167  40.645  1.00  0.00     0.120 A 
ATOM      4  C   UNL     1      15.196  14.304  39.899  1.00  0.00     0.021 A 
ATOM      5  N   UNL     1      13.808  12.389  40.216  1.00  0.00    -0.264 NA
ATOM      6  C   UNL     1      15.001  12.923  39.846  1.00  0.00     0.111 A 
ENDROOT
BRANCH   1   7
ATOM      7  C   UNL     1      11.815  15.423  41.180  1.00  0.00     0.073 C 
ATOM      8  O   UNL     1      10.921  14.961  41.940  1.00  0.00    -0.545 OA
ATOM      9  O   UNL     1      11.742  16.753  40.784  1.00  0.00    -0.545 OA
ENDBRANCH   1   7
TORSDOF 1
ENDMDL
MODEL 4
REMARK VINA RESULT:    -3.563      2.512      3.501
REMARK INTER + INTRA:          -3.792
REMARK INTER:                  -3.776
REMARK INTRA:                  -0.016
REMARK UNBOUND:                -0.021
REMARK SMILES O=C([O-])c1cccnc1
REMARK SMILES IDX 4 1 5 2 9 3 6 4 8 5 7 6 2 7 1 8 3 9
REMARK H PARENT
REMARK Flexibility Score: inf
ROOT
ATOM      1  C   UNL     1      15.173  18.016  40.637  1.00  0.00     0.016 A 
ATOM      2  C   UNL     1      14.939  19.020  39.683  1.00  0.00     0.013 A 
ATOM      3  C   UNL     1      14.678  18.204  41.940  1.00  0.00     0.120 A 
ATOM      4  C   UNL     1      14.231  20.171  40.035  1.00  0.00     0.021 A 
ATOM      5  N   UNL     1      13.992  19.335  42.257  1.00  0.00    -0.264 NA
ATOM      6  C   UNL     1      13.761  20.311  41.342  1.00  0.00     0.111 A 
ENDROOT
BRANCH   1   7
ATOM      7  C   UNL     1      15.921  16.793  40.276  1.00  0.00     0.073 C 
ATOM      8  O   UNL     1      15.312  15.711  40.059  1.00  0.00    -0.545 OA
ATOM      9  O   UNL     1      17.306  16.820  40.171  1.00  0.00    -0.545 OA
ENDBRANCH   1   7
TORSDOF 1
ENDMDL
MODEL 5
REMARK VINA RESULT:    -3.559      3.313      4.103
REMARK INTER + INTRA:          -3.788
REMARK INTER:                  -3.766
REMARK INTRA:                  -0.022
REMARK UNBOUND:                -0.021
REMARK SMILES O=C([O-])c1cccnc1
REMARK SMILES IDX 4 1 5 2 9 3 6 4 8 5 7 6 2 7 1 8 3 9
REMARK H PARENT
REMARK Flexibility Score: inf
ROOT
ATOM      1  C   UNL     1      13.527  15.800  40.713  1.00  0.00     0.016 A 
ATOM      2  C   UNL     1      14.866  15.450  40.476  1.00  0.00     0.013 A 
ATOM      3  C   UNL     1      13.185  17.165  40.727  1.00  0.00     0.120 A 
ATOM      4  C   UNL     1      15.824  16.443  40.263  1.00  0.00     0.021 A 
ATOM      5  N   UNL     1      14.137  18.113  40.516  1.00  0.00    -0.264 NA
ATOM      6  C   UNL     1      15.435  17.784  40.287  1.00  0.00     0.111 A 
ENDROOT
BRANCH   1   7
ATOM      7  C   UNL     1      12.504  14.757  40.940  1.00  0.00     0.073 C 
ATOM      8  O   UNL     1      12.617  13.622  40.403  1.00  0.00    -0.545 OA
ATOM      9  O   UNL     1      11.403  15.014  41.748  1.00  0.00    -0.545 OA
ENDBRANCH   1   7
TORSDOF 1
ENDMDL
MODEL 6
REMARK VINA RESULT:    -3.549      3.054      3.946
REMARK INTER + INTRA:          -3.777
REMARK INTER:                  -3.757
REMARK INTRA:                  -0.020
REMARK UNBOUND:                -0.021
REMARK SMILES O=C([O-])c1cccnc1
REMARK SMILES IDX 4 1 5 2 9 3 6 4 8 5 7 6 2 7 1 8 3 9
REMARK H PARENT
REMARK Flexibility Score: inf
ROOT
ATOM      1  C   UNL     1      13.080  15.744  40.851  1.00  0.00     0.016 A 
ATOM      2  C   UNL     1      13.700  14.599  40.322  1.00  0.00     0.013 A 
ATOM      3  C   UNL     1      13.852  16.908  41.013  1.00  0.00     0.120 A 
ATOM      4  C   UNL     1      15.051  14.633  39.972  1.00  0.00     0.021 A 
ATOM      5  N   UNL     1      15.167  16.914  40.664  1.00  0.00    -0.264 NA
ATOM      6  C   UNL     1      15.775  15.812  40.152  1.00  0.00     0.111 A 
ENDROOT
BRANCH   1   7
ATOM      7  C   UNL     1      11.650  15.721  41.225  1.00  0.00     0.073 C 
ATOM      8  O   UNL     1      11.166  14.736  41.844  1.00  0.00    -0.545 OA
ATOM      9  O   UNL     1      10.819  16.786  40.898  1.00  0.00    -0.545 OA
ENDBRANCH   1   7
TORSDOF 1
ENDMDL
MODEL 7
REMARK VINA RESULT:    -3.526      3.710      4.498
REMARK INTER + INTRA:          -3.753
REMARK INTER:                  -3.730
REMARK INTRA:                  -0.022
REMARK UNBOUND:                -0.021
REMARK SMILES O=C([O-])c1cccnc1
REMARK SMILES IDX 4 1 5 2 9 3 6 4 8 5 7 6 2 7 1 8 3 9
REMARK H PARENT
REMARK Flexibility Score: inf
ROOT
ATOM      1  C   UNL     1      14.998  14.717  40.030  1.00  0.00     0.016 A 
ATOM      2  C   UNL     1      15.905  15.789  40.087  1.00  0.00     0.013 A 
ATOM      3  C   UNL     1      13.656  14.959  40.372  1.00  0.00     0.120 A 
ATOM      4  C   UNL     1      15.469  17.056  40.476  1.00  0.00     0.021 A 
ATOM      5  N   UNL     1      13.257  16.203  40.748  1.00  0.00    -0.264 NA
ATOM      6  C   UNL     1      14.126  17.246  40.807  1.00  0.00     0.111 A 
ENDROOT
BRANCH   1   7
ATOM      7  C   UNL     1      15.449  13.370  39.618  1.00  0.00     0.073 C 
ATOM      8  O   UNL     1      14.795  12.346  39.953  1.00  0.00    -0.545 OA
ATOM      9  O   UNL     1      16.601  13.215  38.857  1.00  0.00    -0.545 OA
ENDBRANCH   1   7
TORSDOF 1
ENDMDL
MODEL 8
REMARK VINA RESULT:    -3.525      4.366      5.281
REMARK INTER + INTRA:          -3.751
REMARK INTER:                  -3.730
REMARK INTRA:                  -0.021
REMARK UNBOUND:                -0.021
REMARK SMILES O=C([O-])c1cccnc1
REMARK SMILES IDX 4 1 5 2 9 3 6 4 8 5 7 6 2 7 1 8 3 9
REMARK H PARENT
REMARK Flexibility Score: inf
ROOT
ATOM      1  C   UNL     1      13.296  14.005  40.725  1.00  0.00     0.016 A 
ATOM      2  C   UNL     1      14.676  14.217  40.574  1.00  0.00     0.013 A 
ATOM      3  C   UNL     1      12.462  15.126  40.890  1.00  0.00     0.120 A 
ATOM      4  C   UNL     1      15.193  15.514  40.591  1.00  0.00     0.021 A 
ATOM      5  N   UNL     1      12.991  16.379  40.903  1.00  0.00    -0.264 NA
ATOM      6  C   UNL     1      14.324  16.594  40.758  1.00  0.00     0.111 A 
ENDROOT
BRANCH   1   7
ATOM      7  C   UNL     1      12.737  12.636  40.709  1.00  0.00     0.073 C 
ATOM      8  O   UNL     1      13.217  11.758  39.942  1.00  0.00    -0.545 OA
ATOM      9  O   UNL     1      11.674  12.300  41.538  1.00  0.00    -0.545 OA
ENDBRANCH   1   7
TORSDOF 1
ENDMDL
MODEL 9
REMARK VINA RESULT:    -3.472      3.817      4.887
REMARK INTER + INTRA:          -3.695
REMARK INTER:                  -3.673
REMARK INTRA:                  -0.023
REMARK UNBOUND:                -0.021
REMARK SMILES O=C([O-])c1cccnc1
REMARK SMILES IDX 4 1 5 2 9 3 6 4 8 5 7 6 2 7 1 8 3 9
REMARK H PARENT
REMARK Flexibility Score: inf
ROOT
ATOM      1  C   UNL     1      12.972  14.005  40.719  1.00  0.00     0.016 A 
ATOM      2  C   UNL     1      12.586  12.655  40.680  1.00  0.00     0.013 A 
ATOM      3  C   UNL     1      14.270  14.342  40.295  1.00  0.00     0.120 A 
ATOM      4  C   UNL     1      13.481  11.683  40.230  1.00  0.00     0.021 A 
ATOM      5  N   UNL     1      15.123  13.375  39.861  1.00  0.00    -0.264 NA
ATOM      6  C   UNL     1      14.759  12.067  39.820  1.00  0.00     0.111 A 
ENDROOT
BRANCH   1   7
ATOM      7  C   UNL     1      12.033  15.044  41.193  1.00  0.00     0.073 C 
ATOM      8  O   UNL     1      11.095  14.747  41.981  1.00  0.00    -0.545 OA
ATOM      9  O   UNL     1      12.170  16.362  40.775  1.00  0.00    -0.545 OA
ENDBRANCH   1   7
TORSDOF 1
ENDMDL
