MODEL 1
REMARK VINA RESULT:    -6.460      0.000      0.000
REMARK INTER + INTRA:          -8.014
REMARK INTER:                  -7.593
REMARK INTRA:                  -0.421
REMARK UNBOUND:                -0.421
REMARK SMILES C=C(C)[C@H]1CC[C@]2(CO)CC[C@@]3(C)[C@H](CC[C@H]4[C@@]5(C)CC[C@@H](O)C(C)(C)[C@@H]5CC[C@@]43C)[C@@H]12
REMARK SMILES IDX 4 1 5 2 6 3 7 4 32 5 14 6 15 7 16 8 17 9 18 10 20 11 21 12
REMARK SMILES IDX 22 13 24 14 27 15 28 16 29 17 30 18 12 19 11 20 10 21 13 22
REMARK SMILES IDX 31 23 25 24 26 25 19 26 2 27 3 28 1 29 8 30 9 31 23 33
REMARK H PARENT 9 32 23 34
REMARK Flexibility Score: inf
ROOT
ATOM      1  C   UNL     1      30.962  32.238  30.672  1.00  0.00     0.018 C 
ATOM      2  C   UNL     1      31.968  32.756  29.623  1.00  0.00     0.009 C 
ATOM      3  C   UNL     1      31.324  32.513  28.249  1.00  0.00     0.010 C 
ATOM      4  C   UNL     1      30.404  31.292  28.447  1.00  0.00    -0.003 C 
ATOM      5  C   UNL     1      29.828  31.586  29.838  1.00  0.00     0.008 C 
ATOM      6  C   UNL     1      28.885  30.499  30.423  1.00  0.00    -0.000 C 
ATOM      7  C   UNL     1      28.365  30.966  31.817  1.00  0.00     0.005 C 
ATOM      8  C   UNL     1      27.013  30.406  32.265  1.00  0.00     0.005 C 
ATOM      9  C   UNL     1      25.873  30.417  31.198  1.00  0.00     0.002 C 
ATOM     10  C   UNL     1      24.433  30.904  31.707  1.00  0.00    -0.026 C 
ATOM     11  C   UNL     1      24.446  32.247  32.497  1.00  0.00     0.010 C 
ATOM     12  C   UNL     1      23.028  32.744  32.878  1.00  0.00     0.033 C 
ATOM     13  C   UNL     1      22.014  32.810  31.705  1.00  0.00     0.120 C 
ATOM     14  C   UNL     1      22.006  31.548  30.760  1.00  0.00    -0.006 C 
ATOM     15  C   UNL     1      23.496  31.136  30.463  1.00  0.00     0.003 C 
ATOM     16  C   UNL     1      23.772  30.096  29.359  1.00  0.00     0.005 C 
ATOM     17  C   UNL     1      25.167  30.351  28.724  1.00  0.00     0.008 C 
ATOM     18  C   UNL     1      26.322  30.798  29.730  1.00  0.00    -0.024 C 
ATOM     19  C   UNL     1      27.729  30.055  29.400  1.00  0.00    -0.024 C 
ATOM     20  C   UNL     1      28.136  30.235  27.858  1.00  0.00     0.008 C 
ATOM     21  C   UNL     1      29.225  31.265  27.462  1.00  0.00     0.010 C 
ATOM     22  C   UNL     1      27.578  28.498  29.605  1.00  0.00     0.012 C 
ATOM     23  C   UNL     1      26.500  32.347  29.590  1.00  0.00     0.012 C 
ATOM     24  C   UNL     1      21.165  30.403  31.384  1.00  0.00     0.014 C 
ATOM     25  C   UNL     1      21.287  31.941  29.434  1.00  0.00     0.014 C 
ATOM     26  C   UNL     1      23.920  29.770  32.657  1.00  0.00     0.012 C 
ENDROOT
BRANCH   1  27
ATOM     27  C   UNL     1      31.603  31.405  31.790  1.00  0.00    -0.077 C 
ATOM     28  C   UNL     1      32.487  30.211  31.513  1.00  0.00     0.039 C 
ATOM     29  C   UNL     1      31.448  31.799  33.068  1.00  0.00     0.008 C 
ENDBRANCH   1  27
BRANCH   4  30
ATOM     30  C   UNL     1      31.295  30.018  28.273  1.00  0.00     0.163 C 
BRANCH  30  31
ATOM     31  O   UNL     1      32.356  30.208  27.385  1.00  0.00    -0.396 OA
ATOM     32  H   UNL     1      33.002  29.476  27.560  1.00  0.00     0.210 HD
ENDBRANCH  30  31
ENDBRANCH   4  30
BRANCH  13  33
ATOM     33  O   UNL     1      22.197  34.010  30.985  1.00  0.00    -0.393 OA
ATOM     34  H   UNL     1      21.312  34.441  30.862  1.00  0.00     0.210 HD
ENDBRANCH  13  33
TORSDOF 4
ENDMDL
MODEL 2
REMARK VINA RESULT:    -6.322      2.581      9.087
REMARK INTER + INTRA:          -7.852
REMARK INTER:                  -7.673
REMARK INTRA:                  -0.179
REMARK UNBOUND:                -0.421
REMARK SMILES C=C(C)[C@H]1CC[C@]2(CO)CC[C@@]3(C)[C@H](CC[C@H]4[C@@]5(C)CC[C@@H](O)C(C)(C)[C@@H]5CC[C@@]43C)[C@@H]12
REMARK SMILES IDX 4 1 5 2 6 3 7 4 32 5 14 6 15 7 16 8 17 9 18 10 20 11 21 12
REMARK SMILES IDX 22 13 24 14 27 15 28 16 29 17 30 18 12 19 11 20 10 21 13 22
REMARK SMILES IDX 31 23 25 24 26 25 19 26 2 27 3 28 1 29 8 30 9 31 23 33
REMARK H PARENT 9 32 23 34
REMARK Flexibility Score: inf
ROOT
ATOM      1  C   UNL     1      18.394  31.511  30.492  1.00  0.00     0.018 C 
ATOM      2  C   UNL     1      17.353  32.405  29.788  1.00  0.00     0.009 C 
ATOM      3  C   UNL     1      18.072  33.721  29.449  1.00  0.00     0.010 C 
ATOM      4  C   UNL     1      19.167  33.868  30.523  1.00  0.00    -0.003 C 
ATOM      5  C   UNL     1      19.644  32.415  30.652  1.00  0.00     0.008 C 
ATOM      6  C   UNL     1      20.728  32.152  31.732  1.00  0.00    -0.000 C 
ATOM      7  C   UNL     1      21.122  30.645  31.709  1.00  0.00     0.005 C 
ATOM      8  C   UNL     1      22.530  30.298  32.197  1.00  0.00     0.005 C 
ATOM      9  C   UNL     1      23.688  31.197  31.659  1.00  0.00     0.002 C 
ATOM     10  C   UNL     1      25.015  30.432  31.184  1.00  0.00    -0.026 C 
ATOM     11  C   UNL     1      24.762  29.241  30.213  1.00  0.00     0.010 C 
ATOM     12  C   UNL     1      26.071  28.595  29.688  1.00  0.00     0.033 C 
ATOM     13  C   UNL     1      27.099  29.587  29.080  1.00  0.00     0.120 C 
ATOM     14  C   UNL     1      27.338  30.898  29.923  1.00  0.00    -0.006 C 
ATOM     15  C   UNL     1      25.943  31.441  30.409  1.00  0.00     0.003 C 
ATOM     16  C   UNL     1      25.872  32.851  31.030  1.00  0.00     0.005 C 
ATOM     17  C   UNL     1      24.475  33.479  30.767  1.00  0.00     0.008 C 
ATOM     18  C   UNL     1      23.232  32.483  30.861  1.00  0.00    -0.024 C 
ATOM     19  C   UNL     1      21.973  33.163  31.630  1.00  0.00    -0.024 C 
ATOM     20  C   UNL     1      21.593  34.582  30.986  1.00  0.00     0.008 C 
ATOM     21  C   UNL     1      20.367  34.700  30.044  1.00  0.00     0.010 C 
ATOM     22  C   UNL     1      22.364  33.482  33.125  1.00  0.00     0.012 C 
ATOM     23  C   UNL     1      22.814  32.108  29.399  1.00  0.00     0.012 C 
ATOM     24  C   UNL     1      28.330  30.626  31.085  1.00  0.00     0.014 C 
ATOM     25  C   UNL     1      28.028  31.947  29.000  1.00  0.00     0.014 C 
ATOM     26  C   UNL     1      25.671  29.880  32.494  1.00  0.00     0.012 C 
ENDROOT
BRANCH   1  27
ATOM     27  C   UNL     1      17.858  30.797  31.740  1.00  0.00    -0.077 C 
ATOM     28  C   UNL     1      17.383  31.544  32.966  1.00  0.00     0.039 C 
ATOM     29  C   UNL     1      17.720  29.458  31.719  1.00  0.00     0.008 C 
ENDBRANCH   1  27
BRANCH   4  30
ATOM     30  C   UNL     1      18.497  34.536  31.768  1.00  0.00     0.163 C 
BRANCH  30  31
ATOM     31  O   UNL     1      17.127  34.752  31.604  1.00  0.00    -0.396 OA
ATOM     32  H   UNL     1      17.008  35.731  31.498  1.00  0.00     0.210 HD
ENDBRANCH  30  31
ENDBRANCH   4  30
BRANCH  13  33
ATOM     33  O   UNL     1      26.750  29.873  27.743  1.00  0.00    -0.393 OA
ATOM     34  H   UNL     1      27.375  30.561  27.396  1.00  0.00     0.210 HD
ENDBRANCH  13  33
TORSDOF 4
ENDMDL
MODEL 3
REMARK VINA RESULT:    -5.964      9.274     12.011
REMARK INTER + INTRA:          -7.431
REMARK INTER:                  -7.702
REMARK INTRA:                   0.271
REMARK UNBOUND:                -0.421
REMARK SMILES C=C(C)[C@H]1CC[C@]2(CO)CC[C@@]3(C)[C@H](CC[C@H]4[C@@]5(C)CC[C@@H](O)C(C)(C)[C@@H]5CC[C@@]43C)[C@@H]12
REMARK SMILES IDX 4 1 5 2 6 3 7 4 32 5 14 6 15 7 16 8 17 9 18 10 20 11 21 12
REMARK SMILES IDX 22 13 24 14 27 15 28 16 29 17 30 18 12 19 11 20 10 21 13 22
REMARK SMILES IDX 31 23 25 24 26 25 19 26 2 27 3 28 1 29 8 30 9 31 23 33
REMARK H PARENT 9 32 23 34
REMARK Flexibility Score: inf
ROOT
ATOM      1  C   UNL     1      18.160  23.953  26.669  1.00  0.00     0.018 C 
ATOM      2  C   UNL     1      17.264  22.924  25.949  1.00  0.00     0.009 C 
ATOM      3  C   UNL     1      15.981  22.806  26.787  1.00  0.00     0.010 C 
ATOM      4  C   UNL     1      16.412  23.138  28.229  1.00  0.00    -0.003 C 
ATOM      5  C   UNL     1      17.400  24.284  27.981  1.00  0.00     0.008 C 
ATOM      6  C   UNL     1      18.119  24.843  29.239  1.00  0.00    -0.000 C 
ATOM      7  C   UNL     1      19.056  26.015  28.818  1.00  0.00     0.005 C 
ATOM      8  C   UNL     1      19.351  27.071  29.885  1.00  0.00     0.005 C 
ATOM      9  C   UNL     1      18.125  27.587  30.704  1.00  0.00     0.002 C 
ATOM     10  C   UNL     1      18.049  29.171  30.939  1.00  0.00    -0.026 C 
ATOM     11  C   UNL     1      18.235  30.027  29.651  1.00  0.00     0.010 C 
ATOM     12  C   UNL     1      18.046  31.546  29.895  1.00  0.00     0.033 C 
ATOM     13  C   UNL     1      16.734  31.939  30.626  1.00  0.00     0.120 C 
ATOM     14  C   UNL     1      16.379  31.051  31.880  1.00  0.00    -0.006 C 
ATOM     15  C   UNL     1      16.628  29.541  31.509  1.00  0.00     0.003 C 
ATOM     16  C   UNL     1      16.113  28.448  32.467  1.00  0.00     0.005 C 
ATOM     17  C   UNL     1      15.780  27.156  31.670  1.00  0.00     0.008 C 
ATOM     18  C   UNL     1      16.777  26.793  30.479  1.00  0.00    -0.024 C 
ATOM     19  C   UNL     1      17.105  25.202  30.433  1.00  0.00    -0.024 C 
ATOM     20  C   UNL     1      15.758  24.329  30.411  1.00  0.00     0.008 C 
ATOM     21  C   UNL     1      15.265  23.702  29.082  1.00  0.00     0.010 C 
ATOM     22  C   UNL     1      17.854  24.767  31.750  1.00  0.00     0.012 C 
ATOM     23  C   UNL     1      16.094  27.228  29.139  1.00  0.00     0.012 C 
ATOM     24  C   UNL     1      17.179  31.518  33.125  1.00  0.00     0.014 C 
ATOM     25  C   UNL     1      14.875  31.275  32.221  1.00  0.00     0.014 C 
ATOM     26  C   UNL     1      19.213  29.504  31.933  1.00  0.00     0.012 C 
ENDROOT
BRANCH   1  27
ATOM     27  C   UNL     1      19.630  23.529  26.777  1.00  0.00    -0.077 C 
ATOM     28  C   UNL     1      20.737  24.503  27.114  1.00  0.00     0.039 C 
ATOM     29  C   UNL     1      19.946  22.226  26.653  1.00  0.00     0.008 C 
ENDBRANCH   1  27
BRANCH   4  30
ATOM     30  C   UNL     1      16.961  21.814  28.855  1.00  0.00     0.163 C 
BRANCH  30  31
ATOM     31  O   UNL     1      15.983  20.828  28.999  1.00  0.00    -0.396 OA
ATOM     32  H   UNL     1      16.320  20.026  28.523  1.00  0.00     0.210 HD
ENDBRANCH  30  31
ENDBRANCH   4  30
BRANCH  13  33
ATOM     33  O   UNL     1      15.671  31.996  29.699  1.00  0.00    -0.393 OA
ATOM     34  H   UNL     1      14.907  32.461  30.127  1.00  0.00     0.210 HD
ENDBRANCH  13  33
TORSDOF 4
ENDMDL
MODEL 4
REMARK VINA RESULT:    -5.634      1.681      7.728
REMARK INTER + INTRA:          -7.043
REMARK INTER:                  -6.727
REMARK INTRA:                  -0.317
REMARK UNBOUND:                -0.421
REMARK SMILES C=C(C)[C@H]1CC[C@]2(CO)CC[C@@]3(C)[C@H](CC[C@H]4[C@@]5(C)CC[C@@H](O)C(C)(C)[C@@H]5CC[C@@]43C)[C@@H]12
REMARK SMILES IDX 4 1 5 2 6 3 7 4 32 5 14 6 15 7 16 8 17 9 18 10 20 11 21 12
REMARK SMILES IDX 22 13 24 14 27 15 28 16 29 17 30 18 12 19 11 20 10 21 13 22
REMARK SMILES IDX 31 23 25 24 26 25 19 26 2 27 3 28 1 29 8 30 9 31 23 33
REMARK H PARENT 9 32 23 34
REMARK Flexibility Score: inf
ROOT
ATOM      1  C   UNL     1      23.496  29.885  29.270  1.00  0.00     0.018 C 
ATOM      2  C   UNL     1      22.067  30.467  29.302  1.00  0.00     0.009 C 
ATOM      3  C   UNL     1      22.134  31.727  30.181  1.00  0.00     0.010 C 
ATOM      4  C   UNL     1      23.286  31.465  31.170  1.00  0.00    -0.003 C 
ATOM      5  C   UNL     1      24.302  30.770  30.255  1.00  0.00     0.008 C 
ATOM      6  C   UNL     1      25.604  30.275  30.943  1.00  0.00    -0.000 C 
ATOM      7  C   UNL     1      26.535  29.626  29.875  1.00  0.00     0.005 C 
ATOM      8  C   UNL     1      28.036  29.651  30.170  1.00  0.00     0.005 C 
ATOM      9  C   UNL     1      28.616  31.007  30.685  1.00  0.00     0.002 C 
ATOM     10  C   UNL     1      30.004  31.474  30.032  1.00  0.00    -0.026 C 
ATOM     11  C   UNL     1      30.035  31.431  28.476  1.00  0.00     0.010 C 
ATOM     12  C   UNL     1      31.349  31.993  27.876  1.00  0.00     0.033 C 
ATOM     13  C   UNL     1      31.763  33.398  28.391  1.00  0.00     0.120 C 
ATOM     14  C   UNL     1      31.648  33.595  29.952  1.00  0.00    -0.006 C 
ATOM     15  C   UNL     1      30.286  32.971  30.435  1.00  0.00     0.003 C 
ATOM     16  C   UNL     1      29.808  33.258  31.873  1.00  0.00     0.005 C 
ATOM     17  C   UNL     1      28.256  33.227  31.933  1.00  0.00     0.008 C 
ATOM     18  C   UNL     1      27.543  32.110  31.045  1.00  0.00    -0.024 C 
ATOM     19  C   UNL     1      26.310  31.408  31.837  1.00  0.00    -0.024 C 
ATOM     20  C   UNL     1      25.285  32.502  32.409  1.00  0.00     0.008 C 
ATOM     21  C   UNL     1      23.942  32.758  31.680  1.00  0.00     0.010 C 
ATOM     22  C   UNL     1      26.850  30.647  33.109  1.00  0.00     0.012 C 
ATOM     23  C   UNL     1      27.007  32.806  29.749  1.00  0.00     0.012 C 
ATOM     24  C   UNL     1      32.887  32.998  30.670  1.00  0.00     0.014 C 
ATOM     25  C   UNL     1      31.669  35.125  30.248  1.00  0.00     0.014 C 
ATOM     26  C   UNL     1      31.081  30.480  30.582  1.00  0.00     0.012 C 
ENDROOT
BRANCH   1  27
ATOM     27  C   UNL     1      23.551  28.363  29.459  1.00  0.00    -0.077 C 
ATOM     28  C   UNL     1      24.389  27.462  28.580  1.00  0.00     0.039 C 
ATOM     29  C   UNL     1      22.900  27.810  30.500  1.00  0.00     0.008 C 
ENDBRANCH   1  27
BRANCH   4  30
ATOM     30  C   UNL     1      22.686  30.647  32.361  1.00  0.00     0.163 C 
BRANCH  30  31
ATOM     31  O   UNL     1      21.439  31.118  32.776  1.00  0.00    -0.396 OA
ATOM     32  H   UNL     1      21.395  30.970  33.756  1.00  0.00     0.210 HD
ENDBRANCH  30  31
ENDBRANCH   4  30
BRANCH  13  33
ATOM     33  O   UNL     1      31.059  34.393  27.678  1.00  0.00    -0.393 OA
ATOM     34  H   UNL     1      31.471  35.272  27.877  1.00  0.00     0.210 HD
ENDBRANCH  13  33
TORSDOF 4
ENDMDL
MODEL 5
REMARK VINA RESULT:    -5.530      3.832      9.596
REMARK INTER + INTRA:          -6.921
REMARK INTER:                  -6.437
REMARK INTRA:                  -0.484
REMARK UNBOUND:                -0.421
REMARK SMILES C=C(C)[C@H]1CC[C@]2(CO)CC[C@@]3(C)[C@H](CC[C@H]4[C@@]5(C)CC[C@@H](O)C(C)(C)[C@@H]5CC[C@@]43C)[C@@H]12
REMARK SMILES IDX 4 1 5 2 6 3 7 4 32 5 14 6 15 7 16 8 17 9 18 10 20 11 21 12
REMARK SMILES IDX 22 13 24 14 27 15 28 16 29 17 30 18 12 19 11 20 10 21 13 22
REMARK SMILES IDX 31 23 25 24 26 25 19 26 2 27 3 28 1 29 8 30 9 31 23 33
REMARK H PARENT 9 32 23 34
REMARK Flexibility Score: inf
ROOT
ATOM      1  C   UNL     1      17.588  27.864  31.438  1.00  0.00     0.018 C 
ATOM      2  C   UNL     1      16.996  26.450  31.262  1.00  0.00     0.009 C 
ATOM      3  C   UNL     1      17.907  25.721  30.261  1.00  0.00     0.010 C 
ATOM      4  C   UNL     1      18.497  26.833  29.373  1.00  0.00    -0.003 C 
ATOM      5  C   UNL     1      18.749  27.933  30.413  1.00  0.00     0.008 C 
ATOM      6  C   UNL     1      19.290  29.279  29.857  1.00  0.00    -0.000 C 
ATOM      7  C   UNL     1      19.521  30.267  31.039  1.00  0.00     0.005 C 
ATOM      8  C   UNL     1      20.584  31.348  30.829  1.00  0.00     0.005 C 
ATOM      9  C   UNL     1      21.937  30.874  30.208  1.00  0.00     0.002 C 
ATOM     10  C   UNL     1      23.268  31.457  30.886  1.00  0.00    -0.026 C 
ATOM     11  C   UNL     1      23.313  31.330  32.437  1.00  0.00     0.010 C 
ATOM     12  C   UNL     1      24.658  31.801  33.048  1.00  0.00     0.033 C 
ATOM     13  C   UNL     1      25.928  31.175  32.412  1.00  0.00     0.120 C 
ATOM     14  C   UNL     1      25.932  31.137  30.835  1.00  0.00    -0.006 C 
ATOM     15  C   UNL     1      24.514  30.662  30.343  1.00  0.00     0.003 C 
ATOM     16  C   UNL     1      24.331  30.288  28.859  1.00  0.00     0.005 C 
ATOM     17  C   UNL     1      23.216  29.216  28.713  1.00  0.00     0.008 C 
ATOM     18  C   UNL     1      21.953  29.387  29.672  1.00  0.00    -0.024 C 
ATOM     19  C   UNL     1      20.559  29.094  28.889  1.00  0.00    -0.024 C 
ATOM     20  C   UNL     1      20.595  27.672  28.147  1.00  0.00     0.008 C 
ATOM     21  C   UNL     1      19.858  26.457  28.767  1.00  0.00     0.010 C 
ATOM     22  C   UNL     1      20.354  30.152  27.739  1.00  0.00     0.012 C 
ATOM     23  C   UNL     1      22.115  28.374  30.855  1.00  0.00     0.012 C 
ATOM     24  C   UNL     1      26.355  32.513  30.256  1.00  0.00     0.014 C 
ATOM     25  C   UNL     1      27.023  30.120  30.380  1.00  0.00     0.014 C 
ATOM     26  C   UNL     1      23.299  32.976  30.507  1.00  0.00     0.012 C 
ENDROOT
BRANCH   1  27
ATOM     27  C   UNL     1      16.540  28.984  31.415  1.00  0.00    -0.077 C 
ATOM     28  C   UNL     1      15.685  29.276  30.202  1.00  0.00     0.039 C 
ATOM     29  C   UNL     1      16.305  29.683  32.542  1.00  0.00     0.008 C 
ENDBRANCH   1  27
BRANCH   4  30
ATOM     30  C   UNL     1      17.452  27.115  28.243  1.00  0.00     0.163 C 
BRANCH  30  31
ATOM     31  O   UNL     1      17.093  25.969  27.530  1.00  0.00    -0.396 OA
ATOM     32  H   UNL     1      16.377  26.242  26.901  1.00  0.00     0.210 HD
ENDBRANCH  30  31
ENDBRANCH   4  30
BRANCH  13  33
ATOM     33  O   UNL     1      26.164  29.903  32.974  1.00  0.00    -0.393 OA
ATOM     34  H   UNL     1      26.697  30.019  33.803  1.00  0.00     0.210 HD
ENDBRANCH  13  33
TORSDOF 4
ENDMDL
MODEL 6
REMARK VINA RESULT:    -5.505      1.856      8.394
REMARK INTER + INTRA:          -6.891
REMARK INTER:                  -6.492
REMARK INTRA:                  -0.399
REMARK UNBOUND:                -0.421
REMARK SMILES C=C(C)[C@H]1CC[C@]2(CO)CC[C@@]3(C)[C@H](CC[C@H]4[C@@]5(C)CC[C@@H](O)C(C)(C)[C@@H]5CC[C@@]43C)[C@@H]12
REMARK SMILES IDX 4 1 5 2 6 3 7 4 32 5 14 6 15 7 16 8 17 9 18 10 20 11 21 12
REMARK SMILES IDX 22 13 24 14 27 15 28 16 29 17 30 18 12 19 11 20 10 21 13 22
REMARK SMILES IDX 31 23 25 24 26 25 19 26 2 27 3 28 1 29 8 30 9 31 23 33
REMARK H PARENT 9 32 23 34
REMARK Flexibility Score: inf
ROOT
ATOM      1  C   UNL     1      20.573  32.236  29.223  1.00  0.00     0.018 C 
ATOM      2  C   UNL     1      19.479  33.306  29.418  1.00  0.00     0.009 C 
ATOM      3  C   UNL     1      19.922  34.166  30.612  1.00  0.00     0.010 C 
ATOM      4  C   UNL     1      20.774  33.227  31.488  1.00  0.00    -0.003 C 
ATOM      5  C   UNL     1      21.543  32.446  30.415  1.00  0.00     0.008 C 
ATOM      6  C   UNL     1      22.476  31.319  30.937  1.00  0.00    -0.000 C 
ATOM      7  C   UNL     1      23.201  30.652  29.730  1.00  0.00     0.005 C 
ATOM      8  C   UNL     1      24.557  30.006  30.019  1.00  0.00     0.005 C 
ATOM      9  C   UNL     1      25.549  30.841  30.890  1.00  0.00     0.002 C 
ATOM     10  C   UNL     1      27.073  30.872  30.392  1.00  0.00    -0.026 C 
ATOM     11  C   UNL     1      27.254  31.220  28.885  1.00  0.00     0.010 C 
ATOM     12  C   UNL     1      28.741  31.350  28.463  1.00  0.00     0.033 C 
ATOM     13  C   UNL     1      29.598  32.294  29.348  1.00  0.00     0.120 C 
ATOM     14  C   UNL     1      29.397  32.114  30.903  1.00  0.00    -0.006 C 
ATOM     15  C   UNL     1      27.856  31.977  31.195  1.00  0.00     0.003 C 
ATOM     16  C   UNL     1      27.369  32.052  32.656  1.00  0.00     0.005 C 
ATOM     17  C   UNL     1      25.925  32.623  32.707  1.00  0.00     0.008 C 
ATOM     18  C   UNL     1      24.943  32.146  31.544  1.00  0.00    -0.024 C 
ATOM     19  C   UNL     1      23.457  31.811  32.110  1.00  0.00    -0.024 C 
ATOM     20  C   UNL     1      22.869  33.034  32.965  1.00  0.00     0.008 C 
ATOM     21  C   UNL     1      21.811  33.978  32.337  1.00  0.00     0.010 C 
ATOM     22  C   UNL     1      23.526  30.600  33.120  1.00  0.00     0.012 C 
ATOM     23  C   UNL     1      24.856  33.303  30.493  1.00  0.00     0.012 C 
ATOM     24  C   UNL     1      30.230  30.914  31.426  1.00  0.00     0.014 C 
ATOM     25  C   UNL     1      29.965  33.380  31.613  1.00  0.00     0.014 C 
ATOM     26  C   UNL     1      27.625  29.428  30.642  1.00  0.00     0.012 C 
ENDROOT
BRANCH   1  27
ATOM     27  C   UNL     1      20.025  30.823  28.982  1.00  0.00    -0.077 C 
ATOM     28  C   UNL     1      18.943  30.210  29.841  1.00  0.00     0.039 C 
ATOM     29  C   UNL     1      20.458  30.129  27.912  1.00  0.00     0.008 C 
ENDBRANCH   1  27
BRANCH   4  30
ATOM     30  C   UNL     1      19.782  32.438  32.405  1.00  0.00     0.163 C 
BRANCH  30  31
ATOM     31  O   UNL     1      18.893  33.267  33.093  1.00  0.00    -0.396 OA
ATOM     32  H   UNL     1      18.748  32.848  33.980  1.00  0.00     0.210 HD
ENDBRANCH  30  31
ENDBRANCH   4  30
BRANCH  13  33
ATOM     33  O   UNL     1      29.407  33.632  28.941  1.00  0.00    -0.393 OA
ATOM     34  H   UNL     1      29.582  34.224  29.717  1.00  0.00     0.210 HD
ENDBRANCH  13  33
TORSDOF 4
ENDMDL
MODEL 7
REMARK VINA RESULT:    -5.348      3.990      7.715
REMARK INTER + INTRA:          -6.707
REMARK INTER:                  -6.224
REMARK INTRA:                  -0.483
REMARK UNBOUND:                -0.421
REMARK SMILES C=C(C)[C@H]1CC[C@]2(CO)CC[C@@]3(C)[C@H](CC[C@H]4[C@@]5(C)CC[C@@H](O)C(C)(C)[C@@H]5CC[C@@]43C)[C@@H]12
REMARK SMILES IDX 4 1 5 2 6 3 7 4 32 5 14 6 15 7 16 8 17 9 18 10 20 11 21 12
REMARK SMILES IDX 22 13 24 14 27 15 28 16 29 17 30 18 12 19 11 20 10 21 13 22
REMARK SMILES IDX 31 23 25 24 26 25 19 26 2 27 3 28 1 29 8 30 9 31 23 33
REMARK H PARENT 9 32 23 34
REMARK Flexibility Score: inf
ROOT
ATOM      1  C   UNL     1      24.604  29.507  30.995  1.00  0.00     0.018 C 
ATOM      2  C   UNL     1      25.414  30.344  32.006  1.00  0.00     0.009 C 
ATOM      3  C   UNL     1      24.448  31.400  32.567  1.00  0.00     0.010 C 
ATOM      4  C   UNL     1      23.423  31.642  31.442  1.00  0.00    -0.003 C 
ATOM      5  C   UNL     1      23.227  30.215  30.915  1.00  0.00     0.008 C 
ATOM      6  C   UNL     1      22.287  30.071  29.687  1.00  0.00    -0.000 C 
ATOM      7  C   UNL     1      22.171  28.565  29.303  1.00  0.00     0.005 C 
ATOM      8  C   UNL     1      20.886  28.138  28.589  1.00  0.00     0.005 C 
ATOM      9  C   UNL     1      19.550  28.677  29.191  1.00  0.00     0.002 C 
ATOM     10  C   UNL     1      18.353  27.618  29.315  1.00  0.00    -0.026 C 
ATOM     11  C   UNL     1      18.746  26.273  29.994  1.00  0.00     0.010 C 
ATOM     12  C   UNL     1      17.542  25.318  30.197  1.00  0.00     0.033 C 
ATOM     13  C   UNL     1      16.311  25.947  30.904  1.00  0.00     0.120 C 
ATOM     14  C   UNL     1      15.900  27.376  30.377  1.00  0.00    -0.006 C 
ATOM     15  C   UNL     1      17.205  28.237  30.198  1.00  0.00     0.003 C 
ATOM     16  C   UNL     1      17.065  29.752  29.945  1.00  0.00     0.005 C 
ATOM     17  C   UNL     1      18.303  30.502  30.508  1.00  0.00     0.008 C 
ATOM     18  C   UNL     1      19.709  29.771  30.321  1.00  0.00    -0.024 C 
ATOM     19  C   UNL     1      20.876  30.814  29.886  1.00  0.00    -0.024 C 
ATOM     20  C   UNL     1      20.948  32.063  30.891  1.00  0.00     0.008 C 
ATOM     21  C   UNL     1      22.062  32.126  31.966  1.00  0.00     0.010 C 
ATOM     22  C   UNL     1      20.542  31.439  28.477  1.00  0.00     0.012 C 
ATOM     23  C   UNL     1      20.082  29.105  31.688  1.00  0.00     0.012 C 
ATOM     24  C   UNL     1      15.058  27.258  29.079  1.00  0.00     0.014 C 
ATOM     25  C   UNL     1      14.968  28.032  31.440  1.00  0.00     0.014 C 
ATOM     26  C   UNL     1      17.902  27.323  27.844  1.00  0.00     0.012 C 
ENDROOT
BRANCH   1  27
ATOM     27  C   UNL     1      25.347  29.230  29.681  1.00  0.00    -0.077 C 
ATOM     28  C   UNL     1      25.775  30.331  28.738  1.00  0.00     0.039 C 
ATOM     29  C   UNL     1      25.715  27.967  29.393  1.00  0.00     0.008 C 
ENDBRANCH   1  27
BRANCH   4  30
ATOM     30  C   UNL     1      24.049  32.704  30.478  1.00  0.00     0.163 C 
BRANCH  30  31
ATOM     31  O   UNL     1      24.707  33.735  31.151  1.00  0.00    -0.396 OA
ATOM     32  H   UNL     1      24.338  33.750  32.071  1.00  0.00     0.210 HD
ENDBRANCH  30  31
ENDBRANCH   4  30
BRANCH  13  33
ATOM     33  O   UNL     1      16.506  25.933  32.301  1.00  0.00    -0.393 OA
ATOM     34  H   UNL     1      16.378  25.005  32.627  1.00  0.00     0.210 HD
ENDBRANCH  13  33
TORSDOF 4
ENDMDL
