MODEL 1
REMARK VINA RESULT:    -3.468      0.000      0.000
REMARK INTER + INTRA:          -4.947
REMARK INTER:                  -4.381
REMARK INTRA:                  -0.566
REMARK UNBOUND:                -0.566
REMARK SMILES CC(C)=CCCC(C)=CCO
REMARK SMILES IDX 7 1 9 2 8 3 6 4 5 5 4 6 1 7 2 8 3 9 10 10 11 11
REMARK H PARENT 11 12
REMARK Flexibility Score: inf
ROOT
ATOM      1  C   UNL     1      12.001  36.727  67.268  1.00  0.00    -0.075 C 
ATOM      2  C   UNL     1      13.199  37.063  67.793  1.00  0.00    -0.000 C 
ATOM      3  C   UNL     1      11.206  35.555  67.793  1.00  0.00     0.039 C 
ENDROOT
BRANCH   1   4
ATOM      4  C   UNL     1      11.444  37.540  66.115  1.00  0.00     0.034 C 
BRANCH   4   5
ATOM      5  C   UNL     1      10.477  38.630  66.599  1.00  0.00     0.032 C 
BRANCH   5   6
ATOM      6  C   UNL     1      11.070  40.011  66.449  1.00  0.00    -0.028 C 
ATOM      7  C   UNL     1      12.174  42.091  67.148  1.00  0.00     0.039 C 
ATOM      8  C   UNL     1      11.569  40.748  67.465  1.00  0.00    -0.080 C 
ATOM      9  C   UNL     1      11.518  40.274  68.898  1.00  0.00     0.039 C 
ENDBRANCH   5   6
ENDBRANCH   4   5
ENDBRANCH   1   4
BRANCH   2  10
ATOM     10  C   UNL     1      13.847  36.332  68.936  1.00  0.00     0.183 C 
BRANCH  10  11
ATOM     11  O   UNL     1      14.633  35.282  68.445  1.00  0.00    -0.392 OA
ATOM     12  H   UNL     1      14.722  34.633  69.190  1.00  0.00     0.210 HD
ENDBRANCH  10  11
ENDBRANCH   2  10
TORSDOF 5
ENDMDL
MODEL 2
REMARK VINA RESULT:    -3.409      3.364      5.692
REMARK INTER + INTRA:          -4.872
REMARK INTER:                  -4.461
REMARK INTRA:                  -0.411
REMARK UNBOUND:                -0.566
REMARK SMILES CC(C)=CCCC(C)=CCO
REMARK SMILES IDX 7 1 9 2 8 3 6 4 5 5 4 6 1 7 2 8 3 9 10 10 11 11
REMARK H PARENT 11 12
REMARK Flexibility Score: inf
ROOT
ATOM      1  C   UNL     1      10.855  41.286  67.138  1.00  0.00    -0.075 C 
ATOM      2  C   UNL     1      10.407  42.430  66.577  1.00  0.00    -0.000 C 
ATOM      3  C   UNL     1      11.763  41.299  68.345  1.00  0.00     0.039 C 
ENDROOT
BRANCH   1   4
ATOM      4  C   UNL     1      10.444  39.956  66.536  1.00  0.00     0.034 C 
BRANCH   4   5
ATOM      5  C   UNL     1      11.660  39.123  66.108  1.00  0.00     0.032 C 
BRANCH   5   6
ATOM      6  C   UNL     1      11.404  37.642  66.260  1.00  0.00    -0.028 C 
ATOM      7  C   UNL     1      11.383  35.449  67.366  1.00  0.00     0.039 C 
ATOM      8  C   UNL     1      11.752  36.909  67.341  1.00  0.00    -0.080 C 
ATOM      9  C   UNL     1      12.508  37.507  68.503  1.00  0.00     0.039 C 
ENDBRANCH   5   6
ENDBRANCH   4   5
ENDBRANCH   1   4
BRANCH   2  10
ATOM     10  C   UNL     1      10.746  43.803  67.088  1.00  0.00     0.183 C 
BRANCH  10  11
ATOM     11  O   UNL     1      10.672  44.732  66.043  1.00  0.00    -0.392 OA
ATOM     12  H   UNL     1       9.719  44.761  65.768  1.00  0.00     0.210 HD
ENDBRANCH  10  11
ENDBRANCH   2  10
TORSDOF 5
ENDMDL
MODEL 3
REMARK VINA RESULT:    -3.367      1.605      2.471
REMARK INTER + INTRA:          -4.819
REMARK INTER:                  -4.494
REMARK INTRA:                  -0.326
REMARK UNBOUND:                -0.566
REMARK SMILES CC(C)=CCCC(C)=CCO
REMARK SMILES IDX 7 1 9 2 8 3 6 4 5 5 4 6 1 7 2 8 3 9 10 10 11 11
REMARK H PARENT 11 12
REMARK Flexibility Score: inf
ROOT
ATOM      1  C   UNL     1      10.984  38.574  67.272  1.00  0.00    -0.075 C 
ATOM      2  C   UNL     1      11.747  37.973  68.211  1.00  0.00    -0.000 C 
ATOM      3  C   UNL     1      10.971  38.097  65.839  1.00  0.00     0.039 C 
ENDROOT
BRANCH   1   4
ATOM      4  C   UNL     1      10.128  39.762  67.664  1.00  0.00     0.034 C 
BRANCH   4   5
ATOM      5  C   UNL     1       9.902  40.718  66.484  1.00  0.00     0.032 C 
BRANCH   5   6
ATOM      6  C   UNL     1       9.898  42.162  66.925  1.00  0.00    -0.028 C 
ATOM      7  C   UNL     1      10.836  44.359  67.494  1.00  0.00     0.039 C 
ATOM      8  C   UNL     1      11.006  42.916  67.098  1.00  0.00    -0.080 C 
ATOM      9  C   UNL     1      12.395  42.348  66.924  1.00  0.00     0.039 C 
ENDBRANCH   5   6
ENDBRANCH   4   5
ENDBRANCH   1   4
BRANCH   2  10
ATOM     10  C   UNL     1      12.632  36.787  67.939  1.00  0.00     0.183 C 
BRANCH  10  11
ATOM     11  O   UNL     1      13.850  37.217  67.399  1.00  0.00    -0.392 OA
ATOM     12  H   UNL     1      14.497  36.484  67.563  1.00  0.00     0.210 HD
ENDBRANCH  10  11
ENDBRANCH   2  10
TORSDOF 5
ENDMDL
MODEL 4
REMARK VINA RESULT:    -3.109      3.358      5.741
REMARK INTER + INTRA:          -4.492
REMARK INTER:                  -4.007
REMARK INTRA:                  -0.486
REMARK UNBOUND:                -0.566
REMARK SMILES CC(C)=CCCC(C)=CCO
REMARK SMILES IDX 7 1 9 2 8 3 6 4 5 5 4 6 1 7 2 8 3 9 10 10 11 11
REMARK H PARENT 11 12
REMARK Flexibility Score: inf
ROOT
ATOM      1  C   UNL     1      12.042  41.913  68.258  1.00  0.00    -0.075 C 
ATOM      2  C   UNL     1      11.355  42.190  67.129  1.00  0.00    -0.000 C 
ATOM      3  C   UNL     1      13.153  42.811  68.749  1.00  0.00     0.039 C 
ENDROOT
BRANCH   1   4
ATOM      4  C   UNL     1      11.696  40.666  69.048  1.00  0.00     0.034 C 
BRANCH   4   5
ATOM      5  C   UNL     1      10.572  39.861  68.382  1.00  0.00     0.032 C 
BRANCH   5   6
ATOM      6  C   UNL     1      10.964  38.418  68.173  1.00  0.00    -0.028 C 
ATOM      7  C   UNL     1      11.659  36.417  66.929  1.00  0.00     0.039 C 
ATOM      8  C   UNL     1      11.230  37.860  66.971  1.00  0.00    -0.080 C 
ATOM      9  C   UNL     1      11.089  38.633  65.681  1.00  0.00     0.039 C 
ENDBRANCH   5   6
ENDBRANCH   4   5
ENDBRANCH   1   4
BRANCH   2  10
ATOM     10  C   UNL     1      11.608  43.397  66.268  1.00  0.00     0.183 C 
BRANCH  10  11
ATOM     11  O   UNL     1      10.482  44.228  66.271  1.00  0.00    -0.392 OA
ATOM     12  H   UNL     1       9.777  43.736  66.766  1.00  0.00     0.210 HD
ENDBRANCH  10  11
ENDBRANCH   2  10
TORSDOF 5
ENDMDL
MODEL 5
REMARK VINA RESULT:    -2.917      2.805      5.074
REMARK INTER + INTRA:          -4.251
REMARK INTER:                  -3.693
REMARK INTRA:                  -0.558
REMARK UNBOUND:                -0.566
REMARK SMILES CC(C)=CCCC(C)=CCO
REMARK SMILES IDX 7 1 9 2 8 3 6 4 5 5 4 6 1 7 2 8 3 9 10 10 11 11
REMARK H PARENT 11 12
REMARK Flexibility Score: inf
ROOT
ATOM      1  C   UNL     1      11.092  40.031  66.883  1.00  0.00    -0.075 C 
ATOM      2  C   UNL     1      11.216  41.288  67.360  1.00  0.00    -0.000 C 
ATOM      3  C   UNL     1      12.118  39.432  65.950  1.00  0.00     0.039 C 
ENDROOT
BRANCH   1   4
ATOM      4  C   UNL     1       9.887  39.202  67.285  1.00  0.00     0.034 C 
BRANCH   4   5
ATOM      5  C   UNL     1      10.210  38.250  68.445  1.00  0.00     0.032 C 
BRANCH   5   6
ATOM      6  C   UNL     1      10.300  36.815  67.982  1.00  0.00    -0.028 C 
ATOM      7  C   UNL     1      11.354  34.642  67.532  1.00  0.00     0.039 C 
ATOM      8  C   UNL     1      11.434  36.079  67.977  1.00  0.00    -0.080 C 
ATOM      9  C   UNL     1      12.767  36.661  68.382  1.00  0.00     0.039 C 
ENDBRANCH   5   6
ENDBRANCH   4   5
ENDBRANCH   1   4
BRANCH   2  10
ATOM     10  C   UNL     1      12.367  42.199  67.032  1.00  0.00     0.183 C 
BRANCH  10  11
ATOM     11  O   UNL     1      12.015  43.050  65.977  1.00  0.00    -0.392 OA
ATOM     12  H   UNL     1      12.283  43.962  66.258  1.00  0.00     0.210 HD
ENDBRANCH  10  11
ENDBRANCH   2  10
TORSDOF 5
ENDMDL
MODEL 6
REMARK VINA RESULT:    -2.691      1.580      2.165
REMARK INTER + INTRA:          -3.965
REMARK INTER:                  -3.665
REMARK INTRA:                  -0.300
REMARK UNBOUND:                -0.566
REMARK SMILES CC(C)=CCCC(C)=CCO
REMARK SMILES IDX 7 1 9 2 8 3 6 4 5 5 4 6 1 7 2 8 3 9 10 10 11 11
REMARK H PARENT 11 12
REMARK Flexibility Score: inf
ROOT
ATOM      1  C   UNL     1      12.138  37.122  68.167  1.00  0.00    -0.075 C 
ATOM      2  C   UNL     1      11.264  36.092  68.221  1.00  0.00    -0.000 C 
ATOM      3  C   UNL     1      13.622  36.894  68.008  1.00  0.00     0.039 C 
ENDROOT
BRANCH   1   4
ATOM      4  C   UNL     1      11.616  38.542  68.279  1.00  0.00     0.034 C 
BRANCH   4   5
ATOM      5  C   UNL     1      11.181  39.100  66.916  1.00  0.00     0.032 C 
BRANCH   5   6
ATOM      6  C   UNL     1      11.819  40.438  66.631  1.00  0.00    -0.028 C 
ATOM      7  C   UNL     1      12.052  42.884  66.636  1.00  0.00     0.039 C 
ATOM      8  C   UNL     1      11.269  41.634  66.940  1.00  0.00    -0.080 C 
ATOM      9  C   UNL     1       9.895  41.746  67.558  1.00  0.00     0.039 C 
ENDBRANCH   5   6
ENDBRANCH   4   5
ENDBRANCH   1   4
BRANCH   2  10
ATOM     10  C   UNL     1      11.666  34.647  68.118  1.00  0.00     0.183 C 
BRANCH  10  11
ATOM     11  O   UNL     1      11.476  34.192  66.808  1.00  0.00    -0.392 OA
ATOM     12  H   UNL     1      10.729  34.728  66.436  1.00  0.00     0.210 HD
ENDBRANCH  10  11
ENDBRANCH   2  10
TORSDOF 5
ENDMDL
MODEL 7
REMARK VINA RESULT:    -2.448      2.706      5.138
REMARK INTER + INTRA:          -3.658
REMARK INTER:                  -3.367
REMARK INTRA:                  -0.291
REMARK UNBOUND:                -0.566
REMARK SMILES CC(C)=CCCC(C)=CCO
REMARK SMILES IDX 7 1 9 2 8 3 6 4 5 5 4 6 1 7 2 8 3 9 10 10 11 11
REMARK H PARENT 11 12
REMARK Flexibility Score: inf
ROOT
ATOM      1  C   UNL     1      11.415  42.333  67.463  1.00  0.00    -0.075 C 
ATOM      2  C   UNL     1      11.768  42.604  68.739  1.00  0.00    -0.000 C 
ATOM      3  C   UNL     1      12.280  42.748  66.297  1.00  0.00     0.039 C 
ENDROOT
BRANCH   1   4
ATOM      4  C   UNL     1      10.113  41.603  67.195  1.00  0.00     0.034 C 
BRANCH   4   5
ATOM      5  C   UNL     1       9.971  40.349  68.068  1.00  0.00     0.032 C 
BRANCH   5   6
ATOM      6  C   UNL     1      11.089  39.364  67.820  1.00  0.00    -0.028 C 
ATOM      7  C   UNL     1      12.351  37.621  66.637  1.00  0.00     0.039 C 
ATOM      8  C   UNL     1      11.142  38.509  66.776  1.00  0.00    -0.080 C 
ATOM      9  C   UNL     1      10.024  38.408  65.766  1.00  0.00     0.039 C 
ENDBRANCH   5   6
ENDBRANCH   4   5
ENDBRANCH   1   4
BRANCH   2  10
ATOM     10  C   UNL     1      13.034  43.319  69.124  1.00  0.00     0.183 C 
BRANCH  10  11
ATOM     11  O   UNL     1      14.107  42.419  69.125  1.00  0.00    -0.392 OA
ATOM     12  H   UNL     1      14.924  42.966  69.252  1.00  0.00     0.210 HD
ENDBRANCH  10  11
ENDBRANCH   2  10
TORSDOF 5
ENDMDL
MODEL 8
REMARK VINA RESULT:    -2.254      2.224      3.518
REMARK INTER + INTRA:          -3.413
REMARK INTER:                  -3.011
REMARK INTRA:                  -0.403
REMARK UNBOUND:                -0.566
REMARK SMILES CC(C)=CCCC(C)=CCO
REMARK SMILES IDX 7 1 9 2 8 3 6 4 5 5 4 6 1 7 2 8 3 9 10 10 11 11
REMARK H PARENT 11 12
REMARK Flexibility Score: inf
ROOT
ATOM      1  C   UNL     1      11.323  38.740  68.004  1.00  0.00    -0.075 C 
ATOM      2  C   UNL     1      10.472  38.853  66.961  1.00  0.00    -0.000 C 
ATOM      3  C   UNL     1      12.256  37.560  68.141  1.00  0.00     0.039 C 
ENDROOT
BRANCH   1   4
ATOM      4  C   UNL     1      11.334  39.818  69.070  1.00  0.00     0.034 C 
BRANCH   4   5
ATOM      5  C   UNL     1      10.233  40.863  68.838  1.00  0.00     0.032 C 
BRANCH   5   6
ATOM      6  C   UNL     1      10.723  42.264  69.117  1.00  0.00    -0.028 C 
ATOM      7  C   UNL     1      11.758  44.439  68.638  1.00  0.00     0.039 C 
ATOM      8  C   UNL     1      11.377  43.041  68.226  1.00  0.00    -0.080 C 
ATOM      9  C   UNL     1      11.748  42.543  66.849  1.00  0.00     0.039 C 
ENDBRANCH   5   6
ENDBRANCH   4   5
ENDBRANCH   1   4
BRANCH   2  10
ATOM     10  C   UNL     1      10.376  37.848  65.846  1.00  0.00     0.183 C 
BRANCH  10  11
ATOM     11  O   UNL     1      11.375  38.093  64.897  1.00  0.00    -0.392 OA
ATOM     12  H   UNL     1      12.055  37.381  65.023  1.00  0.00     0.210 HD
ENDBRANCH  10  11
ENDBRANCH   2  10
TORSDOF 5
ENDMDL
MODEL 9
REMARK VINA RESULT:    -1.292      1.716      2.996
REMARK INTER + INTRA:          -2.197
REMARK INTER:                  -1.905
REMARK INTRA:                  -0.293
REMARK UNBOUND:                -0.566
REMARK SMILES CC(C)=CCCC(C)=CCO
REMARK SMILES IDX 7 1 9 2 8 3 6 4 5 5 4 6 1 7 2 8 3 9 10 10 11 11
REMARK H PARENT 11 12
REMARK Flexibility Score: inf
ROOT
ATOM      1  C   UNL     1      11.293  38.936  66.796  1.00  0.00    -0.075 C 
ATOM      2  C   UNL     1      11.920  38.275  67.793  1.00  0.00    -0.000 C 
ATOM      3  C   UNL     1      11.104  38.317  65.431  1.00  0.00     0.039 C 
ENDROOT
BRANCH   1   4
ATOM      4  C   UNL     1      10.774  40.339  67.049  1.00  0.00     0.034 C 
BRANCH   4   5
ATOM      5  C   UNL     1      11.872  41.396  66.868  1.00  0.00     0.032 C 
BRANCH   5   6
ATOM      6  C   UNL     1      11.875  42.399  67.997  1.00  0.00    -0.028 C 
ATOM      7  C   UNL     1      11.459  44.540  69.125  1.00  0.00     0.039 C 
ATOM      8  C   UNL     1      11.439  43.674  67.893  1.00  0.00    -0.080 C 
ATOM      9  C   UNL     1      10.956  44.251  66.583  1.00  0.00     0.039 C 
ENDBRANCH   5   6
ENDBRANCH   4   5
ENDBRANCH   1   4
BRANCH   2  10
ATOM     10  C   UNL     1      12.472  36.883  67.658  1.00  0.00     0.183 C 
BRANCH  10  11
ATOM     11  O   UNL     1      13.822  36.940  67.291  1.00  0.00    -0.392 OA
ATOM     12  H   UNL     1      13.876  37.591  66.545  1.00  0.00     0.210 HD
ENDBRANCH  10  11
ENDBRANCH   2  10
TORSDOF 5
ENDMDL
