MODEL 1
REMARK VINA RESULT:    -4.350      0.000      0.000
REMARK INTER + INTRA:          -6.883
REMARK INTER:                  -5.875
REMARK INTRA:                  -1.008
REMARK UNBOUND:                -1.008
REMARK SMILES CC(=O)CCC=C(C)CCC=C(C)C
REMARK SMILES IDX 7 1 6 2 8 3 9 4 10 5 11 6 13 7 12 8 14 9 5 10 4 11 2 12 3 13
REMARK SMILES IDX 1 14
REMARK H PARENT
REMARK Flexibility Score: inf
ROOT
ATOM      1  C   UNL     1     130.620 139.474 115.478  1.00  0.00    -0.077 C 
ATOM      2  C   UNL     1     131.141 140.642 115.039  1.00  0.00    -0.028 C 
ATOM      3  C   UNL     1     129.803 139.392 116.747  1.00  0.00     0.039 C 
ENDROOT
BRANCH   1   4
ATOM      4  C   UNL     1     130.886 138.210 114.688  1.00  0.00     0.034 C 
BRANCH   4   5
ATOM      5  C   UNL     1     129.804 137.160 114.961  1.00  0.00     0.032 C 
BRANCH   5   6
ATOM      6  C   UNL     1     128.994 136.867 113.722  1.00  0.00    -0.028 C 
ATOM      7  C   UNL     1     127.110 138.302 114.514  1.00  0.00     0.039 C 
ATOM      8  C   UNL     1     127.764 137.385 113.511  1.00  0.00    -0.080 C 
ATOM      9  C   UNL     1     127.009 137.053 112.250  1.00  0.00     0.039 C 
ENDBRANCH   5   6
ENDBRANCH   4   5
ENDBRANCH   1   4
BRANCH   2  10
ATOM     10  C   UNL     1     130.897 141.986 115.684  1.00  0.00     0.035 C 
BRANCH  10  11
ATOM     11  C   UNL     1     130.232 142.971 114.712  1.00  0.00     0.079 C 
BRANCH  11  12
ATOM     12  C   UNL     1     128.762 143.134 114.997  1.00  0.00     0.130 C 
ATOM     13  O   UNL     1     128.348 144.181 115.472  1.00  0.00    -0.300 OA
ATOM     14  C   UNL     1     127.808 142.010 114.727  1.00  0.00     0.087 C 
ENDBRANCH  11  12
ENDBRANCH  10  11
ENDBRANCH   2  10
TORSDOF 6
ENDMDL
MODEL 2
REMARK VINA RESULT:    -4.283      0.977      1.194
REMARK INTER + INTRA:          -6.793
REMARK INTER:                  -6.089
REMARK INTRA:                  -0.704
REMARK UNBOUND:                -1.008
REMARK SMILES CC(=O)CCC=C(C)CCC=C(C)C
REMARK SMILES IDX 7 1 6 2 8 3 9 4 10 5 11 6 13 7 12 8 14 9 5 10 4 11 2 12 3 13
REMARK SMILES IDX 1 14
REMARK H PARENT
REMARK Flexibility Score: inf
ROOT
ATOM      1  C   UNL     1     131.655 139.454 115.199  1.00  0.00    -0.077 C 
ATOM      2  C   UNL     1     130.922 140.568 114.974  1.00  0.00    -0.028 C 
ATOM      3  C   UNL     1     132.812 139.444 116.171  1.00  0.00     0.039 C 
ENDROOT
BRANCH   1   4
ATOM      4  C   UNL     1     131.321 138.190 114.435  1.00  0.00     0.034 C 
BRANCH   4   5
ATOM      5  C   UNL     1     130.141 137.458 115.084  1.00  0.00     0.032 C 
BRANCH   5   6
ATOM      6  C   UNL     1     129.232 136.846 114.046  1.00  0.00    -0.028 C 
ATOM      7  C   UNL     1     127.526 138.644 114.361  1.00  0.00     0.039 C 
ATOM      8  C   UNL     1     128.038 137.382 113.711  1.00  0.00    -0.080 C 
ATOM      9  C   UNL     1     127.179 136.721 112.664  1.00  0.00     0.039 C 
ENDBRANCH   5   6
ENDBRANCH   4   5
ENDBRANCH   1   4
BRANCH   2  10
ATOM     10  C   UNL     1     131.096 141.873 115.714  1.00  0.00     0.035 C 
BRANCH  10  11
ATOM     11  C   UNL     1     130.364 143.026 115.014  1.00  0.00     0.079 C 
BRANCH  11  12
ATOM     12  C   UNL     1     129.026 143.307 115.645  1.00  0.00     0.130 C 
ATOM     13  O   UNL     1     128.174 143.916 115.016  1.00  0.00    -0.300 OA
ATOM     14  C   UNL     1     128.743 142.869 117.050  1.00  0.00     0.087 C 
ENDBRANCH  11  12
ENDBRANCH  10  11
ENDBRANCH   2  10
TORSDOF 6
ENDMDL
MODEL 3
REMARK VINA RESULT:    -4.108      2.249      3.258
REMARK INTER + INTRA:          -6.557
REMARK INTER:                  -5.552
REMARK INTRA:                  -1.005
REMARK UNBOUND:                -1.008
REMARK SMILES CC(=O)CCC=C(C)CCC=C(C)C
REMARK SMILES IDX 7 1 6 2 8 3 9 4 10 5 11 6 13 7 12 8 14 9 5 10 4 11 2 12 3 13
REMARK SMILES IDX 1 14
REMARK H PARENT
REMARK Flexibility Score: inf
ROOT
ATOM      1  C   UNL     1     129.834 137.443 114.830  1.00  0.00    -0.077 C 
ATOM      2  C   UNL     1     130.847 138.143 114.272  1.00  0.00    -0.028 C 
ATOM      3  C   UNL     1     129.676 137.327 116.329  1.00  0.00     0.039 C 
ENDROOT
BRANCH   1   4
ATOM      4  C   UNL     1     128.846 136.735 113.926  1.00  0.00     0.034 C 
BRANCH   4   5
ATOM      5  C   UNL     1     127.409 137.151 114.260  1.00  0.00     0.032 C 
BRANCH   5   6
ATOM      6  C   UNL     1     126.981 138.354 113.454  1.00  0.00    -0.028 C 
ATOM      7  C   UNL     1     127.131 139.847 115.450  1.00  0.00     0.039 C 
ATOM      8  C   UNL     1     126.853 139.586 113.990  1.00  0.00    -0.080 C 
ATOM      9  C   UNL     1     126.423 140.745 113.128  1.00  0.00     0.039 C 
ENDBRANCH   5   6
ENDBRANCH   4   5
ENDBRANCH   1   4
BRANCH   2  10
ATOM     10  C   UNL     1     131.858 138.955 115.046  1.00  0.00     0.035 C 
BRANCH  10  11
ATOM     11  C   UNL     1     131.405 140.411 115.220  1.00  0.00     0.079 C 
BRANCH  11  12
ATOM     12  C   UNL     1     131.693 140.926 116.606  1.00  0.00     0.130 C 
ATOM     13  O   UNL     1     131.389 140.253 117.579  1.00  0.00    -0.300 OA
ATOM     14  C   UNL     1     132.324 142.272 116.799  1.00  0.00     0.087 C 
ENDBRANCH  11  12
ENDBRANCH  10  11
ENDBRANCH   2  10
TORSDOF 6
ENDMDL
MODEL 4
REMARK VINA RESULT:    -4.104      2.229      4.408
REMARK INTER + INTRA:          -6.552
REMARK INTER:                  -5.315
REMARK INTRA:                  -1.237
REMARK UNBOUND:                -1.008
REMARK SMILES CC(=O)CCC=C(C)CCC=C(C)C
REMARK SMILES IDX 7 1 6 2 8 3 9 4 10 5 11 6 13 7 12 8 14 9 5 10 4 11 2 12 3 13
REMARK SMILES IDX 1 14
REMARK H PARENT
REMARK Flexibility Score: inf
ROOT
ATOM      1  C   UNL     1     130.800 141.723 115.817  1.00  0.00    -0.077 C 
ATOM      2  C   UNL     1     131.164 140.747 114.955  1.00  0.00    -0.028 C 
ATOM      3  C   UNL     1     130.942 141.558 117.313  1.00  0.00     0.039 C 
ENDROOT
BRANCH   1   4
ATOM      4  C   UNL     1     130.211 143.004 115.267  1.00  0.00     0.034 C 
BRANCH   4   5
ATOM      5  C   UNL     1     128.704 143.071 115.541  1.00  0.00     0.032 C 
BRANCH   5   6
ATOM      6  C   UNL     1     127.916 142.367 114.463  1.00  0.00    -0.028 C 
ATOM      7  C   UNL     1     127.490 140.401 115.944  1.00  0.00     0.039 C 
ATOM      8  C   UNL     1     127.359 141.149 114.640  1.00  0.00    -0.080 C 
ATOM      9  C   UNL     1     126.582 140.503 113.522  1.00  0.00     0.039 C 
ENDBRANCH   5   6
ENDBRANCH   4   5
ENDBRANCH   1   4
BRANCH   2  10
ATOM     10  C   UNL     1     131.830 139.452 115.356  1.00  0.00     0.035 C 
BRANCH  10  11
ATOM     11  C   UNL     1     131.340 138.272 114.505  1.00  0.00     0.079 C 
BRANCH  11  12
ATOM     12  C   UNL     1     130.039 137.713 115.017  1.00  0.00     0.130 C 
ATOM     13  O   UNL     1     129.883 137.538 116.216  1.00  0.00    -0.300 OA
ATOM     14  C   UNL     1     128.944 137.343 114.062  1.00  0.00     0.087 C 
ENDBRANCH  11  12
ENDBRANCH  10  11
ENDBRANCH   2  10
TORSDOF 6
ENDMDL
MODEL 5
REMARK VINA RESULT:    -4.024      3.304      6.257
REMARK INTER + INTRA:          -6.443
REMARK INTER:                  -5.844
REMARK INTRA:                  -0.599
REMARK UNBOUND:                -1.008
REMARK SMILES CC(=O)CCC=C(C)CCC=C(C)C
REMARK SMILES IDX 7 1 6 2 8 3 9 4 10 5 11 6 13 7 12 8 14 9 5 10 4 11 2 12 3 13
REMARK SMILES IDX 1 14
REMARK H PARENT
REMARK Flexibility Score: inf
ROOT
ATOM      1  C   UNL     1     130.528 138.844 115.114  1.00  0.00    -0.077 C 
ATOM      2  C   UNL     1     130.267 137.628 114.585  1.00  0.00    -0.028 C 
ATOM      3  C   UNL     1     129.446 139.683 115.754  1.00  0.00     0.039 C 
ENDROOT
BRANCH   1   4
ATOM      4  C   UNL     1     131.938 139.390 115.039  1.00  0.00     0.034 C 
BRANCH   4   5
ATOM      5  C   UNL     1     132.654 139.233 116.386  1.00  0.00     0.032 C 
BRANCH   5   6
ATOM      6  C   UNL     1     133.218 140.547 116.868  1.00  0.00    -0.028 C 
ATOM      7  C   UNL     1     135.559 139.801 116.422  1.00  0.00     0.039 C 
ATOM      8  C   UNL     1     134.542 140.813 116.887  1.00  0.00    -0.080 C 
ATOM      9  C   UNL     1     135.038 142.148 117.380  1.00  0.00     0.039 C 
ENDBRANCH   5   6
ENDBRANCH   4   5
ENDBRANCH   1   4
BRANCH   2  10
ATOM     10  C   UNL     1     128.929 136.931 114.653  1.00  0.00     0.035 C 
BRANCH  10  11
ATOM     11  C   UNL     1     128.498 136.391 113.282  1.00  0.00     0.079 C 
BRANCH  11  12
ATOM     12  C   UNL     1     127.220 137.028 112.805  1.00  0.00     0.130 C 
ATOM     13  O   UNL     1     126.523 136.450 111.984  1.00  0.00    -0.300 OA
ATOM     14  C   UNL     1     126.812 138.379 113.308  1.00  0.00     0.087 C 
ENDBRANCH  11  12
ENDBRANCH  10  11
ENDBRANCH   2  10
TORSDOF 6
ENDMDL
MODEL 6
REMARK VINA RESULT:    -3.992     15.966     17.706
REMARK INTER + INTRA:          -6.400
REMARK INTER:                  -5.589
REMARK INTRA:                  -0.811
REMARK UNBOUND:                -1.008
REMARK SMILES CC(=O)CCC=C(C)CCC=C(C)C
REMARK SMILES IDX 7 1 6 2 8 3 9 4 10 5 11 6 13 7 12 8 14 9 5 10 4 11 2 12 3 13
REMARK SMILES IDX 1 14
REMARK H PARENT
REMARK Flexibility Score: inf
ROOT
ATOM      1  C   UNL     1     143.941 134.590 121.660  1.00  0.00    -0.077 C 
ATOM      2  C   UNL     1     142.789 134.182 122.240  1.00  0.00    -0.028 C 
ATOM      3  C   UNL     1     144.086 135.971 121.064  1.00  0.00     0.039 C 
ENDROOT
BRANCH   1   4
ATOM      4  C   UNL     1     145.106 133.626 121.584  1.00  0.00     0.034 C 
BRANCH   4   5
ATOM      5  C   UNL     1     145.803 133.508 122.944  1.00  0.00     0.032 C 
BRANCH   5   6
ATOM      6  C   UNL     1     145.782 132.087 123.454  1.00  0.00    -0.028 C 
ATOM      7  C   UNL     1     144.133 132.665 125.238  1.00  0.00     0.039 C 
ATOM      8  C   UNL     1     145.022 131.696 124.499  1.00  0.00    -0.080 C 
ATOM      9  C   UNL     1     145.047 130.260 124.957  1.00  0.00     0.039 C 
ENDBRANCH   5   6
ENDBRANCH   4   5
ENDBRANCH   1   4
BRANCH   2  10
ATOM     10  C   UNL     1     141.576 135.057 122.449  1.00  0.00     0.035 C 
BRANCH  10  11
ATOM     11  C   UNL     1     140.851 134.720 123.759  1.00  0.00     0.079 C 
BRANCH  11  12
ATOM     12  C   UNL     1     139.404 134.372 123.526  1.00  0.00     0.130 C 
ATOM     13  O   UNL     1     138.534 135.194 123.771  1.00  0.00    -0.300 OA
ATOM     14  C   UNL     1     139.023 133.012 123.022  1.00  0.00     0.087 C 
ENDBRANCH  11  12
ENDBRANCH  10  11
ENDBRANCH   2  10
TORSDOF 6
ENDMDL
MODEL 7
REMARK VINA RESULT:    -3.990      2.196      5.521
REMARK INTER + INTRA:          -6.397
REMARK INTER:                  -5.123
REMARK INTRA:                  -1.274
REMARK UNBOUND:                -1.008
REMARK SMILES CC(=O)CCC=C(C)CCC=C(C)C
REMARK SMILES IDX 7 1 6 2 8 3 9 4 10 5 11 6 13 7 12 8 14 9 5 10 4 11 2 12 3 13
REMARK SMILES IDX 1 14
REMARK H PARENT
REMARK Flexibility Score: inf
ROOT
ATOM      1  C   UNL     1     126.585 139.382 114.321  1.00  0.00    -0.077 C 
ATOM      2  C   UNL     1     127.102 138.459 113.478  1.00  0.00    -0.028 C 
ATOM      3  C   UNL     1     126.121 139.019 115.713  1.00  0.00     0.039 C 
ENDROOT
BRANCH   1   4
ATOM      4  C   UNL     1     126.444 140.812 113.845  1.00  0.00     0.034 C 
BRANCH   4   5
ATOM      5  C   UNL     1     126.928 141.793 114.919  1.00  0.00     0.032 C 
BRANCH   5   6
ATOM      6  C   UNL     1     128.354 142.222 114.673  1.00  0.00    -0.028 C 
ATOM      7  C   UNL     1     129.193 140.794 116.543  1.00  0.00     0.039 C 
ATOM      8  C   UNL     1     129.392 141.770 115.410  1.00  0.00    -0.080 C 
ATOM      9  C   UNL     1     130.793 142.239 115.110  1.00  0.00     0.039 C 
ENDBRANCH   5   6
ENDBRANCH   4   5
ENDBRANCH   1   4
BRANCH   2  10
ATOM     10  C   UNL     1     127.366 137.017 113.843  1.00  0.00     0.035 C 
BRANCH  10  11
ATOM     11  C   UNL     1     128.855 136.662 113.718  1.00  0.00     0.079 C 
BRANCH  11  12
ATOM     12  C   UNL     1     129.672 137.274 114.826  1.00  0.00     0.130 C 
ATOM     13  O   UNL     1     129.328 137.124 115.988  1.00  0.00    -0.300 OA
ATOM     14  C   UNL     1     130.889 138.089 114.508  1.00  0.00     0.087 C 
ENDBRANCH  11  12
ENDBRANCH  10  11
ENDBRANCH   2  10
TORSDOF 6
ENDMDL
MODEL 8
REMARK VINA RESULT:    -3.988     12.759     14.504
REMARK INTER + INTRA:          -6.395
REMARK INTER:                  -5.003
REMARK INTRA:                  -1.391
REMARK UNBOUND:                -1.008
REMARK SMILES CC(=O)CCC=C(C)CCC=C(C)C
REMARK SMILES IDX 7 1 6 2 8 3 9 4 10 5 11 6 13 7 12 8 14 9 5 10 4 11 2 12 3 13
REMARK SMILES IDX 1 14
REMARK H PARENT
REMARK Flexibility Score: inf
ROOT
ATOM      1  C   UNL     1     139.184 134.432 122.970  1.00  0.00    -0.077 C 
ATOM      2  C   UNL     1     138.621 134.525 121.744  1.00  0.00    -0.028 C 
ATOM      3  C   UNL     1     138.945 135.475 124.038  1.00  0.00     0.039 C 
ENDROOT
BRANCH   1   4
ATOM      4  C   UNL     1     140.098 133.264 123.271  1.00  0.00     0.034 C 
BRANCH   4   5
ATOM      5  C   UNL     1     141.498 133.755 123.660  1.00  0.00     0.032 C 
BRANCH   5   6
ATOM      6  C   UNL     1     142.239 134.310 122.469  1.00  0.00    -0.028 C 
ATOM      7  C   UNL     1     142.475 136.547 123.554  1.00  0.00     0.039 C 
ATOM      8  C   UNL     1     142.688 135.582 122.414  1.00  0.00    -0.080 C 
ATOM      9  C   UNL     1     143.424 136.073 121.194  1.00  0.00     0.039 C 
ENDBRANCH   5   6
ENDBRANCH   4   5
ENDBRANCH   1   4
BRANCH   2  10
ATOM     10  C   UNL     1     137.635 135.592 121.331  1.00  0.00     0.035 C 
BRANCH  10  11
ATOM     11  C   UNL     1     138.091 136.328 120.064  1.00  0.00     0.079 C 
BRANCH  11  12
ATOM     12  C   UNL     1     139.489 136.869 120.200  1.00  0.00     0.130 C 
ATOM     13  O   UNL     1     140.374 136.459 119.464  1.00  0.00    -0.300 OA
ATOM     14  C   UNL     1     139.809 137.886 121.254  1.00  0.00     0.087 C 
ENDBRANCH  11  12
ENDBRANCH  10  11
ENDBRANCH   2  10
TORSDOF 6
ENDMDL
MODEL 9
REMARK VINA RESULT:    -3.980      1.788      3.654
REMARK INTER + INTRA:          -6.383
REMARK INTER:                  -4.978
REMARK INTRA:                  -1.406
REMARK UNBOUND:                -1.008
REMARK SMILES CC(=O)CCC=C(C)CCC=C(C)C
REMARK SMILES IDX 7 1 6 2 8 3 9 4 10 5 11 6 13 7 12 8 14 9 5 10 4 11 2 12 3 13
REMARK SMILES IDX 1 14
REMARK H PARENT
REMARK Flexibility Score: inf
ROOT
ATOM      1  C   UNL     1     126.508 138.106 114.049  1.00  0.00    -0.077 C 
ATOM      2  C   UNL     1     126.678 139.325 113.487  1.00  0.00    -0.028 C 
ATOM      3  C   UNL     1     125.875 137.938 115.411  1.00  0.00     0.039 C 
ENDROOT
BRANCH   1   4
ATOM      4  C   UNL     1     126.989 136.881 113.301  1.00  0.00     0.034 C 
BRANCH   4   5
ATOM      5  C   UNL     1     128.154 136.215 114.042  1.00  0.00     0.032 C 
BRANCH   5   6
ATOM      6  C   UNL     1     129.442 136.978 113.844  1.00  0.00    -0.028 C 
ATOM      7  C   UNL     1     129.519 137.632 116.253  1.00  0.00     0.039 C 
ATOM      8  C   UNL     1     130.070 137.627 114.849  1.00  0.00    -0.080 C 
ATOM      9  C   UNL     1     131.354 138.369 114.583  1.00  0.00     0.039 C 
ENDBRANCH   5   6
ENDBRANCH   4   5
ENDBRANCH   1   4
BRANCH   2  10
ATOM     10  C   UNL     1     126.183 140.621 114.083  1.00  0.00     0.035 C 
BRANCH  10  11
ATOM     11  C   UNL     1     127.322 141.633 114.270  1.00  0.00     0.079 C 
BRANCH  11  12
ATOM     12  C   UNL     1     128.233 141.249 115.406  1.00  0.00     0.130 C 
ATOM     13  O   UNL     1     129.441 141.197 115.225  1.00  0.00    -0.300 OA
ATOM     14  C   UNL     1     127.666 140.901 116.749  1.00  0.00     0.087 C 
ENDBRANCH  11  12
ENDBRANCH  10  11
ENDBRANCH   2  10
TORSDOF 6
ENDMDL
