MODEL 1
REMARK VINA RESULT:    -4.325      0.000      0.000
REMARK INTER + INTRA:          -7.043
REMARK INTER:                  -6.600
REMARK INTRA:                  -0.443
REMARK UNBOUND:                -0.443
REMARK SMILES CC1=CCC[C@@H](C)C(=O)C[C@@H](C(C)C)C(=O)C1
REMARK SMILES IDX 8 1 9 2 6 3 7 4 5 5 4 6 3 7 2 8 1 9 10 11 11 12 15 13 16 14
REMARK SMILES IDX 17 15 12 17 13 18 14 19
REMARK H PARENT
REMARK Flexibility Score: 70.00
ROOT
ATOM      1  C   UNL     1     211.980 155.189 183.293  1.00  0.00     0.136 C 
ATOM      2  O   UNL     1     211.307 156.210 183.244  1.00  0.00    -0.299 OA
ENDROOT
BRANCH   1   3
ATOM      3  C   UNL     1     211.348 153.909 183.847  1.00  0.00     0.053 C 
ATOM      4  C   UNL     1     212.327 153.118 184.733  1.00  0.00     0.016 C 
BRANCH   3   5
ATOM      5  C   UNL     1     210.798 152.986 182.722  1.00  0.00     0.015 C 
BRANCH   5   6
ATOM      6  C   UNL     1     211.498 151.620 182.558  1.00  0.00     0.028 C 
BRANCH   6   7
ATOM      7  C   UNL     1     212.111 151.280 181.215  1.00  0.00    -0.028 C 
ATOM      8  C   UNL     1     213.363 151.568 180.779  1.00  0.00    -0.070 CG0
ATOM      9  C   UNL     1     213.798 150.962 179.466  1.00  0.00     0.039 C 
ATOM     10  G   UNL     1     214.313 152.539 181.461  1.00  0.00     0.000 G0
ENDBRANCH   6   7
ENDBRANCH   5   6
ENDBRANCH   3   5
ENDBRANCH   1   3
BRANCH   1  11
ATOM     11  C   UNL     1     213.385 155.243 182.703  1.00  0.00     0.087 C 
BRANCH  11  12
ATOM     12  C   UNL     1     213.453 155.061 181.164  1.00  0.00     0.066 C 
BRANCH  12  13
ATOM     13  C   UNL     1     214.350 153.902 180.759  1.00  0.00     0.140 C 
ATOM     14  O   UNL     1     215.193 154.104 179.895  1.00  0.00    -0.299 OA
BRANCH  13  15
ATOM     15  C   UNL     1     214.311 152.552 181.456  1.00  0.00     0.106 CG0
ATOM     16  G   UNL     1     213.363 151.594 180.752  1.00  0.00     0.000 G0
ENDBRANCH  13  15
ENDBRANCH  12  13
BRANCH  12  17
ATOM     17  C   UNL     1     213.891 156.368 180.427  1.00  0.00    -0.006 C 
ATOM     18  C   UNL     1     213.959 157.582 181.372  1.00  0.00     0.008 C 
ATOM     19  C   UNL     1     212.936 156.700 179.264  1.00  0.00     0.008 C 
ENDBRANCH  12  17
ENDBRANCH  11  12
ENDBRANCH   1  11
TORSDOF 1
ENDMDL
MODEL 2
REMARK VINA RESULT:    -4.150      1.858      4.169
REMARK INTER + INTRA:          -6.775
REMARK INTER:                  -6.647
REMARK INTRA:                  -0.128
REMARK UNBOUND:                -0.443
REMARK SMILES CC1=CCC[C@@H](C)C(=O)C[C@@H](C(C)C)C(=O)C1
REMARK SMILES IDX 8 1 9 2 6 3 7 4 5 5 4 6 3 7 2 8 1 9 10 11 11 12 15 13 16 14
REMARK SMILES IDX 17 15 12 17 13 18 14 19
REMARK H PARENT
REMARK Flexibility Score: 70.00
ROOT
ATOM      1  C   UNL     1     213.492 155.050 180.971  1.00  0.00     0.136 C 
ATOM      2  O   UNL     1     213.933 155.674 181.927  1.00  0.00    -0.299 OA
ENDROOT
BRANCH   1   3
ATOM      3  C   UNL     1     213.895 155.476 179.557  1.00  0.00     0.053 C 
ATOM      4  C   UNL     1     214.285 156.962 179.490  1.00  0.00     0.016 C 
BRANCH   3   5
ATOM      5  C   UNL     1     212.784 155.177 178.509  1.00  0.00     0.015 C 
BRANCH   5   6
ATOM      6  C   UNL     1     212.894 153.828 177.766  1.00  0.00     0.028 C 
BRANCH   6   7
ATOM      7  C   UNL     1     214.143 152.994 177.966  1.00  0.00    -0.028 C 
ATOM      8  C   UNL     1     214.280 151.874 178.718  1.00  0.00    -0.070 CG0
ATOM      9  C   UNL     1     215.583 151.120 178.611  1.00  0.00     0.039 C 
ATOM     10  G   UNL     1     213.261 151.388 179.736  1.00  0.00     0.000 G0
ENDBRANCH   6   7
ENDBRANCH   5   6
ENDBRANCH   3   5
ENDBRANCH   1   3
BRANCH   1  11
ATOM     11  C   UNL     1     212.641 153.820 181.265  1.00  0.00     0.087 C 
BRANCH  11  12
ATOM     12  C   UNL     1     213.367 152.698 182.052  1.00  0.00     0.066 C 
BRANCH  12  13
ATOM     13  C   UNL     1     213.765 151.532 181.160  1.00  0.00     0.140 C 
ATOM     14  O   UNL     1     214.458 150.648 181.647  1.00  0.00    -0.299 OA
BRANCH  13  15
ATOM     15  C   UNL     1     213.250 151.373 179.739  1.00  0.00     0.106 CG0
ATOM     16  G   UNL     1     214.272 151.858 178.724  1.00  0.00     0.000 G0
ENDBRANCH  13  15
ENDBRANCH  12  13
BRANCH  12  17
ATOM     17  C   UNL     1     212.532 152.186 183.270  1.00  0.00    -0.006 C 
ATOM     18  C   UNL     1     211.031 152.502 183.130  1.00  0.00     0.008 C 
ATOM     19  C   UNL     1     213.043 152.792 184.592  1.00  0.00     0.008 C 
ENDBRANCH  12  17
ENDBRANCH  11  12
ENDBRANCH   1  11
TORSDOF 1
ENDMDL
MODEL 3
REMARK VINA RESULT:    -3.995      2.481      5.673
REMARK INTER + INTRA:          -6.540
REMARK INTER:                  -6.083
REMARK INTRA:                  -0.457
REMARK UNBOUND:                -0.443
REMARK SMILES CC1=CCC[C@@H](C)C(=O)C[C@@H](C(C)C)C(=O)C1
REMARK SMILES IDX 8 1 9 2 6 3 7 4 5 5 4 6 3 7 2 8 1 9 10 11 11 12 15 13 16 14
REMARK SMILES IDX 17 15 12 17 13 18 14 19
REMARK H PARENT
REMARK Flexibility Score: 70.00
ROOT
ATOM      1  C   UNL     1     213.999 154.237 181.256  1.00  0.00     0.136 C 
ATOM      2  O   UNL     1     214.253 153.091 180.910  1.00  0.00    -0.299 OA
ENDROOT
BRANCH   1   3
ATOM      3  C   UNL     1     213.781 155.307 180.183  1.00  0.00     0.053 C 
ATOM      4  C   UNL     1     213.670 154.698 178.774  1.00  0.00     0.016 C 
BRANCH   3   5
ATOM      5  C   UNL     1     214.892 156.395 180.197  1.00  0.00     0.015 C 
BRANCH   5   6
ATOM      6  C   UNL     1     214.588 157.668 181.017  1.00  0.00     0.028 C 
BRANCH   6   7
ATOM      7  C   UNL     1     213.139 158.029 181.279  1.00  0.00    -0.028 C 
ATOM      8  C   UNL     1     212.469 157.961 182.456  1.00  0.00    -0.070 CG0
ATOM      9  C   UNL     1     211.079 158.549 182.499  1.00  0.00     0.039 C 
ATOM     10  G   UNL     1     212.974 157.244 183.698  1.00  0.00     0.000 G0
ENDBRANCH   6   7
ENDBRANCH   5   6
ENDBRANCH   3   5
ENDBRANCH   1   3
BRANCH   1  11
ATOM     11  C   UNL     1     213.820 154.499 182.748  1.00  0.00     0.087 C 
BRANCH  11  12
ATOM     12  C   UNL     1     212.351 154.699 183.203  1.00  0.00     0.066 C 
BRANCH  12  13
ATOM     13  C   UNL     1     212.161 155.989 183.986  1.00  0.00     0.140 C 
ATOM     14  O   UNL     1     211.385 155.975 184.933  1.00  0.00    -0.299 OA
BRANCH  13  15
ATOM     15  C   UNL     1     212.970 157.245 183.708  1.00  0.00     0.106 CG0
ATOM     16  G   UNL     1     212.478 157.952 182.456  1.00  0.00     0.000 G0
ENDBRANCH  13  15
ENDBRANCH  12  13
BRANCH  12  17
ATOM     17  C   UNL     1     211.808 153.483 184.021  1.00  0.00    -0.006 C 
ATOM     18  C   UNL     1     212.929 152.711 184.742  1.00  0.00     0.008 C 
ATOM     19  C   UNL     1     211.034 152.503 183.118  1.00  0.00     0.008 C 
ENDBRANCH  12  17
ENDBRANCH  11  12
ENDBRANCH   1  11
TORSDOF 1
ENDMDL
MODEL 4
REMARK VINA RESULT:    -3.976      2.171      4.266
REMARK INTER + INTRA:          -6.510
REMARK INTER:                  -6.133
REMARK INTRA:                  -0.376
REMARK UNBOUND:                -0.443
REMARK SMILES CC1=CCC[C@@H](C)C(=O)C[C@@H](C(C)C)C(=O)C1
REMARK SMILES IDX 8 1 9 2 6 3 7 4 5 5 4 6 3 7 2 8 1 9 10 11 11 12 15 13 16 14
REMARK SMILES IDX 17 15 12 17 13 18 14 19
REMARK H PARENT
REMARK Flexibility Score: 70.00
ROOT
ATOM      1  C   UNL     1     213.301 153.743 184.572  1.00  0.00     0.136 C 
ATOM      2  O   UNL     1     214.471 153.874 184.905  1.00  0.00    -0.299 OA
ENDROOT
BRANCH   1   3
ATOM      3  C   UNL     1     212.367 154.953 184.647  1.00  0.00     0.053 C 
ATOM      4  C   UNL     1     210.925 154.596 184.247  1.00  0.00     0.016 C 
BRANCH   3   5
ATOM      5  C   UNL     1     212.870 156.145 183.784  1.00  0.00     0.015 C 
BRANCH   5   6
ATOM      6  C   UNL     1     212.659 156.019 182.260  1.00  0.00     0.028 C 
BRANCH   6   7
ATOM      7  C   UNL     1     213.766 155.402 181.427  1.00  0.00    -0.028 C 
ATOM      8  C   UNL     1     213.751 154.209 180.783  1.00  0.00    -0.070 CG0
ATOM      9  C   UNL     1     214.911 153.898 179.869  1.00  0.00     0.039 C 
ATOM     10  G   UNL     1     212.708 153.124 181.000  1.00  0.00     0.000 G0
ENDBRANCH   6   7
ENDBRANCH   5   6
ENDBRANCH   3   5
ENDBRANCH   1   3
BRANCH   1  11
ATOM     11  C   UNL     1     212.877 152.392 184.006  1.00  0.00     0.087 C 
BRANCH  11  12
ATOM     12  C   UNL     1     213.865 151.774 182.983  1.00  0.00     0.066 C 
BRANCH  12  13
ATOM     13  C   UNL     1     213.342 151.853 181.557  1.00  0.00     0.140 C 
ATOM     14  O   UNL     1     213.358 150.831 180.883  1.00  0.00    -0.299 OA
BRANCH  13  15
ATOM     15  C   UNL     1     212.709 153.109 180.983  1.00  0.00     0.106 CG0
ATOM     16  G   UNL     1     213.740 154.210 180.793  1.00  0.00     0.000 G0
ENDBRANCH  13  15
ENDBRANCH  12  13
BRANCH  12  17
ATOM     17  C   UNL     1     214.250 150.301 183.338  1.00  0.00    -0.006 C 
ATOM     18  C   UNL     1     213.803 149.902 184.756  1.00  0.00     0.008 C 
ATOM     19  C   UNL     1     215.770 150.076 183.216  1.00  0.00     0.008 C 
ENDBRANCH  12  17
ENDBRANCH  11  12
ENDBRANCH   1  11
TORSDOF 1
ENDMDL
MODEL 5
REMARK VINA RESULT:    -3.929      2.412      4.235
REMARK INTER + INTRA:          -6.438
REMARK INTER:                  -6.242
REMARK INTRA:                  -0.196
REMARK UNBOUND:                -0.443
REMARK SMILES CC1=CCC[C@@H](C)C(=O)C[C@@H](C(C)C)C(=O)C1
REMARK SMILES IDX 8 1 9 2 6 3 7 4 5 5 4 6 3 7 2 8 1 9 10 11 11 12 15 13 16 14
REMARK SMILES IDX 17 15 12 17 13 18 14 19
REMARK H PARENT
REMARK Flexibility Score: 70.00
ROOT
ATOM      1  C   UNL     1     213.024 155.288 178.758  1.00  0.00     0.136 C 
ATOM      2  O   UNL     1     212.102 155.690 178.061  1.00  0.00    -0.299 OA
ENDROOT
BRANCH   1   3
ATOM      3  C   UNL     1     213.379 156.055 180.035  1.00  0.00     0.053 C 
ATOM      4  C   UNL     1     214.895 156.279 180.171  1.00  0.00     0.016 C 
BRANCH   3   5
ATOM      5  C   UNL     1     212.835 155.360 181.315  1.00  0.00     0.015 C 
BRANCH   5   6
ATOM      6  C   UNL     1     213.699 154.215 181.888  1.00  0.00     0.028 C 
BRANCH   6   7
ATOM      7  C   UNL     1     213.032 152.887 182.184  1.00  0.00    -0.028 C 
ATOM      8  C   UNL     1     213.152 151.726 181.493  1.00  0.00    -0.070 CG0
ATOM      9  C   UNL     1     212.528 150.491 182.094  1.00  0.00     0.039 C 
ATOM     10  G   UNL     1     213.776 151.605 180.112  1.00  0.00     0.000 G0
ENDBRANCH   6   7
ENDBRANCH   5   6
ENDBRANCH   3   5
ENDBRANCH   1   3
BRANCH   1  11
ATOM     11  C   UNL     1     213.697 153.982 178.352  1.00  0.00     0.087 C 
BRANCH  11  12
ATOM     12  C   UNL     1     212.722 152.838 177.968  1.00  0.00     0.066 C 
BRANCH  12  13
ATOM     13  C   UNL     1     212.726 151.709 178.987  1.00  0.00     0.140 C 
ATOM     14  O   UNL     1     211.902 150.814 178.854  1.00  0.00    -0.299 OA
BRANCH  13  15
ATOM     15  C   UNL     1     213.772 151.599 180.084  1.00  0.00     0.106 CG0
ATOM     16  G   UNL     1     213.142 151.733 181.462  1.00  0.00     0.000 G0
ENDBRANCH  13  15
ENDBRANCH  12  13
BRANCH  12  17
ATOM     17  C   UNL     1     212.996 152.276 176.536  1.00  0.00    -0.006 C 
ATOM     18  C   UNL     1     214.483 151.950 176.306  1.00  0.00     0.008 C 
ATOM     19  C   UNL     1     212.533 153.265 175.448  1.00  0.00     0.008 C 
ENDBRANCH  12  17
ENDBRANCH  11  12
ENDBRANCH   1  11
TORSDOF 1
ENDMDL
MODEL 6
REMARK VINA RESULT:    -3.908      2.070      3.950
REMARK INTER + INTRA:          -6.406
REMARK INTER:                  -6.193
REMARK INTRA:                  -0.213
REMARK UNBOUND:                -0.443
REMARK SMILES CC1=CCC[C@@H](C)C(=O)C[C@@H](C(C)C)C(=O)C1
REMARK SMILES IDX 8 1 9 2 6 3 7 4 5 5 4 6 3 7 2 8 1 9 10 11 11 12 15 13 16 14
REMARK SMILES IDX 17 15 12 17 13 18 14 19
REMARK H PARENT
REMARK Flexibility Score: 70.00
ROOT
ATOM      1  C   UNL     1     211.964 153.806 184.094  1.00  0.00     0.136 C 
ATOM      2  O   UNL     1     210.889 154.101 184.597  1.00  0.00    -0.299 OA
ENDROOT
BRANCH   1   3
ATOM      3  C   UNL     1     213.018 154.899 183.898  1.00  0.00     0.053 C 
ATOM      4  C   UNL     1     212.988 155.940 185.031  1.00  0.00     0.016 C 
BRANCH   3   5
ATOM      5  C   UNL     1     212.880 155.616 182.524  1.00  0.00     0.015 C 
BRANCH   5   6
ATOM      6  C   UNL     1     213.954 155.276 181.468  1.00  0.00     0.028 C 
BRANCH   6   7
ATOM      7  C   UNL     1     213.499 154.779 180.110  1.00  0.00    -0.028 C 
ATOM      8  C   UNL     1     213.441 153.497 179.674  1.00  0.00    -0.070 CG0
ATOM      9  C   UNL     1     212.779 153.245 178.341  1.00  0.00     0.039 C 
ATOM     10  G   UNL     1     214.086 152.315 180.380  1.00  0.00     0.000 G0
ENDBRANCH   6   7
ENDBRANCH   5   6
ENDBRANCH   3   5
ENDBRANCH   1   3
BRANCH   1  11
ATOM     11  C   UNL     1     212.217 152.334 183.785  1.00  0.00     0.087 C 
BRANCH  11  12
ATOM     12  C   UNL     1     213.500 152.053 182.960  1.00  0.00     0.066 C 
BRANCH  12  13
ATOM     13  C   UNL     1     213.196 151.786 181.494  1.00  0.00     0.140 C 
ATOM     14  O   UNL     1     212.153 151.205 181.221  1.00  0.00    -0.299 OA
BRANCH  13  15
ATOM     15  C   UNL     1     214.074 152.303 180.366  1.00  0.00     0.106 CG0
ATOM     16  G   UNL     1     213.436 153.495 179.672  1.00  0.00     0.000 G0
ENDBRANCH  13  15
ENDBRANCH  12  13
BRANCH  12  17
ATOM     17  C   UNL     1     214.350 150.885 183.558  1.00  0.00    -0.006 C 
ATOM     18  C   UNL     1     213.980 150.575 185.020  1.00  0.00     0.008 C 
ATOM     19  C   UNL     1     215.858 151.198 183.485  1.00  0.00     0.008 C 
ENDBRANCH  12  17
ENDBRANCH  11  12
ENDBRANCH   1  11
TORSDOF 1
ENDMDL
MODEL 7
REMARK VINA RESULT:    -3.788      2.152      3.642
REMARK INTER + INTRA:          -6.223
REMARK INTER:                  -5.973
REMARK INTRA:                  -0.250
REMARK UNBOUND:                -0.443
REMARK SMILES CC1=CCC[C@@H](C)C(=O)C[C@@H](C(C)C)C(=O)C1
REMARK SMILES IDX 8 1 9 2 6 3 7 4 5 5 4 6 3 7 2 8 1 9 10 11 11 12 15 13 16 14
REMARK SMILES IDX 17 15 12 17 13 18 14 19
REMARK H PARENT
REMARK Flexibility Score: 70.00
ROOT
ATOM      1  C   UNL     1     212.654 153.695 180.752  1.00  0.00     0.136 C 
ATOM      2  O   UNL     1     213.049 154.703 180.182  1.00  0.00    -0.299 OA
ENDROOT
BRANCH   1   3
ATOM      3  C   UNL     1     212.790 152.342 180.047  1.00  0.00     0.053 C 
ATOM      4  C   UNL     1     212.903 152.495 178.520  1.00  0.00     0.016 C 
BRANCH   3   5
ATOM      5  C   UNL     1     211.622 151.375 180.391  1.00  0.00     0.015 C 
BRANCH   5   6
ATOM      6  C   UNL     1     211.943 150.253 181.403  1.00  0.00     0.028 C 
BRANCH   6   7
ATOM      7  C   UNL     1     213.328 150.208 182.016  1.00  0.00    -0.028 C 
ATOM      8  C   UNL     1     213.729 150.737 183.198  1.00  0.00    -0.070 CG0
ATOM      9  C   UNL     1     215.122 150.402 183.673  1.00  0.00     0.039 C 
ATOM     10  G   UNL     1     212.917 151.724 184.022  1.00  0.00     0.000 G0
ENDBRANCH   6   7
ENDBRANCH   5   6
ENDBRANCH   3   5
ENDBRANCH   1   3
BRANCH   1  11
ATOM     11  C   UNL     1     212.139 153.847 182.179  1.00  0.00     0.087 C 
BRANCH  11  12
ATOM     12  C   UNL     1     213.215 154.246 183.221  1.00  0.00     0.066 C 
BRANCH  12  13
ATOM     13  C   UNL     1     213.614 153.080 184.113  1.00  0.00     0.140 C 
ATOM     14  O   UNL     1     214.458 153.282 184.977  1.00  0.00    -0.299 OA
BRANCH  13  15
ATOM     15  C   UNL     1     212.934 151.723 184.042  1.00  0.00     0.106 CG0
ATOM     16  G   UNL     1     213.736 150.747 183.196  1.00  0.00     0.000 G0
ENDBRANCH  13  15
ENDBRANCH  12  13
BRANCH  12  17
ATOM     17  C   UNL     1     212.780 155.469 184.092  1.00  0.00    -0.006 C 
ATOM     18  C   UNL     1     211.380 155.286 184.706  1.00  0.00     0.008 C 
ATOM     19  C   UNL     1     212.793 156.773 183.270  1.00  0.00     0.008 C 
ENDBRANCH  12  17
ENDBRANCH  11  12
ENDBRANCH   1  11
TORSDOF 1
ENDMDL
MODEL 8
REMARK VINA RESULT:    -3.784      2.073      4.066
REMARK INTER + INTRA:          -6.218
REMARK INTER:                  -6.125
REMARK INTRA:                  -0.093
REMARK UNBOUND:                -0.443
REMARK SMILES CC1=CCC[C@@H](C)C(=O)C[C@@H](C(C)C)C(=O)C1
REMARK SMILES IDX 8 1 9 2 6 3 7 4 5 5 4 6 3 7 2 8 1 9 10 11 11 12 15 13 16 14
REMARK SMILES IDX 17 15 12 17 13 18 14 19
REMARK H PARENT
REMARK Flexibility Score: 70.00
ROOT
ATOM      1  C   UNL     1     212.397 151.369 180.962  1.00  0.00     0.136 C 
ATOM      2  O   UNL     1     213.188 150.460 180.749  1.00  0.00    -0.299 OA
ENDROOT
BRANCH   1   3
ATOM      3  C   UNL     1     211.685 151.434 182.316  1.00  0.00     0.053 C 
ATOM      4  C   UNL     1     210.575 152.499 182.334  1.00  0.00     0.016 C 
BRANCH   3   5
ATOM      5  C   UNL     1     212.671 151.684 183.492  1.00  0.00     0.015 C 
BRANCH   5   6
ATOM      6  C   UNL     1     213.722 152.795 183.275  1.00  0.00     0.028 C 
BRANCH   6   7
ATOM      7  C   UNL     1     213.240 154.222 183.110  1.00  0.00    -0.028 C 
ATOM      8  C   UNL     1     213.473 155.061 182.070  1.00  0.00    -0.070 CG0
ATOM      9  C   UNL     1     212.731 156.375 182.058  1.00  0.00     0.039 C 
ATOM     10  G   UNL     1     214.503 154.817 180.979  1.00  0.00     0.000 G0
ENDBRANCH   6   7
ENDBRANCH   5   6
ENDBRANCH   3   5
ENDBRANCH   1   3
BRANCH   1  11
ATOM     11  C   UNL     1     212.248 152.439 179.885  1.00  0.00     0.087 C 
BRANCH  11  12
ATOM     12  C   UNL     1     213.585 152.967 179.303  1.00  0.00     0.066 C 
BRANCH  12  13
ATOM     13  C   UNL     1     213.837 154.423 179.666  1.00  0.00     0.140 C 
ATOM     14  O   UNL     1     213.407 155.285 178.910  1.00  0.00    -0.299 OA
BRANCH  13  15
ATOM     15  C   UNL     1     214.499 154.840 180.968  1.00  0.00     0.106 CG0
ATOM     16  G   UNL     1     213.470 155.054 182.066  1.00  0.00     0.000 G0
ENDBRANCH  13  15
ENDBRANCH  12  13
BRANCH  12  17
ATOM     17  C   UNL     1     213.680 152.771 177.755  1.00  0.00    -0.006 C 
ATOM     18  C   UNL     1     212.313 152.465 177.115  1.00  0.00     0.008 C 
ATOM     19  C   UNL     1     214.660 151.637 177.394  1.00  0.00     0.008 C 
ENDBRANCH  12  17
ENDBRANCH  11  12
ENDBRANCH   1  11
TORSDOF 1
ENDMDL
MODEL 9
REMARK VINA RESULT:    -3.705      1.501      3.873
REMARK INTER + INTRA:          -6.097
REMARK INTER:                  -5.854
REMARK INTRA:                  -0.243
REMARK UNBOUND:                -0.443
REMARK SMILES CC1=CCC[C@@H](C)C(=O)C[C@@H](C(C)C)C(=O)C1
REMARK SMILES IDX 8 1 9 2 6 3 7 4 5 5 4 6 3 7 2 8 1 9 10 11 11 12 15 13 16 14
REMARK SMILES IDX 17 15 12 17 13 18 14 19
REMARK H PARENT
REMARK Flexibility Score: 70.00
ROOT
ATOM      1  C   UNL     1     214.070 152.909 178.926  1.00  0.00     0.136 C 
ATOM      2  O   UNL     1     215.250 153.084 179.199  1.00  0.00    -0.299 OA
ENDROOT
BRANCH   1   3
ATOM      3  C   UNL     1     213.640 151.575 178.310  1.00  0.00     0.053 C 
ATOM      4  C   UNL     1     212.170 151.596 177.855  1.00  0.00     0.016 C 
BRANCH   3   5
ATOM      5  C   UNL     1     213.874 150.376 179.273  1.00  0.00     0.015 C 
BRANCH   5   6
ATOM      6  C   UNL     1     212.899 150.259 180.465  1.00  0.00     0.028 C 
BRANCH   6   7
ATOM      7  C   UNL     1     213.346 150.779 181.816  1.00  0.00    -0.028 C 
ATOM      8  C   UNL     1     212.885 151.870 182.477  1.00  0.00    -0.070 CG0
ATOM      9  C   UNL     1     213.364 152.077 183.894  1.00  0.00     0.039 C 
ATOM     10  G   UNL     1     212.011 152.950 181.859  1.00  0.00     0.000 G0
ENDBRANCH   6   7
ENDBRANCH   5   6
ENDBRANCH   3   5
ENDBRANCH   1   3
BRANCH   1  11
ATOM     11  C   UNL     1     213.087 154.008 179.313  1.00  0.00     0.087 C 
BRANCH  11  12
ATOM     12  C   UNL     1     213.460 154.795 180.596  1.00  0.00     0.066 C 
BRANCH  12  13
ATOM     13  C   UNL     1     212.705 154.297 181.819  1.00  0.00     0.140 C 
ATOM     14  O   UNL     1     212.587 155.059 182.769  1.00  0.00    -0.299 OA
BRANCH  13  15
ATOM     15  C   UNL     1     212.007 152.947 181.858  1.00  0.00     0.106 CG0
ATOM     16  G   UNL     1     212.901 151.882 182.474  1.00  0.00     0.000 G0
ENDBRANCH  13  15
ENDBRANCH  12  13
BRANCH  12  17
ATOM     17  C   UNL     1     213.265 156.337 180.430  1.00  0.00    -0.006 C 
ATOM     18  C   UNL     1     212.730 156.715 179.036  1.00  0.00     0.008 C 
ATOM     19  C   UNL     1     214.582 157.097 180.677  1.00  0.00     0.008 C 
ENDBRANCH  12  17
ENDBRANCH  11  12
ENDBRANCH   1  11
TORSDOF 1
ENDMDL
