MODEL 1
REMARK VINA RESULT:    -7.228      0.000      0.000
REMARK INTER + INTRA:          -8.632
REMARK INTER:                  -8.496
REMARK INTRA:                  -0.136
REMARK UNBOUND:                -0.136
REMARK SMILES O=C([O-])C=Cc1ccc(O)c(O)c1
REMARK SMILES IDX 6 1 13 2 7 3 11 4 8 5 9 6 5 7 4 8 2 9 1 10 3 11 12 12 10 14
REMARK H PARENT 12 13 10 15
REMARK Flexibility Score: inf
ROOT
ATOM      1  C   UNL     1      11.865 -46.207  37.375  1.00  0.00    -0.022 A 
ATOM      2  C   UNL     1      11.942 -46.794  38.649  1.00  0.00     0.058 A 
ATOM      3  C   UNL     1      13.056 -45.992  36.653  1.00  0.00     0.012 A 
ATOM      4  C   UNL     1      13.181 -47.138  39.207  1.00  0.00     0.157 A 
ATOM      5  C   UNL     1      14.291 -46.336  37.209  1.00  0.00     0.051 A 
ATOM      6  C   UNL     1      14.362 -46.905  38.483  1.00  0.00     0.157 A 
ENDROOT
BRANCH   1   7
ATOM      7  C   UNL     1      10.527 -45.872  36.826  1.00  0.00     0.010 C 
ATOM      8  C   UNL     1      10.167 -46.095  35.556  1.00  0.00     0.025 C 
BRANCH   8   9
ATOM      9  C   UNL     1       8.832 -45.734  35.051  1.00  0.00     0.064 C 
ATOM     10  O   UNL     1       7.833 -46.421  35.390  1.00  0.00    -0.545 OA
ATOM     11  O   UNL     1       8.655 -44.643  34.208  1.00  0.00    -0.545 OA
ENDBRANCH   8   9
ENDBRANCH   1   7
BRANCH   4  12
ATOM     12  O   UNL     1      13.243 -47.711  40.477  1.00  0.00    -0.504 OA
ATOM     13  H   UNL     1      14.111 -48.076  40.853  1.00  0.00     0.293 HD
ENDBRANCH   4  12
BRANCH   6  14
ATOM     14  O   UNL     1      15.610 -47.235  39.010  1.00  0.00    -0.504 OA
ATOM     15  H   UNL     1      16.469 -46.854  38.634  1.00  0.00     0.293 HD
ENDBRANCH   6  14
TORSDOF 4
ENDMDL
MODEL 2
REMARK VINA RESULT:    -6.876      1.029      2.121
REMARK INTER + INTRA:          -8.218
REMARK INTER:                  -8.083
REMARK INTRA:                  -0.135
REMARK UNBOUND:                -0.136
REMARK SMILES O=C([O-])C=Cc1ccc(O)c(O)c1
REMARK SMILES IDX 6 1 13 2 7 3 11 4 8 5 9 6 5 7 4 8 2 9 1 10 3 11 12 12 10 14
REMARK H PARENT 12 13 10 15
REMARK Flexibility Score: inf
ROOT
ATOM      1  C   UNL     1      11.596 -46.288  37.158  1.00  0.00    -0.022 A 
ATOM      2  C   UNL     1      12.989 -46.330  37.335  1.00  0.00     0.058 A 
ATOM      3  C   UNL     1      10.763 -46.694  38.219  1.00  0.00     0.012 A 
ATOM      4  C   UNL     1      13.546 -46.791  38.536  1.00  0.00     0.157 A 
ATOM      5  C   UNL     1      11.318 -47.154  39.417  1.00  0.00     0.051 A 
ATOM      6  C   UNL     1      12.706 -47.207  39.582  1.00  0.00     0.157 A 
ENDROOT
BRANCH   1   7
ATOM      7  C   UNL     1      11.058 -45.781  35.871  1.00  0.00     0.010 C 
ATOM      8  C   UNL     1       9.923 -46.223  35.313  1.00  0.00     0.025 C 
BRANCH   8   9
ATOM      9  C   UNL     1       9.433 -45.700  34.028  1.00  0.00     0.064 C 
ATOM     10  O   UNL     1       8.307 -45.140  33.973  1.00  0.00    -0.545 OA
ATOM     11  O   UNL     1      10.196 -45.811  32.871  1.00  0.00    -0.545 OA
ENDBRANCH   8   9
ENDBRANCH   1   7
BRANCH   4  12
ATOM     12  O   UNL     1      14.931 -46.836  38.695  1.00  0.00    -0.504 OA
ATOM     13  H   UNL     1      15.560 -46.600  37.936  1.00  0.00     0.293 HD
ENDBRANCH   4  12
BRANCH   6  14
ATOM     14  O   UNL     1      13.228 -47.672  40.788  1.00  0.00    -0.504 OA
ATOM     15  H   UNL     1      14.094 -47.314  41.172  1.00  0.00     0.293 HD
ENDBRANCH   6  14
TORSDOF 4
ENDMDL
MODEL 3
REMARK VINA RESULT:    -6.725      0.797      1.901
REMARK INTER + INTRA:          -8.040
REMARK INTER:                  -7.912
REMARK INTRA:                  -0.128
REMARK UNBOUND:                -0.136
REMARK SMILES O=C([O-])C=Cc1ccc(O)c(O)c1
REMARK SMILES IDX 6 1 13 2 7 3 11 4 8 5 9 6 5 7 4 8 2 9 1 10 3 11 12 12 10 14
REMARK H PARENT 12 13 10 15
REMARK Flexibility Score: inf
ROOT
ATOM      1  C   UNL     1      11.776 -46.332  37.506  1.00  0.00    -0.022 A 
ATOM      2  C   UNL     1      12.918 -46.067  36.733  1.00  0.00     0.058 A 
ATOM      3  C   UNL     1      11.939 -46.902  38.785  1.00  0.00     0.012 A 
ATOM      4  C   UNL     1      14.198 -46.385  37.210  1.00  0.00     0.157 A 
ATOM      5  C   UNL     1      13.214 -47.219  39.261  1.00  0.00     0.051 A 
ATOM      6  C   UNL     1      14.346 -46.966  38.480  1.00  0.00     0.157 A 
ENDROOT
BRANCH   1   7
ATOM      7  C   UNL     1      10.446 -45.967  36.959  1.00  0.00     0.010 C 
ATOM      8  C   UNL     1      10.086 -46.163  35.684  1.00  0.00     0.025 C 
BRANCH   8   9
ATOM      9  C   UNL     1       8.759 -45.773  35.182  1.00  0.00     0.064 C 
ATOM     10  O   UNL     1       7.758 -46.485  35.454  1.00  0.00    -0.545 OA
ATOM     11  O   UNL     1       8.592 -44.627  34.413  1.00  0.00    -0.545 OA
ENDBRANCH   8   9
ENDBRANCH   1   7
BRANCH   4  12
ATOM     12  O   UNL     1      15.323 -46.125  36.426  1.00  0.00    -0.504 OA
ATOM     13  H   UNL     1      15.379 -45.305  35.834  1.00  0.00     0.293 HD
ENDBRANCH   4  12
BRANCH   6  14
ATOM     14  O   UNL     1      15.604 -47.295  38.982  1.00  0.00    -0.504 OA
ATOM     15  H   UNL     1      15.813 -47.258  39.972  1.00  0.00     0.293 HD
ENDBRANCH   6  14
TORSDOF 4
ENDMDL
MODEL 4
REMARK VINA RESULT:    -6.449      2.224      2.663
REMARK INTER + INTRA:          -7.716
REMARK INTER:                  -7.588
REMARK INTRA:                  -0.128
REMARK UNBOUND:                -0.136
REMARK SMILES O=C([O-])C=Cc1ccc(O)c(O)c1
REMARK SMILES IDX 6 1 13 2 7 3 11 4 8 5 9 6 5 7 4 8 2 9 1 10 3 11 12 12 10 14
REMARK H PARENT 12 13 10 15
REMARK Flexibility Score: inf
ROOT
ATOM      1  C   UNL     1      10.815 -46.606  38.361  1.00  0.00    -0.022 A 
ATOM      2  C   UNL     1      11.455 -47.179  39.472  1.00  0.00     0.058 A 
ATOM      3  C   UNL     1      11.604 -46.111  37.303  1.00  0.00     0.012 A 
ATOM      4  C   UNL     1      12.854 -47.236  39.545  1.00  0.00     0.157 A 
ATOM      5  C   UNL     1      12.999 -46.168  37.375  1.00  0.00     0.051 A 
ATOM      6  C   UNL     1      13.629 -46.726  38.491  1.00  0.00     0.157 A 
ENDROOT
BRANCH   1   7
ATOM      7  C   UNL     1       9.332 -46.580  38.329  1.00  0.00     0.010 C 
ATOM      8  C   UNL     1       8.564 -47.664  38.501  1.00  0.00     0.025 C 
BRANCH   8   9
ATOM      9  C   UNL     1       7.095 -47.593  38.450  1.00  0.00     0.064 C 
ATOM     10  O   UNL     1       6.483 -46.814  39.227  1.00  0.00    -0.545 OA
ATOM     11  O   UNL     1       6.370 -48.370  37.554  1.00  0.00    -0.545 OA
ENDBRANCH   8   9
ENDBRANCH   1   7
BRANCH   4  12
ATOM     12  O   UNL     1      13.476 -47.800  40.659  1.00  0.00    -0.504 OA
ATOM     13  H   UNL     1      12.940 -48.151  41.445  1.00  0.00     0.293 HD
ENDBRANCH   4  12
BRANCH   6  14
ATOM     14  O   UNL     1      15.022 -46.767  38.532  1.00  0.00    -0.504 OA
ATOM     15  H   UNL     1      15.523 -47.451  39.087  1.00  0.00     0.293 HD
ENDBRANCH   6  14
TORSDOF 4
ENDMDL
MODEL 5
REMARK VINA RESULT:    -6.403      1.997      2.687
REMARK INTER + INTRA:          -7.661
REMARK INTER:                  -7.532
REMARK INTRA:                  -0.129
REMARK UNBOUND:                -0.136
REMARK SMILES O=C([O-])C=Cc1ccc(O)c(O)c1
REMARK SMILES IDX 6 1 13 2 7 3 11 4 8 5 9 6 5 7 4 8 2 9 1 10 3 11 12 12 10 14
REMARK H PARENT 12 13 10 15
REMARK Flexibility Score: inf
ROOT
ATOM      1  C   UNL     1      11.906 -46.383  38.169  1.00  0.00    -0.022 A 
ATOM      2  C   UNL     1      12.723 -46.018  37.087  1.00  0.00     0.058 A 
ATOM      3  C   UNL     1      12.475 -47.105  39.237  1.00  0.00     0.012 A 
ATOM      4  C   UNL     1      14.076 -46.384  37.053  1.00  0.00     0.157 A 
ATOM      5  C   UNL     1      13.824 -47.471  39.204  1.00  0.00     0.051 A 
ATOM      6  C   UNL     1      14.628 -47.116  38.117  1.00  0.00     0.157 A 
ENDROOT
BRANCH   1   7
ATOM      7  C   UNL     1      10.484 -45.961  38.161  1.00  0.00     0.010 C 
ATOM      8  C   UNL     1       9.453 -46.816  38.105  1.00  0.00     0.025 C 
BRANCH   8   9
ATOM      9  C   UNL     1       8.057 -46.351  38.087  1.00  0.00     0.064 C 
ATOM     10  O   UNL     1       7.181 -46.989  38.727  1.00  0.00    -0.545 OA
ATOM     11  O   UNL     1       7.689 -45.215  37.375  1.00  0.00    -0.545 OA
ENDBRANCH   8   9
ENDBRANCH   1   7
BRANCH   4  12
ATOM     12  O   UNL     1      14.874 -46.023  35.967  1.00  0.00    -0.504 OA
ATOM     13  H   UNL     1      14.474 -45.837  35.054  1.00  0.00     0.293 HD
ENDBRANCH   4  12
BRANCH   6  14
ATOM     14  O   UNL     1      15.970 -47.497  38.113  1.00  0.00    -0.504 OA
ATOM     15  H   UNL     1      16.714 -46.844  38.322  1.00  0.00     0.293 HD
ENDBRANCH   6  14
TORSDOF 4
ENDMDL
MODEL 6
REMARK VINA RESULT:    -6.232      1.104      6.021
REMARK INTER + INTRA:          -7.460
REMARK INTER:                  -7.327
REMARK INTRA:                  -0.133
REMARK UNBOUND:                -0.136
REMARK SMILES O=C([O-])C=Cc1ccc(O)c(O)c1
REMARK SMILES IDX 6 1 13 2 7 3 11 4 8 5 9 6 5 7 4 8 2 9 1 10 3 11 12 12 10 14
REMARK H PARENT 12 13 10 15
REMARK Flexibility Score: inf
ROOT
ATOM      1  C   UNL     1      10.676 -46.323  36.978  1.00  0.00    -0.022 A 
ATOM      2  C   UNL     1      11.146 -45.802  35.761  1.00  0.00     0.058 A 
ATOM      3  C   UNL     1       9.307 -46.633  37.101  1.00  0.00     0.012 A 
ATOM      4  C   UNL     1      10.269 -45.570  34.693  1.00  0.00     0.157 A 
ATOM      5  C   UNL     1       8.432 -46.402  36.036  1.00  0.00     0.051 A 
ATOM      6  C   UNL     1       8.904 -45.870  34.832  1.00  0.00     0.157 A 
ENDROOT
BRANCH   1   7
ATOM      7  C   UNL     1      11.649 -46.559  38.073  1.00  0.00     0.010 C 
ATOM      8  C   UNL     1      12.932 -46.888  37.872  1.00  0.00     0.025 C 
BRANCH   8   9
ATOM      9  C   UNL     1      13.859 -47.126  38.989  1.00  0.00     0.064 C 
ATOM     10  O   UNL     1      13.405 -47.478  40.109  1.00  0.00    -0.545 OA
ATOM     11  O   UNL     1      15.231 -46.970  38.829  1.00  0.00    -0.545 OA
ENDBRANCH   8   9
ENDBRANCH   1   7
BRANCH   4  12
ATOM     12  O   UNL     1      10.748 -45.044  33.493  1.00  0.00    -0.504 OA
ATOM     13  H   UNL     1      10.126 -44.829  32.722  1.00  0.00     0.293 HD
ENDBRANCH   4  12
BRANCH   6  14
ATOM     14  O   UNL     1       8.005 -45.650  33.790  1.00  0.00    -0.504 OA
ATOM     15  H   UNL     1       7.981 -44.777  33.277  1.00  0.00     0.293 HD
ENDBRANCH   6  14
TORSDOF 4
ENDMDL
MODEL 7
REMARK VINA RESULT:    -6.155      2.159      6.249
REMARK INTER + INTRA:          -7.371
REMARK INTER:                  -7.233
REMARK INTRA:                  -0.138
REMARK UNBOUND:                -0.136
REMARK SMILES O=C([O-])C=Cc1ccc(O)c(O)c1
REMARK SMILES IDX 6 1 13 2 7 3 11 4 8 5 9 6 5 7 4 8 2 9 1 10 3 11 12 12 10 14
REMARK H PARENT 12 13 10 15
REMARK Flexibility Score: inf
ROOT
ATOM      1  C   UNL     1       9.755 -46.364  35.197  1.00  0.00    -0.022 A 
ATOM      2  C   UNL     1       8.824 -47.248  34.626  1.00  0.00     0.058 A 
ATOM      3  C   UNL     1      10.305 -45.345  34.394  1.00  0.00     0.012 A 
ATOM      4  C   UNL     1       8.465 -47.138  33.275  1.00  0.00     0.157 A 
ATOM      5  C   UNL     1       9.947 -45.235  33.047  1.00  0.00     0.051 A 
ATOM      6  C   UNL     1       9.031 -46.128  32.482  1.00  0.00     0.157 A 
ENDROOT
BRANCH   1   7
ATOM      7  C   UNL     1      10.092 -46.518  36.634  1.00  0.00     0.010 C 
ATOM      8  C   UNL     1      11.252 -46.120  37.173  1.00  0.00     0.025 C 
BRANCH   8   9
ATOM      9  C   UNL     1      11.549 -46.303  38.602  1.00  0.00     0.064 C 
ATOM     10  O   UNL     1      10.769 -45.824  39.466  1.00  0.00    -0.545 OA
ATOM     11  O   UNL     1      12.678 -47.001  39.017  1.00  0.00    -0.545 OA
ENDBRANCH   8   9
ENDBRANCH   1   7
BRANCH   4  12
ATOM     12  O   UNL     1       7.547 -48.029  32.719  1.00  0.00    -0.504 OA
ATOM     13  H   UNL     1       6.933 -48.590  33.299  1.00  0.00     0.293 HD
ENDBRANCH   4  12
BRANCH   6  14
ATOM     14  O   UNL     1       8.696 -45.992  31.135  1.00  0.00    -0.504 OA
ATOM     15  H   UNL     1       8.747 -46.769  30.488  1.00  0.00     0.293 HD
ENDBRANCH   6  14
TORSDOF 4
ENDMDL
MODEL 8
REMARK VINA RESULT:    -6.083      2.876      7.124
REMARK INTER + INTRA:          -7.285
REMARK INTER:                  -7.144
REMARK INTRA:                  -0.142
REMARK UNBOUND:                -0.136
REMARK SMILES O=C([O-])C=Cc1ccc(O)c(O)c1
REMARK SMILES IDX 6 1 13 2 7 3 11 4 8 5 9 6 5 7 4 8 2 9 1 10 3 11 12 12 10 14
REMARK H PARENT 12 13 10 15
REMARK Flexibility Score: inf
ROOT
ATOM      1  C   UNL     1       9.356 -46.208  34.003  1.00  0.00    -0.022 A 
ATOM      2  C   UNL     1       9.321 -45.466  32.811  1.00  0.00     0.058 A 
ATOM      3  C   UNL     1       8.509 -47.327  34.132  1.00  0.00     0.012 A 
ATOM      4  C   UNL     1       8.443 -45.813  31.774  1.00  0.00     0.157 A 
ATOM      5  C   UNL     1       7.634 -47.674  33.098  1.00  0.00     0.051 A 
ATOM      6  C   UNL     1       7.594 -46.922  31.920  1.00  0.00     0.157 A 
ENDROOT
BRANCH   1   7
ATOM      7  C   UNL     1      10.310 -45.804  35.065  1.00  0.00     0.010 C 
ATOM      8  C   UNL     1      10.397 -46.407  36.258  1.00  0.00     0.025 C 
BRANCH   8   9
ATOM      9  C   UNL     1      11.351 -45.964  37.286  1.00  0.00     0.064 C 
ATOM     10  O   UNL     1      12.538 -45.701  36.960  1.00  0.00    -0.545 OA
ATOM     11  O   UNL     1      10.963 -45.828  38.614  1.00  0.00    -0.545 OA
ENDBRANCH   8   9
ENDBRANCH   1   7
BRANCH   4  12
ATOM     12  O   UNL     1       8.412 -45.061  30.600  1.00  0.00    -0.504 OA
ATOM     13  H   UNL     1       7.992 -45.421  29.751  1.00  0.00     0.293 HD
ENDBRANCH   4  12
BRANCH   6  14
ATOM     14  O   UNL     1       6.709 -47.294  30.909  1.00  0.00    -0.504 OA
ATOM     15  H   UNL     1       6.770 -46.909  29.975  1.00  0.00     0.293 HD
ENDBRANCH   6  14
TORSDOF 4
ENDMDL
MODEL 9
REMARK VINA RESULT:    -5.994      7.854      8.766
REMARK INTER + INTRA:          -7.181
REMARK INTER:                  -7.043
REMARK INTRA:                  -0.138
REMARK UNBOUND:                -0.136
REMARK SMILES O=C([O-])C=Cc1ccc(O)c(O)c1
REMARK SMILES IDX 6 1 13 2 7 3 11 4 8 5 9 6 5 7 4 8 2 9 1 10 3 11 12 12 10 14
REMARK H PARENT 12 13 10 15
REMARK Flexibility Score: inf
ROOT
ATOM      1  C   UNL     1      12.076 -45.090  45.766  1.00  0.00    -0.022 A 
ATOM      2  C   UNL     1      12.318 -45.410  47.112  1.00  0.00     0.058 A 
ATOM      3  C   UNL     1      12.778 -45.789  44.764  1.00  0.00     0.012 A 
ATOM      4  C   UNL     1      13.259 -46.390  47.459  1.00  0.00     0.157 A 
ATOM      5  C   UNL     1      13.717 -46.766  45.110  1.00  0.00     0.051 A 
ATOM      6  C   UNL     1      13.963 -47.069  46.452  1.00  0.00     0.157 A 
ENDROOT
BRANCH   1   7
ATOM      7  C   UNL     1      11.062 -44.052  45.453  1.00  0.00     0.010 C 
ATOM      8  C   UNL     1      11.067 -43.320  44.331  1.00  0.00     0.025 C 
BRANCH   8   9
ATOM      9  C   UNL     1      10.047 -42.293  44.068  1.00  0.00     0.064 C 
ATOM     10  O   UNL     1       9.990 -41.272  44.802  1.00  0.00    -0.545 OA
ATOM     11  O   UNL     1       9.146 -42.429  43.018  1.00  0.00    -0.545 OA
ENDBRANCH   8   9
ENDBRANCH   1   7
BRANCH   4  12
ATOM     12  O   UNL     1      13.496 -46.691  48.800  1.00  0.00    -0.504 OA
ATOM     13  H   UNL     1      13.499 -45.970  49.513  1.00  0.00     0.293 HD
ENDBRANCH   4  12
BRANCH   6  14
ATOM     14  O   UNL     1      14.906 -48.048  46.764  1.00  0.00    -0.504 OA
ATOM     15  H   UNL     1      15.251 -48.181  47.706  1.00  0.00     0.293 HD
ENDBRANCH   6  14
TORSDOF 4
ENDMDL
