MODEL 1
REMARK VINA RESULT:    -4.955      0.000      0.000
REMARK INTER + INTRA:         -16.751
REMARK INTER:                 -13.065
REMARK INTRA:                  -3.685
REMARK UNBOUND:                -3.685
REMARK SMILES CCCCCCCCCCCCCCCCCCCCCCCCCCCCCC(=O)[O-]
REMARK SMILES IDX 16 1 17 2 18 3 19 4 20 5 21 6 22 7 23 8 24 9 25 10 26 11
REMARK SMILES IDX 27 12 28 13 29 14 30 15 31 16 32 17 15 18 14 19 13 20 12 21
REMARK SMILES IDX 11 22 10 23 9 24 8 25 7 26 6 27 5 28 4 29 3 30 2 31 1 32
REMARK H PARENT
REMARK Flexibility Score: inf
ROOT
ATOM      1  C   UNL     1      -8.912  37.468   6.098  1.00  0.00     0.000 C 
ENDROOT
BRANCH   1   2
ATOM      2  C   UNL     1      -9.535  38.877   6.191  1.00  0.00     0.000 C 
BRANCH   2   3
ATOM      3  C   UNL     1     -10.884  38.966   5.459  1.00  0.00     0.000 C 
BRANCH   3   4
ATOM      4  C   UNL     1     -11.883  39.905   6.158  1.00  0.00     0.000 C 
BRANCH   4   5
ATOM      5  C   UNL     1     -12.519  39.294   7.424  1.00  0.00     0.000 C 
BRANCH   5   6
ATOM      6  C   UNL     1     -11.873  39.821   8.719  1.00  0.00     0.000 C 
BRANCH   6   7
ATOM      7  C   UNL     1     -12.494  39.195   9.978  1.00  0.00     0.000 C 
BRANCH   7   8
ATOM      8  C   UNL     1     -12.166  37.698  10.113  1.00  0.00     0.000 C 
BRANCH   8   9
ATOM      9  C   UNL     1     -10.801  37.339   9.504  1.00  0.00     0.000 C 
BRANCH   9  10
ATOM     10  C   UNL     1     -10.755  35.895   8.981  1.00  0.00     0.000 C 
BRANCH  10  11
ATOM     11  C   UNL     1     -12.143  35.435   8.510  1.00  0.00     0.000 C 
BRANCH  11  12
ATOM     12  C   UNL     1     -12.095  34.103   7.743  1.00  0.00     0.000 C 
BRANCH  12  13
ATOM     13  C   UNL     1     -11.136  33.086   8.386  1.00  0.00     0.006 C 
BRANCH  13  14
ATOM     14  C   UNL     1     -11.852  32.161   9.380  1.00  0.00     0.053 C 
BRANCH  14  15
ATOM     15  C   UNL     1     -11.205  32.171  10.731  1.00  0.00     0.041 C 
ATOM     16  O   UNL     1     -10.524  33.165  11.104  1.00  0.00    -0.550 OA
ATOM     17  O   UNL     1     -11.321  31.065  11.566  1.00  0.00    -0.550 OA
ENDBRANCH  14  15
ENDBRANCH  13  14
ENDBRANCH  12  13
ENDBRANCH  11  12
ENDBRANCH  10  11
ENDBRANCH   9  10
ENDBRANCH   8   9
ENDBRANCH   7   8
ENDBRANCH   6   7
ENDBRANCH   5   6
ENDBRANCH   4   5
ENDBRANCH   3   4
ENDBRANCH   2   3
ENDBRANCH   1   2
BRANCH   1  18
ATOM     18  C   UNL     1      -9.825  36.427   5.422  1.00  0.00     0.000 C 
BRANCH  18  19
ATOM     19  C   UNL     1      -9.338  34.985   5.630  1.00  0.00     0.000 C 
BRANCH  19  20
ATOM     20  C   UNL     1      -7.808  34.872   5.712  1.00  0.00     0.000 C 
BRANCH  20  21
ATOM     21  C   UNL     1      -7.315  33.416   5.744  1.00  0.00     0.000 C 
BRANCH  21  22
ATOM     22  C   UNL     1      -8.291  32.486   5.013  1.00  0.00     0.000 C 
BRANCH  22  23
ATOM     23  C   UNL     1      -8.598  31.239   5.853  1.00  0.00     0.000 C 
BRANCH  23  24
ATOM     24  C   UNL     1      -7.427  30.243   5.894  1.00  0.00    -0.000 C 
BRANCH  24  25
ATOM     25  C   UNL     1      -7.867  28.770   6.046  1.00  0.00    -0.000 C 
BRANCH  25  26
ATOM     26  C   UNL     1      -7.795  27.992   4.721  1.00  0.00    -0.000 C 
BRANCH  26  27
ATOM     27  C   UNL     1      -6.612  28.426   3.841  1.00  0.00    -0.000 C 
BRANCH  27  28
ATOM     28  C   UNL     1      -5.344  27.590   4.085  1.00  0.00    -0.000 C 
BRANCH  28  29
ATOM     29  C   UNL     1      -4.276  28.411   4.824  1.00  0.00    -0.000 C 
BRANCH  29  30
ATOM     30  C   UNL     1      -4.175  28.052   6.319  1.00  0.00    -0.000 C 
BRANCH  30  31
ATOM     31  C   UNL     1      -3.382  29.061   7.170  1.00  0.00    -0.003 C 
ATOM     32  C   UNL     1      -2.379  28.387   8.107  1.00  0.00     0.004 C 
ENDBRANCH  30  31
ENDBRANCH  29  30
ENDBRANCH  28  29
ENDBRANCH  27  28
ENDBRANCH  26  27
ENDBRANCH  25  26
ENDBRANCH  24  25
ENDBRANCH  23  24
ENDBRANCH  22  23
ENDBRANCH  21  22
ENDBRANCH  20  21
ENDBRANCH  19  20
ENDBRANCH  18  19
ENDBRANCH   1  18
TORSDOF 28
ENDMDL
MODEL 2
REMARK VINA RESULT:    -4.681      2.748      6.215
REMARK INTER + INTRA:         -16.030
REMARK INTER:                 -12.991
REMARK INTRA:                  -3.039
REMARK UNBOUND:                -3.685
REMARK SMILES CCCCCCCCCCCCCCCCCCCCCCCCCCCCCC(=O)[O-]
REMARK SMILES IDX 16 1 17 2 18 3 19 4 20 5 21 6 22 7 23 8 24 9 25 10 26 11
REMARK SMILES IDX 27 12 28 13 29 14 30 15 31 16 32 17 15 18 14 19 13 20 12 21
REMARK SMILES IDX 11 22 10 23 9 24 8 25 7 26 6 27 5 28 4 29 3 30 2 31 1 32
REMARK H PARENT
REMARK Flexibility Score: inf
ROOT
ATOM      1  C   UNL     1      -5.421  31.722   7.162  1.00  0.00     0.000 C 
ENDROOT
BRANCH   1   2
ATOM      2  C   UNL     1      -6.229  32.519   6.116  1.00  0.00     0.000 C 
BRANCH   2   3
ATOM      3  C   UNL     1      -7.351  31.678   5.484  1.00  0.00     0.000 C 
BRANCH   3   4
ATOM      4  C   UNL     1      -8.481  31.346   6.476  1.00  0.00     0.000 C 
BRANCH   4   5
ATOM      5  C   UNL     1      -8.987  32.571   7.265  1.00  0.00     0.000 C 
BRANCH   5   6
ATOM      6  C   UNL     1      -9.769  33.559   6.378  1.00  0.00     0.000 C 
BRANCH   6   7
ATOM      7  C   UNL     1      -9.512  35.024   6.769  1.00  0.00     0.000 C 
BRANCH   7   8
ATOM      8  C   UNL     1      -8.338  35.643   5.992  1.00  0.00     0.000 C 
BRANCH   8   9
ATOM      9  C   UNL     1      -8.614  37.096   5.572  1.00  0.00     0.000 C 
BRANCH   9  10
ATOM     10  C   UNL     1     -10.099  37.346   5.269  1.00  0.00     0.000 C 
BRANCH  10  11
ATOM     11  C   UNL     1     -10.503  38.781   5.641  1.00  0.00     0.000 C 
BRANCH  11  12
ATOM     12  C   UNL     1     -10.400  39.051   7.151  1.00  0.00     0.000 C 
BRANCH  12  13
ATOM     13  C   UNL     1     -11.779  39.157   7.826  1.00  0.00     0.006 C 
BRANCH  13  14
ATOM     14  C   UNL     1     -12.303  37.791   8.291  1.00  0.00     0.053 C 
BRANCH  14  15
ATOM     15  C   UNL     1     -11.707  37.371   9.600  1.00  0.00     0.041 C 
ATOM     16  O   UNL     1     -11.884  38.070  10.635  1.00  0.00    -0.550 OA
ATOM     17  O   UNL     1     -10.921  36.226   9.670  1.00  0.00    -0.550 OA
ENDBRANCH  14  15
ENDBRANCH  13  14
ENDBRANCH  12  13
ENDBRANCH  11  12
ENDBRANCH  10  11
ENDBRANCH   9  10
ENDBRANCH   8   9
ENDBRANCH   7   8
ENDBRANCH   6   7
ENDBRANCH   5   6
ENDBRANCH   4   5
ENDBRANCH   3   4
ENDBRANCH   2   3
ENDBRANCH   1   2
BRANCH   1  18
ATOM     18  C   UNL     1      -4.252  30.917   6.564  1.00  0.00     0.000 C 
BRANCH  18  19
ATOM     19  C   UNL     1      -3.392  30.231   7.637  1.00  0.00     0.000 C 
BRANCH  19  20
ATOM     20  C   UNL     1      -2.884  28.846   7.206  1.00  0.00     0.000 C 
BRANCH  20  21
ATOM     21  C   UNL     1      -3.640  27.692   7.883  1.00  0.00     0.000 C 
BRANCH  21  22
ATOM     22  C   UNL     1      -4.437  26.876   6.857  1.00  0.00     0.000 C 
BRANCH  22  23
ATOM     23  C   UNL     1      -5.765  27.566   6.516  1.00  0.00     0.000 C 
BRANCH  23  24
ATOM     24  C   UNL     1      -6.090  27.524   5.013  1.00  0.00    -0.000 C 
BRANCH  24  25
ATOM     25  C   UNL     1      -5.454  28.677   4.206  1.00  0.00    -0.000 C 
BRANCH  25  26
ATOM     26  C   UNL     1      -4.085  28.301   3.616  1.00  0.00    -0.000 C 
BRANCH  26  27
ATOM     27  C   UNL     1      -4.019  28.503   2.093  1.00  0.00    -0.000 C 
BRANCH  27  28
ATOM     28  C   UNL     1      -3.075  27.509   1.396  1.00  0.00    -0.000 C 
BRANCH  28  29
ATOM     29  C   UNL     1      -1.840  28.226   0.827  1.00  0.00    -0.000 C 
BRANCH  29  30
ATOM     30  C   UNL     1      -0.559  27.936   1.631  1.00  0.00    -0.000 C 
BRANCH  30  31
ATOM     31  C   UNL     1       0.448  27.009   0.925  1.00  0.00    -0.003 C 
ATOM     32  C   UNL     1       0.467  27.200  -0.592  1.00  0.00     0.004 C 
ENDBRANCH  30  31
ENDBRANCH  29  30
ENDBRANCH  28  29
ENDBRANCH  27  28
ENDBRANCH  26  27
ENDBRANCH  25  26
ENDBRANCH  24  25
ENDBRANCH  23  24
ENDBRANCH  22  23
ENDBRANCH  21  22
ENDBRANCH  20  21
ENDBRANCH  19  20
ENDBRANCH  18  19
ENDBRANCH   1  18
TORSDOF 28
ENDMDL
MODEL 3
REMARK VINA RESULT:    -4.644      8.274     15.158
REMARK INTER + INTRA:         -15.931
REMARK INTER:                 -14.016
REMARK INTRA:                  -1.915
REMARK UNBOUND:                -3.685
REMARK SMILES CCCCCCCCCCCCCCCCCCCCCCCCCCCCCC(=O)[O-]
REMARK SMILES IDX 16 1 17 2 18 3 19 4 20 5 21 6 22 7 23 8 24 9 25 10 26 11
REMARK SMILES IDX 27 12 28 13 29 14 30 15 31 16 32 17 15 18 14 19 13 20 12 21
REMARK SMILES IDX 11 22 10 23 9 24 8 25 7 26 6 27 5 28 4 29 3 30 2 31 1 32
REMARK H PARENT
REMARK Flexibility Score: inf
ROOT
ATOM      1  C   UNL     1      -3.400  28.390   2.206  1.00  0.00     0.000 C 
ENDROOT
BRANCH   1   2
ATOM      2  C   UNL     1      -3.058  27.216   1.265  1.00  0.00     0.000 C 
BRANCH   2   3
ATOM      3  C   UNL     1      -1.560  27.163   0.923  1.00  0.00     0.000 C 
BRANCH   3   4
ATOM      4  C   UNL     1      -0.746  28.264   1.626  1.00  0.00     0.000 C 
BRANCH   4   5
ATOM      5  C   UNL     1       0.731  28.316   1.183  1.00  0.00     0.000 C 
BRANCH   5   6
ATOM      6  C   UNL     1       1.126  29.691   0.614  1.00  0.00     0.000 C 
BRANCH   6   7
ATOM      7  C   UNL     1       1.446  29.632  -0.888  1.00  0.00     0.000 C 
BRANCH   7   8
ATOM      8  C   UNL     1       0.512  28.678  -1.651  1.00  0.00     0.000 C 
BRANCH   8   9
ATOM      9  C   UNL     1       1.281  27.705  -2.559  1.00  0.00     0.000 C 
BRANCH   9  10
ATOM     10  C   UNL     1       1.514  28.278  -3.966  1.00  0.00     0.000 C 
BRANCH  10  11
ATOM     11  C   UNL     1       3.000  28.215  -4.348  1.00  0.00     0.000 C 
BRANCH  11  12
ATOM     12  C   UNL     1       3.919  28.081  -3.122  1.00  0.00     0.000 C 
BRANCH  12  13
ATOM     13  C   UNL     1       5.003  29.173  -3.077  1.00  0.00     0.006 C 
BRANCH  13  14
ATOM     14  C   UNL     1       5.093  29.956  -4.394  1.00  0.00     0.053 C 
BRANCH  14  15
ATOM     15  C   UNL     1       4.695  31.392  -4.228  1.00  0.00     0.041 C 
ATOM     16  O   UNL     1       3.501  31.748  -4.419  1.00  0.00    -0.550 OA
ATOM     17  O   UNL     1       5.653  32.345  -3.899  1.00  0.00    -0.550 OA
ENDBRANCH  14  15
ENDBRANCH  13  14
ENDBRANCH  12  13
ENDBRANCH  11  12
ENDBRANCH  10  11
ENDBRANCH   9  10
ENDBRANCH   8   9
ENDBRANCH   7   8
ENDBRANCH   6   7
ENDBRANCH   5   6
ENDBRANCH   4   5
ENDBRANCH   3   4
ENDBRANCH   2   3
ENDBRANCH   1   2
BRANCH   1  18
ATOM     18  C   UNL     1      -4.550  28.088   3.185  1.00  0.00     0.000 C 
BRANCH  18  19
ATOM     19  C   UNL     1      -4.211  28.467   4.635  1.00  0.00     0.000 C 
BRANCH  19  20
ATOM     20  C   UNL     1      -5.441  28.481   5.557  1.00  0.00     0.000 C 
BRANCH  20  21
ATOM     21  C   UNL     1      -6.586  29.351   5.015  1.00  0.00     0.000 C 
BRANCH  21  22
ATOM     22  C   UNL     1      -6.928  30.485   5.991  1.00  0.00     0.000 C 
BRANCH  22  23
ATOM     23  C   UNL     1      -5.760  31.472   6.120  1.00  0.00     0.000 C 
BRANCH  23  24
ATOM     24  C   UNL     1      -6.225  32.933   6.255  1.00  0.00    -0.000 C 
BRANCH  24  25
ATOM     25  C   UNL     1      -7.755  33.111   6.145  1.00  0.00    -0.000 C 
BRANCH  25  26
ATOM     26  C   UNL     1      -8.150  34.274   5.218  1.00  0.00    -0.000 C 
BRANCH  26  27
ATOM     27  C   UNL     1      -8.666  35.499   5.990  1.00  0.00    -0.000 C 
BRANCH  27  28
ATOM     28  C   UNL     1      -8.481  36.816   5.218  1.00  0.00    -0.000 C 
BRANCH  28  29
ATOM     29  C   UNL     1      -8.087  37.961   6.164  1.00  0.00    -0.000 C 
BRANCH  29  30
ATOM     30  C   UNL     1      -9.143  39.081   6.217  1.00  0.00    -0.000 C 
BRANCH  30  31
ATOM     31  C   UNL     1     -10.553  38.658   5.767  1.00  0.00    -0.003 C 
ATOM     32  C   UNL     1     -11.657  39.512   6.390  1.00  0.00     0.004 C 
ENDBRANCH  30  31
ENDBRANCH  29  30
ENDBRANCH  28  29
ENDBRANCH  27  28
ENDBRANCH  26  27
ENDBRANCH  25  26
ENDBRANCH  24  25
ENDBRANCH  23  24
ENDBRANCH  22  23
ENDBRANCH  21  22
ENDBRANCH  20  21
ENDBRANCH  19  20
ENDBRANCH  18  19
ENDBRANCH   1  18
TORSDOF 28
ENDMDL
MODEL 4
REMARK VINA RESULT:    -4.623      3.281      6.086
REMARK INTER + INTRA:         -15.877
REMARK INTER:                 -14.038
REMARK INTRA:                  -1.839
REMARK UNBOUND:                -3.685
REMARK SMILES CCCCCCCCCCCCCCCCCCCCCCCCCCCCCC(=O)[O-]
REMARK SMILES IDX 16 1 17 2 18 3 19 4 20 5 21 6 22 7 23 8 24 9 25 10 26 11
REMARK SMILES IDX 27 12 28 13 29 14 30 15 31 16 32 17 15 18 14 19 13 20 12 21
REMARK SMILES IDX 11 22 10 23 9 24 8 25 7 26 6 27 5 28 4 29 3 30 2 31 1 32
REMARK H PARENT
REMARK Flexibility Score: inf
ROOT
ATOM      1  C   UNL     1      -5.546  31.763   7.039  1.00  0.00     0.000 C 
ENDROOT
BRANCH   1   2
ATOM      2  C   UNL     1      -5.998  32.907   6.106  1.00  0.00     0.000 C 
BRANCH   2   3
ATOM      3  C   UNL     1      -7.526  33.083   6.100  1.00  0.00     0.000 C 
BRANCH   3   4
ATOM      4  C   UNL     1      -7.993  34.221   5.175  1.00  0.00     0.000 C 
BRANCH   4   5
ATOM      5  C   UNL     1      -9.166  35.040   5.752  1.00  0.00     0.000 C 
BRANCH   5   6
ATOM      6  C   UNL     1      -8.889  36.555   5.739  1.00  0.00     0.000 C 
BRANCH   6   7
ATOM      7  C   UNL     1     -10.143  37.376   5.402  1.00  0.00     0.000 C 
BRANCH   7   8
ATOM      8  C   UNL     1      -9.974  38.870   5.730  1.00  0.00     0.000 C 
BRANCH   8   9
ATOM      9  C   UNL     1     -10.579  39.243   7.093  1.00  0.00     0.000 C 
BRANCH   9  10
ATOM     10  C   UNL     1     -12.100  39.447   7.022  1.00  0.00     0.000 C 
BRANCH  10  11
ATOM     11  C   UNL     1     -12.814  38.653   8.126  1.00  0.00     0.000 C 
BRANCH  11  12
ATOM     12  C   UNL     1     -12.221  38.915   9.520  1.00  0.00     0.000 C 
BRANCH  12  13
ATOM     13  C   UNL     1     -11.842  37.616  10.253  1.00  0.00     0.006 C 
BRANCH  13  14
ATOM     14  C   UNL     1     -10.766  36.819   9.502  1.00  0.00     0.053 C 
BRANCH  14  15
ATOM     15  C   UNL     1     -11.231  35.441   9.139  1.00  0.00     0.041 C 
ATOM     16  O   UNL     1     -10.967  34.462   9.888  1.00  0.00    -0.550 OA
ATOM     17  O   UNL     1     -11.925  35.233   7.952  1.00  0.00    -0.550 OA
ENDBRANCH  14  15
ENDBRANCH  13  14
ENDBRANCH  12  13
ENDBRANCH  11  12
ENDBRANCH  10  11
ENDBRANCH   9  10
ENDBRANCH   8   9
ENDBRANCH   7   8
ENDBRANCH   6   7
ENDBRANCH   5   6
ENDBRANCH   4   5
ENDBRANCH   3   4
ENDBRANCH   2   3
ENDBRANCH   1   2
BRANCH   1  18
ATOM     18  C   UNL     1      -4.312  30.995   6.529  1.00  0.00     0.000 C 
BRANCH  18  19
ATOM     19  C   UNL     1      -3.538  30.297   7.657  1.00  0.00     0.000 C 
BRANCH  19  20
ATOM     20  C   UNL     1      -3.126  28.859   7.305  1.00  0.00     0.000 C 
BRANCH  20  21
ATOM     21  C   UNL     1      -3.332  28.523   5.819  1.00  0.00     0.000 C 
BRANCH  21  22
ATOM     22  C   UNL     1      -4.735  27.955   5.571  1.00  0.00     0.000 C 
BRANCH  22  23
ATOM     23  C   UNL     1      -5.216  28.275   4.149  1.00  0.00     0.000 C 
BRANCH  23  24
ATOM     24  C   UNL     1      -4.357  27.605   3.062  1.00  0.00    -0.000 C 
BRANCH  24  25
ATOM     25  C   UNL     1      -3.774  28.596   2.031  1.00  0.00    -0.000 C 
BRANCH  25  26
ATOM     26  C   UNL     1      -2.809  27.921   1.042  1.00  0.00    -0.000 C 
BRANCH  26  27
ATOM     27  C   UNL     1      -1.335  28.070   1.456  1.00  0.00    -0.000 C 
BRANCH  27  28
ATOM     28  C   UNL     1      -0.389  27.175   0.638  1.00  0.00    -0.000 C 
BRANCH  28  29
ATOM     29  C   UNL     1      -0.289  27.661  -0.816  1.00  0.00    -0.000 C 
BRANCH  29  30
ATOM     30  C   UNL     1      -0.045  29.178  -0.923  1.00  0.00    -0.000 C 
BRANCH  30  31
ATOM     31  C   UNL     1       1.399  29.620  -0.620  1.00  0.00    -0.003 C 
ATOM     32  C   UNL     1       1.504  30.485   0.635  1.00  0.00     0.004 C 
ENDBRANCH  30  31
ENDBRANCH  29  30
ENDBRANCH  28  29
ENDBRANCH  27  28
ENDBRANCH  26  27
ENDBRANCH  25  26
ENDBRANCH  24  25
ENDBRANCH  23  24
ENDBRANCH  22  23
ENDBRANCH  21  22
ENDBRANCH  20  21
ENDBRANCH  19  20
ENDBRANCH  18  19
ENDBRANCH   1  18
TORSDOF 28
ENDMDL
MODEL 5
REMARK VINA RESULT:    -4.581      1.929      3.523
REMARK INTER + INTRA:         -15.766
REMARK INTER:                 -13.085
REMARK INTRA:                  -2.681
REMARK UNBOUND:                -3.685
REMARK SMILES CCCCCCCCCCCCCCCCCCCCCCCCCCCCCC(=O)[O-]
REMARK SMILES IDX 16 1 17 2 18 3 19 4 20 5 21 6 22 7 23 8 24 9 25 10 26 11
REMARK SMILES IDX 27 12 28 13 29 14 30 15 31 16 32 17 15 18 14 19 13 20 12 21
REMARK SMILES IDX 11 22 10 23 9 24 8 25 7 26 6 27 5 28 4 29 3 30 2 31 1 32
REMARK H PARENT
REMARK Flexibility Score: inf
ROOT
ATOM      1  C   UNL     1     -10.010  38.782   6.086  1.00  0.00     0.000 C 
ENDROOT
BRANCH   1   2
ATOM      2  C   UNL     1     -11.160  38.917   7.106  1.00  0.00     0.000 C 
BRANCH   2   3
ATOM      3  C   UNL     1     -11.206  37.736   8.090  1.00  0.00     0.000 C 
BRANCH   3   4
ATOM      4  C   UNL     1     -12.556  36.997   8.075  1.00  0.00     0.000 C 
BRANCH   4   5
ATOM      5  C   UNL     1     -12.436  35.491   8.383  1.00  0.00     0.000 C 
BRANCH   5   6
ATOM      6  C   UNL     1     -10.985  35.062   8.668  1.00  0.00     0.000 C 
BRANCH   6   7
ATOM      7  C   UNL     1     -10.874  33.568   9.011  1.00  0.00     0.000 C 
BRANCH   7   8
ATOM      8  C   UNL     1     -10.902  33.310  10.527  1.00  0.00     0.000 C 
BRANCH   8   9
ATOM      9  C   UNL     1     -12.269  32.797  11.010  1.00  0.00     0.000 C 
BRANCH   9  10
ATOM     10  C   UNL     1     -12.691  31.500  10.302  1.00  0.00     0.000 C 
BRANCH  10  11
ATOM     11  C   UNL     1     -11.983  30.283  10.914  1.00  0.00     0.000 C 
BRANCH  11  12
ATOM     12  C   UNL     1     -12.343  30.073  12.395  1.00  0.00     0.000 C 
BRANCH  12  13
ATOM     13  C   UNL     1     -11.112  29.751  13.261  1.00  0.00     0.006 C 
BRANCH  13  14
ATOM     14  C   UNL     1      -9.903  30.623  12.896  1.00  0.00     0.053 C 
BRANCH  14  15
ATOM     15  C   UNL     1      -8.878  30.655  13.989  1.00  0.00     0.041 C 
ATOM     16  O   UNL     1      -8.388  29.582  14.435  1.00  0.00    -0.550 OA
ATOM     17  O   UNL     1      -8.491  31.871  14.543  1.00  0.00    -0.550 OA
ENDBRANCH  14  15
ENDBRANCH  13  14
ENDBRANCH  12  13
ENDBRANCH  11  12
ENDBRANCH  10  11
ENDBRANCH   9  10
ENDBRANCH   8   9
ENDBRANCH   7   8
ENDBRANCH   6   7
ENDBRANCH   5   6
ENDBRANCH   4   5
ENDBRANCH   3   4
ENDBRANCH   2   3
ENDBRANCH   1   2
BRANCH   1  18
ATOM     18  C   UNL     1      -9.900  37.382   5.453  1.00  0.00     0.000 C 
BRANCH  18  19
ATOM     19  C   UNL     1      -8.552  36.704   5.742  1.00  0.00     0.000 C 
BRANCH  19  20
ATOM     20  C   UNL     1      -8.645  35.170   5.778  1.00  0.00     0.000 C 
BRANCH  20  21
ATOM     21  C   UNL     1      -7.413  34.481   5.170  1.00  0.00     0.000 C 
BRANCH  21  22
ATOM     22  C   UNL     1      -7.159  33.120   5.831  1.00  0.00     0.000 C 
BRANCH  22  23
ATOM     23  C   UNL     1      -8.377  32.667   6.646  1.00  0.00     0.000 C 
BRANCH  23  24
ATOM     24  C   UNL     1      -8.908  31.289   6.213  1.00  0.00    -0.000 C 
BRANCH  24  25
ATOM     25  C   UNL     1      -7.988  30.555   5.213  1.00  0.00    -0.000 C 
BRANCH  25  26
ATOM     26  C   UNL     1      -7.142  29.458   5.882  1.00  0.00    -0.000 C 
BRANCH  26  27
ATOM     27  C   UNL     1      -6.180  28.769   4.901  1.00  0.00    -0.000 C 
BRANCH  27  28
ATOM     28  C   UNL     1      -5.373  27.633   5.551  1.00  0.00    -0.000 C 
BRANCH  28  29
ATOM     29  C   UNL     1      -4.083  28.168   6.191  1.00  0.00    -0.000 C 
BRANCH  29  30
ATOM     30  C   UNL     1      -3.727  27.452   7.508  1.00  0.00    -0.000 C 
BRANCH  30  31
ATOM     31  C   UNL     1      -2.642  28.151   8.347  1.00  0.00    -0.003 C 
ATOM     32  C   UNL     1      -2.269  27.367   9.606  1.00  0.00     0.004 C 
ENDBRANCH  30  31
ENDBRANCH  29  30
ENDBRANCH  28  29
ENDBRANCH  27  28
ENDBRANCH  26  27
ENDBRANCH  25  26
ENDBRANCH  24  25
ENDBRANCH  23  24
ENDBRANCH  22  23
ENDBRANCH  21  22
ENDBRANCH  20  21
ENDBRANCH  19  20
ENDBRANCH  18  19
ENDBRANCH   1  18
TORSDOF 28
ENDMDL
MODEL 6
REMARK VINA RESULT:    -4.540      6.847     10.840
REMARK INTER + INTRA:         -15.657
REMARK INTER:                 -13.437
REMARK INTRA:                  -2.220
REMARK UNBOUND:                -3.685
REMARK SMILES CCCCCCCCCCCCCCCCCCCCCCCCCCCCCC(=O)[O-]
REMARK SMILES IDX 16 1 17 2 18 3 19 4 20 5 21 6 22 7 23 8 24 9 25 10 26 11
REMARK SMILES IDX 27 12 28 13 29 14 30 15 31 16 32 17 15 18 14 19 13 20 12 21
REMARK SMILES IDX 11 22 10 23 9 24 8 25 7 26 6 27 5 28 4 29 3 30 2 31 1 32
REMARK H PARENT
REMARK Flexibility Score: inf
ROOT
ATOM      1  C   UNL     1      -3.373  28.377   2.245  1.00  0.00     0.000 C 
ENDROOT
BRANCH   1   2
ATOM      2  C   UNL     1      -4.690  28.338   3.048  1.00  0.00     0.000 C 
BRANCH   2   3
ATOM      3  C   UNL     1      -4.450  28.437   4.564  1.00  0.00     0.000 C 
BRANCH   3   4
ATOM      4  C   UNL     1      -5.365  27.504   5.377  1.00  0.00     0.000 C 
BRANCH   4   5
ATOM      5  C   UNL     1      -6.471  28.249   6.153  1.00  0.00     0.000 C 
BRANCH   5   6
ATOM      6  C   UNL     1      -7.642  28.672   5.247  1.00  0.00     0.000 C 
BRANCH   6   7
ATOM      7  C   UNL     1      -7.734  30.198   5.083  1.00  0.00     0.000 C 
BRANCH   7   8
ATOM      8  C   UNL     1      -8.642  30.849   6.140  1.00  0.00     0.000 C 
BRANCH   8   9
ATOM      9  C   UNL     1      -8.178  32.264   6.522  1.00  0.00     0.000 C 
BRANCH   9  10
ATOM     10  C   UNL     1      -7.695  33.070   5.306  1.00  0.00     0.000 C 
BRANCH  10  11
ATOM     11  C   UNL     1      -8.143  34.535   5.402  1.00  0.00     0.000 C 
BRANCH  11  12
ATOM     12  C   UNL     1      -9.141  34.774   6.548  1.00  0.00     0.000 C 
BRANCH  12  13
ATOM     13  C   UNL     1      -9.305  36.266   6.886  1.00  0.00     0.006 C 
BRANCH  13  14
ATOM     14  C   UNL     1      -8.873  37.174   5.726  1.00  0.00     0.053 C 
BRANCH  14  15
ATOM     15  C   UNL     1      -9.041  38.627   6.052  1.00  0.00     0.041 C 
ATOM     16  O   UNL     1     -10.110  39.227   5.757  1.00  0.00    -0.550 OA
ATOM     17  O   UNL     1      -7.999  39.331   6.647  1.00  0.00    -0.550 OA
ENDBRANCH  14  15
ENDBRANCH  13  14
ENDBRANCH  12  13
ENDBRANCH  11  12
ENDBRANCH  10  11
ENDBRANCH   9  10
ENDBRANCH   8   9
ENDBRANCH   7   8
ENDBRANCH   6   7
ENDBRANCH   5   6
ENDBRANCH   4   5
ENDBRANCH   3   4
ENDBRANCH   2   3
ENDBRANCH   1   2
BRANCH   1  18
ATOM     18  C   UNL     1      -3.168  27.158   1.326  1.00  0.00     0.000 C 
BRANCH  18  19
ATOM     19  C   UNL     1      -1.719  27.022   0.834  1.00  0.00     0.000 C 
BRANCH  19  20
ATOM     20  C   UNL     1      -0.733  27.910   1.610  1.00  0.00     0.000 C 
BRANCH  20  21
ATOM     21  C   UNL     1       0.651  27.990   0.948  1.00  0.00     0.000 C 
BRANCH  21  22
ATOM     22  C   UNL     1       0.978  29.427   0.522  1.00  0.00     0.000 C 
BRANCH  22  23
ATOM     23  C   UNL     1       1.081  29.539  -1.005  1.00  0.00     0.000 C 
BRANCH  23  24
ATOM     24  C   UNL     1       0.556  28.289  -1.732  1.00  0.00    -0.000 C 
BRANCH  24  25
ATOM     25  C   UNL     1       1.573  27.668  -2.715  1.00  0.00    -0.000 C 
BRANCH  25  26
ATOM     26  C   UNL     1       1.697  28.468  -4.023  1.00  0.00    -0.000 C 
BRANCH  26  27
ATOM     27  C   UNL     1       2.998  29.283  -4.099  1.00  0.00    -0.000 C 
BRANCH  27  28
ATOM     28  C   UNL     1       4.120  28.705  -3.221  1.00  0.00    -0.000 C 
BRANCH  28  29
ATOM     29  C   UNL     1       4.939  29.827  -2.562  1.00  0.00    -0.000 C 
BRANCH  29  30
ATOM     30  C   UNL     1       4.068  31.013  -2.106  1.00  0.00    -0.000 C 
BRANCH  30  31
ATOM     31  C   UNL     1       4.616  32.399  -2.493  1.00  0.00    -0.003 C 
ATOM     32  C   UNL     1       6.033  32.339  -3.063  1.00  0.00     0.004 C 
ENDBRANCH  30  31
ENDBRANCH  29  30
ENDBRANCH  28  29
ENDBRANCH  27  28
ENDBRANCH  26  27
ENDBRANCH  25  26
ENDBRANCH  24  25
ENDBRANCH  23  24
ENDBRANCH  22  23
ENDBRANCH  21  22
ENDBRANCH  20  21
ENDBRANCH  19  20
ENDBRANCH  18  19
ENDBRANCH   1  18
TORSDOF 28
ENDMDL
MODEL 7
REMARK VINA RESULT:    -4.540      1.622      2.990
REMARK INTER + INTRA:         -15.657
REMARK INTER:                 -11.719
REMARK INTRA:                  -3.937
REMARK UNBOUND:                -3.685
REMARK SMILES CCCCCCCCCCCCCCCCCCCCCCCCCCCCCC(=O)[O-]
REMARK SMILES IDX 16 1 17 2 18 3 19 4 20 5 21 6 22 7 23 8 24 9 25 10 26 11
REMARK SMILES IDX 27 12 28 13 29 14 30 15 31 16 32 17 15 18 14 19 13 20 12 21
REMARK SMILES IDX 11 22 10 23 9 24 8 25 7 26 6 27 5 28 4 29 3 30 2 31 1 32
REMARK H PARENT
REMARK Flexibility Score: inf
ROOT
ATOM      1  C   UNL     1      -8.252  36.314   5.794  1.00  0.00     0.000 C 
ENDROOT
BRANCH   1   2
ATOM      2  C   UNL     1      -8.774  37.767   5.793  1.00  0.00     0.000 C 
BRANCH   2   3
ATOM      3  C   UNL     1     -10.254  37.852   5.386  1.00  0.00     0.000 C 
BRANCH   3   4
ATOM      4  C   UNL     1     -10.869  39.238   5.650  1.00  0.00     0.000 C 
BRANCH   4   5
ATOM      5  C   UNL     1     -11.934  39.237   6.766  1.00  0.00     0.000 C 
BRANCH   5   6
ATOM      6  C   UNL     1     -11.310  39.246   8.174  1.00  0.00     0.000 C 
BRANCH   6   7
ATOM      7  C   UNL     1     -11.912  38.165   9.086  1.00  0.00     0.000 C 
BRANCH   7   8
ATOM      8  C   UNL     1     -10.866  37.136   9.548  1.00  0.00     0.000 C 
BRANCH   8   9
ATOM      9  C   UNL     1     -10.774  35.928   8.601  1.00  0.00     0.000 C 
BRANCH   9  10
ATOM     10  C   UNL     1     -12.081  35.687   7.831  1.00  0.00     0.000 C 
BRANCH  10  11
ATOM     11  C   UNL     1     -12.682  34.317   8.179  1.00  0.00     0.000 C 
BRANCH  11  12
ATOM     12  C   UNL     1     -11.662  33.376   8.844  1.00  0.00     0.000 C 
BRANCH  12  13
ATOM     13  C   UNL     1     -12.335  32.245   9.640  1.00  0.00     0.006 C 
BRANCH  13  14
ATOM     14  C   UNL     1     -11.623  30.899   9.450  1.00  0.00     0.053 C 
BRANCH  14  15
ATOM     15  C   UNL     1     -11.910  30.290   8.111  1.00  0.00     0.041 C 
ATOM     16  O   UNL     1     -11.043  29.577   7.536  1.00  0.00    -0.550 OA
ATOM     17  O   UNL     1     -13.123  30.542   7.479  1.00  0.00    -0.550 OA
ENDBRANCH  14  15
ENDBRANCH  13  14
ENDBRANCH  12  13
ENDBRANCH  11  12
ENDBRANCH  10  11
ENDBRANCH   9  10
ENDBRANCH   8   9
ENDBRANCH   7   8
ENDBRANCH   6   7
ENDBRANCH   5   6
ENDBRANCH   4   5
ENDBRANCH   3   4
ENDBRANCH   2   3
ENDBRANCH   1   2
BRANCH   1  18
ATOM     18  C   UNL     1      -9.327  35.266   5.452  1.00  0.00     0.000 C 
BRANCH  18  19
ATOM     19  C   UNL     1      -8.766  33.837   5.393  1.00  0.00     0.000 C 
BRANCH  19  20
ATOM     20  C   UNL     1      -8.733  33.146   6.766  1.00  0.00     0.000 C 
BRANCH  20  21
ATOM     21  C   UNL     1      -8.327  31.666   6.682  1.00  0.00     0.000 C 
BRANCH  21  22
ATOM     22  C   UNL     1      -7.038  31.491   5.869  1.00  0.00     0.000 C 
BRANCH  22  23
ATOM     23  C   UNL     1      -5.799  31.754   6.737  1.00  0.00     0.000 C 
BRANCH  23  24
ATOM     24  C   UNL     1      -4.609  30.853   6.367  1.00  0.00    -0.000 C 
BRANCH  24  25
ATOM     25  C   UNL     1      -3.556  30.721   7.488  1.00  0.00    -0.000 C 
BRANCH  25  26
ATOM     26  C   UNL     1      -3.284  29.258   7.876  1.00  0.00    -0.000 C 
BRANCH  26  27
ATOM     27  C   UNL     1      -3.267  28.315   6.661  1.00  0.00    -0.000 C 
BRANCH  27  28
ATOM     28  C   UNL     1      -4.096  27.039   6.880  1.00  0.00    -0.000 C 
BRANCH  28  29
ATOM     29  C   UNL     1      -5.577  27.279   6.547  1.00  0.00    -0.000 C 
BRANCH  29  30
ATOM     30  C   UNL     1      -5.787  27.842   5.129  1.00  0.00    -0.000 C 
BRANCH  30  31
ATOM     31  C   UNL     1      -7.223  27.712   4.591  1.00  0.00    -0.003 C 
ATOM     32  C   UNL     1      -7.500  28.637   3.406  1.00  0.00     0.004 C 
ENDBRANCH  30  31
ENDBRANCH  29  30
ENDBRANCH  28  29
ENDBRANCH  27  28
ENDBRANCH  26  27
ENDBRANCH  25  26
ENDBRANCH  24  25
ENDBRANCH  23  24
ENDBRANCH  22  23
ENDBRANCH  21  22
ENDBRANCH  20  21
ENDBRANCH  19  20
ENDBRANCH  18  19
ENDBRANCH   1  18
TORSDOF 28
ENDMDL
MODEL 8
REMARK VINA RESULT:    -4.497      2.589      8.189
REMARK INTER + INTRA:         -15.544
REMARK INTER:                 -12.124
REMARK INTRA:                  -3.420
REMARK UNBOUND:                -3.685
REMARK SMILES CCCCCCCCCCCCCCCCCCCCCCCCCCCCCC(=O)[O-]
REMARK SMILES IDX 16 1 17 2 18 3 19 4 20 5 21 6 22 7 23 8 24 9 25 10 26 11
REMARK SMILES IDX 27 12 28 13 29 14 30 15 31 16 32 17 15 18 14 19 13 20 12 21
REMARK SMILES IDX 11 22 10 23 9 24 8 25 7 26 6 27 5 28 4 29 3 30 2 31 1 32
REMARK H PARENT
REMARK Flexibility Score: inf
ROOT
ATOM      1  C   UNL     1     -10.359  38.838   6.207  1.00  0.00     0.000 C 
ENDROOT
BRANCH   1   2
ATOM      2  C   UNL     1     -10.120  37.553   5.385  1.00  0.00     0.000 C 
BRANCH   2   3
ATOM      3  C   UNL     1      -8.748  36.925   5.675  1.00  0.00     0.000 C 
BRANCH   3   4
ATOM      4  C   UNL     1      -8.835  35.697   6.600  1.00  0.00     0.000 C 
BRANCH   4   5
ATOM      5  C   UNL     1      -9.308  34.417   5.881  1.00  0.00     0.000 C 
BRANCH   5   6
ATOM      6  C   UNL     1      -8.194  33.771   5.035  1.00  0.00     0.000 C 
BRANCH   6   7
ATOM      7  C   UNL     1      -6.892  33.584   5.830  1.00  0.00     0.000 C 
BRANCH   7   8
ATOM      8  C   UNL     1      -6.701  32.137   6.314  1.00  0.00     0.000 C 
BRANCH   8   9
ATOM      9  C   UNL     1      -7.403  31.116   5.404  1.00  0.00     0.000 C 
BRANCH   9  10
ATOM     10  C   UNL     1      -8.074  29.986   6.200  1.00  0.00     0.000 C 
BRANCH  10  11
ATOM     11  C   UNL     1      -7.257  28.688   6.110  1.00  0.00     0.000 C 
BRANCH  11  12
ATOM     12  C   UNL     1      -6.100  28.787   5.102  1.00  0.00     0.000 C 
BRANCH  12  13
ATOM     13  C   UNL     1      -4.859  27.996   5.550  1.00  0.00     0.006 C 
BRANCH  13  14
ATOM     14  C   UNL     1      -3.632  28.900   5.738  1.00  0.00     0.053 C 
BRANCH  14  15
ATOM     15  C   UNL     1      -3.139  28.896   7.154  1.00  0.00     0.041 C 
ATOM     16  O   UNL     1      -3.175  29.950   7.844  1.00  0.00    -0.550 OA
ATOM     17  O   UNL     1      -2.601  27.735   7.699  1.00  0.00    -0.550 OA
ENDBRANCH  14  15
ENDBRANCH  13  14
ENDBRANCH  12  13
ENDBRANCH  11  12
ENDBRANCH  10  11
ENDBRANCH   9  10
ENDBRANCH   8   9
ENDBRANCH   7   8
ENDBRANCH   6   7
ENDBRANCH   5   6
ENDBRANCH   4   5
ENDBRANCH   3   4
ENDBRANCH   2   3
ENDBRANCH   1   2
BRANCH   1  18
ATOM     18  C   UNL     1     -11.633  39.606   5.805  1.00  0.00     0.000 C 
BRANCH  18  19
ATOM     19  C   UNL     1     -12.724  39.552   6.885  1.00  0.00     0.000 C 
BRANCH  19  20
ATOM     20  C   UNL     1     -12.607  40.685   7.917  1.00  0.00     0.000 C 
BRANCH  20  21
ATOM     21  C   UNL     1     -12.280  40.177   9.330  1.00  0.00     0.000 C 
BRANCH  21  22
ATOM     22  C   UNL     1     -12.959  38.829   9.604  1.00  0.00     0.000 C 
BRANCH  22  23
ATOM     23  C   UNL     1     -11.985  37.846  10.268  1.00  0.00     0.000 C 
BRANCH  23  24
ATOM     24  C   UNL     1     -11.163  37.039   9.249  1.00  0.00    -0.000 C 
BRANCH  24  25
ATOM     25  C   UNL     1     -12.023  36.174   8.302  1.00  0.00    -0.000 C 
BRANCH  25  26
ATOM     26  C   UNL     1     -12.959  35.218   9.060  1.00  0.00    -0.000 C 
BRANCH  26  27
ATOM     27  C   UNL     1     -12.402  33.787   9.148  1.00  0.00    -0.000 C 
BRANCH  27  28
ATOM     28  C   UNL     1     -11.903  33.424  10.556  1.00  0.00    -0.000 C 
BRANCH  28  29
ATOM     29  C   UNL     1     -11.333  31.997  10.589  1.00  0.00    -0.000 C 
BRANCH  29  30
ATOM     30  C   UNL     1     -12.375  30.929  10.205  1.00  0.00    -0.000 C 
BRANCH  30  31
ATOM     31  C   UNL     1     -11.905  29.930   9.131  1.00  0.00    -0.003 C 
ATOM     32  C   UNL     1     -11.310  30.617   7.901  1.00  0.00     0.004 C 
ENDBRANCH  30  31
ENDBRANCH  29  30
ENDBRANCH  28  29
ENDBRANCH  27  28
ENDBRANCH  26  27
ENDBRANCH  25  26
ENDBRANCH  24  25
ENDBRANCH  23  24
ENDBRANCH  22  23
ENDBRANCH  21  22
ENDBRANCH  20  21
ENDBRANCH  19  20
ENDBRANCH  18  19
ENDBRANCH   1  18
TORSDOF 28
ENDMDL
MODEL 9
REMARK VINA RESULT:    -4.491      6.330     13.040
REMARK INTER + INTRA:         -15.527
REMARK INTER:                 -12.842
REMARK INTRA:                  -2.685
REMARK UNBOUND:                -3.685
REMARK SMILES CCCCCCCCCCCCCCCCCCCCCCCCCCCCCC(=O)[O-]
REMARK SMILES IDX 16 1 17 2 18 3 19 4 20 5 21 6 22 7 23 8 24 9 25 10 26 11
REMARK SMILES IDX 27 12 28 13 29 14 30 15 31 16 32 17 15 18 14 19 13 20 12 21
REMARK SMILES IDX 11 22 10 23 9 24 8 25 7 26 6 27 5 28 4 29 3 30 2 31 1 32
REMARK H PARENT
REMARK Flexibility Score: inf
ROOT
ATOM      1  C   UNL     1      -8.551  31.320   6.025  1.00  0.00     0.000 C 
ENDROOT
BRANCH   1   2
ATOM      2  C   UNL     1      -7.262  30.555   5.659  1.00  0.00     0.000 C 
BRANCH   2   3
ATOM      3  C   UNL     1      -7.490  29.539   4.528  1.00  0.00     0.000 C 
BRANCH   3   4
ATOM      4  C   UNL     1      -7.138  28.098   4.939  1.00  0.00     0.000 C 
BRANCH   4   5
ATOM      5  C   UNL     1      -5.763  27.628   4.422  1.00  0.00     0.000 C 
BRANCH   5   6
ATOM      6  C   UNL     1      -5.258  28.477   3.241  1.00  0.00     0.000 C 
BRANCH   6   7
ATOM      7  C   UNL     1      -3.761  28.261   2.964  1.00  0.00     0.000 C 
BRANCH   7   8
ATOM      8  C   UNL     1      -3.419  28.366   1.468  1.00  0.00     0.000 C 
BRANCH   8   9
ATOM      9  C   UNL     1      -2.049  27.753   1.135  1.00  0.00     0.000 C 
BRANCH   9  10
ATOM     10  C   UNL     1      -1.240  28.622   0.160  1.00  0.00     0.000 C 
BRANCH  10  11
ATOM     11  C   UNL     1       0.133  28.979   0.750  1.00  0.00     0.000 C 
BRANCH  11  12
ATOM     12  C   UNL     1       0.797  30.163   0.026  1.00  0.00     0.000 C 
BRANCH  12  13
ATOM     13  C   UNL     1       2.083  29.755  -0.714  1.00  0.00     0.006 C 
BRANCH  13  14
ATOM     14  C   UNL     1       1.790  29.152  -2.095  1.00  0.00     0.053 C 
BRANCH  14  15
ATOM     15  C   UNL     1       2.867  29.468  -3.090  1.00  0.00     0.041 C 
ATOM     16  O   UNL     1       2.567  29.812  -4.265  1.00  0.00    -0.550 OA
ATOM     17  O   UNL     1       4.204  29.343  -2.729  1.00  0.00    -0.550 OA
ENDBRANCH  14  15
ENDBRANCH  13  14
ENDBRANCH  12  13
ENDBRANCH  11  12
ENDBRANCH  10  11
ENDBRANCH   9  10
ENDBRANCH   8   9
ENDBRANCH   7   8
ENDBRANCH   6   7
ENDBRANCH   5   6
ENDBRANCH   4   5
ENDBRANCH   3   4
ENDBRANCH   2   3
ENDBRANCH   1   2
BRANCH   1  18
ATOM     18  C   UNL     1      -8.304  32.762   6.507  1.00  0.00     0.000 C 
BRANCH  18  19
ATOM     19  C   UNL     1      -8.682  33.814   5.454  1.00  0.00     0.000 C 
BRANCH  19  20
ATOM     20  C   UNL     1      -7.883  35.120   5.593  1.00  0.00     0.000 C 
BRANCH  20  21
ATOM     21  C   UNL     1      -8.740  36.375   5.359  1.00  0.00     0.000 C 
BRANCH  21  22
ATOM     22  C   UNL     1      -8.232  37.555   6.198  1.00  0.00     0.000 C 
BRANCH  22  23
ATOM     23  C   UNL     1      -9.110  38.796   5.991  1.00  0.00     0.000 C 
BRANCH  23  24
ATOM     24  C   UNL     1     -10.603  38.455   5.847  1.00  0.00    -0.000 C 
BRANCH  24  25
ATOM     25  C   UNL     1     -11.540  39.665   6.048  1.00  0.00    -0.000 C 
BRANCH  25  26
ATOM     26  C   UNL     1     -12.401  39.542   7.317  1.00  0.00    -0.000 C 
BRANCH  26  27
ATOM     27  C   UNL     1     -11.557  39.430   8.598  1.00  0.00    -0.000 C 
BRANCH  27  28
ATOM     28  C   UNL     1     -12.296  38.715   9.742  1.00  0.00    -0.000 C 
BRANCH  28  29
ATOM     29  C   UNL     1     -12.010  37.205   9.725  1.00  0.00    -0.000 C 
BRANCH  29  30
ATOM     30  C   UNL     1     -10.582  36.874   9.253  1.00  0.00    -0.000 C 
BRANCH  30  31
ATOM     31  C   UNL     1     -10.459  35.569   8.443  1.00  0.00    -0.003 C 
ATOM     32  C   UNL     1     -11.657  35.325   7.526  1.00  0.00     0.004 C 
ENDBRANCH  30  31
ENDBRANCH  29  30
ENDBRANCH  28  29
ENDBRANCH  27  28
ENDBRANCH  26  27
ENDBRANCH  25  26
ENDBRANCH  24  25
ENDBRANCH  23  24
ENDBRANCH  22  23
ENDBRANCH  21  22
ENDBRANCH  20  21
ENDBRANCH  19  20
ENDBRANCH  18  19
ENDBRANCH   1  18
TORSDOF 28
ENDMDL
