MODEL 1
REMARK VINA RESULT:    -2.636      0.000      0.000
REMARK INTER + INTRA:          -2.636
REMARK INTER:                  -2.636
REMARK INTRA:                   0.000
REMARK UNBOUND:                 0.000
REMARK SMILES CC(=O)[O-]
REMARK SMILES IDX 1 1 2 2 3 3 4 4
REMARK H PARENT
REMARK Flexibility Score: inf
ROOT
ATOM      1  C   UNL     1       7.741   2.200   6.750  1.00  0.00     0.063 C 
ATOM      2  C   UNL     1       8.822   3.143   7.157  1.00  0.00     0.038 C 
ATOM      3  O   UNL     1       8.581   4.061   7.985  1.00  0.00    -0.550 OA
ATOM      4  O   UNL     1      10.083   3.045   6.584  1.00  0.00    -0.550 OA
ENDROOT
TORSDOF 0
ENDMDL
MODEL 2
REMARK VINA RESULT:    -2.541     18.034     18.270
REMARK INTER + INTRA:          -2.541
REMARK INTER:                  -2.541
REMARK INTRA:                   0.000
REMARK UNBOUND:                 0.000
REMARK SMILES CC(=O)[O-]
REMARK SMILES IDX 1 1 2 2 3 3 4 4
REMARK H PARENT
REMARK Flexibility Score: inf
ROOT
ATOM      1  C   UNL     1       2.146   6.398  -9.694  1.00  0.00     0.063 C 
ATOM      2  C   UNL     1       0.866   6.283  -8.939  1.00  0.00     0.038 C 
ATOM      3  O   UNL     1      -0.225   6.569  -9.499  1.00  0.00    -0.550 OA
ATOM      4  O   UNL     1       0.877   5.912  -7.601  1.00  0.00    -0.550 OA
ENDROOT
TORSDOF 0
ENDMDL
MODEL 3
REMARK VINA RESULT:    -2.478     17.774     18.002
REMARK INTER + INTRA:          -2.478
REMARK INTER:                  -2.478
REMARK INTRA:                   0.000
REMARK UNBOUND:                 0.000
REMARK SMILES CC(=O)[O-]
REMARK SMILES IDX 1 1 2 2 3 3 4 4
REMARK H PARENT
REMARK Flexibility Score: inf
ROOT
ATOM      1  C   UNL     1      -0.054   7.067  -9.475  1.00  0.00     0.063 C 
ATOM      2  C   UNL     1       1.043   6.423  -8.697  1.00  0.00     0.038 C 
ATOM      3  O   UNL     1       0.795   5.875  -7.591  1.00  0.00    -0.550 OA
ATOM      4  O   UNL     1       2.350   6.475  -9.163  1.00  0.00    -0.550 OA
ENDROOT
TORSDOF 0
ENDMDL
MODEL 4
REMARK VINA RESULT:    -2.261     10.903     11.102
REMARK INTER + INTRA:          -2.261
REMARK INTER:                  -2.261
REMARK INTRA:                   0.000
REMARK UNBOUND:                 0.000
REMARK SMILES CC(=O)[O-]
REMARK SMILES IDX 1 1 2 2 3 3 4 4
REMARK H PARENT
REMARK Flexibility Score: inf
ROOT
ATOM      1  C   UNL     1      -1.129  -2.121   4.130  1.00  0.00     0.063 C 
ATOM      2  C   UNL     1      -1.230  -0.836   4.880  1.00  0.00     0.038 C 
ATOM      3  O   UNL     1      -1.464  -0.844   6.117  1.00  0.00    -0.550 OA
ATOM      4  O   UNL     1      -1.119   0.373   4.207  1.00  0.00    -0.550 OA
ENDROOT
TORSDOF 0
ENDMDL
MODEL 5
REMARK VINA RESULT:    -2.198      1.479      2.081
REMARK INTER + INTRA:          -2.198
REMARK INTER:                  -2.198
REMARK INTRA:                   0.000
REMARK UNBOUND:                 0.000
REMARK SMILES CC(=O)[O-]
REMARK SMILES IDX 1 1 2 2 3 3 4 4
REMARK H PARENT
REMARK Flexibility Score: inf
ROOT
ATOM      1  C   UNL     1       8.602   3.867   7.869  1.00  0.00     0.063 C 
ATOM      2  C   UNL     1       8.916   2.852   6.822  1.00  0.00     0.038 C 
ATOM      3  O   UNL     1      10.009   2.904   6.199  1.00  0.00    -0.550 OA
ATOM      4  O   UNL     1       7.981   1.879   6.494  1.00  0.00    -0.550 OA
ENDROOT
TORSDOF 0
ENDMDL
MODEL 6
REMARK VINA RESULT:    -2.186     22.169     22.498
REMARK INTER + INTRA:          -2.186
REMARK INTER:                  -2.186
REMARK INTRA:                   0.000
REMARK UNBOUND:                 0.000
REMARK SMILES CC(=O)[O-]
REMARK SMILES IDX 1 1 2 2 3 3 4 4
REMARK H PARENT
REMARK Flexibility Score: inf
ROOT
ATOM      1  C   UNL     1      -4.879  -6.639  -7.530  1.00  0.00     0.063 C 
ATOM      2  C   UNL     1      -3.871  -7.665  -7.923  1.00  0.00     0.038 C 
ATOM      3  O   UNL     1      -3.503  -7.762  -9.124  1.00  0.00    -0.550 OA
ATOM      4  O   UNL     1      -3.375  -8.552  -6.977  1.00  0.00    -0.550 OA
ENDROOT
TORSDOF 0
ENDMDL
MODEL 7
REMARK VINA RESULT:    -2.177     22.156     22.463
REMARK INTER + INTRA:          -2.177
REMARK INTER:                  -2.177
REMARK INTRA:                   0.000
REMARK UNBOUND:                 0.000
REMARK SMILES CC(=O)[O-]
REMARK SMILES IDX 1 1 2 2 3 3 4 4
REMARK H PARENT
REMARK Flexibility Score: inf
ROOT
ATOM      1  C   UNL     1      -4.936  -6.675  -7.471  1.00  0.00     0.063 C 
ATOM      2  C   UNL     1      -3.912  -7.693  -7.845  1.00  0.00     0.038 C 
ATOM      3  O   UNL     1      -3.424  -8.450  -6.965  1.00  0.00    -0.550 OA
ATOM      4  O   UNL     1      -3.454  -7.772  -9.154  1.00  0.00    -0.550 OA
ENDROOT
TORSDOF 0
ENDMDL
MODEL 8
REMARK VINA RESULT:    -2.063     10.872     11.127
REMARK INTER + INTRA:          -2.063
REMARK INTER:                  -2.063
REMARK INTRA:                   0.000
REMARK UNBOUND:                 0.000
REMARK SMILES CC(=O)[O-]
REMARK SMILES IDX 1 1 2 2 3 3 4 4
REMARK H PARENT
REMARK Flexibility Score: inf
ROOT
ATOM      1  C   UNL     1      -1.457  -1.114   5.999  1.00  0.00     0.063 C 
ATOM      2  C   UNL     1      -1.161  -0.805   4.571  1.00  0.00     0.038 C 
ATOM      3  O   UNL     1      -1.062   0.391   4.191  1.00  0.00    -0.550 OA
ATOM      4  O   UNL     1      -1.047  -1.834   3.645  1.00  0.00    -0.550 OA
ENDROOT
TORSDOF 0
ENDMDL
