MODEL 1
REMARK VINA RESULT:     6.913      0.000      0.000
REMARK INTER + INTRA:           9.552
REMARK INTER:                   8.530
REMARK INTRA:                   1.022
REMARK UNBOUND:                 1.022
REMARK SMILES C=C1[C@@H]2CC[C@H]3[C@@H]2C(C)(C)CCC[C@@]13C
REMARK SMILES IDX 14 1 6 2 7 3 3 4 2 5 1 6 4 7 5 8 15 9 8 10 9 11 10 12 11 13
REMARK SMILES IDX 13 15 12 16
REMARK H PARENT
REMARK Flexibility Score: 80.00
ROOT
ATOM      1  C   UNL     1     -15.181  -3.216  16.435  1.00  0.00    -0.008 C 
ATOM      2  C   UNL     1     -15.797  -2.794  17.824  1.00  0.00     0.003 C 
ATOM      3  C   UNL     1     -15.534  -1.275  17.921  1.00  0.00     0.006 C 
ATOM      4  C   UNL     1     -14.046  -1.404  17.626  1.00  0.00     0.019 C 
ATOM      5  C   UNL     1     -14.053  -2.213  16.360  1.00  0.00    -0.068 C 
ATOM      6  C   UNL     1     -13.134  -2.118  15.390  1.00  0.00     0.009 C 
ATOM      7  C   UNL     1     -13.607  -2.357  18.762  1.00  0.00     0.008 C 
ATOM      8  C   UNL     1     -14.854  -3.254  18.969  1.00  0.00     0.005 C 
ATOM      9  C   UNL     1     -14.609  -4.659  16.407  1.00  0.00     0.016 C 
ENDROOT
BRANCH   3  10
ATOM     10  C   UNL     1     -16.389  -0.255  17.078  1.00  0.00    -0.032 C 
ATOM     11  C   UNL     1     -17.781  -0.111  17.752  1.00  0.00     0.011 C 
ATOM     12  C   UNL     1     -15.718   1.139  17.146  1.00  0.00     0.011 C 
BRANCH  10  13
ATOM     13  C   UNL     1     -16.565  -0.604  15.574  1.00  0.00     0.007 CG0
ATOM     14  G   UNL     1     -17.203  -1.969  15.309  1.00  0.00     0.000 G0
ENDBRANCH  10  13
ENDBRANCH   3  10
BRANCH   1  15
ATOM     15  C   UNL     1     -16.178  -3.099  15.244  1.00  0.00     0.011 C 
BRANCH  15  16
ATOM     16  C   UNL     1     -17.202  -1.968  15.305  1.00  0.00     0.001 CG0
ATOM     17  G   UNL     1     -16.570  -0.601  15.570  1.00  0.00     0.000 G0
ENDBRANCH  15  16
ENDBRANCH   1  15
TORSDOF 0
ENDMDL
