MODEL 1
REMARK VINA RESULT:    -6.187      0.000      0.000
REMARK INTER + INTRA:          -8.886
REMARK INTER:                  -7.815
REMARK INTRA:                  -1.071
REMARK UNBOUND:                -1.071
REMARK SMILES O=C(C=Cc1ccc(O)cc1)c1ccc(O)cc1O
REMARK SMILES IDX 4 1 3 2 5 3 6 4 7 5 8 6 11 7 10 8 9 9 2 11 1 12 12 13 18 14
REMARK SMILES IDX 13 15 17 16 14 17 15 18 19 19 16 21
REMARK H PARENT 9 10 19 20 16 22
REMARK Flexibility Score: inf
ROOT
ATOM      1  C   UNL     1      -1.084   3.375  -3.350  1.00  0.00     0.012 C 
ATOM      2  C   UNL     1      -0.201   2.575  -2.729  1.00  0.00     0.053 C 
ENDROOT
BRANCH   1   3
ATOM      3  C   UNL     1      -1.932   2.989  -4.495  1.00  0.00    -0.025 A 
ATOM      4  C   UNL     1      -1.561   3.308  -5.812  1.00  0.00     0.012 A 
ATOM      5  C   UNL     1      -2.403   2.981  -6.880  1.00  0.00     0.047 A 
ATOM      6  C   UNL     1      -3.634   2.354  -6.639  1.00  0.00     0.115 A 
ATOM      7  C   UNL     1      -3.178   2.389  -4.257  1.00  0.00     0.012 A 
ATOM      8  C   UNL     1      -4.018   2.063  -5.326  1.00  0.00     0.047 A 
BRANCH   6   9
ATOM      9  O   UNL     1      -4.481   2.022  -7.694  1.00  0.00    -0.508 OA
ATOM     10  H   UNL     1      -5.203   1.319  -7.591  1.00  0.00     0.293 HD
ENDBRANCH   6   9
ENDBRANCH   1   3
BRANCH   2  11
ATOM     11  C   UNL     1      -0.042   1.117  -2.960  1.00  0.00     0.189 C 
ATOM     12  O   UNL     1      -0.736   0.283  -2.317  1.00  0.00    -0.289 OA
BRANCH  11  13
ATOM     13  C   UNL     1       0.936   0.611  -3.946  1.00  0.00     0.064 A 
ATOM     14  C   UNL     1       2.297   0.433  -3.618  1.00  0.00     0.130 A 
ATOM     15  C   UNL     1       0.489   0.269  -5.232  1.00  0.00     0.020 A 
ATOM     16  C   UNL     1       3.192  -0.038  -4.591  1.00  0.00     0.093 A 
ATOM     17  C   UNL     1       1.386  -0.205  -6.192  1.00  0.00     0.047 A 
ATOM     18  C   UNL     1       2.740  -0.356  -5.875  1.00  0.00     0.119 A 
BRANCH  14  19
ATOM     19  O   UNL     1       2.755   0.695  -2.328  1.00  0.00    -0.507 OA
ATOM     20  H   UNL     1       3.147   1.595  -2.075  1.00  0.00     0.293 HD
ENDBRANCH  14  19
BRANCH  18  21
ATOM     21  O   UNL     1       3.645  -0.824  -6.825  1.00  0.00    -0.508 OA
ATOM     22  H   UNL     1       3.861  -1.811  -6.909  1.00  0.00     0.293 HD
ENDBRANCH  18  21
ENDBRANCH  11  13
ENDBRANCH   2  11
TORSDOF 6
ENDMDL
MODEL 2
REMARK VINA RESULT:    -6.176      2.216      5.411
REMARK INTER + INTRA:          -8.872
REMARK INTER:                  -7.664
REMARK INTRA:                  -1.208
REMARK UNBOUND:                -1.071
REMARK SMILES O=C(C=Cc1ccc(O)cc1)c1ccc(O)cc1O
REMARK SMILES IDX 4 1 3 2 5 3 6 4 7 5 8 6 11 7 10 8 9 9 2 11 1 12 12 13 18 14
REMARK SMILES IDX 13 15 17 16 14 17 15 18 19 19 16 21
REMARK H PARENT 9 10 19 20 16 22
REMARK Flexibility Score: inf
ROOT
ATOM      1  C   UNL     1      -1.401   1.121  -5.642  1.00  0.00     0.012 C 
ATOM      2  C   UNL     1      -2.003   1.987  -4.810  1.00  0.00     0.053 C 
ENDROOT
BRANCH   1   3
ATOM      3  C   UNL     1      -0.135   0.411  -5.369  1.00  0.00    -0.025 A 
ATOM      4  C   UNL     1      -0.132  -0.864  -4.777  1.00  0.00     0.012 A 
ATOM      5  C   UNL     1       1.078  -1.499  -4.479  1.00  0.00     0.047 A 
ATOM      6  C   UNL     1       2.295  -0.855  -4.746  1.00  0.00     0.115 A 
ATOM      7  C   UNL     1       1.085   1.063  -5.606  1.00  0.00     0.012 A 
ATOM      8  C   UNL     1       2.293   0.427  -5.306  1.00  0.00     0.047 A 
BRANCH   6   9
ATOM      9  O   UNL     1       3.507  -1.477  -4.454  1.00  0.00    -0.508 OA
ATOM     10  H   UNL     1       3.711  -2.415  -4.778  1.00  0.00     0.293 HD
ENDBRANCH   6   9
ENDBRANCH   1   3
BRANCH   2  11
ATOM     11  C   UNL     1      -1.609   2.254  -3.404  1.00  0.00     0.189 C 
ATOM     12  O   UNL     1      -2.029   1.523  -2.467  1.00  0.00    -0.289 OA
BRANCH  11  13
ATOM     13  C   UNL     1      -0.719   3.387  -3.072  1.00  0.00     0.064 A 
ATOM     14  C   UNL     1       0.482   3.204  -2.355  1.00  0.00     0.130 A 
ATOM     15  C   UNL     1      -1.067   4.675  -3.512  1.00  0.00     0.020 A 
ATOM     16  C   UNL     1       1.288   4.312  -2.051  1.00  0.00     0.093 A 
ATOM     17  C   UNL     1      -0.255   5.771  -3.211  1.00  0.00     0.047 A 
ATOM     18  C   UNL     1       0.922   5.592  -2.476  1.00  0.00     0.119 A 
BRANCH  14  19
ATOM     19  O   UNL     1       0.888   1.928  -1.967  1.00  0.00    -0.507 OA
ATOM     20  H   UNL     1       1.849   1.622  -2.066  1.00  0.00     0.293 HD
ENDBRANCH  14  19
BRANCH  18  21
ATOM     21  O   UNL     1       1.739   6.678  -2.166  1.00  0.00    -0.508 OA
ATOM     22  H   UNL     1       2.667   6.772  -2.562  1.00  0.00     0.293 HD
ENDBRANCH  18  21
ENDBRANCH  11  13
ENDBRANCH   2  11
TORSDOF 6
ENDMDL
MODEL 3
REMARK VINA RESULT:    -6.175      4.385      6.667
REMARK INTER + INTRA:          -8.870
REMARK INTER:                  -7.843
REMARK INTRA:                  -1.027
REMARK UNBOUND:                -1.071
REMARK SMILES O=C(C=Cc1ccc(O)cc1)c1ccc(O)cc1O
REMARK SMILES IDX 4 1 3 2 5 3 6 4 7 5 8 6 11 7 10 8 9 9 2 11 1 12 12 13 18 14
REMARK SMILES IDX 13 15 17 16 14 17 15 18 19 19 16 21
REMARK H PARENT 9 10 19 20 16 22
REMARK Flexibility Score: inf
ROOT
ATOM      1  C   UNL     1      -2.246  -0.768  -4.921  1.00  0.00     0.012 C 
ATOM      2  C   UNL     1      -3.135  -0.747  -3.914  1.00  0.00     0.053 C 
ENDROOT
BRANCH   1   3
ATOM      3  C   UNL     1      -0.791  -0.965  -4.775  1.00  0.00    -0.025 A 
ATOM      4  C   UNL     1       0.020   0.021  -4.187  1.00  0.00     0.012 A 
ATOM      5  C   UNL     1       1.404  -0.161  -4.105  1.00  0.00     0.047 A 
ATOM      6  C   UNL     1       1.994  -1.318  -4.632  1.00  0.00     0.115 A 
ATOM      7  C   UNL     1      -0.191  -2.107  -5.328  1.00  0.00     0.012 A 
ATOM      8  C   UNL     1       1.193  -2.287  -5.246  1.00  0.00     0.047 A 
BRANCH   6   9
ATOM      9  O   UNL     1       3.371  -1.511  -4.556  1.00  0.00    -0.508 OA
ATOM     10  H   UNL     1       3.851  -1.554  -3.664  1.00  0.00     0.293 HD
ENDBRANCH   6   9
ENDBRANCH   1   3
BRANCH   2  11
ATOM     11  C   UNL     1      -2.848  -1.091  -2.499  1.00  0.00     0.189 C 
ATOM     12  O   UNL     1      -2.456  -0.209  -1.688  1.00  0.00    -0.289 OA
BRANCH  11  13
ATOM     13  C   UNL     1      -3.011  -2.477  -2.012  1.00  0.00     0.064 A 
ATOM     14  C   UNL     1      -3.770  -2.777  -0.861  1.00  0.00     0.130 A 
ATOM     15  C   UNL     1      -2.419  -3.525  -2.735  1.00  0.00     0.020 A 
ATOM     16  C   UNL     1      -3.885  -4.107  -0.428  1.00  0.00     0.093 A 
ATOM     17  C   UNL     1      -2.545  -4.847  -2.302  1.00  0.00     0.047 A 
ATOM     18  C   UNL     1      -3.275  -5.140  -1.144  1.00  0.00     0.119 A 
BRANCH  14  19
ATOM     19  O   UNL     1      -4.428  -1.764  -0.164  1.00  0.00    -0.507 OA
ATOM     20  H   UNL     1      -5.376  -1.881   0.175  1.00  0.00     0.293 HD
ENDBRANCH  14  19
BRANCH  18  21
ATOM     21  O   UNL     1      -3.405  -6.454  -0.699  1.00  0.00    -0.508 OA
ATOM     22  H   UNL     1      -2.870  -6.801   0.089  1.00  0.00     0.293 HD
ENDBRANCH  18  21
ENDBRANCH  11  13
ENDBRANCH   2  11
TORSDOF 6
ENDMDL
MODEL 4
REMARK VINA RESULT:    -5.999      7.086      9.237
REMARK INTER + INTRA:          -8.648
REMARK INTER:                  -7.407
REMARK INTRA:                  -1.241
REMARK UNBOUND:                -1.071
REMARK SMILES O=C(C=Cc1ccc(O)cc1)c1ccc(O)cc1O
REMARK SMILES IDX 4 1 3 2 5 3 6 4 7 5 8 6 11 7 10 8 9 9 2 11 1 12 12 13 18 14
REMARK SMILES IDX 13 15 17 16 14 17 15 18 19 19 16 21
REMARK H PARENT 9 10 19 20 16 22
REMARK Flexibility Score: inf
ROOT
ATOM      1  C   UNL     1      -6.480  -2.719  -2.735  1.00  0.00     0.012 C 
ATOM      2  C   UNL     1      -7.475  -2.653  -1.834  1.00  0.00     0.053 C 
ENDROOT
BRANCH   1   3
ATOM      3  C   UNL     1      -5.123  -2.166  -2.554  1.00  0.00    -0.025 A 
ATOM      4  C   UNL     1      -4.041  -2.996  -2.215  1.00  0.00     0.012 A 
ATOM      5  C   UNL     1      -2.773  -2.447  -1.996  1.00  0.00     0.047 A 
ATOM      6  C   UNL     1      -2.582  -1.061  -2.090  1.00  0.00     0.115 A 
ATOM      7  C   UNL     1      -4.932  -0.777  -2.616  1.00  0.00     0.012 A 
ATOM      8  C   UNL     1      -3.664  -0.230  -2.396  1.00  0.00     0.047 A 
BRANCH   6   9
ATOM      9  O   UNL     1      -1.324  -0.503  -1.874  1.00  0.00    -0.508 OA
ATOM     10  H   UNL     1      -0.482  -1.066  -1.908  1.00  0.00     0.293 HD
ENDBRANCH   6   9
ENDBRANCH   1   3
BRANCH   2  11
ATOM     11  C   UNL     1      -7.346  -2.178  -0.434  1.00  0.00     0.189 C 
ATOM     12  O   UNL     1      -7.629  -0.988  -0.129  1.00  0.00    -0.289 OA
BRANCH  11  13
ATOM     13  C   UNL     1      -6.877  -3.088   0.632  1.00  0.00     0.064 A 
ATOM     14  C   UNL     1      -5.640  -2.896   1.282  1.00  0.00     0.130 A 
ATOM     15  C   UNL     1      -7.703  -4.153   1.027  1.00  0.00     0.020 A 
ATOM     16  C   UNL     1      -5.230  -3.794   2.280  1.00  0.00     0.093 A 
ATOM     17  C   UNL     1      -7.290  -5.038   2.026  1.00  0.00     0.047 A 
ATOM     18  C   UNL     1      -6.051  -4.863   2.652  1.00  0.00     0.119 A 
BRANCH  14  19
ATOM     19  O   UNL     1      -4.832  -1.806   0.961  1.00  0.00    -0.507 OA
ATOM     20  H   UNL     1      -4.915  -1.326   0.072  1.00  0.00     0.293 HD
ENDBRANCH  14  19
BRANCH  18  21
ATOM     21  O   UNL     1      -5.627  -5.741   3.647  1.00  0.00    -0.508 OA
ATOM     22  H   UNL     1      -4.707  -5.661   4.065  1.00  0.00     0.293 HD
ENDBRANCH  18  21
ENDBRANCH  11  13
ENDBRANCH   2  11
TORSDOF 6
ENDMDL
MODEL 5
REMARK VINA RESULT:    -5.940      6.446      8.656
REMARK INTER + INTRA:          -8.574
REMARK INTER:                  -7.483
REMARK INTRA:                  -1.090
REMARK UNBOUND:                -1.071
REMARK SMILES O=C(C=Cc1ccc(O)cc1)c1ccc(O)cc1O
REMARK SMILES IDX 4 1 3 2 5 3 6 4 7 5 8 6 11 7 10 8 9 9 2 11 1 12 12 13 18 14
REMARK SMILES IDX 13 15 17 16 14 17 15 18 19 19 16 21
REMARK H PARENT 9 10 19 20 16 22
REMARK Flexibility Score: inf
ROOT
ATOM      1  C   UNL     1      -5.187  -2.869  -3.618  1.00  0.00     0.012 C 
ATOM      2  C   UNL     1      -5.821  -2.283  -2.590  1.00  0.00     0.053 C 
ENDROOT
BRANCH   1   3
ATOM      3  C   UNL     1      -3.724  -3.029  -3.743  1.00  0.00    -0.025 A 
ATOM      4  C   UNL     1      -3.095  -4.238  -3.400  1.00  0.00     0.012 A 
ATOM      5  C   UNL     1      -1.703  -4.353  -3.475  1.00  0.00     0.047 A 
ATOM      6  C   UNL     1      -0.926  -3.255  -3.869  1.00  0.00     0.115 A 
ATOM      7  C   UNL     1      -2.939  -1.924  -4.107  1.00  0.00     0.012 A 
ATOM      8  C   UNL     1      -1.548  -2.042  -4.181  1.00  0.00     0.047 A 
BRANCH   6   9
ATOM      9  O   UNL     1       0.461  -3.358  -3.948  1.00  0.00    -0.508 OA
ATOM     10  H   UNL     1       1.037  -2.562  -4.197  1.00  0.00     0.293 HD
ENDBRANCH   6   9
ENDBRANCH   1   3
BRANCH   2  11
ATOM     11  C   UNL     1      -5.192  -1.851  -1.317  1.00  0.00     0.189 C 
ATOM     12  O   UNL     1      -4.584  -0.750  -1.239  1.00  0.00    -0.289 OA
BRANCH  11  13
ATOM     13  C   UNL     1      -5.262  -2.706  -0.113  1.00  0.00     0.064 A 
ATOM     14  C   UNL     1      -5.894  -2.273   1.071  1.00  0.00     0.130 A 
ATOM     15  C   UNL     1      -4.710  -3.996  -0.164  1.00  0.00     0.020 A 
ATOM     16  C   UNL     1      -5.924  -3.115   2.194  1.00  0.00     0.093 A 
ATOM     17  C   UNL     1      -4.750  -4.830   0.956  1.00  0.00     0.047 A 
ATOM     18  C   UNL     1      -5.354  -4.389   2.139  1.00  0.00     0.119 A 
BRANCH  14  19
ATOM     19  O   UNL     1      -6.514  -1.025   1.128  1.00  0.00    -0.507 OA
ATOM     20  H   UNL     1      -6.363  -0.390   1.904  1.00  0.00     0.293 HD
ENDBRANCH  14  19
BRANCH  18  21
ATOM     21  O   UNL     1      -5.397  -5.210   3.264  1.00  0.00    -0.508 OA
ATOM     22  H   UNL     1      -5.348  -4.826   4.201  1.00  0.00     0.293 HD
ENDBRANCH  18  21
ENDBRANCH  11  13
ENDBRANCH   2  11
TORSDOF 6
ENDMDL
MODEL 6
REMARK VINA RESULT:    -5.940      4.325      5.646
REMARK INTER + INTRA:          -8.573
REMARK INTER:                  -7.577
REMARK INTRA:                  -0.996
REMARK UNBOUND:                -1.071
REMARK SMILES O=C(C=Cc1ccc(O)cc1)c1ccc(O)cc1O
REMARK SMILES IDX 4 1 3 2 5 3 6 4 7 5 8 6 11 7 10 8 9 9 2 11 1 12 12 13 18 14
REMARK SMILES IDX 13 15 17 16 14 17 15 18 19 19 16 21
REMARK H PARENT 9 10 19 20 16 22
REMARK Flexibility Score: inf
ROOT
ATOM      1  C   UNL     1      -4.037  -1.828  -3.722  1.00  0.00     0.012 C 
ATOM      2  C   UNL     1      -3.330  -0.702  -3.913  1.00  0.00     0.053 C 
ENDROOT
BRANCH   1   3
ATOM      3  C   UNL     1      -3.688  -2.908  -2.777  1.00  0.00    -0.025 A 
ATOM      4  C   UNL     1      -3.126  -4.114  -3.230  1.00  0.00     0.012 A 
ATOM      5  C   UNL     1      -2.850  -5.146  -2.326  1.00  0.00     0.047 A 
ATOM      6  C   UNL     1      -3.157  -4.990  -0.967  1.00  0.00     0.115 A 
ATOM      7  C   UNL     1      -4.020  -2.770  -1.421  1.00  0.00     0.012 A 
ATOM      8  C   UNL     1      -3.745  -3.803  -0.519  1.00  0.00     0.047 A 
BRANCH   6   9
ATOM      9  O   UNL     1      -2.887  -6.010  -0.057  1.00  0.00    -0.508 OA
ATOM     10  H   UNL     1      -2.879  -5.840   0.942  1.00  0.00     0.293 HD
ENDBRANCH   6   9
ENDBRANCH   1   3
BRANCH   2  11
ATOM     11  C   UNL     1      -2.176  -0.254  -3.095  1.00  0.00     0.189 C 
ATOM     12  O   UNL     1      -2.356   0.405  -2.035  1.00  0.00    -0.289 OA
BRANCH  11  13
ATOM     13  C   UNL     1      -0.792  -0.565  -3.507  1.00  0.00     0.064 A 
ATOM     14  C   UNL     1       0.288   0.288  -3.194  1.00  0.00     0.130 A 
ATOM     15  C   UNL     1      -0.543  -1.760  -4.202  1.00  0.00     0.020 A 
ATOM     16  C   UNL     1       1.584  -0.043  -3.619  1.00  0.00     0.093 A 
ATOM     17  C   UNL     1       0.751  -2.085  -4.615  1.00  0.00     0.047 A 
ATOM     18  C   UNL     1       1.817  -1.225  -4.327  1.00  0.00     0.119 A 
BRANCH  14  19
ATOM     19  O   UNL     1       0.081   1.444  -2.443  1.00  0.00    -0.507 OA
ATOM     20  H   UNL     1       0.020   2.358  -2.879  1.00  0.00     0.293 HD
ENDBRANCH  14  19
BRANCH  18  21
ATOM     21  O   UNL     1       3.112  -1.536  -4.737  1.00  0.00    -0.508 OA
ATOM     22  H   UNL     1       3.687  -0.861  -5.230  1.00  0.00     0.293 HD
ENDBRANCH  18  21
ENDBRANCH  11  13
ENDBRANCH   2  11
TORSDOF 6
ENDMDL
MODEL 7
REMARK VINA RESULT:    -5.925      5.195      7.588
REMARK INTER + INTRA:          -8.555
REMARK INTER:                  -7.260
REMARK INTRA:                  -1.295
REMARK UNBOUND:                -1.071
REMARK SMILES O=C(C=Cc1ccc(O)cc1)c1ccc(O)cc1O
REMARK SMILES IDX 4 1 3 2 5 3 6 4 7 5 8 6 11 7 10 8 9 9 2 11 1 12 12 13 18 14
REMARK SMILES IDX 13 15 17 16 14 17 15 18 19 19 16 21
REMARK H PARENT 9 10 19 20 16 22
REMARK Flexibility Score: inf
ROOT
ATOM      1  C   UNL     1      -3.326  -1.154  -4.816  1.00  0.00     0.012 C 
ATOM      2  C   UNL     1      -3.718  -0.240  -3.913  1.00  0.00     0.053 C 
ENDROOT
BRANCH   1   3
ATOM      3  C   UNL     1      -2.543  -2.370  -4.518  1.00  0.00    -0.025 A 
ATOM      4  C   UNL     1      -1.143  -2.320  -4.397  1.00  0.00     0.012 A 
ATOM      5  C   UNL     1      -0.413  -3.491  -4.167  1.00  0.00     0.047 A 
ATOM      6  C   UNL     1      -1.073  -4.725  -4.082  1.00  0.00     0.115 A 
ATOM      7  C   UNL     1      -3.194  -3.612  -4.462  1.00  0.00     0.012 A 
ATOM      8  C   UNL     1      -2.462  -4.781  -4.233  1.00  0.00     0.047 A 
BRANCH   6   9
ATOM      9  O   UNL     1      -0.357  -5.898  -3.852  1.00  0.00    -0.508 OA
ATOM     10  H   UNL     1      -0.827  -6.787  -3.720  1.00  0.00     0.293 HD
ENDBRANCH   6   9
ENDBRANCH   1   3
BRANCH   2  11
ATOM     11  C   UNL     1      -3.593  -0.368  -2.440  1.00  0.00     0.189 C 
ATOM     12  O   UNL     1      -2.764   0.333  -1.800  1.00  0.00    -0.289 OA
BRANCH  11  13
ATOM     13  C   UNL     1      -4.435  -1.326  -1.692  1.00  0.00     0.064 A 
ATOM     14  C   UNL     1      -3.890  -2.472  -1.076  1.00  0.00     0.130 A 
ATOM     15  C   UNL     1      -5.809  -1.066  -1.565  1.00  0.00     0.020 A 
ATOM     16  C   UNL     1      -4.731  -3.360  -0.387  1.00  0.00     0.093 A 
ATOM     17  C   UNL     1      -6.638  -1.951  -0.872  1.00  0.00     0.047 A 
ATOM     18  C   UNL     1      -6.101  -3.103  -0.285  1.00  0.00     0.119 A 
BRANCH  14  19
ATOM     19  O   UNL     1      -2.518  -2.717  -1.124  1.00  0.00    -0.507 OA
ATOM     20  H   UNL     1      -1.850  -1.973  -1.286  1.00  0.00     0.293 HD
ENDBRANCH  14  19
BRANCH  18  21
ATOM     21  O   UNL     1      -6.918  -3.996   0.406  1.00  0.00    -0.508 OA
ATOM     22  H   UNL     1      -6.858  -4.097   1.413  1.00  0.00     0.293 HD
ENDBRANCH  18  21
ENDBRANCH  11  13
ENDBRANCH   2  11
TORSDOF 6
ENDMDL
MODEL 8
REMARK VINA RESULT:    -5.924      3.185      5.343
REMARK INTER + INTRA:          -8.553
REMARK INTER:                  -7.466
REMARK INTRA:                  -1.087
REMARK UNBOUND:                -1.071
REMARK SMILES O=C(C=Cc1ccc(O)cc1)c1ccc(O)cc1O
REMARK SMILES IDX 4 1 3 2 5 3 6 4 7 5 8 6 11 7 10 8 9 9 2 11 1 12 12 13 18 14
REMARK SMILES IDX 13 15 17 16 14 17 15 18 19 19 16 21
REMARK H PARENT 9 10 19 20 16 22
REMARK Flexibility Score: inf
ROOT
ATOM      1  C   UNL     1      -0.938   1.607  -4.678  1.00  0.00     0.012 C 
ATOM      2  C   UNL     1      -1.917   0.729  -4.406  1.00  0.00     0.053 C 
ENDROOT
BRANCH   1   3
ATOM      3  C   UNL     1       0.209   1.911  -3.799  1.00  0.00    -0.025 A 
ATOM      4  C   UNL     1       1.403   1.175  -3.884  1.00  0.00     0.012 A 
ATOM      5  C   UNL     1       2.460   1.443  -3.007  1.00  0.00     0.047 A 
ATOM      6  C   UNL     1       2.323   2.431  -2.022  1.00  0.00     0.115 A 
ATOM      7  C   UNL     1       0.067   2.877  -2.791  1.00  0.00     0.012 A 
ATOM      8  C   UNL     1       1.124   3.142  -1.915  1.00  0.00     0.047 A 
BRANCH   6   9
ATOM      9  O   UNL     1       3.368   2.707  -1.143  1.00  0.00    -0.508 OA
ATOM     10  H   UNL     1       3.200   3.131  -0.238  1.00  0.00     0.293 HD
ENDBRANCH   6   9
ENDBRANCH   1   3
BRANCH   2  11
ATOM     11  C   UNL     1      -1.937  -0.221  -3.265  1.00  0.00     0.189 C 
ATOM     12  O   UNL     1      -2.228   0.173  -2.104  1.00  0.00    -0.289 OA
BRANCH  11  13
ATOM     13  C   UNL     1      -1.610  -1.648  -3.467  1.00  0.00     0.064 A 
ATOM     14  C   UNL     1      -2.381  -2.677  -2.886  1.00  0.00     0.130 A 
ATOM     15  C   UNL     1      -0.521  -1.986  -4.286  1.00  0.00     0.020 A 
ATOM     16  C   UNL     1      -2.025  -4.018  -3.094  1.00  0.00     0.093 A 
ATOM     17  C   UNL     1      -0.177  -3.324  -4.494  1.00  0.00     0.047 A 
ATOM     18  C   UNL     1      -0.927  -4.343  -3.895  1.00  0.00     0.119 A 
BRANCH  14  19
ATOM     19  O   UNL     1      -3.511  -2.372  -2.127  1.00  0.00    -0.507 OA
ATOM     20  H   UNL     1      -4.378  -2.885  -2.234  1.00  0.00     0.293 HD
ENDBRANCH  14  19
BRANCH  18  21
ATOM     21  O   UNL     1      -0.592  -5.682  -4.091  1.00  0.00    -0.508 OA
ATOM     22  H   UNL     1      -1.247  -6.335  -4.506  1.00  0.00     0.293 HD
ENDBRANCH  18  21
ENDBRANCH  11  13
ENDBRANCH   2  11
TORSDOF 6
ENDMDL
MODEL 9
REMARK VINA RESULT:    -5.915      1.733      5.414
REMARK INTER + INTRA:          -8.541
REMARK INTER:                  -7.377
REMARK INTRA:                  -1.165
REMARK UNBOUND:                -1.071
REMARK SMILES O=C(C=Cc1ccc(O)cc1)c1ccc(O)cc1O
REMARK SMILES IDX 4 1 3 2 5 3 6 4 7 5 8 6 11 7 10 8 9 9 2 11 1 12 12 13 18 14
REMARK SMILES IDX 13 15 17 16 14 17 15 18 19 19 16 21
REMARK H PARENT 9 10 19 20 16 22
REMARK Flexibility Score: inf
ROOT
ATOM      1  C   UNL     1       1.415   2.824  -5.125  1.00  0.00     0.012 C 
ATOM      2  C   UNL     1       0.710   3.435  -4.159  1.00  0.00     0.053 C 
ENDROOT
BRANCH   1   3
ATOM      3  C   UNL     1       1.644   1.369  -5.227  1.00  0.00    -0.025 A 
ATOM      4  C   UNL     1       2.717   0.754  -4.558  1.00  0.00     0.012 A 
ATOM      5  C   UNL     1       2.949  -0.617  -4.709  1.00  0.00     0.047 A 
ATOM      6  C   UNL     1       2.127  -1.381  -5.549  1.00  0.00     0.115 A 
ATOM      7  C   UNL     1       0.844   0.605  -6.090  1.00  0.00     0.012 A 
ATOM      8  C   UNL     1       1.078  -0.765  -6.240  1.00  0.00     0.047 A 
BRANCH   6   9
ATOM      9  O   UNL     1       2.347  -2.747  -5.708  1.00  0.00    -0.508 OA
ATOM     10  H   UNL     1       1.591  -3.417  -5.632  1.00  0.00     0.293 HD
ENDBRANCH   6   9
ENDBRANCH   1   3
BRANCH   2  11
ATOM     11  C   UNL     1      -0.111   2.758  -3.125  1.00  0.00     0.189 C 
ATOM     12  O   UNL     1       0.300   2.661  -1.937  1.00  0.00    -0.289 OA
BRANCH  11  13
ATOM     13  C   UNL     1      -1.426   2.177  -3.467  1.00  0.00     0.064 A 
ATOM     14  C   UNL     1      -1.802   0.885  -3.044  1.00  0.00     0.130 A 
ATOM     15  C   UNL     1      -2.337   2.949  -4.207  1.00  0.00     0.020 A 
ATOM     16  C   UNL     1      -3.057   0.370  -3.404  1.00  0.00     0.093 A 
ATOM     17  C   UNL     1      -3.587   2.431  -4.555  1.00  0.00     0.047 A 
ATOM     18  C   UNL     1      -3.948   1.138  -4.158  1.00  0.00     0.119 A 
BRANCH  14  19
ATOM     19  O   UNL     1      -0.946   0.124  -2.248  1.00  0.00    -0.507 OA
ATOM     20  H   UNL     1      -0.953  -0.889  -2.277  1.00  0.00     0.293 HD
ENDBRANCH  14  19
BRANCH  18  21
ATOM     21  O   UNL     1      -5.190   0.609  -4.503  1.00  0.00    -0.508 OA
ATOM     22  H   UNL     1      -5.358  -0.391  -4.500  1.00  0.00     0.293 HD
ENDBRANCH  18  21
ENDBRANCH  11  13
ENDBRANCH   2  11
TORSDOF 6
ENDMDL
