MODEL 1
REMARK VINA RESULT:    -5.983      0.000      0.000
REMARK INTER + INTRA:         -10.451
REMARK INTER:                  -8.781
REMARK INTRA:                  -1.670
REMARK UNBOUND:                -1.670
REMARK SMILES O=c1c(O[C@H]2O[C@H](CO)[C@H](O)[C@H](O)[C@@H]2O)c(-c2ccc(O)c(O)c2)oc2cc(O)cc(O)c12
REMARK SMILES IDX 4 1 3 2 16 3 25 4 2 5 26 6 1 7 33 8 27 9 31 10 28 11 30 12
REMARK SMILES IDX 17 13 18 14 19 15 20 16 24 17 22 18 21 19 23 21 32 23 29 25
REMARK SMILES IDX 5 27 14 28 6 29 12 30 7 31 10 32 15 33 13 35 8 37 9 38 11 40
REMARK H PARENT 21 20 23 22 32 24 29 26 15 34 13 36 9 39 11 41
REMARK Flexibility Score: inf
ROOT
ATOM      1  O   UNL     1      11.936   0.701   1.924  1.00  0.00    -0.454 OA
ENDROOT
BRANCH   1   2
ATOM      2  C   UNL     1      12.970   0.679   2.872  1.00  0.00     0.214 A 
ATOM      3  C   UNL     1      14.243   1.217   2.593  1.00  0.00     0.180 A 
ATOM      4  O   UNL     1      15.224   1.070   3.474  1.00  0.00    -0.452 OA
ATOM      5  C   UNL     1      12.741   0.098   4.125  1.00  0.00     0.239 A 
ATOM      6  C   UNL     1      15.063   0.492   4.659  1.00  0.00     0.146 A 
ATOM      7  O   UNL     1      11.603  -0.381   4.365  1.00  0.00    -0.285 OA
ATOM      8  C   UNL     1      13.791   0.018   5.071  1.00  0.00     0.111 A 
ATOM      9  C   UNL     1      16.176   0.363   5.495  1.00  0.00     0.094 A 
ATOM     10  C   UNL     1      13.664  -0.541   6.378  1.00  0.00     0.134 A 
ATOM     11  C   UNL     1      16.053  -0.237   6.746  1.00  0.00     0.123 A 
ATOM     12  C   UNL     1      14.804  -0.688   7.179  1.00  0.00     0.093 A 
BRANCH   3  13
ATOM     13  C   UNL     1      14.536   1.955   1.345  1.00  0.00     0.025 A 
ATOM     14  C   UNL     1      14.585   3.356   1.362  1.00  0.00     0.016 A 
ATOM     15  C   UNL     1      14.861   4.069   0.191  1.00  0.00     0.051 A 
ATOM     16  C   UNL     1      15.077   3.388  -1.015  1.00  0.00     0.157 A 
ATOM     17  C   UNL     1      14.725   1.277   0.127  1.00  0.00     0.062 A 
ATOM     18  C   UNL     1      15.005   1.986  -1.046  1.00  0.00     0.158 A 
BRANCH  16  19
ATOM     19  O   UNL     1      15.357   4.101  -2.180  1.00  0.00    -0.504 OA
ATOM     20  H   UNL     1      15.725   5.044  -2.150  1.00  0.00     0.293 HD
ENDBRANCH  16  19
BRANCH  18  21
ATOM     21  O   UNL     1      15.204   1.279  -2.232  1.00  0.00    -0.504 OA
ATOM     22  H   UNL     1      14.468   1.158  -2.917  1.00  0.00     0.293 HD
ENDBRANCH  18  21
ENDBRANCH   3  13
BRANCH  10  23
ATOM     23  O   UNL     1      12.450  -0.943   6.942  1.00  0.00    -0.507 OA
ATOM     24  H   UNL     1      11.953  -1.786   6.698  1.00  0.00     0.293 HD
ENDBRANCH  10  23
BRANCH  11  25
ATOM     25  O   UNL     1      17.178  -0.375   7.554  1.00  0.00    -0.508 OA
ATOM     26  H   UNL     1      17.421  -1.262   7.980  1.00  0.00     0.293 HD
ENDBRANCH  11  25
ENDBRANCH   1   2
BRANCH   1  27
ATOM     27  C   UNL     1      10.995   1.778   1.836  1.00  0.00     0.339 C 
ATOM     28  C   UNL     1       9.551   1.240   1.815  1.00  0.00     0.214 C 
ATOM     29  O   UNL     1      11.271   2.607   0.716  1.00  0.00    -0.332 OA
ATOM     30  C   UNL     1       9.250   0.550   0.467  1.00  0.00     0.180 C 
ATOM     31  C   UNL     1      11.120   1.901  -0.506  1.00  0.00     0.179 C 
ATOM     32  C   UNL     1       9.656   1.453  -0.706  1.00  0.00     0.177 C 
BRANCH  28  33
ATOM     33  O   UNL     1       8.662   2.308   2.034  1.00  0.00    -0.384 OA
ATOM     34  H   UNL     1       8.477   2.718   1.149  1.00  0.00     0.211 HD
ENDBRANCH  28  33
BRANCH  30  35
ATOM     35  O   UNL     1       7.887   0.225   0.367  1.00  0.00    -0.387 OA
ATOM     36  H   UNL     1       7.388   1.083   0.367  1.00  0.00     0.211 HD
ENDBRANCH  30  35
BRANCH  31  37
ATOM     37  C   UNL     1      11.596   2.793  -1.657  1.00  0.00     0.191 C 
BRANCH  37  38
ATOM     38  O   UNL     1      11.243   4.122  -1.397  1.00  0.00    -0.394 OA
ATOM     39  H   UNL     1      10.443   4.086  -0.811  1.00  0.00     0.210 HD
ENDBRANCH  37  38
ENDBRANCH  31  37
BRANCH  32  40
ATOM     40  O   UNL     1       8.800   2.568  -0.769  1.00  0.00    -0.387 OA
ATOM     41  H   UNL     1       9.200   3.206  -1.417  1.00  0.00     0.211 HD
ENDBRANCH  32  40
ENDBRANCH   1  27
TORSDOF 12
ENDMDL
MODEL 2
REMARK VINA RESULT:    -5.880      1.715      4.634
REMARK INTER + INTRA:         -10.301
REMARK INTER:                  -9.135
REMARK INTRA:                  -1.166
REMARK UNBOUND:                -1.670
REMARK SMILES O=c1c(O[C@H]2O[C@H](CO)[C@H](O)[C@H](O)[C@@H]2O)c(-c2ccc(O)c(O)c2)oc2cc(O)cc(O)c12
REMARK SMILES IDX 4 1 3 2 16 3 25 4 2 5 26 6 1 7 33 8 27 9 31 10 28 11 30 12
REMARK SMILES IDX 17 13 18 14 19 15 20 16 24 17 22 18 21 19 23 21 32 23 29 25
REMARK SMILES IDX 5 27 14 28 6 29 12 30 7 31 10 32 15 33 13 35 8 37 9 38 11 40
REMARK H PARENT 21 20 23 22 32 24 29 26 15 34 13 36 9 39 11 41
REMARK Flexibility Score: inf
ROOT
ATOM      1  O   UNL     1      14.057   1.063   1.475  1.00  0.00    -0.454 OA
ENDROOT
BRANCH   1   2
ATOM      2  C   UNL     1      13.388   0.617   2.623  1.00  0.00     0.214 A 
ATOM      3  C   UNL     1      12.047   0.185   2.579  1.00  0.00     0.180 A 
ATOM      4  O   UNL     1      11.418  -0.117   3.708  1.00  0.00    -0.452 OA
ATOM      5  C   UNL     1      14.060   0.610   3.851  1.00  0.00     0.239 A 
ATOM      6  C   UNL     1      12.004  -0.102   4.899  1.00  0.00     0.146 A 
ATOM      7  O   UNL     1      15.256   0.999   3.882  1.00  0.00    -0.285 OA
ATOM      8  C   UNL     1      13.381   0.216   5.029  1.00  0.00     0.111 A 
ATOM      9  C   UNL     1      11.236  -0.407   6.025  1.00  0.00     0.094 A 
ATOM     10  C   UNL     1      13.973   0.160   6.326  1.00  0.00     0.134 A 
ATOM     11  C   UNL     1      11.809  -0.401   7.294  1.00  0.00     0.123 A 
ATOM     12  C   UNL     1      13.169  -0.115   7.440  1.00  0.00     0.093 A 
BRANCH   3  13
ATOM     13  C   UNL     1      11.300   0.045   1.310  1.00  0.00     0.025 A 
ATOM     14  C   UNL     1      11.640  -0.979   0.413  1.00  0.00     0.016 A 
ATOM     15  C   UNL     1      10.945  -1.125  -0.790  1.00  0.00     0.051 A 
ATOM     16  C   UNL     1       9.909  -0.239  -1.120  1.00  0.00     0.157 A 
ATOM     17  C   UNL     1      10.280   0.949   0.963  1.00  0.00     0.062 A 
ATOM     18  C   UNL     1       9.579   0.804  -0.239  1.00  0.00     0.158 A 
BRANCH  16  19
ATOM     19  O   UNL     1       9.213  -0.390  -2.318  1.00  0.00    -0.504 OA
ATOM     20  H   UNL     1       9.333   0.260  -3.086  1.00  0.00     0.293 HD
ENDBRANCH  16  19
BRANCH  18  21
ATOM     21  O   UNL     1       8.561   1.708  -0.541  1.00  0.00    -0.504 OA
ATOM     22  H   UNL     1       8.534   2.216  -1.418  1.00  0.00     0.293 HD
ENDBRANCH  18  21
ENDBRANCH   3  13
BRANCH  10  23
ATOM     23  O   UNL     1      15.337   0.343   6.572  1.00  0.00    -0.507 OA
ATOM     24  H   UNL     1      16.032   0.513   5.861  1.00  0.00     0.293 HD
ENDBRANCH  10  23
BRANCH  11  25
ATOM     25  O   UNL     1      11.020  -0.689   8.405  1.00  0.00    -0.508 OA
ATOM     26  H   UNL     1      11.019  -0.091   9.224  1.00  0.00     0.293 HD
ENDBRANCH  11  25
ENDBRANCH   1   2
BRANCH   1  27
ATOM     27  C   UNL     1      14.419   2.436   1.278  1.00  0.00     0.339 C 
ATOM     28  C   UNL     1      13.210   3.252   0.777  1.00  0.00     0.214 C 
ATOM     29  O   UNL     1      15.536   2.551   0.408  1.00  0.00    -0.332 OA
ATOM     30  C   UNL     1      12.876   2.883  -0.683  1.00  0.00     0.180 C 
ATOM     31  C   UNL     1      15.235   2.071  -0.894  1.00  0.00     0.179 C 
ATOM     32  C   UNL     1      14.137   2.931  -1.558  1.00  0.00     0.177 C 
BRANCH  28  33
ATOM     33  O   UNL     1      13.508   4.623   0.886  1.00  0.00    -0.384 OA
ATOM     34  H   UNL     1      14.489   4.697   1.021  1.00  0.00     0.211 HD
ENDBRANCH  28  33
BRANCH  30  35
ATOM     35  O   UNL     1      11.902   3.750  -1.206  1.00  0.00    -0.387 OA
ATOM     36  H   UNL     1      11.195   3.179  -1.605  1.00  0.00     0.211 HD
ENDBRANCH  30  35
BRANCH  31  37
ATOM     37  C   UNL     1      16.520   2.062  -1.729  1.00  0.00     0.191 C 
BRANCH  37  38
ATOM     38  O   UNL     1      16.816   0.750  -2.118  1.00  0.00    -0.394 OA
ATOM     39  H   UNL     1      16.529   0.671  -3.065  1.00  0.00     0.210 HD
ENDBRANCH  37  38
ENDBRANCH  31  37
BRANCH  32  40
ATOM     40  O   UNL     1      14.568   4.262  -1.701  1.00  0.00    -0.387 OA
ATOM     41  H   UNL     1      15.363   4.377  -1.116  1.00  0.00     0.211 HD
ENDBRANCH  32  40
ENDBRANCH   1  27
TORSDOF 12
ENDMDL
MODEL 3
REMARK VINA RESULT:    -5.690      1.439      1.993
REMARK INTER + INTRA:         -10.022
REMARK INTER:                  -9.861
REMARK INTRA:                  -0.160
REMARK UNBOUND:                -1.670
REMARK SMILES O=c1c(O[C@H]2O[C@H](CO)[C@H](O)[C@H](O)[C@@H]2O)c(-c2ccc(O)c(O)c2)oc2cc(O)cc(O)c12
REMARK SMILES IDX 4 1 3 2 16 3 25 4 2 5 26 6 1 7 33 8 27 9 31 10 28 11 30 12
REMARK SMILES IDX 17 13 18 14 19 15 20 16 24 17 22 18 21 19 23 21 32 23 29 25
REMARK SMILES IDX 5 27 14 28 6 29 12 30 7 31 10 32 15 33 13 35 8 37 9 38 11 40
REMARK H PARENT 21 20 23 22 32 24 29 26 15 34 13 36 9 39 11 41
REMARK Flexibility Score: inf
ROOT
ATOM      1  O   UNL     1      12.400   0.373   1.131  1.00  0.00    -0.454 OA
ENDROOT
BRANCH   1   2
ATOM      2  C   UNL     1      13.243   0.831   2.153  1.00  0.00     0.214 A 
ATOM      3  C   UNL     1      14.223   1.818   1.920  1.00  0.00     0.180 A 
ATOM      4  O   UNL     1      15.075   2.137   2.886  1.00  0.00    -0.452 OA
ATOM      5  C   UNL     1      13.122   0.290   3.439  1.00  0.00     0.239 A 
ATOM      6  C   UNL     1      15.021   1.622   4.109  1.00  0.00     0.146 A 
ATOM      7  O   UNL     1      12.246  -0.591   3.638  1.00  0.00    -0.285 OA
ATOM      8  C   UNL     1      14.002   0.702   4.468  1.00  0.00     0.111 A 
ATOM      9  C   UNL     1      15.991   2.008   5.038  1.00  0.00     0.094 A 
ATOM     10  C   UNL     1      13.958   0.226   5.812  1.00  0.00     0.134 A 
ATOM     11  C   UNL     1      15.974   1.492   6.332  1.00  0.00     0.123 A 
ATOM     12  C   UNL     1      14.964   0.604   6.711  1.00  0.00     0.093 A 
BRANCH   3  13
ATOM     13  C   UNL     1      14.341   2.528   0.628  1.00  0.00     0.025 A 
ATOM     14  C   UNL     1      15.605   2.921   0.164  1.00  0.00     0.016 A 
ATOM     15  C   UNL     1      15.734   3.592  -1.055  1.00  0.00     0.051 A 
ATOM     16  C   UNL     1      14.599   3.892  -1.820  1.00  0.00     0.157 A 
ATOM     17  C   UNL     1      13.202   2.855  -0.129  1.00  0.00     0.062 A 
ATOM     18  C   UNL     1      13.326   3.524  -1.351  1.00  0.00     0.158 A 
BRANCH  16  19
ATOM     19  O   UNL     1      14.730   4.556  -3.038  1.00  0.00    -0.504 OA
ATOM     20  H   UNL     1      14.951   5.544  -3.082  1.00  0.00     0.293 HD
ENDBRANCH  16  19
BRANCH  18  21
ATOM     21  O   UNL     1      12.176   3.816  -2.083  1.00  0.00    -0.504 OA
ATOM     22  H   UNL     1      12.209   4.047  -3.069  1.00  0.00     0.293 HD
ENDBRANCH  18  21
ENDBRANCH   3  13
BRANCH  10  23
ATOM     23  O   UNL     1      12.945  -0.593   6.318  1.00  0.00    -0.507 OA
ATOM     24  H   UNL     1      12.608  -1.434   5.873  1.00  0.00     0.293 HD
ENDBRANCH  10  23
BRANCH  11  25
ATOM     25  O   UNL     1      16.962   1.873   7.236  1.00  0.00    -0.508 OA
ATOM     26  H   UNL     1      17.792   2.370   6.936  1.00  0.00     0.293 HD
ENDBRANCH  11  25
ENDBRANCH   1   2
BRANCH   1  27
ATOM     27  C   UNL     1      11.004   0.126   1.336  1.00  0.00     0.339 C 
ATOM     28  C   UNL     1      10.385  -0.570   0.108  1.00  0.00     0.214 C 
ATOM     29  O   UNL     1      10.317   1.324   1.670  1.00  0.00    -0.332 OA
ATOM     30  C   UNL     1      10.281   0.413  -1.077  1.00  0.00     0.180 C 
ATOM     31  C   UNL     1      10.361   2.264   0.607  1.00  0.00     0.179 C 
ATOM     32  C   UNL     1       9.619   1.725  -0.636  1.00  0.00     0.177 C 
BRANCH  28  33
ATOM     33  O   UNL     1       9.115  -1.065   0.454  1.00  0.00    -0.384 OA
ATOM     34  H   UNL     1       8.610  -1.184  -0.393  1.00  0.00     0.211 HD
ENDBRANCH  28  33
BRANCH  30  35
ATOM     35  O   UNL     1       9.552  -0.156  -2.134  1.00  0.00    -0.387 OA
ATOM     36  H   UNL     1       9.200   0.598  -2.676  1.00  0.00     0.211 HD
ENDBRANCH  30  35
BRANCH  31  37
ATOM     37  C   UNL     1       9.758   3.588   1.089  1.00  0.00     0.191 C 
BRANCH  37  38
ATOM     38  O   UNL     1       8.717   3.329   1.989  1.00  0.00    -0.394 OA
ATOM     39  H   UNL     1       7.932   3.077   1.437  1.00  0.00     0.210 HD
ENDBRANCH  37  38
ENDBRANCH  31  37
BRANCH  32  40
ATOM     40  O   UNL     1       8.261   1.500  -0.343  1.00  0.00    -0.387 OA
ATOM     41  H   UNL     1       7.867   1.032  -1.126  1.00  0.00     0.211 HD
ENDBRANCH  32  40
ENDBRANCH   1  27
TORSDOF 12
ENDMDL
MODEL 4
REMARK VINA RESULT:    -5.654      1.385      2.396
REMARK INTER + INTRA:          -9.968
REMARK INTER:                  -8.630
REMARK INTRA:                  -1.338
REMARK UNBOUND:                -1.670
REMARK SMILES O=c1c(O[C@H]2O[C@H](CO)[C@H](O)[C@H](O)[C@@H]2O)c(-c2ccc(O)c(O)c2)oc2cc(O)cc(O)c12
REMARK SMILES IDX 4 1 3 2 16 3 25 4 2 5 26 6 1 7 33 8 27 9 31 10 28 11 30 12
REMARK SMILES IDX 17 13 18 14 19 15 20 16 24 17 22 18 21 19 23 21 32 23 29 25
REMARK SMILES IDX 5 27 14 28 6 29 12 30 7 31 10 32 15 33 13 35 8 37 9 38 11 40
REMARK H PARENT 21 20 23 22 32 24 29 26 15 34 13 36 9 39 11 41
REMARK Flexibility Score: inf
ROOT
ATOM      1  O   UNL     1      11.862   0.849   1.781  1.00  0.00    -0.454 OA
ENDROOT
BRANCH   1   2
ATOM      2  C   UNL     1      12.886   0.843   2.739  1.00  0.00     0.214 A 
ATOM      3  C   UNL     1      14.142   1.431   2.487  1.00  0.00     0.180 A 
ATOM      4  O   UNL     1      15.118   1.299   3.376  1.00  0.00    -0.452 OA
ATOM      5  C   UNL     1      12.665   0.226   3.977  1.00  0.00     0.239 A 
ATOM      6  C   UNL     1      14.966   0.690   4.546  1.00  0.00     0.146 A 
ATOM      7  O   UNL     1      11.542  -0.298   4.193  1.00  0.00    -0.285 OA
ATOM      8  C   UNL     1      13.707   0.162   4.933  1.00  0.00     0.111 A 
ATOM      9  C   UNL     1      16.073   0.582   5.390  1.00  0.00     0.094 A 
ATOM     10  C   UNL     1      13.586  -0.430   6.225  1.00  0.00     0.134 A 
ATOM     11  C   UNL     1      15.959  -0.050   6.626  1.00  0.00     0.123 A 
ATOM     12  C   UNL     1      14.722  -0.555   7.036  1.00  0.00     0.093 A 
BRANCH   3  13
ATOM     13  C   UNL     1      14.421   2.207   1.258  1.00  0.00     0.025 A 
ATOM     14  C   UNL     1      13.657   3.346   0.968  1.00  0.00     0.016 A 
ATOM     15  C   UNL     1      13.908   4.090  -0.188  1.00  0.00     0.051 A 
ATOM     16  C   UNL     1      14.918   3.696  -1.077  1.00  0.00     0.157 A 
ATOM     17  C   UNL     1      15.414   1.798   0.351  1.00  0.00     0.062 A 
ATOM     18  C   UNL     1      15.671   2.541  -0.806  1.00  0.00     0.158 A 
BRANCH  16  19
ATOM     19  O   UNL     1      15.170   4.442  -2.227  1.00  0.00    -0.504 OA
ATOM     20  H   UNL     1      14.568   4.384  -3.040  1.00  0.00     0.293 HD
ENDBRANCH  16  19
BRANCH  18  21
ATOM     21  O   UNL     1      16.676   2.116  -1.674  1.00  0.00    -0.504 OA
ATOM     22  H   UNL     1      16.608   1.248  -2.193  1.00  0.00     0.293 HD
ENDBRANCH  18  21
ENDBRANCH   3  13
BRANCH  10  23
ATOM     23  O   UNL     1      12.381  -0.887   6.767  1.00  0.00    -0.507 OA
ATOM     24  H   UNL     1      11.800  -0.362   7.403  1.00  0.00     0.293 HD
ENDBRANCH  10  23
BRANCH  11  25
ATOM     25  O   UNL     1      17.080  -0.166   7.445  1.00  0.00    -0.508 OA
ATOM     26  H   UNL     1      17.073   0.163   8.403  1.00  0.00     0.293 HD
ENDBRANCH  11  25
ENDBRANCH   1   2
BRANCH   1  27
ATOM     27  C   UNL     1      11.685  -0.213   0.836  1.00  0.00     0.339 C 
ATOM     28  C   UNL     1      12.362   0.131  -0.505  1.00  0.00     0.214 C 
ATOM     29  O   UNL     1      10.309  -0.527   0.671  1.00  0.00    -0.332 OA
ATOM     30  C   UNL     1      11.577   1.237  -1.241  1.00  0.00     0.180 C 
ATOM     31  C   UNL     1       9.587   0.564   0.121  1.00  0.00     0.179 C 
ATOM     32  C   UNL     1      10.083   0.891  -1.305  1.00  0.00     0.177 C 
BRANCH  28  33
ATOM     33  O   UNL     1      12.435  -1.032  -1.293  1.00  0.00    -0.384 OA
ATOM     34  H   UNL     1      12.373  -1.806  -0.673  1.00  0.00     0.211 HD
ENDBRANCH  28  33
BRANCH  30  35
ATOM     35  O   UNL     1      12.077   1.424  -2.540  1.00  0.00    -0.387 OA
ATOM     36  H   UNL     1      12.806   2.094  -2.472  1.00  0.00     0.211 HD
ENDBRANCH  30  35
BRANCH  31  37
ATOM     37  C   UNL     1       8.092   0.226   0.131  1.00  0.00     0.191 C 
BRANCH  37  38
ATOM     38  O   UNL     1       7.911  -1.106  -0.257  1.00  0.00    -0.394 OA
ATOM     39  H   UNL     1       8.486  -1.649   0.342  1.00  0.00     0.210 HD
ENDBRANCH  37  38
ENDBRANCH  31  37
BRANCH  32  40
ATOM     40  O   UNL     1       9.884  -0.207  -2.162  1.00  0.00    -0.387 OA
ATOM     41  H   UNL     1       9.115   0.017  -2.749  1.00  0.00     0.211 HD
ENDBRANCH  32  40
ENDBRANCH   1  27
TORSDOF 12
ENDMDL
MODEL 5
REMARK VINA RESULT:    -5.549      2.309      6.908
REMARK INTER + INTRA:          -9.814
REMARK INTER:                  -8.893
REMARK INTRA:                  -0.920
REMARK UNBOUND:                -1.670
REMARK SMILES O=c1c(O[C@H]2O[C@H](CO)[C@H](O)[C@H](O)[C@@H]2O)c(-c2ccc(O)c(O)c2)oc2cc(O)cc(O)c12
REMARK SMILES IDX 4 1 3 2 16 3 25 4 2 5 26 6 1 7 33 8 27 9 31 10 28 11 30 12
REMARK SMILES IDX 17 13 18 14 19 15 20 16 24 17 22 18 21 19 23 21 32 23 29 25
REMARK SMILES IDX 5 27 14 28 6 29 12 30 7 31 10 32 15 33 13 35 8 37 9 38 11 40
REMARK H PARENT 21 20 23 22 32 24 29 26 15 34 13 36 9 39 11 41
REMARK Flexibility Score: inf
ROOT
ATOM      1  O   UNL     1      12.532   2.565   1.603  1.00  0.00    -0.454 OA
ENDROOT
BRANCH   1   2
ATOM      2  C   UNL     1      11.789   3.207   0.602  1.00  0.00     0.214 A 
ATOM      3  C   UNL     1      12.232   3.254  -0.736  1.00  0.00     0.180 A 
ATOM      4  O   UNL     1      11.557   3.971  -1.625  1.00  0.00    -0.452 OA
ATOM      5  C   UNL     1      10.580   3.830   0.936  1.00  0.00     0.239 A 
ATOM      6  C   UNL     1      10.427   4.610  -1.345  1.00  0.00     0.146 A 
ATOM      7  O   UNL     1      10.193   3.784   2.132  1.00  0.00    -0.285 OA
ATOM      8  C   UNL     1       9.847   4.530  -0.052  1.00  0.00     0.111 A 
ATOM      9  C   UNL     1       9.818   5.361  -2.352  1.00  0.00     0.094 A 
ATOM     10  C   UNL     1       8.602   5.187   0.176  1.00  0.00     0.134 A 
ATOM     11  C   UNL     1       8.632   6.048  -2.102  1.00  0.00     0.123 A 
ATOM     12  C   UNL     1       8.032   5.962  -0.843  1.00  0.00     0.093 A 
BRANCH   3  13
ATOM     13  C   UNL     1      13.432   2.524  -1.200  1.00  0.00     0.025 A 
ATOM     14  C   UNL     1      13.282   1.343  -1.942  1.00  0.00     0.016 A 
ATOM     15  C   UNL     1      14.405   0.641  -2.388  1.00  0.00     0.051 A 
ATOM     16  C   UNL     1      15.693   1.103  -2.085  1.00  0.00     0.157 A 
ATOM     17  C   UNL     1      14.725   2.969  -0.874  1.00  0.00     0.062 A 
ATOM     18  C   UNL     1      15.852   2.271  -1.321  1.00  0.00     0.158 A 
BRANCH  16  19
ATOM     19  O   UNL     1      16.812   0.404  -2.536  1.00  0.00    -0.504 OA
ATOM     20  H   UNL     1      17.386   0.753  -3.294  1.00  0.00     0.293 HD
ENDBRANCH  16  19
BRANCH  18  21
ATOM     21  O   UNL     1      17.120   2.751  -0.994  1.00  0.00    -0.504 OA
ATOM     22  H   UNL     1      17.902   2.686  -1.634  1.00  0.00     0.293 HD
ENDBRANCH  18  21
ENDBRANCH   3  13
BRANCH  10  23
ATOM     23  O   UNL     1       7.876   5.095   1.367  1.00  0.00    -0.507 OA
ATOM     24  H   UNL     1       7.016   4.579   1.479  1.00  0.00     0.293 HD
ENDBRANCH  10  23
BRANCH  11  25
ATOM     25  O   UNL     1       8.052   6.808  -3.115  1.00  0.00    -0.508 OA
ATOM     26  H   UNL     1       8.567   7.059  -3.951  1.00  0.00     0.293 HD
ENDBRANCH  11  25
ENDBRANCH   1   2
BRANCH   1  27
ATOM     27  C   UNL     1      12.925   1.191   1.509  1.00  0.00     0.339 C 
ATOM     28  C   UNL     1      11.794   0.264   1.998  1.00  0.00     0.214 C 
ATOM     29  O   UNL     1      14.141   0.957   2.205  1.00  0.00    -0.332 OA
ATOM     30  C   UNL     1      11.638   0.363   3.530  1.00  0.00     0.180 C 
ATOM     31  C   UNL     1      14.000   1.193   3.597  1.00  0.00     0.179 C 
ATOM     32  C   UNL     1      12.998   0.200   4.225  1.00  0.00     0.177 C 
BRANCH  28  33
ATOM     33  O   UNL     1      12.085  -1.057   1.614  1.00  0.00    -0.384 OA
ATOM     34  H   UNL     1      11.848  -1.641   2.381  1.00  0.00     0.211 HD
ENDBRANCH  28  33
BRANCH  30  35
ATOM     35  O   UNL     1      10.743  -0.610   4.004  1.00  0.00    -0.387 OA
ATOM     36  H   UNL     1      11.079  -0.898   4.893  1.00  0.00     0.211 HD
ENDBRANCH  30  35
BRANCH  31  37
ATOM     37  C   UNL     1      15.377   1.094   4.261  1.00  0.00     0.191 C 
BRANCH  37  38
ATOM     38  O   UNL     1      15.252   0.476   5.510  1.00  0.00    -0.394 OA
ATOM     39  H   UNL     1      15.203   1.209   6.177  1.00  0.00     0.210 HD
ENDBRANCH  37  38
ENDBRANCH  31  37
BRANCH  32  40
ATOM     40  O   UNL     1      13.453  -1.123   4.077  1.00  0.00    -0.387 OA
ATOM     41  H   UNL     1      12.821  -1.707   4.573  1.00  0.00     0.211 HD
ENDBRANCH  32  40
ENDBRANCH   1  27
TORSDOF 12
ENDMDL
MODEL 6
REMARK VINA RESULT:    -5.324      1.897      6.628
REMARK INTER + INTRA:          -9.485
REMARK INTER:                  -8.650
REMARK INTRA:                  -0.835
REMARK UNBOUND:                -1.670
REMARK SMILES O=c1c(O[C@H]2O[C@H](CO)[C@H](O)[C@H](O)[C@@H]2O)c(-c2ccc(O)c(O)c2)oc2cc(O)cc(O)c12
REMARK SMILES IDX 4 1 3 2 16 3 25 4 2 5 26 6 1 7 33 8 27 9 31 10 28 11 30 12
REMARK SMILES IDX 17 13 18 14 19 15 20 16 24 17 22 18 21 19 23 21 32 23 29 25
REMARK SMILES IDX 5 27 14 28 6 29 12 30 7 31 10 32 15 33 13 35 8 37 9 38 11 40
REMARK H PARENT 21 20 23 22 32 24 29 26 15 34 13 36 9 39 11 41
REMARK Flexibility Score: inf
ROOT
ATOM      1  O   UNL     1      13.032   0.951   1.846  1.00  0.00    -0.454 OA
ENDROOT
BRANCH   1   2
ATOM      2  C   UNL     1      12.277   1.779   1.003  1.00  0.00     0.214 A 
ATOM      3  C   UNL     1      12.834   2.366  -0.152  1.00  0.00     0.180 A 
ATOM      4  O   UNL     1      12.119   3.235  -0.855  1.00  0.00    -0.452 OA
ATOM      5  C   UNL     1      10.939   2.042   1.317  1.00  0.00     0.239 A 
ATOM      6  C   UNL     1      10.859   3.544  -0.573  1.00  0.00     0.146 A 
ATOM      7  O   UNL     1      10.450   1.515   2.349  1.00  0.00    -0.285 OA
ATOM      8  C   UNL     1      10.180   2.921   0.506  1.00  0.00     0.111 A 
ATOM      9  C   UNL     1      10.213   4.497  -1.364  1.00  0.00     0.094 A 
ATOM     10  C   UNL     1       8.809   3.248   0.727  1.00  0.00     0.134 A 
ATOM     11  C   UNL     1       8.891   4.853  -1.104  1.00  0.00     0.123 A 
ATOM     12  C   UNL     1       8.198   4.232  -0.061  1.00  0.00     0.093 A 
BRANCH   3  13
ATOM     13  C   UNL     1      14.200   2.048  -0.623  1.00  0.00     0.025 A 
ATOM     14  C   UNL     1      15.280   2.841  -0.209  1.00  0.00     0.016 A 
ATOM     15  C   UNL     1      16.576   2.554  -0.645  1.00  0.00     0.051 A 
ATOM     16  C   UNL     1      16.808   1.477  -1.512  1.00  0.00     0.157 A 
ATOM     17  C   UNL     1      14.432   0.986  -1.516  1.00  0.00     0.062 A 
ATOM     18  C   UNL     1      15.728   0.693  -1.952  1.00  0.00     0.158 A 
BRANCH  16  19
ATOM     19  O   UNL     1      18.102   1.189  -1.941  1.00  0.00    -0.504 OA
ATOM     20  H   UNL     1      18.906   1.680  -1.568  1.00  0.00     0.293 HD
ENDBRANCH  16  19
BRANCH  18  21
ATOM     21  O   UNL     1      15.923  -0.378  -2.823  1.00  0.00    -0.504 OA
ATOM     22  H   UNL     1      16.795  -0.894  -2.856  1.00  0.00     0.293 HD
ENDBRANCH  18  21
ENDBRANCH   3  13
BRANCH  10  23
ATOM     23  O   UNL     1       8.001   2.625   1.683  1.00  0.00    -0.507 OA
ATOM     24  H   UNL     1       7.199   3.049   2.123  1.00  0.00     0.293 HD
ENDBRANCH  10  23
BRANCH  11  25
ATOM     25  O   UNL     1       8.272   5.820  -1.891  1.00  0.00    -0.508 OA
ATOM     26  H   UNL     1       7.503   5.588  -2.510  1.00  0.00     0.293 HD
ENDBRANCH  11  25
ENDBRANCH   1   2
BRANCH   1  27
ATOM     27  C   UNL     1      13.430   1.351   3.163  1.00  0.00     0.339 C 
ATOM     28  C   UNL     1      14.852   0.846   3.481  1.00  0.00     0.214 C 
ATOM     29  O   UNL     1      12.485   0.925   4.135  1.00  0.00    -0.332 OA
ATOM     30  C   UNL     1      14.850  -0.683   3.688  1.00  0.00     0.180 C 
ATOM     31  C   UNL     1      12.406  -0.490   4.201  1.00  0.00     0.179 C 
ATOM     32  C   UNL     1      13.747  -1.096   4.673  1.00  0.00     0.177 C 
BRANCH  28  33
ATOM     33  O   UNL     1      15.323   1.501   4.633  1.00  0.00    -0.384 OA
ATOM     34  H   UNL     1      15.974   0.890   5.068  1.00  0.00     0.211 HD
ENDBRANCH  28  33
BRANCH  30  35
ATOM     35  O   UNL     1      16.097  -1.125   4.159  1.00  0.00    -0.387 OA
ATOM     36  H   UNL     1      16.786  -0.706   3.580  1.00  0.00     0.211 HD
ENDBRANCH  30  35
BRANCH  31  37
ATOM     37  C   UNL     1      11.256  -0.881   5.134  1.00  0.00     0.191 C 
BRANCH  37  38
ATOM     38  O   UNL     1      11.403  -0.222   6.360  1.00  0.00    -0.394 OA
ATOM     39  H   UNL     1      10.844  -0.722   7.011  1.00  0.00     0.210 HD
ENDBRANCH  37  38
ENDBRANCH  31  37
BRANCH  32  40
ATOM     40  O   UNL     1      14.067  -0.642   5.965  1.00  0.00    -0.387 OA
ATOM     41  H   UNL     1      13.210  -0.469   6.435  1.00  0.00     0.211 HD
ENDBRANCH  32  40
ENDBRANCH   1  27
TORSDOF 12
ENDMDL
MODEL 7
REMARK VINA RESULT:    -5.138      2.047      5.680
REMARK INTER + INTRA:          -9.211
REMARK INTER:                  -8.755
REMARK INTRA:                  -0.456
REMARK UNBOUND:                -1.670
REMARK SMILES O=c1c(O[C@H]2O[C@H](CO)[C@H](O)[C@H](O)[C@@H]2O)c(-c2ccc(O)c(O)c2)oc2cc(O)cc(O)c12
REMARK SMILES IDX 4 1 3 2 16 3 25 4 2 5 26 6 1 7 33 8 27 9 31 10 28 11 30 12
REMARK SMILES IDX 17 13 18 14 19 15 20 16 24 17 22 18 21 19 23 21 32 23 29 25
REMARK SMILES IDX 5 27 14 28 6 29 12 30 7 31 10 32 15 33 13 35 8 37 9 38 11 40
REMARK H PARENT 21 20 23 22 32 24 29 26 15 34 13 36 9 39 11 41
REMARK Flexibility Score: inf
ROOT
ATOM      1  O   UNL     1      14.237   0.763   1.935  1.00  0.00    -0.454 OA
ENDROOT
BRANCH   1   2
ATOM      2  C   UNL     1      13.183   0.510   2.825  1.00  0.00     0.214 A 
ATOM      3  C   UNL     1      13.408   0.306   4.202  1.00  0.00     0.180 A 
ATOM      4  O   UNL     1      12.397  -0.046   4.986  1.00  0.00    -0.452 OA
ATOM      5  C   UNL     1      11.872   0.445   2.337  1.00  0.00     0.239 A 
ATOM      6  C   UNL     1      11.144  -0.157   4.560  1.00  0.00     0.146 A 
ATOM      7  O   UNL     1      11.681   0.628   1.107  1.00  0.00    -0.285 OA
ATOM      8  C   UNL     1      10.804   0.135   3.213  1.00  0.00     0.111 A 
ATOM      9  C   UNL     1      10.164  -0.565   5.468  1.00  0.00     0.094 A 
ATOM     10  C   UNL     1       9.434   0.057   2.825  1.00  0.00     0.134 A 
ATOM     11  C   UNL     1       8.837  -0.696   5.064  1.00  0.00     0.123 A 
ATOM     12  C   UNL     1       8.479  -0.389   3.749  1.00  0.00     0.093 A 
BRANCH   3  13
ATOM     13  C   UNL     1      14.741   0.474   4.821  1.00  0.00     0.025 A 
ATOM     14  C   UNL     1      15.541  -0.652   5.064  1.00  0.00     0.016 A 
ATOM     15  C   UNL     1      16.803  -0.510   5.648  1.00  0.00     0.051 A 
ATOM     16  C   UNL     1      17.275   0.759   6.009  1.00  0.00     0.157 A 
ATOM     17  C   UNL     1      15.206   1.743   5.211  1.00  0.00     0.062 A 
ATOM     18  C   UNL     1      16.470   1.890   5.792  1.00  0.00     0.158 A 
BRANCH  16  19
ATOM     19  O   UNL     1      18.537   0.899   6.586  1.00  0.00    -0.504 OA
ATOM     20  H   UNL     1      18.707   1.559   7.335  1.00  0.00     0.293 HD
ENDBRANCH  16  19
BRANCH  18  21
ATOM     21  O   UNL     1      16.906   3.165   6.149  1.00  0.00    -0.504 OA
ATOM     22  H   UNL     1      16.264   3.891   6.445  1.00  0.00     0.293 HD
ENDBRANCH  18  21
ENDBRANCH   3  13
BRANCH  10  23
ATOM     23  O   UNL     1       8.956   0.423   1.564  1.00  0.00    -0.507 OA
ATOM     24  H   UNL     1       8.519  -0.206   0.908  1.00  0.00     0.293 HD
ENDBRANCH  10  23
BRANCH  11  25
ATOM     25  O   UNL     1       7.880  -1.125   5.980  1.00  0.00    -0.508 OA
ATOM     26  H   UNL     1       7.007  -1.542   5.678  1.00  0.00     0.293 HD
ENDBRANCH  11  25
ENDBRANCH   1   2
BRANCH   1  27
ATOM     27  C   UNL     1      14.824   2.061   1.786  1.00  0.00     0.339 C 
ATOM     28  C   UNL     1      13.733   3.146   1.691  1.00  0.00     0.214 C 
ATOM     29  O   UNL     1      15.709   2.098   0.675  1.00  0.00    -0.332 OA
ATOM     30  C   UNL     1      13.000   3.060   0.335  1.00  0.00     0.180 C 
ATOM     31  C   UNL     1      15.022   1.874  -0.547  1.00  0.00     0.179 C 
ATOM     32  C   UNL     1      14.006   3.005  -0.823  1.00  0.00     0.177 C 
BRANCH  28  33
ATOM     33  O   UNL     1      14.329   4.410   1.852  1.00  0.00    -0.384 OA
ATOM     34  H   UNL     1      15.146   4.277   2.400  1.00  0.00     0.211 HD
ENDBRANCH  28  33
BRANCH  30  35
ATOM     35  O   UNL     1      12.137   4.155   0.164  1.00  0.00    -0.387 OA
ATOM     36  H   UNL     1      12.241   4.456  -0.777  1.00  0.00     0.211 HD
ENDBRANCH  30  35
BRANCH  31  37
ATOM     37  C   UNL     1      16.048   1.754  -1.678  1.00  0.00     0.191 C 
BRANCH  37  38
ATOM     38  O   UNL     1      17.329   2.021  -1.180  1.00  0.00    -0.394 OA
ATOM     39  H   UNL     1      17.750   1.138  -1.016  1.00  0.00     0.210 HD
ENDBRANCH  37  38
ENDBRANCH  31  37
BRANCH  32  40
ATOM     40  O   UNL     1      14.664   4.243  -0.942  1.00  0.00    -0.387 OA
ATOM     41  H   UNL     1      14.821   4.398  -1.910  1.00  0.00     0.211 HD
ENDBRANCH  32  40
ENDBRANCH   1  27
TORSDOF 12
ENDMDL
MODEL 8
REMARK VINA RESULT:    -5.096      2.369      6.595
REMARK INTER + INTRA:          -9.149
REMARK INTER:                  -8.477
REMARK INTRA:                  -0.672
REMARK UNBOUND:                -1.670
REMARK SMILES O=c1c(O[C@H]2O[C@H](CO)[C@H](O)[C@H](O)[C@@H]2O)c(-c2ccc(O)c(O)c2)oc2cc(O)cc(O)c12
REMARK SMILES IDX 4 1 3 2 16 3 25 4 2 5 26 6 1 7 33 8 27 9 31 10 28 11 30 12
REMARK SMILES IDX 17 13 18 14 19 15 20 16 24 17 22 18 21 19 23 21 32 23 29 25
REMARK SMILES IDX 5 27 14 28 6 29 12 30 7 31 10 32 15 33 13 35 8 37 9 38 11 40
REMARK H PARENT 21 20 23 22 32 24 29 26 15 34 13 36 9 39 11 41
REMARK Flexibility Score: inf
ROOT
ATOM      1  O   UNL     1      14.438   3.028   2.142  1.00  0.00    -0.454 OA
ENDROOT
BRANCH   1   2
ATOM      2  C   UNL     1      13.409   3.350   1.245  1.00  0.00     0.214 A 
ATOM      3  C   UNL     1      13.546   3.151  -0.144  1.00  0.00     0.180 A 
ATOM      4  O   UNL     1      12.595   3.577  -0.964  1.00  0.00    -0.452 OA
ATOM      5  C   UNL     1      12.215   3.894   1.735  1.00  0.00     0.239 A 
ATOM      6  C   UNL     1      11.463   4.133  -0.547  1.00  0.00     0.146 A 
ATOM      7  O   UNL     1      12.101   4.069   2.976  1.00  0.00    -0.285 OA
ATOM      8  C   UNL     1      11.189   4.275   0.838  1.00  0.00     0.111 A 
ATOM      9  C   UNL     1      10.545   4.574  -1.503  1.00  0.00     0.094 A 
ATOM     10  C   UNL     1       9.933   4.826   1.229  1.00  0.00     0.134 A 
ATOM     11  C   UNL     1       9.346   5.165  -1.111  1.00  0.00     0.123 A 
ATOM     12  C   UNL     1       9.047   5.291   0.248  1.00  0.00     0.093 A 
BRANCH   3  13
ATOM     13  C   UNL     1      14.721   2.473  -0.735  1.00  0.00     0.025 A 
ATOM     14  C   UNL     1      15.993   3.049  -0.607  1.00  0.00     0.016 A 
ATOM     15  C   UNL     1      17.113   2.422  -1.158  1.00  0.00     0.051 A 
ATOM     16  C   UNL     1      16.973   1.215  -1.858  1.00  0.00     0.157 A 
ATOM     17  C   UNL     1      14.580   1.277  -1.461  1.00  0.00     0.062 A 
ATOM     18  C   UNL     1      15.699   0.643  -2.013  1.00  0.00     0.158 A 
BRANCH  16  19
ATOM     19  O   UNL     1      18.092   0.588  -2.403  1.00  0.00    -0.504 OA
ATOM     20  H   UNL     1      18.008  -0.091  -3.151  1.00  0.00     0.293 HD
ENDBRANCH  16  19
BRANCH  18  21
ATOM     21  O   UNL     1      15.524  -0.550  -2.712  1.00  0.00    -0.504 OA
ATOM     22  H   UNL     1      15.615  -1.455  -2.264  1.00  0.00     0.293 HD
ENDBRANCH  18  21
ENDBRANCH   3  13
BRANCH  10  23
ATOM     23  O   UNL     1       9.498   4.917   2.555  1.00  0.00    -0.507 OA
ATOM     24  H   UNL     1      10.010   4.574   3.354  1.00  0.00     0.293 HD
ENDBRANCH  10  23
BRANCH  11  25
ATOM     25  O   UNL     1       8.454   5.617  -2.079  1.00  0.00    -0.508 OA
ATOM     26  H   UNL     1       7.530   5.954  -1.834  1.00  0.00     0.293 HD
ENDBRANCH  11  25
ENDBRANCH   1   2
BRANCH   1  27
ATOM     27  C   UNL     1      14.899   1.685   2.336  1.00  0.00     0.339 C 
ATOM     28  C   UNL     1      13.710   0.709   2.437  1.00  0.00     0.214 C 
ATOM     29  O   UNL     1      15.756   1.597   3.465  1.00  0.00    -0.332 OA
ATOM     30  C   UNL     1      12.965   0.900   3.775  1.00  0.00     0.180 C 
ATOM     31  C   UNL     1      15.072   1.916   4.667  1.00  0.00     0.179 C 
ATOM     32  C   UNL     1      13.951   0.892   4.951  1.00  0.00     0.177 C 
BRANCH  28  33
ATOM     33  O   UNL     1      14.189  -0.608   2.321  1.00  0.00    -0.384 OA
ATOM     34  H   UNL     1      13.472  -1.139   1.884  1.00  0.00     0.211 HD
ENDBRANCH  28  33
BRANCH  30  35
ATOM     35  O   UNL     1      12.001  -0.106   3.957  1.00  0.00    -0.387 OA
ATOM     36  H   UNL     1      12.491  -0.924   4.233  1.00  0.00     0.211 HD
ENDBRANCH  30  35
BRANCH  31  37
ATOM     37  C   UNL     1      16.085   1.972   5.816  1.00  0.00     0.191 C 
BRANCH  37  38
ATOM     38  O   UNL     1      16.852   3.138   5.708  1.00  0.00    -0.394 OA
ATOM     39  H   UNL     1      17.251   3.290   6.604  1.00  0.00     0.210 HD
ENDBRANCH  37  38
ENDBRANCH  31  37
BRANCH  32  40
ATOM     40  O   UNL     1      14.488  -0.398   5.115  1.00  0.00    -0.387 OA
ATOM     41  H   UNL     1      15.259  -0.475   4.493  1.00  0.00     0.211 HD
ENDBRANCH  32  40
ENDBRANCH   1  27
TORSDOF 12
ENDMDL
MODEL 9
REMARK VINA RESULT:    -4.988      2.354      7.260
REMARK INTER + INTRA:          -8.991
REMARK INTER:                  -7.926
REMARK INTRA:                  -1.065
REMARK UNBOUND:                -1.670
REMARK SMILES O=c1c(O[C@H]2O[C@H](CO)[C@H](O)[C@H](O)[C@@H]2O)c(-c2ccc(O)c(O)c2)oc2cc(O)cc(O)c12
REMARK SMILES IDX 4 1 3 2 16 3 25 4 2 5 26 6 1 7 33 8 27 9 31 10 28 11 30 12
REMARK SMILES IDX 17 13 18 14 19 15 20 16 24 17 22 18 21 19 23 21 32 23 29 25
REMARK SMILES IDX 5 27 14 28 6 29 12 30 7 31 10 32 15 33 13 35 8 37 9 38 11 40
REMARK H PARENT 21 20 23 22 32 24 29 26 15 34 13 36 9 39 11 41
REMARK Flexibility Score: inf
ROOT
ATOM      1  O   UNL     1      12.677   1.235  -0.209  1.00  0.00    -0.454 OA
ENDROOT
BRANCH   1   2
ATOM      2  C   UNL     1      11.920   2.320   0.255  1.00  0.00     0.214 A 
ATOM      3  C   UNL     1      11.743   2.566   1.631  1.00  0.00     0.180 A 
ATOM      4  O   UNL     1      10.923   3.533   2.024  1.00  0.00    -0.452 OA
ATOM      5  C   UNL     1      11.311   3.177  -0.670  1.00  0.00     0.239 A 
ATOM      6  C   UNL     1      10.295   4.347   1.183  1.00  0.00     0.146 A 
ATOM      7  O   UNL     1      11.473   2.950  -1.896  1.00  0.00    -0.285 OA
ATOM      8  C   UNL     1      10.497   4.244  -0.217  1.00  0.00     0.111 A 
ATOM      9  C   UNL     1       9.431   5.310   1.709  1.00  0.00     0.094 A 
ATOM     10  C   UNL     1       9.842   5.182  -1.070  1.00  0.00     0.134 A 
ATOM     11  C   UNL     1       8.749   6.184   0.864  1.00  0.00     0.123 A 
ATOM     12  C   UNL     1       8.954   6.114  -0.516  1.00  0.00     0.093 A 
BRANCH   3  13
ATOM     13  C   UNL     1      12.446   1.786   2.673  1.00  0.00     0.025 A 
ATOM     14  C   UNL     1      11.905   0.568   3.111  1.00  0.00     0.016 A 
ATOM     15  C   UNL     1      12.557  -0.182   4.094  1.00  0.00     0.051 A 
ATOM     16  C   UNL     1      13.751   0.283   4.662  1.00  0.00     0.157 A 
ATOM     17  C   UNL     1      13.629   2.263   3.265  1.00  0.00     0.062 A 
ATOM     18  C   UNL     1      14.286   1.514   4.247  1.00  0.00     0.158 A 
BRANCH  16  19
ATOM     19  O   UNL     1      14.402  -0.470   5.638  1.00  0.00    -0.504 OA
ATOM     20  H   UNL     1      14.941  -1.294   5.401  1.00  0.00     0.293 HD
ENDBRANCH  16  19
BRANCH  18  21
ATOM     21  O   UNL     1      15.466   2.010   4.799  1.00  0.00    -0.504 OA
ATOM     22  H   UNL     1      15.466   2.705   5.537  1.00  0.00     0.293 HD
ENDBRANCH  18  21
ENDBRANCH   3  13
BRANCH  10  23
ATOM     23  O   UNL     1      10.043   5.256  -2.451  1.00  0.00    -0.507 OA
ATOM     24  H   UNL     1       9.608   5.932  -3.061  1.00  0.00     0.293 HD
ENDBRANCH  10  23
BRANCH  11  25
ATOM     25  O   UNL     1       7.876   7.123   1.406  1.00  0.00    -0.508 OA
ATOM     26  H   UNL     1       7.155   6.857   2.067  1.00  0.00     0.293 HD
ENDBRANCH  11  25
ENDBRANCH   1   2
BRANCH   1  27
ATOM     27  C   UNL     1      14.074   1.092   0.077  1.00  0.00     0.339 C 
ATOM     28  C   UNL     1      14.830   2.401  -0.227  1.00  0.00     0.214 C 
ATOM     29  O   UNL     1      14.628  -0.016  -0.619  1.00  0.00    -0.332 OA
ATOM     30  C   UNL     1      14.922   2.632  -1.750  1.00  0.00     0.180 C 
ATOM     31  C   UNL     1      14.569   0.168  -2.025  1.00  0.00     0.179 C 
ATOM     32  C   UNL     1      15.435   1.371  -2.460  1.00  0.00     0.177 C 
BRANCH  28  33
ATOM     33  O   UNL     1      16.115   2.330   0.341  1.00  0.00    -0.384 OA
ATOM     34  H   UNL     1      16.051   1.725   1.126  1.00  0.00     0.211 HD
ENDBRANCH  28  33
BRANCH  30  35
ATOM     35  O   UNL     1      15.766   3.717  -2.040  1.00  0.00    -0.387 OA
ATOM     36  H   UNL     1      15.807   4.274  -1.220  1.00  0.00     0.211 HD
ENDBRANCH  30  35
BRANCH  31  37
ATOM     37  C   UNL     1      15.019  -1.124  -2.715  1.00  0.00     0.191 C 
BRANCH  37  38
ATOM     38  O   UNL     1      15.897  -0.816  -3.760  1.00  0.00    -0.394 OA
ATOM     39  H   UNL     1      15.717   0.129  -4.002  1.00  0.00     0.210 HD
ENDBRANCH  37  38
ENDBRANCH  31  37
BRANCH  32  40
ATOM     40  O   UNL     1      16.785   1.154  -2.131  1.00  0.00    -0.387 OA
ATOM     41  H   UNL     1      17.023   0.246  -2.456  1.00  0.00     0.211 HD
ENDBRANCH  32  40
ENDBRANCH   1  27
TORSDOF 12
ENDMDL
