MODEL 1
REMARK VINA RESULT:    -2.072      0.000      0.000
REMARK INTER + INTRA:          -2.562
REMARK INTER:                  -2.435
REMARK INTRA:                  -0.127
REMARK UNBOUND:                -0.127
REMARK SMILES O=C([O-])CCC(=O)[O-]
REMARK SMILES IDX 4 1 2 2 1 3 3 4 5 5 6 6 7 7 8 8
REMARK H PARENT
REMARK Flexibility Score: inf
ROOT
ATOM      1  C   UNL     1      -0.775  11.045  -9.001  1.00  0.00     0.059 C 
ENDROOT
BRANCH   1   2
ATOM      2  C   UNL     1      -1.066  12.484  -8.711  1.00  0.00     0.042 C 
ATOM      3  O   UNL     1      -0.762  12.979  -7.594  1.00  0.00    -0.550 OA
ATOM      4  O   UNL     1      -1.718  13.265  -9.656  1.00  0.00    -0.550 OA
ENDBRANCH   1   2
BRANCH   1   5
ATOM      5  C   UNL     1      -1.755  10.140  -8.252  1.00  0.00     0.059 C 
BRANCH   5   6
ATOM      6  C   UNL     1      -2.937   9.824  -9.113  1.00  0.00     0.042 C 
ATOM      7  O   UNL     1      -4.003   9.399  -8.594  1.00  0.00    -0.550 OA
ATOM      8  O   UNL     1      -2.879  10.047 -10.483  1.00  0.00    -0.550 OA
ENDBRANCH   5   6
ENDBRANCH   1   5
TORSDOF 3
ENDMDL
MODEL 2
REMARK VINA RESULT:    -2.056      0.286      3.696
REMARK INTER + INTRA:          -2.543
REMARK INTER:                  -2.436
REMARK INTRA:                  -0.107
REMARK UNBOUND:                -0.127
REMARK SMILES O=C([O-])CCC(=O)[O-]
REMARK SMILES IDX 4 1 2 2 1 3 3 4 5 5 6 6 7 7 8 8
REMARK H PARENT
REMARK Flexibility Score: inf
ROOT
ATOM      1  C   UNL     1      -1.992  10.138  -8.373  1.00  0.00     0.059 C 
ENDROOT
BRANCH   1   2
ATOM      2  C   UNL     1      -3.198   9.772  -9.180  1.00  0.00     0.042 C 
ATOM      3  O   UNL     1      -3.238  10.029 -10.412  1.00  0.00    -0.550 OA
ATOM      4  O   UNL     1      -4.299   9.193  -8.561  1.00  0.00    -0.550 OA
ENDBRANCH   1   2
BRANCH   1   5
ATOM      5  C   UNL     1      -1.038  11.003  -9.198  1.00  0.00     0.059 C 
BRANCH   5   6
ATOM      6  C   UNL     1      -1.235  12.451  -8.877  1.00  0.00     0.042 C 
ATOM      7  O   UNL     1      -0.840  12.916  -7.775  1.00  0.00    -0.550 OA
ATOM      8  O   UNL     1      -1.808  13.300  -9.817  1.00  0.00    -0.550 OA
ENDBRANCH   5   6
ENDBRANCH   1   5
TORSDOF 3
ENDMDL
MODEL 3
REMARK VINA RESULT:    -2.037      4.657      6.314
REMARK INTER + INTRA:          -2.521
REMARK INTER:                  -2.404
REMARK INTRA:                  -0.116
REMARK UNBOUND:                -0.127
REMARK SMILES O=C([O-])CCC(=O)[O-]
REMARK SMILES IDX 4 1 2 2 1 3 3 4 5 5 6 6 7 7 8 8
REMARK H PARENT
REMARK Flexibility Score: inf
ROOT
ATOM      1  C   UNL     1       0.818  13.796  -3.618  1.00  0.00     0.059 C 
ENDROOT
BRANCH   1   2
ATOM      2  C   UNL     1       1.406  12.611  -2.919  1.00  0.00     0.042 C 
ATOM      3  O   UNL     1       2.241  11.876  -3.509  1.00  0.00    -0.550 OA
ATOM      4  O   UNL     1       0.994  12.289  -1.631  1.00  0.00    -0.550 OA
ENDBRANCH   1   2
BRANCH   1   5
ATOM      5  C   UNL     1      -0.283  13.355  -4.584  1.00  0.00     0.059 C 
BRANCH   5   6
ATOM      6  C   UNL     1       0.158  13.544  -6.001  1.00  0.00     0.042 C 
ATOM      7  O   UNL     1      -0.622  13.269  -6.950  1.00  0.00    -0.550 OA
ATOM      8  O   UNL     1       1.413  14.074  -6.274  1.00  0.00    -0.550 OA
ENDBRANCH   5   6
ENDBRANCH   1   5
TORSDOF 3
ENDMDL
MODEL 4
REMARK VINA RESULT:    -2.036      1.216      1.441
REMARK INTER + INTRA:          -2.520
REMARK INTER:                  -2.387
REMARK INTRA:                  -0.133
REMARK UNBOUND:                -0.127
REMARK SMILES O=C([O-])CCC(=O)[O-]
REMARK SMILES IDX 4 1 2 2 1 3 3 4 5 5 6 6 7 7 8 8
REMARK H PARENT
REMARK Flexibility Score: inf
ROOT
ATOM      1  C   UNL     1      -1.171  11.259 -10.119  1.00  0.00     0.059 C 
ENDROOT
BRANCH   1   2
ATOM      2  C   UNL     1      -1.468  12.642  -9.631  1.00  0.00     0.042 C 
ATOM      3  O   UNL     1      -0.980  13.049  -8.543  1.00  0.00    -0.550 OA
ATOM      4  O   UNL     1      -2.325  13.465 -10.351  1.00  0.00    -0.550 OA
ENDBRANCH   1   2
BRANCH   1   5
ATOM      5  C   UNL     1      -2.456  10.436 -10.207  1.00  0.00     0.059 C 
BRANCH   5   6
ATOM      6  C   UNL     1      -2.749   9.782  -8.893  1.00  0.00     0.042 C 
ATOM      7  O   UNL     1      -3.924   9.429  -8.609  1.00  0.00    -0.550 OA
ATOM      8  O   UNL     1      -1.716   9.516  -8.003  1.00  0.00    -0.550 OA
ENDBRANCH   5   6
ENDBRANCH   1   5
TORSDOF 3
ENDMDL
MODEL 5
REMARK VINA RESULT:    -2.022      1.391      3.637
REMARK INTER + INTRA:          -2.504
REMARK INTER:                  -2.372
REMARK INTRA:                  -0.132
REMARK UNBOUND:                -0.127
REMARK SMILES O=C([O-])CCC(=O)[O-]
REMARK SMILES IDX 4 1 2 2 1 3 3 4 5 5 6 6 7 7 8 8
REMARK H PARENT
REMARK Flexibility Score: inf
ROOT
ATOM      1  C   UNL     1      -0.469  10.429  -9.207  1.00  0.00     0.059 C 
ENDROOT
BRANCH   1   2
ATOM      2  C   UNL     1      -1.471   9.590  -8.477  1.00  0.00     0.042 C 
ATOM      3  O   UNL     1      -1.112   8.529  -7.903  1.00  0.00    -0.550 OA
ATOM      4  O   UNL     1      -2.812   9.956  -8.472  1.00  0.00    -0.550 OA
ENDBRANCH   1   2
BRANCH   1   5
ATOM      5  C   UNL     1       0.219  11.398  -8.246  1.00  0.00     0.059 C 
BRANCH   5   6
ATOM      6  C   UNL     1      -0.585  12.652  -8.102  1.00  0.00     0.042 C 
ATOM      7  O   UNL     1      -0.584  13.284  -7.013  1.00  0.00    -0.550 OA
ATOM      8  O   UNL     1      -1.295  13.151  -9.187  1.00  0.00    -0.550 OA
ENDBRANCH   5   6
ENDBRANCH   1   5
TORSDOF 3
ENDMDL
MODEL 6
REMARK VINA RESULT:    -1.900      3.702      5.800
REMARK INTER + INTRA:          -2.361
REMARK INTER:                  -2.328
REMARK INTRA:                  -0.032
REMARK UNBOUND:                -0.127
REMARK SMILES O=C([O-])CCC(=O)[O-]
REMARK SMILES IDX 4 1 2 2 1 3 3 4 5 5 6 6 7 7 8 8
REMARK H PARENT
REMARK Flexibility Score: inf
ROOT
ATOM      1  C   UNL     1      -0.159  13.205  -6.016  1.00  0.00     0.059 C 
ENDROOT
BRANCH   1   2
ATOM      2  C   UNL     1       0.031  13.272  -7.499  1.00  0.00     0.042 C 
ATOM      3  O   UNL     1       1.139  13.625  -7.981  1.00  0.00    -0.550 OA
ATOM      4  O   UNL     1      -1.032  12.993  -8.349  1.00  0.00    -0.550 OA
ENDBRANCH   1   2
BRANCH   1   5
ATOM      5  C   UNL     1       0.673  14.284  -5.321  1.00  0.00     0.059 C 
BRANCH   5   6
ATOM      6  C   UNL     1       0.336  14.347  -3.864  1.00  0.00     0.042 C 
ATOM      7  O   UNL     1       0.069  15.452  -3.322  1.00  0.00    -0.550 OA
ATOM      8  O   UNL     1       0.269  13.179  -3.116  1.00  0.00    -0.550 OA
ENDBRANCH   5   6
ENDBRANCH   1   5
TORSDOF 3
ENDMDL
MODEL 7
REMARK VINA RESULT:    -1.886      2.070      3.964
REMARK INTER + INTRA:          -2.344
REMARK INTER:                  -2.209
REMARK INTRA:                  -0.135
REMARK UNBOUND:                -0.127
REMARK SMILES O=C([O-])CCC(=O)[O-]
REMARK SMILES IDX 4 1 2 2 1 3 3 4 5 5 6 6 7 7 8 8
REMARK H PARENT
REMARK Flexibility Score: inf
ROOT
ATOM      1  C   UNL     1       0.046  12.518  -9.883  1.00  0.00     0.059 C 
ENDROOT
BRANCH   1   2
ATOM      2  C   UNL     1      -1.446  12.403  -9.910  1.00  0.00     0.042 C 
ATOM      3  O   UNL     1      -2.157  13.425 -10.097  1.00  0.00    -0.550 OA
ATOM      4  O   UNL     1      -2.052  11.175  -9.678  1.00  0.00    -0.550 OA
ENDBRANCH   1   2
BRANCH   1   5
ATOM      5  C   UNL     1       0.482  13.596  -8.890  1.00  0.00     0.059 C 
BRANCH   5   6
ATOM      6  C   UNL     1       0.398  13.080  -7.487  1.00  0.00     0.042 C 
ATOM      7  O   UNL     1      -0.566  13.409  -6.747  1.00  0.00    -0.550 OA
ATOM      8  O   UNL     1       1.358  12.194  -7.015  1.00  0.00    -0.550 OA
ENDBRANCH   5   6
ENDBRANCH   1   5
TORSDOF 3
ENDMDL
MODEL 8
REMARK VINA RESULT:    -1.867      2.985      4.829
REMARK INTER + INTRA:          -2.322
REMARK INTER:                  -2.245
REMARK INTRA:                  -0.076
REMARK UNBOUND:                -0.127
REMARK SMILES O=C([O-])CCC(=O)[O-]
REMARK SMILES IDX 4 1 2 2 1 3 3 4 5 5 6 6 7 7 8 8
REMARK H PARENT
REMARK Flexibility Score: inf
ROOT
ATOM      1  C   UNL     1      -0.382  12.548  -7.574  1.00  0.00     0.059 C 
ENDROOT
BRANCH   1   2
ATOM      2  C   UNL     1      -0.391  13.304  -8.866  1.00  0.00     0.042 C 
ATOM      3  O   UNL     1      -1.423  13.315  -9.587  1.00  0.00    -0.550 OA
ATOM      4  O   UNL     1       0.758  13.955  -9.298  1.00  0.00    -0.550 OA
ENDBRANCH   1   2
BRANCH   1   5
ATOM      5  C   UNL     1       0.830  12.946  -6.731  1.00  0.00     0.059 C 
BRANCH   5   6
ATOM      6  C   UNL     1       0.397  13.731  -5.532  1.00  0.00     0.042 C 
ATOM      7  O   UNL     1       0.860  14.884  -5.328  1.00  0.00    -0.550 OA
ATOM      8  O   UNL     1      -0.555  13.209  -4.666  1.00  0.00    -0.550 OA
ENDBRANCH   5   6
ENDBRANCH   1   5
TORSDOF 3
ENDMDL
MODEL 9
REMARK VINA RESULT:    -1.848      3.586      5.136
REMARK INTER + INTRA:          -2.299
REMARK INTER:                  -2.262
REMARK INTRA:                  -0.037
REMARK UNBOUND:                -0.127
REMARK SMILES O=C([O-])CCC(=O)[O-]
REMARK SMILES IDX 4 1 2 2 1 3 3 4 5 5 6 6 7 7 8 8
REMARK H PARENT
REMARK Flexibility Score: inf
ROOT
ATOM      1  C   UNL     1       0.985  14.250  -5.672  1.00  0.00     0.059 C 
ENDROOT
BRANCH   1   2
ATOM      2  C   UNL     1       0.603  14.950  -4.406  1.00  0.00     0.042 C 
ATOM      3  O   UNL     1       1.058  16.097  -4.153  1.00  0.00    -0.550 OA
ATOM      4  O   UNL     1      -0.215  14.315  -3.480  1.00  0.00    -0.550 OA
ENDBRANCH   1   2
BRANCH   1   5
ATOM      5  C   UNL     1      -0.115  13.277  -6.098  1.00  0.00     0.059 C 
BRANCH   5   6
ATOM      6  C   UNL     1      -0.133  13.128  -7.587  1.00  0.00     0.042 C 
ATOM      7  O   UNL     1       0.895  13.395  -8.264  1.00  0.00    -0.550 OA
ATOM      8  O   UNL     1      -1.270  12.645  -8.223  1.00  0.00    -0.550 OA
ENDBRANCH   5   6
ENDBRANCH   1   5
TORSDOF 3
ENDMDL
