MODEL 1
REMARK VINA RESULT:    -3.505      0.000      0.000
REMARK INTER + INTRA:          -8.481
REMARK INTER:                  -6.374
REMARK INTRA:                  -2.107
REMARK UNBOUND:                -2.107
REMARK SMILES CCCCCCCCCCCCCC[C@H](C)C(=O)[O-]
REMARK SMILES IDX 9 1 10 2 11 3 12 4 13 5 14 6 15 7 16 8 17 9 18 10 19 11 8 12
REMARK SMILES IDX 7 13 6 14 5 15 4 16 3 17 2 18 1 19
REMARK H PARENT
REMARK Flexibility Score: inf
ROOT
ATOM      1  C   UNL     1      56.573  30.511  53.119  1.00  0.00     0.000 C 
ENDROOT
BRANCH   1   2
ATOM      2  C   UNL     1      55.852  31.612  52.314  1.00  0.00     0.000 C 
BRANCH   2   3
ATOM      3  C   UNL     1      55.087  31.115  51.073  1.00  0.00     0.000 C 
BRANCH   3   4
ATOM      4  C   UNL     1      54.068  30.013  51.402  1.00  0.00     0.000 C 
BRANCH   4   5
ATOM      5  C   UNL     1      54.216  28.826  50.443  1.00  0.00     0.001 C 
BRANCH   5   6
ATOM      6  C   UNL     1      54.465  27.521  51.217  1.00  0.00     0.009 C 
BRANCH   6   7
ATOM      7  C   UNL     1      55.241  26.475  50.388  1.00  0.00     0.032 C 
ATOM      8  C   UNL     1      54.306  25.512  49.641  1.00  0.00     0.014 C 
BRANCH   7   9
ATOM      9  C   UNL     1      56.165  25.694  51.283  1.00  0.00     0.044 C 
ATOM     10  O   UNL     1      55.770  25.280  52.405  1.00  0.00    -0.550 OA
ATOM     11  O   UNL     1      57.464  25.423  50.873  1.00  0.00    -0.550 OA
ENDBRANCH   7   9
ENDBRANCH   6   7
ENDBRANCH   5   6
ENDBRANCH   4   5
ENDBRANCH   3   4
ENDBRANCH   2   3
ENDBRANCH   1   2
BRANCH   1  12
ATOM     12  C   UNL     1      57.997  30.176  52.635  1.00  0.00     0.000 C 
BRANCH  12  13
ATOM     13  C   UNL     1      58.125  28.850  51.857  1.00  0.00    -0.000 C 
BRANCH  13  14
ATOM     14  C   UNL     1      57.931  28.969  50.334  1.00  0.00    -0.000 C 
BRANCH  14  15
ATOM     15  C   UNL     1      59.253  28.889  49.556  1.00  0.00    -0.000 C 
BRANCH  15  16
ATOM     16  C   UNL     1      59.953  27.546  49.800  1.00  0.00    -0.000 C 
BRANCH  16  17
ATOM     17  C   UNL     1      61.443  27.749  50.098  1.00  0.00    -0.000 C 
BRANCH  17  18
ATOM     18  C   UNL     1      61.685  27.916  51.603  1.00  0.00    -0.003 C 
ATOM     19  C   UNL     1      61.998  29.368  51.953  1.00  0.00     0.004 C 
ENDBRANCH  17  18
ENDBRANCH  16  17
ENDBRANCH  15  16
ENDBRANCH  14  15
ENDBRANCH  13  14
ENDBRANCH  12  13
ENDBRANCH   1  12
TORSDOF 14
ENDMDL
MODEL 2
REMARK VINA RESULT:    -3.425      2.533      4.526
REMARK INTER + INTRA:          -8.335
REMARK INTER:                  -5.977
REMARK INTRA:                  -2.358
REMARK UNBOUND:                -2.107
REMARK SMILES CCCCCCCCCCCCCC[C@H](C)C(=O)[O-]
REMARK SMILES IDX 9 1 10 2 11 3 12 4 13 5 14 6 15 7 16 8 17 9 18 10 19 11 8 12
REMARK SMILES IDX 7 13 6 14 5 15 4 16 3 17 2 18 1 19
REMARK H PARENT
REMARK Flexibility Score: inf
ROOT
ATOM      1  C   UNL     1      56.567  25.937  51.823  1.00  0.00     0.000 C 
ENDROOT
BRANCH   1   2
ATOM      2  C   UNL     1      56.076  26.059  50.366  1.00  0.00     0.000 C 
BRANCH   2   3
ATOM      3  C   UNL     1      54.579  25.760  50.158  1.00  0.00     0.000 C 
BRANCH   3   4
ATOM      4  C   UNL     1      53.673  26.925  50.584  1.00  0.00     0.000 C 
BRANCH   4   5
ATOM      5  C   UNL     1      54.340  28.274  50.292  1.00  0.00     0.001 C 
BRANCH   5   6
ATOM      6  C   UNL     1      53.491  29.437  50.831  1.00  0.00     0.009 C 
BRANCH   6   7
ATOM      7  C   UNL     1      53.986  29.950  52.201  1.00  0.00     0.032 C 
ATOM      8  C   UNL     1      52.880  29.927  53.267  1.00  0.00     0.014 C 
BRANCH   7   9
ATOM      9  C   UNL     1      54.526  31.348  52.060  1.00  0.00     0.044 C 
ATOM     10  O   UNL     1      55.186  31.678  51.038  1.00  0.00    -0.550 OA
ATOM     11  O   UNL     1      54.299  32.284  53.060  1.00  0.00    -0.550 OA
ENDBRANCH   7   9
ENDBRANCH   6   7
ENDBRANCH   5   6
ENDBRANCH   4   5
ENDBRANCH   3   4
ENDBRANCH   2   3
ENDBRANCH   1   2
BRANCH   1  12
ATOM     12  C   UNL     1      58.070  25.640  51.982  1.00  0.00     0.000 C 
BRANCH  12  13
ATOM     13  C   UNL     1      58.854  25.518  50.658  1.00  0.00    -0.000 C 
BRANCH  13  14
ATOM     14  C   UNL     1      59.957  26.573  50.457  1.00  0.00    -0.000 C 
BRANCH  14  15
ATOM     15  C   UNL     1      59.494  27.765  49.603  1.00  0.00    -0.000 C 
BRANCH  15  16
ATOM     16  C   UNL     1      59.344  29.027  50.460  1.00  0.00    -0.000 C 
BRANCH  16  17
ATOM     17  C   UNL     1      57.866  29.345  50.717  1.00  0.00    -0.000 C 
BRANCH  17  18
ATOM     18  C   UNL     1      57.568  29.397  52.220  1.00  0.00    -0.003 C 
ATOM     19  C   UNL     1      58.824  29.117  53.040  1.00  0.00     0.004 C 
ENDBRANCH  17  18
ENDBRANCH  16  17
ENDBRANCH  15  16
ENDBRANCH  14  15
ENDBRANCH  13  14
ENDBRANCH  12  13
ENDBRANCH   1  12
TORSDOF 14
ENDMDL
MODEL 3
REMARK VINA RESULT:    -3.405      2.304      5.662
REMARK INTER + INTRA:          -8.299
REMARK INTER:                  -6.106
REMARK INTRA:                  -2.193
REMARK UNBOUND:                -2.107
REMARK SMILES CCCCCCCCCCCCCC[C@H](C)C(=O)[O-]
REMARK SMILES IDX 9 1 10 2 11 3 12 4 13 5 14 6 15 7 16 8 17 9 18 10 19 11 8 12
REMARK SMILES IDX 7 13 6 14 5 15 4 16 3 17 2 18 1 19
REMARK H PARENT
REMARK Flexibility Score: inf
ROOT
ATOM      1  C   UNL     1      57.435  28.069  53.640  1.00  0.00     0.000 C 
ENDROOT
BRANCH   1   2
ATOM      2  C   UNL     1      56.943  26.784  52.944  1.00  0.00     0.000 C 
BRANCH   2   3
ATOM      3  C   UNL     1      57.906  25.586  53.036  1.00  0.00     0.000 C 
BRANCH   3   4
ATOM      4  C   UNL     1      58.258  24.996  51.662  1.00  0.00     0.000 C 
BRANCH   4   5
ATOM      5  C   UNL     1      58.085  26.043  50.555  1.00  0.00     0.001 C 
BRANCH   5   6
ATOM      6  C   UNL     1      59.448  26.539  50.047  1.00  0.00     0.009 C 
BRANCH   6   7
ATOM      7  C   UNL     1      59.779  27.968  50.529  1.00  0.00     0.032 C 
ATOM      8  C   UNL     1      59.019  29.042  49.738  1.00  0.00     0.014 C 
BRANCH   7   9
ATOM      9  C   UNL     1      61.261  28.214  50.425  1.00  0.00     0.044 C 
ATOM     10  O   UNL     1      61.731  29.370  50.596  1.00  0.00    -0.550 OA
ATOM     11  O   UNL     1      62.120  27.161  50.139  1.00  0.00    -0.550 OA
ENDBRANCH   7   9
ENDBRANCH   6   7
ENDBRANCH   5   6
ENDBRANCH   4   5
ENDBRANCH   3   4
ENDBRANCH   2   3
ENDBRANCH   1   2
BRANCH   1  12
ATOM     12  C   UNL     1      56.482  29.275  53.530  1.00  0.00     0.000 C 
BRANCH  12  13
ATOM     13  C   UNL     1      56.899  30.343  52.497  1.00  0.00    -0.000 C 
BRANCH  13  14
ATOM     14  C   UNL     1      55.947  30.494  51.298  1.00  0.00    -0.000 C 
BRANCH  14  15
ATOM     15  C   UNL     1      55.485  29.143  50.729  1.00  0.00    -0.000 C 
BRANCH  15  16
ATOM     16  C   UNL     1      53.966  29.125  50.523  1.00  0.00    -0.000 C 
BRANCH  16  17
ATOM     17  C   UNL     1      53.452  27.692  50.340  1.00  0.00    -0.000 C 
BRANCH  17  18
ATOM     18  C   UNL     1      54.609  26.726  50.057  1.00  0.00    -0.003 C 
ATOM     19  C   UNL     1      54.101  25.298  49.876  1.00  0.00     0.004 C 
ENDBRANCH  17  18
ENDBRANCH  16  17
ENDBRANCH  15  16
ENDBRANCH  14  15
ENDBRANCH  13  14
ENDBRANCH  12  13
ENDBRANCH   1  12
TORSDOF 14
ENDMDL
MODEL 4
REMARK VINA RESULT:    -3.398      1.769      5.582
REMARK INTER + INTRA:          -8.286
REMARK INTER:                  -6.199
REMARK INTRA:                  -2.087
REMARK UNBOUND:                -2.107
REMARK SMILES CCCCCCCCCCCCCC[C@H](C)C(=O)[O-]
REMARK SMILES IDX 9 1 10 2 11 3 12 4 13 5 14 6 15 7 16 8 17 9 18 10 19 11 8 12
REMARK SMILES IDX 7 13 6 14 5 15 4 16 3 17 2 18 1 19
REMARK H PARENT
REMARK Flexibility Score: inf
ROOT
ATOM      1  C   UNL     1      56.859  27.796  53.001  1.00  0.00     0.000 C 
ENDROOT
BRANCH   1   2
ATOM      2  C   UNL     1      57.820  28.857  52.429  1.00  0.00     0.000 C 
BRANCH   2   3
ATOM      3  C   UNL     1      57.503  29.315  50.993  1.00  0.00     0.000 C 
BRANCH   3   4
ATOM      4  C   UNL     1      58.566  28.871  49.977  1.00  0.00     0.000 C 
BRANCH   4   5
ATOM      5  C   UNL     1      59.860  28.451  50.684  1.00  0.00     0.001 C 
BRANCH   5   6
ATOM      6  C   UNL     1      60.149  26.957  50.464  1.00  0.00     0.009 C 
BRANCH   6   7
ATOM      7  C   UNL     1      60.712  26.268  51.726  1.00  0.00     0.032 C 
ATOM      8  C   UNL     1      62.148  26.710  52.042  1.00  0.00     0.014 C 
BRANCH   7   9
ATOM      9  C   UNL     1      60.665  24.773  51.557  1.00  0.00     0.044 C 
ATOM     10  O   UNL     1      61.655  24.062  51.876  1.00  0.00    -0.550 OA
ATOM     11  O   UNL     1      59.524  24.168  51.047  1.00  0.00    -0.550 OA
ENDBRANCH   7   9
ENDBRANCH   6   7
ENDBRANCH   5   6
ENDBRANCH   4   5
ENDBRANCH   3   4
ENDBRANCH   2   3
ENDBRANCH   1   2
BRANCH   1  12
ATOM     12  C   UNL     1      57.208  26.339  52.641  1.00  0.00     0.000 C 
BRANCH  12  13
ATOM     13  C   UNL     1      56.114  25.579  51.863  1.00  0.00    -0.000 C 
BRANCH  13  14
ATOM     14  C   UNL     1      55.971  25.981  50.384  1.00  0.00    -0.000 C 
BRANCH  14  15
ATOM     15  C   UNL     1      54.602  25.607  49.794  1.00  0.00    -0.000 C 
BRANCH  15  16
ATOM     16  C   UNL     1      53.581  26.727  50.026  1.00  0.00    -0.000 C 
BRANCH  16  17
ATOM     17  C   UNL     1      54.282  28.069  50.270  1.00  0.00    -0.000 C 
BRANCH  17  18
ATOM     18  C   UNL     1      53.262  29.207  50.394  1.00  0.00    -0.003 C 
ATOM     19  C   UNL     1      53.748  30.278  51.367  1.00  0.00     0.004 C 
ENDBRANCH  17  18
ENDBRANCH  16  17
ENDBRANCH  15  16
ENDBRANCH  14  15
ENDBRANCH  13  14
ENDBRANCH  12  13
ENDBRANCH   1  12
TORSDOF 14
ENDMDL
MODEL 5
REMARK VINA RESULT:    -3.381      1.781      2.694
REMARK INTER + INTRA:          -8.255
REMARK INTER:                  -5.786
REMARK INTRA:                  -2.469
REMARK UNBOUND:                -2.107
REMARK SMILES CCCCCCCCCCCCCC[C@H](C)C(=O)[O-]
REMARK SMILES IDX 9 1 10 2 11 3 12 4 13 5 14 6 15 7 16 8 17 9 18 10 19 11 8 12
REMARK SMILES IDX 7 13 6 14 5 15 4 16 3 17 2 18 1 19
REMARK H PARENT
REMARK Flexibility Score: inf
ROOT
ATOM      1  C   UNL     1      56.954  27.984  53.048  1.00  0.00     0.000 C 
ENDROOT
BRANCH   1   2
ATOM      2  C   UNL     1      56.358  29.333  52.599  1.00  0.00     0.000 C 
BRANCH   2   3
ATOM      3  C   UNL     1      55.920  29.392  51.124  1.00  0.00     0.000 C 
BRANCH   3   4
ATOM      4  C   UNL     1      54.654  30.237  50.911  1.00  0.00     0.000 C 
BRANCH   4   5
ATOM      5  C   UNL     1      53.471  29.357  50.492  1.00  0.00     0.001 C 
BRANCH   5   6
ATOM      6  C   UNL     1      53.940  27.938  50.132  1.00  0.00     0.009 C 
BRANCH   6   7
ATOM      7  C   UNL     1      53.181  26.843  50.913  1.00  0.00     0.032 C 
ATOM      8  C   UNL     1      53.278  27.037  52.433  1.00  0.00     0.014 C 
BRANCH   7   9
ATOM      9  C   UNL     1      53.711  25.485  50.539  1.00  0.00     0.044 C 
ATOM     10  O   UNL     1      54.291  25.307  49.435  1.00  0.00    -0.550 OA
ATOM     11  O   UNL     1      53.564  24.418  51.414  1.00  0.00    -0.550 OA
ENDBRANCH   7   9
ENDBRANCH   6   7
ENDBRANCH   5   6
ENDBRANCH   4   5
ENDBRANCH   3   4
ENDBRANCH   2   3
ENDBRANCH   1   2
BRANCH   1  12
ATOM     12  C   UNL     1      56.929  26.873  51.982  1.00  0.00     0.000 C 
BRANCH  12  13
ATOM     13  C   UNL     1      57.923  25.717  52.221  1.00  0.00    -0.000 C 
BRANCH  13  14
ATOM     14  C   UNL     1      58.892  25.443  51.057  1.00  0.00    -0.000 C 
BRANCH  14  15
ATOM     15  C   UNL     1      60.351  25.780  51.403  1.00  0.00    -0.000 C 
BRANCH  15  16
ATOM     16  C   UNL     1      60.827  27.015  50.629  1.00  0.00    -0.000 C 
BRANCH  16  17
ATOM     17  C   UNL     1      59.732  27.529  49.686  1.00  0.00    -0.000 C 
BRANCH  17  18
ATOM     18  C   UNL     1      59.387  28.992  49.991  1.00  0.00    -0.003 C 
ATOM     19  C   UNL     1      59.955  29.422  51.340  1.00  0.00     0.004 C 
ENDBRANCH  17  18
ENDBRANCH  16  17
ENDBRANCH  15  16
ENDBRANCH  14  15
ENDBRANCH  13  14
ENDBRANCH  12  13
ENDBRANCH   1  12
TORSDOF 14
ENDMDL
MODEL 6
REMARK VINA RESULT:    -3.379      1.915      3.026
REMARK INTER + INTRA:          -8.252
REMARK INTER:                  -5.653
REMARK INTRA:                  -2.599
REMARK UNBOUND:                -2.107
REMARK SMILES CCCCCCCCCCCCCC[C@H](C)C(=O)[O-]
REMARK SMILES IDX 9 1 10 2 11 3 12 4 13 5 14 6 15 7 16 8 17 9 18 10 19 11 8 12
REMARK SMILES IDX 7 13 6 14 5 15 4 16 3 17 2 18 1 19
REMARK H PARENT
REMARK Flexibility Score: inf
ROOT
ATOM      1  C   UNL     1      55.131  29.934  51.108  1.00  0.00     0.000 C 
ENDROOT
BRANCH   1   2
ATOM      2  C   UNL     1      54.316  28.731  50.593  1.00  0.00     0.000 C 
BRANCH   2   3
ATOM      3  C   UNL     1      54.678  27.378  51.233  1.00  0.00     0.000 C 
BRANCH   3   4
ATOM      4  C   UNL     1      55.224  26.364  50.217  1.00  0.00     0.000 C 
BRANCH   4   5
ATOM      5  C   UNL     1      56.682  26.005  50.527  1.00  0.00     0.001 C 
BRANCH   5   6
ATOM      6  C   UNL     1      56.905  25.870  52.042  1.00  0.00     0.009 C 
BRANCH   6   7
ATOM      7  C   UNL     1      58.399  25.747  52.416  1.00  0.00     0.032 C 
ATOM      8  C   UNL     1      59.001  24.404  51.978  1.00  0.00     0.014 C 
BRANCH   7   9
ATOM      9  C   UNL     1      58.571  25.922  53.901  1.00  0.00     0.044 C 
ATOM     10  O   UNL     1      58.210  25.015  54.698  1.00  0.00    -0.550 OA
ATOM     11  O   UNL     1      59.134  27.088  54.401  1.00  0.00    -0.550 OA
ENDBRANCH   7   9
ENDBRANCH   6   7
ENDBRANCH   5   6
ENDBRANCH   4   5
ENDBRANCH   3   4
ENDBRANCH   2   3
ENDBRANCH   1   2
BRANCH   1  12
ATOM     12  C   UNL     1      56.622  29.926  50.721  1.00  0.00     0.000 C 
BRANCH  12  13
ATOM     13  C   UNL     1      57.590  29.552  51.863  1.00  0.00    -0.000 C 
BRANCH  13  14
ATOM     14  C   UNL     1      59.017  29.190  51.412  1.00  0.00    -0.000 C 
BRANCH  14  15
ATOM     15  C   UNL     1      59.114  28.909  49.905  1.00  0.00    -0.000 C 
BRANCH  15  16
ATOM     16  C   UNL     1      59.850  27.590  49.640  1.00  0.00    -0.000 C 
BRANCH  16  17
ATOM     17  C   UNL     1      61.340  27.713  49.980  1.00  0.00    -0.000 C 
BRANCH  17  18
ATOM     18  C   UNL     1      61.748  26.684  51.041  1.00  0.00    -0.003 C 
ATOM     19  C   UNL     1      62.146  27.368  52.346  1.00  0.00     0.004 C 
ENDBRANCH  17  18
ENDBRANCH  16  17
ENDBRANCH  15  16
ENDBRANCH  14  15
ENDBRANCH  13  14
ENDBRANCH  12  13
ENDBRANCH   1  12
TORSDOF 14
ENDMDL
MODEL 7
REMARK VINA RESULT:    -3.322      2.232      5.274
REMARK INTER + INTRA:          -8.147
REMARK INTER:                  -5.561
REMARK INTRA:                  -2.586
REMARK UNBOUND:                -2.107
REMARK SMILES CCCCCCCCCCCCCC[C@H](C)C(=O)[O-]
REMARK SMILES IDX 9 1 10 2 11 3 12 4 13 5 14 6 15 7 16 8 17 9 18 10 19 11 8 12
REMARK SMILES IDX 7 13 6 14 5 15 4 16 3 17 2 18 1 19
REMARK H PARENT
REMARK Flexibility Score: inf
ROOT
ATOM      1  C   UNL     1      59.133  28.172  54.034  1.00  0.00     0.000 C 
ENDROOT
BRANCH   1   2
ATOM      2  C   UNL     1      58.334  29.460  53.750  1.00  0.00     0.000 C 
BRANCH   2   3
ATOM      3  C   UNL     1      58.546  30.062  52.349  1.00  0.00     0.000 C 
BRANCH   3   4
ATOM      4  C   UNL     1      57.393  29.749  51.384  1.00  0.00     0.000 C 
BRANCH   4   5
ATOM      5  C   UNL     1      57.802  28.675  50.369  1.00  0.00     0.001 C 
BRANCH   5   6
ATOM      6  C   UNL     1      59.243  28.898  49.882  1.00  0.00     0.009 C 
BRANCH   6   7
ATOM      7  C   UNL     1      60.006  27.575  49.654  1.00  0.00     0.032 C 
ATOM      8  C   UNL     1      59.224  26.355  50.160  1.00  0.00     0.014 C 
BRANCH   7   9
ATOM      9  C   UNL     1      61.349  27.634  50.332  1.00  0.00     0.044 C 
ATOM     10  O   UNL     1      61.448  27.437  51.572  1.00  0.00    -0.550 OA
ATOM     11  O   UNL     1      62.489  27.908  49.589  1.00  0.00    -0.550 OA
ENDBRANCH   7   9
ENDBRANCH   6   7
ENDBRANCH   5   6
ENDBRANCH   4   5
ENDBRANCH   3   4
ENDBRANCH   2   3
ENDBRANCH   1   2
BRANCH   1  12
ATOM     12  C   UNL     1      58.380  26.860  53.742  1.00  0.00     0.000 C 
BRANCH  12  13
ATOM     13  C   UNL     1      56.904  26.842  54.190  1.00  0.00    -0.000 C 
BRANCH  13  14
ATOM     14  C   UNL     1      55.878  26.762  53.045  1.00  0.00    -0.000 C 
BRANCH  14  15
ATOM     15  C   UNL     1      56.196  25.649  52.034  1.00  0.00    -0.000 C 
BRANCH  15  16
ATOM     16  C   UNL     1      55.522  25.924  50.685  1.00  0.00    -0.000 C 
BRANCH  16  17
ATOM     17  C   UNL     1      54.004  26.069  50.848  1.00  0.00    -0.000 C 
BRANCH  17  18
ATOM     18  C   UNL     1      53.459  27.184  49.948  1.00  0.00    -0.003 C 
ATOM     19  C   UNL     1      53.992  28.548  50.376  1.00  0.00     0.004 C 
ENDBRANCH  17  18
ENDBRANCH  16  17
ENDBRANCH  15  16
ENDBRANCH  14  15
ENDBRANCH  13  14
ENDBRANCH  12  13
ENDBRANCH   1  12
TORSDOF 14
ENDMDL
MODEL 8
REMARK VINA RESULT:    -3.290      1.899      5.001
REMARK INTER + INTRA:          -8.089
REMARK INTER:                  -5.319
REMARK INTRA:                  -2.771
REMARK UNBOUND:                -2.107
REMARK SMILES CCCCCCCCCCCCCC[C@H](C)C(=O)[O-]
REMARK SMILES IDX 9 1 10 2 11 3 12 4 13 5 14 6 15 7 16 8 17 9 18 10 19 11 8 12
REMARK SMILES IDX 7 13 6 14 5 15 4 16 3 17 2 18 1 19
REMARK H PARENT
REMARK Flexibility Score: inf
ROOT
ATOM      1  C   UNL     1      54.770  28.173  50.675  1.00  0.00     0.000 C 
ENDROOT
BRANCH   1   2
ATOM      2  C   UNL     1      54.252  26.882  50.009  1.00  0.00     0.000 C 
BRANCH   2   3
ATOM      3  C   UNL     1      55.107  25.628  50.268  1.00  0.00     0.000 C 
BRANCH   3   4
ATOM      4  C   UNL     1      55.494  25.465  51.746  1.00  0.00     0.000 C 
BRANCH   4   5
ATOM      5  C   UNL     1      57.010  25.300  51.901  1.00  0.00     0.001 C 
BRANCH   5   6
ATOM      6  C   UNL     1      57.757  25.930  50.714  1.00  0.00     0.009 C 
BRANCH   6   7
ATOM      7  C   UNL     1      58.642  27.125  51.132  1.00  0.00     0.032 C 
ATOM      8  C   UNL     1      58.432  28.349  50.230  1.00  0.00     0.014 C 
BRANCH   7   9
ATOM      9  C   UNL     1      60.091  26.721  51.112  1.00  0.00     0.044 C 
ATOM     10  O   UNL     1      60.418  25.507  51.195  1.00  0.00    -0.550 OA
ATOM     11  O   UNL     1      61.080  27.690  51.002  1.00  0.00    -0.550 OA
ENDBRANCH   7   9
ENDBRANCH   6   7
ENDBRANCH   5   6
ENDBRANCH   4   5
ENDBRANCH   3   4
ENDBRANCH   2   3
ENDBRANCH   1   2
BRANCH   1  12
ATOM     12  C   UNL     1      53.752  29.327  50.740  1.00  0.00     0.000 C 
BRANCH  12  13
ATOM     13  C   UNL     1      54.339  30.691  51.158  1.00  0.00    -0.000 C 
BRANCH  13  14
ATOM     14  C   UNL     1      55.866  30.814  51.013  1.00  0.00    -0.000 C 
BRANCH  14  15
ATOM     15  C   UNL     1      56.553  31.284  52.304  1.00  0.00    -0.000 C 
BRANCH  15  16
ATOM     16  C   UNL     1      56.062  30.476  53.511  1.00  0.00    -0.000 C 
BRANCH  16  17
ATOM     17  C   UNL     1      56.843  29.163  53.649  1.00  0.00    -0.000 C 
BRANCH  17  18
ATOM     18  C   UNL     1      55.956  28.055  54.230  1.00  0.00    -0.003 C 
ATOM     19  C   UNL     1      54.512  28.526  54.376  1.00  0.00     0.004 C 
ENDBRANCH  17  18
ENDBRANCH  16  17
ENDBRANCH  15  16
ENDBRANCH  14  15
ENDBRANCH  13  14
ENDBRANCH  12  13
ENDBRANCH   1  12
TORSDOF 14
ENDMDL
MODEL 9
REMARK VINA RESULT:    -3.279      2.451      6.035
REMARK INTER + INTRA:          -8.069
REMARK INTER:                  -5.761
REMARK INTRA:                  -2.308
REMARK UNBOUND:                -2.107
REMARK SMILES CCCCCCCCCCCCCC[C@H](C)C(=O)[O-]
REMARK SMILES IDX 9 1 10 2 11 3 12 4 13 5 14 6 15 7 16 8 17 9 18 10 19 11 8 12
REMARK SMILES IDX 7 13 6 14 5 15 4 16 3 17 2 18 1 19
REMARK H PARENT
REMARK Flexibility Score: inf
ROOT
ATOM      1  C   UNL     1      58.354  25.706  53.483  1.00  0.00     0.000 C 
ENDROOT
BRANCH   1   2
ATOM      2  C   UNL     1      59.529  25.720  52.485  1.00  0.00     0.000 C 
BRANCH   2   3
ATOM      3  C   UNL     1      59.241  25.043  51.132  1.00  0.00     0.000 C 
BRANCH   3   4
ATOM      4  C   UNL     1      59.084  26.050  49.982  1.00  0.00     0.000 C 
BRANCH   4   5
ATOM      5  C   UNL     1      60.117  27.178  50.096  1.00  0.00     0.001 C 
BRANCH   5   6
ATOM      6  C   UNL     1      59.452  28.554  49.928  1.00  0.00     0.009 C 
BRANCH   6   7
ATOM      7  C   UNL     1      58.569  28.939  51.135  1.00  0.00     0.032 C 
ATOM      8  C   UNL     1      57.313  29.717  50.715  1.00  0.00     0.014 C 
BRANCH   7   9
ATOM      9  C   UNL     1      59.368  29.756  52.115  1.00  0.00     0.044 C 
ATOM     10  O   UNL     1      60.524  30.161  51.817  1.00  0.00    -0.550 OA
ATOM     11  O   UNL     1      58.833  30.068  53.357  1.00  0.00    -0.550 OA
ENDBRANCH   7   9
ENDBRANCH   6   7
ENDBRANCH   5   6
ENDBRANCH   4   5
ENDBRANCH   3   4
ENDBRANCH   2   3
ENDBRANCH   1   2
BRANCH   1  12
ATOM     12  C   UNL     1      57.243  26.735  53.197  1.00  0.00     0.000 C 
BRANCH  12  13
ATOM     13  C   UNL     1      55.826  26.142  53.054  1.00  0.00    -0.000 C 
BRANCH  13  14
ATOM     14  C   UNL     1      55.617  25.251  51.816  1.00  0.00    -0.000 C 
BRANCH  14  15
ATOM     15  C   UNL     1      55.650  26.041  50.499  1.00  0.00    -0.000 C 
BRANCH  15  16
ATOM     16  C   UNL     1      54.383  25.785  49.674  1.00  0.00    -0.000 C 
BRANCH  16  17
ATOM     17  C   UNL     1      53.324  26.861  49.944  1.00  0.00    -0.000 C 
BRANCH  17  18
ATOM     18  C   UNL     1      53.979  28.221  50.213  1.00  0.00    -0.003 C 
ATOM     19  C   UNL     1      53.470  28.827  51.518  1.00  0.00     0.004 C 
ENDBRANCH  17  18
ENDBRANCH  16  17
ENDBRANCH  15  16
ENDBRANCH  14  15
ENDBRANCH  13  14
ENDBRANCH  12  13
ENDBRANCH   1  12
TORSDOF 14
ENDMDL
