MODEL 1
REMARK VINA RESULT:    -5.131      0.000      0.000
REMARK INTER + INTRA:          -6.813
REMARK INTER:                  -6.630
REMARK INTRA:                  -0.183
REMARK UNBOUND:                -0.183
REMARK SMILES CCCCCCC(=O)[O-]
REMARK SMILES IDX 5 1 6 2 7 3 8 4 9 5 4 6 3 7 2 8 1 9
REMARK H PARENT
REMARK Flexibility Score: inf
ROOT
ATOM      1  C   UNL     1      11.660  -0.718  64.610  1.00  0.00     0.006 C 
ENDROOT
BRANCH   1   2
ATOM      2  C   UNL     1      12.531   0.344  65.290  1.00  0.00     0.053 C 
BRANCH   2   3
ATOM      3  C   UNL     1      11.686   1.473  65.788  1.00  0.00     0.041 C 
ATOM      4  O   UNL     1      10.814   1.989  65.041  1.00  0.00    -0.550 OA
ATOM      5  O   UNL     1      11.828   1.924  67.094  1.00  0.00    -0.550 OA
ENDBRANCH   2   3
ENDBRANCH   1   2
BRANCH   1   6
ATOM      6  C   UNL     1      11.598  -1.999  65.451  1.00  0.00     0.000 C 
BRANCH   6   7
ATOM      7  C   UNL     1      10.808  -3.095  64.726  1.00  0.00    -0.000 C 
BRANCH   7   8
ATOM      8  C   UNL     1       9.959  -2.503  63.594  1.00  0.00    -0.003 C 
ATOM      9  C   UNL     1      10.189  -3.251  62.284  1.00  0.00     0.004 C 
ENDBRANCH   7   8
ENDBRANCH   6   7
ENDBRANCH   1   6
TORSDOF 5
ENDMDL
MODEL 2
REMARK VINA RESULT:    -4.723      2.744      4.967
REMARK INTER + INTRA:          -6.287
REMARK INTER:                  -6.092
REMARK INTRA:                  -0.195
REMARK UNBOUND:                -0.183
REMARK SMILES CCCCCCC(=O)[O-]
REMARK SMILES IDX 5 1 6 2 7 3 8 4 9 5 4 6 3 7 2 8 1 9
REMARK H PARENT
REMARK Flexibility Score: inf
ROOT
ATOM      1  C   UNL     1      11.705  -0.446  64.612  1.00  0.00     0.006 C 
ENDROOT
BRANCH   1   2
ATOM      2  C   UNL     1      11.686  -1.702  65.490  1.00  0.00     0.053 C 
BRANCH   2   3
ATOM      3  C   UNL     1      10.817  -2.755  64.878  1.00  0.00     0.041 C 
ATOM      4  O   UNL     1      10.591  -3.828  65.496  1.00  0.00    -0.550 OA
ATOM      5  O   UNL     1      10.217  -2.531  63.645  1.00  0.00    -0.550 OA
ENDBRANCH   2   3
ENDBRANCH   1   2
BRANCH   1   6
ATOM      6  C   UNL     1      12.741   0.564  65.121  1.00  0.00     0.000 C 
BRANCH   6   7
ATOM      7  C   UNL     1      12.078   1.898  65.482  1.00  0.00    -0.000 C 
BRANCH   7   8
ATOM      8  C   UNL     1      11.943   2.051  67.001  1.00  0.00    -0.003 C 
ATOM      9  C   UNL     1      10.502   2.364  67.398  1.00  0.00     0.004 C 
ENDBRANCH   7   8
ENDBRANCH   6   7
ENDBRANCH   1   6
TORSDOF 5
ENDMDL
MODEL 3
REMARK VINA RESULT:    -4.467      2.933      4.891
REMARK INTER + INTRA:          -5.955
REMARK INTER:                  -5.757
REMARK INTRA:                  -0.198
REMARK UNBOUND:                -0.183
REMARK SMILES CCCCCCC(=O)[O-]
REMARK SMILES IDX 5 1 6 2 7 3 8 4 9 5 4 6 3 7 2 8 1 9
REMARK H PARENT
REMARK Flexibility Score: inf
ROOT
ATOM      1  C   UNL     1      11.621  -1.618  66.037  1.00  0.00     0.006 C 
ENDROOT
BRANCH   1   2
ATOM      2  C   UNL     1      11.203  -1.617  64.562  1.00  0.00     0.053 C 
BRANCH   2   3
ATOM      3  C   UNL     1      10.427  -2.854  64.237  1.00  0.00     0.041 C 
ATOM      4  O   UNL     1       9.871  -2.975  63.114  1.00  0.00    -0.550 OA
ATOM      5  O   UNL     1      10.358  -3.893  65.156  1.00  0.00    -0.550 OA
ENDBRANCH   2   3
ENDBRANCH   1   2
BRANCH   1   6
ATOM      6  C   UNL     1      12.341  -0.315  66.405  1.00  0.00     0.000 C 
BRANCH   6   7
ATOM      7  C   UNL     1      12.404   0.637  65.204  1.00  0.00    -0.000 C 
BRANCH   7   8
ATOM      8  C   UNL     1      12.954   2.006  65.617  1.00  0.00    -0.003 C 
ATOM      9  C   UNL     1      12.745   2.258  67.108  1.00  0.00     0.004 C 
ENDBRANCH   7   8
ENDBRANCH   6   7
ENDBRANCH   1   6
TORSDOF 5
ENDMDL
MODEL 4
REMARK VINA RESULT:    -4.396      0.985      1.826
REMARK INTER + INTRA:          -5.864
REMARK INTER:                  -5.651
REMARK INTRA:                  -0.213
REMARK UNBOUND:                -0.183
REMARK SMILES CCCCCCC(=O)[O-]
REMARK SMILES IDX 5 1 6 2 7 3 8 4 9 5 4 6 3 7 2 8 1 9
REMARK H PARENT
REMARK Flexibility Score: inf
ROOT
ATOM      1  C   UNL     1      12.009  -0.154  66.366  1.00  0.00     0.006 C 
ENDROOT
BRANCH   1   2
ATOM      2  C   UNL     1      12.133   1.047  65.423  1.00  0.00     0.053 C 
BRANCH   2   3
ATOM      3  C   UNL     1      11.119   2.091  65.767  1.00  0.00     0.041 C 
ATOM      4  O   UNL     1      10.958   2.447  66.964  1.00  0.00    -0.550 OA
ATOM      5  O   UNL     1      10.384   2.706  64.761  1.00  0.00    -0.550 OA
ENDBRANCH   2   3
ENDBRANCH   1   2
BRANCH   1   6
ATOM      6  C   UNL     1      12.021  -1.472  65.582  1.00  0.00     0.000 C 
BRANCH   6   7
ATOM      7  C   UNL     1      11.183  -1.360  64.304  1.00  0.00    -0.000 C 
BRANCH   7   8
ATOM      8  C   UNL     1      10.393  -2.649  64.049  1.00  0.00    -0.003 C 
ATOM      9  C   UNL     1      10.552  -3.630  65.208  1.00  0.00     0.004 C 
ENDBRANCH   7   8
ENDBRANCH   6   7
ENDBRANCH   1   6
TORSDOF 5
ENDMDL
MODEL 5
REMARK VINA RESULT:    -3.608      9.706     11.187
REMARK INTER + INTRA:          -4.845
REMARK INTER:                  -4.683
REMARK INTRA:                  -0.162
REMARK UNBOUND:                -0.183
REMARK SMILES CCCCCCC(=O)[O-]
REMARK SMILES IDX 5 1 6 2 7 3 8 4 9 5 4 6 3 7 2 8 1 9
REMARK H PARENT
REMARK Flexibility Score: inf
ROOT
ATOM      1  C   UNL     1       4.342   1.633  57.131  1.00  0.00     0.006 C 
ENDROOT
BRANCH   1   2
ATOM      2  C   UNL     1       2.842   1.888  57.313  1.00  0.00     0.053 C 
BRANCH   2   3
ATOM      3  C   UNL     1       2.138   0.624  57.691  1.00  0.00     0.041 C 
ATOM      4  O   UNL     1       0.880   0.579  57.705  1.00  0.00    -0.550 OA
ATOM      5  O   UNL     1       2.871  -0.520  57.981  1.00  0.00    -0.550 OA
ENDBRANCH   2   3
ENDBRANCH   1   2
BRANCH   1   6
ATOM      6  C   UNL     1       5.055   2.891  56.617  1.00  0.00     0.000 C 
BRANCH   6   7
ATOM      7  C   UNL     1       6.551   2.848  56.948  1.00  0.00    -0.000 C 
BRANCH   7   8
ATOM      8  C   UNL     1       6.801   2.114  58.270  1.00  0.00    -0.003 C 
ATOM      9  C   UNL     1       7.911   2.786  59.073  1.00  0.00     0.004 C 
ENDBRANCH   7   8
ENDBRANCH   6   7
ENDBRANCH   1   6
TORSDOF 5
ENDMDL
MODEL 6
REMARK VINA RESULT:    -3.329     18.084     19.456
REMARK INTER + INTRA:          -4.486
REMARK INTER:                  -4.158
REMARK INTRA:                  -0.327
REMARK UNBOUND:                -0.183
REMARK SMILES CCCCCCC(=O)[O-]
REMARK SMILES IDX 5 1 6 2 7 3 8 4 9 5 4 6 3 7 2 8 1 9
REMARK H PARENT
REMARK Flexibility Score: inf
ROOT
ATOM      1  C   UNL     1      -4.698 -12.345  66.089  1.00  0.00     0.006 C 
ENDROOT
BRANCH   1   2
ATOM      2  C   UNL     1      -3.727 -11.167  65.958  1.00  0.00     0.053 C 
BRANCH   2   3
ATOM      3  C   UNL     1      -3.921 -10.471  64.648  1.00  0.00     0.041 C 
ATOM      4  O   UNL     1      -2.934  -9.984  64.038  1.00  0.00    -0.550 OA
ATOM      5  O   UNL     1      -5.186 -10.404  64.078  1.00  0.00    -0.550 OA
ENDBRANCH   2   3
ENDBRANCH   1   2
BRANCH   1   6
ATOM      6  C   UNL     1      -3.939 -13.675  66.186  1.00  0.00     0.000 C 
BRANCH   6   7
ATOM      7  C   UNL     1      -4.072 -14.479  64.887  1.00  0.00    -0.000 C 
BRANCH   7   8
ATOM      8  C   UNL     1      -5.213 -13.937  64.019  1.00  0.00    -0.003 C 
ATOM      9  C   UNL     1      -4.864 -14.019  62.536  1.00  0.00     0.004 C 
ENDBRANCH   7   8
ENDBRANCH   6   7
ENDBRANCH   1   6
TORSDOF 5
ENDMDL
MODEL 7
REMARK VINA RESULT:    -3.309      9.272     10.671
REMARK INTER + INTRA:          -4.460
REMARK INTER:                  -4.306
REMARK INTRA:                  -0.154
REMARK UNBOUND:                -0.183
REMARK SMILES CCCCCCC(=O)[O-]
REMARK SMILES IDX 5 1 6 2 7 3 8 4 9 5 4 6 3 7 2 8 1 9
REMARK H PARENT
REMARK Flexibility Score: inf
ROOT
ATOM      1  C   UNL     1       5.364   1.592  57.742  1.00  0.00     0.006 C 
ENDROOT
BRANCH   1   2
ATOM      2  C   UNL     1       4.133   1.790  56.851  1.00  0.00     0.053 C 
BRANCH   2   3
ATOM      3  C   UNL     1       2.933   1.140  57.464  1.00  0.00     0.041 C 
ATOM      4  O   UNL     1       3.020  -0.018  57.951  1.00  0.00    -0.550 OA
ATOM      5  O   UNL     1       1.731   1.831  57.542  1.00  0.00    -0.550 OA
ENDBRANCH   2   3
ENDBRANCH   1   2
BRANCH   1   6
ATOM      6  C   UNL     1       6.398   2.699  57.504  1.00  0.00     0.000 C 
BRANCH   6   7
ATOM      7  C   UNL     1       7.648   2.478  58.364  1.00  0.00    -0.000 C 
BRANCH   7   8
ATOM      8  C   UNL     1       8.896   2.320  57.488  1.00  0.00    -0.003 C 
ATOM      9  C   UNL     1       8.707   2.994  56.132  1.00  0.00     0.004 C 
ENDBRANCH   7   8
ENDBRANCH   6   7
ENDBRANCH   1   6
TORSDOF 5
ENDMDL
MODEL 8
REMARK VINA RESULT:    -3.126     18.161     19.691
REMARK INTER + INTRA:          -4.223
REMARK INTER:                  -3.921
REMARK INTRA:                  -0.302
REMARK UNBOUND:                -0.183
REMARK SMILES CCCCCCC(=O)[O-]
REMARK SMILES IDX 5 1 6 2 7 3 8 4 9 5 4 6 3 7 2 8 1 9
REMARK H PARENT
REMARK Flexibility Score: inf
ROOT
ATOM      1  C   UNL     1      -4.598 -12.291  65.511  1.00  0.00     0.006 C 
ENDROOT
BRANCH   1   2
ATOM      2  C   UNL     1      -4.933 -12.493  64.029  1.00  0.00     0.053 C 
BRANCH   2   3
ATOM      3  C   UNL     1      -4.565 -13.875  63.593  1.00  0.00     0.041 C 
ATOM      4  O   UNL     1      -4.069 -14.688  64.416  1.00  0.00    -0.550 OA
ATOM      5  O   UNL     1      -4.815 -14.282  62.289  1.00  0.00    -0.550 OA
ENDBRANCH   2   3
ENDBRANCH   1   2
BRANCH   1   6
ATOM      6  C   UNL     1      -3.472 -11.263  65.684  1.00  0.00     0.000 C 
BRANCH   6   7
ATOM      7  C   UNL     1      -3.356 -10.362  64.449  1.00  0.00    -0.000 C 
BRANCH   7   8
ATOM      8  C   UNL     1      -3.461  -8.882  64.836  1.00  0.00    -0.003 C 
ATOM      9  C   UNL     1      -4.911  -8.481  65.090  1.00  0.00     0.004 C 
ENDBRANCH   7   8
ENDBRANCH   6   7
ENDBRANCH   1   6
TORSDOF 5
ENDMDL
MODEL 9
REMARK VINA RESULT:    -3.115     17.354     18.715
REMARK INTER + INTRA:          -4.209
REMARK INTER:                  -3.980
REMARK INTRA:                  -0.228
REMARK UNBOUND:                -0.183
REMARK SMILES CCCCCCC(=O)[O-]
REMARK SMILES IDX 5 1 6 2 7 3 8 4 9 5 4 6 3 7 2 8 1 9
REMARK H PARENT
REMARK Flexibility Score: inf
ROOT
ATOM      1  C   UNL     1      -4.680 -10.962  64.446  1.00  0.00     0.006 C 
ENDROOT
BRANCH   1   2
ATOM      2  C   UNL     1      -3.334 -10.242  64.314  1.00  0.00     0.053 C 
BRANCH   2   3
ATOM      3  C   UNL     1      -3.414  -8.868  64.901  1.00  0.00     0.041 C 
ATOM      4  O   UNL     1      -3.104  -7.864  64.208  1.00  0.00    -0.550 OA
ATOM      5  O   UNL     1      -3.879  -8.693  66.198  1.00  0.00    -0.550 OA
ENDBRANCH   2   3
ENDBRANCH   1   2
BRANCH   1   6
ATOM      6  C   UNL     1      -4.557 -12.196  65.349  1.00  0.00     0.000 C 
BRANCH   6   7
ATOM      7  C   UNL     1      -5.378 -13.366  64.794  1.00  0.00    -0.000 C 
BRANCH   7   8
ATOM      8  C   UNL     1      -4.515 -14.271  63.908  1.00  0.00    -0.003 C 
ATOM      9  C   UNL     1      -4.927 -14.161  62.442  1.00  0.00     0.004 C 
ENDBRANCH   7   8
ENDBRANCH   6   7
ENDBRANCH   1   6
TORSDOF 5
ENDMDL
