MODEL 1
REMARK VINA RESULT:    -4.438      0.000      0.000
REMARK INTER + INTRA:         -10.556
REMARK INTER:                  -8.330
REMARK INTRA:                  -2.226
REMARK UNBOUND:                -2.226
REMARK SMILES O=C([O-])CCCCCCCCCCCCCCC(=O)[O-]
REMARK SMILES IDX 10 1 9 2 8 3 7 4 6 5 5 6 4 7 2 8 1 9 3 10 11 11 12 12 13 13
REMARK SMILES IDX 14 14 15 15 16 16 17 17 18 18 19 19 20 20
REMARK H PARENT
REMARK Flexibility Score: inf
ROOT
ATOM      1  C   UNL     1      20.719  32.156  44.223  1.00  0.00     0.000 C 
ENDROOT
BRANCH   1   2
ATOM      2  C   UNL     1      19.197  32.006  44.071  1.00  0.00     0.000 C 
BRANCH   2   3
ATOM      3  C   UNL     1      18.796  30.523  44.036  1.00  0.00     0.000 C 
BRANCH   3   4
ATOM      4  C   UNL     1      18.688  29.902  45.439  1.00  0.00     0.000 C 
BRANCH   4   5
ATOM      5  C   UNL     1      18.105  30.880  46.474  1.00  0.00     0.000 C 
BRANCH   5   6
ATOM      6  C   UNL     1      19.037  31.105  47.679  1.00  0.00     0.006 C 
BRANCH   6   7
ATOM      7  C   UNL     1      20.332  30.275  47.633  1.00  0.00     0.053 C 
BRANCH   7   8
ATOM      8  C   UNL     1      20.393  29.236  48.711  1.00  0.00     0.041 C 
ATOM      9  O   UNL     1      19.332  28.781  49.215  1.00  0.00    -0.550 OA
ATOM     10  O   UNL     1      21.623  28.787  49.177  1.00  0.00    -0.550 OA
ENDBRANCH   7   8
ENDBRANCH   6   7
ENDBRANCH   5   6
ENDBRANCH   4   5
ENDBRANCH   3   4
ENDBRANCH   2   3
ENDBRANCH   1   2
BRANCH   1  11
ATOM     11  C   UNL     1      21.126  33.517  44.813  1.00  0.00     0.000 C 
BRANCH  11  12
ATOM     12  C   UNL     1      19.935  34.480  44.949  1.00  0.00     0.000 C 
BRANCH  12  13
ATOM     13  C   UNL     1      19.719  34.966  46.395  1.00  0.00     0.000 C 
BRANCH  13  14
ATOM     14  C   UNL     1      20.633  34.310  47.448  1.00  0.00     0.000 C 
BRANCH  14  15
ATOM     15  C   UNL     1      20.278  34.629  48.913  1.00  0.00     0.000 C 
BRANCH  15  16
ATOM     16  C   UNL     1      21.247  34.005  49.938  1.00  0.00     0.006 C 
BRANCH  16  17
ATOM     17  C   UNL     1      20.575  33.726  51.289  1.00  0.00     0.053 C 
BRANCH  17  18
ATOM     18  C   UNL     1      19.880  32.402  51.264  1.00  0.00     0.041 C 
ATOM     19  O   UNL     1      20.541  31.336  51.380  1.00  0.00    -0.550 OA
ATOM     20  O   UNL     1      18.506  32.341  51.065  1.00  0.00    -0.550 OA
ENDBRANCH  17  18
ENDBRANCH  16  17
ENDBRANCH  15  16
ENDBRANCH  14  15
ENDBRANCH  13  14
ENDBRANCH  12  13
ENDBRANCH  11  12
ENDBRANCH   1  11
TORSDOF 15
ENDMDL
MODEL 2
REMARK VINA RESULT:    -4.188      1.525      4.061
REMARK INTER + INTRA:         -10.086
REMARK INTER:                  -7.988
REMARK INTRA:                  -2.098
REMARK UNBOUND:                -2.226
REMARK SMILES O=C([O-])CCCCCCCCCCCCCCC(=O)[O-]
REMARK SMILES IDX 10 1 9 2 8 3 7 4 6 5 5 6 4 7 2 8 1 9 3 10 11 11 12 12 13 13
REMARK SMILES IDX 14 14 15 15 16 16 17 17 18 18 19 19 20 20
REMARK H PARENT
REMARK Flexibility Score: inf
ROOT
ATOM      1  C   UNL     1      20.973  33.092  44.864  1.00  0.00     0.000 C 
ENDROOT
BRANCH   1   2
ATOM      2  C   UNL     1      20.206  34.384  44.541  1.00  0.00     0.000 C 
BRANCH   2   3
ATOM      3  C   UNL     1      19.769  35.097  45.830  1.00  0.00     0.000 C 
BRANCH   3   4
ATOM      4  C   UNL     1      18.854  34.227  46.710  1.00  0.00     0.000 C 
BRANCH   4   5
ATOM      5  C   UNL     1      19.401  34.051  48.136  1.00  0.00     0.000 C 
BRANCH   5   6
ATOM      6  C   UNL     1      20.909  34.350  48.242  1.00  0.00     0.006 C 
BRANCH   6   7
ATOM      7  C   UNL     1      21.627  33.566  49.354  1.00  0.00     0.053 C 
BRANCH   7   8
ATOM      8  C   UNL     1      22.528  32.496  48.818  1.00  0.00     0.041 C 
ATOM      9  O   UNL     1      22.700  31.428  49.465  1.00  0.00    -0.550 OA
ATOM     10  O   UNL     1      23.198  32.687  47.616  1.00  0.00    -0.550 OA
ENDBRANCH   7   8
ENDBRANCH   6   7
ENDBRANCH   5   6
ENDBRANCH   4   5
ENDBRANCH   3   4
ENDBRANCH   2   3
ENDBRANCH   1   2
BRANCH   1  11
ATOM     11  C   UNL     1      20.553  31.913  43.971  1.00  0.00     0.000 C 
BRANCH  11  12
ATOM     12  C   UNL     1      19.028  31.709  43.942  1.00  0.00     0.000 C 
BRANCH  12  13
ATOM     13  C   UNL     1      18.620  30.230  44.071  1.00  0.00     0.000 C 
BRANCH  13  14
ATOM     14  C   UNL     1      18.283  29.767  45.502  1.00  0.00     0.000 C 
BRANCH  14  15
ATOM     15  C   UNL     1      17.875  30.892  46.474  1.00  0.00     0.000 C 
BRANCH  15  16
ATOM     16  C   UNL     1      18.062  30.526  47.961  1.00  0.00     0.006 C 
BRANCH  16  17
ATOM     17  C   UNL     1      19.501  30.105  48.287  1.00  0.00     0.053 C 
BRANCH  17  18
ATOM     18  C   UNL     1      19.600  29.632  49.703  1.00  0.00     0.041 C 
ATOM     19  O   UNL     1      19.774  30.458  50.637  1.00  0.00    -0.550 OA
ATOM     20  O   UNL     1      19.548  28.273  49.987  1.00  0.00    -0.550 OA
ENDBRANCH  17  18
ENDBRANCH  16  17
ENDBRANCH  15  16
ENDBRANCH  14  15
ENDBRANCH  13  14
ENDBRANCH  12  13
ENDBRANCH  11  12
ENDBRANCH   1  11
TORSDOF 15
ENDMDL
MODEL 3
REMARK VINA RESULT:    -4.157      1.277      3.830
REMARK INTER + INTRA:         -10.029
REMARK INTER:                  -7.370
REMARK INTRA:                  -2.660
REMARK UNBOUND:                -2.226
REMARK SMILES O=C([O-])CCCCCCCCCCCCCCC(=O)[O-]
REMARK SMILES IDX 10 1 9 2 8 3 7 4 6 5 5 6 4 7 2 8 1 9 3 10 11 11 12 12 13 13
REMARK SMILES IDX 14 14 15 15 16 16 17 17 18 18 19 19 20 20
REMARK H PARENT
REMARK Flexibility Score: inf
ROOT
ATOM      1  C   UNL     1      20.930  32.315  43.990  1.00  0.00     0.000 C 
ENDROOT
BRANCH   1   2
ATOM      2  C   UNL     1      21.261  33.560  44.827  1.00  0.00     0.000 C 
BRANCH   2   3
ATOM      3  C   UNL     1      19.999  34.401  45.077  1.00  0.00     0.000 C 
BRANCH   3   4
ATOM      4  C   UNL     1      19.733  34.644  46.573  1.00  0.00     0.000 C 
BRANCH   4   5
ATOM      5  C   UNL     1      20.815  34.025  47.473  1.00  0.00     0.000 C 
BRANCH   5   6
ATOM      6  C   UNL     1      20.394  33.950  48.953  1.00  0.00     0.006 C 
BRANCH   6   7
ATOM      7  C   UNL     1      19.055  33.230  49.187  1.00  0.00     0.053 C 
BRANCH   7   8
ATOM      8  C   UNL     1      18.995  32.534  50.513  1.00  0.00     0.041 C 
ATOM      9  O   UNL     1      19.379  33.125  51.557  1.00  0.00    -0.550 OA
ATOM     10  O   UNL     1      18.538  31.224  50.592  1.00  0.00    -0.550 OA
ENDBRANCH   7   8
ENDBRANCH   6   7
ENDBRANCH   5   6
ENDBRANCH   4   5
ENDBRANCH   3   4
ENDBRANCH   2   3
ENDBRANCH   1   2
BRANCH   1  11
ATOM     11  C   UNL     1      19.418  32.060  43.875  1.00  0.00     0.000 C 
BRANCH  11  12
ATOM     12  C   UNL     1      18.994  30.728  44.518  1.00  0.00     0.000 C 
BRANCH  12  13
ATOM     13  C   UNL     1      18.302  30.915  45.881  1.00  0.00     0.000 C 
BRANCH  13  14
ATOM     14  C   UNL     1      18.961  30.168  47.056  1.00  0.00     0.000 C 
BRANCH  14  15
ATOM     15  C   UNL     1      20.447  30.501  47.293  1.00  0.00     0.000 C 
BRANCH  15  16
ATOM     16  C   UNL     1      21.040  29.835  48.552  1.00  0.00     0.006 C 
BRANCH  16  17
ATOM     17  C   UNL     1      22.218  30.625  49.136  1.00  0.00     0.053 C 
BRANCH  17  18
ATOM     18  C   UNL     1      22.069  30.770  50.618  1.00  0.00     0.041 C 
ATOM     19  O   UNL     1      21.488  29.875  51.286  1.00  0.00    -0.550 OA
ATOM     20  O   UNL     1      22.529  31.916  51.254  1.00  0.00    -0.550 OA
ENDBRANCH  17  18
ENDBRANCH  16  17
ENDBRANCH  15  16
ENDBRANCH  14  15
ENDBRANCH  13  14
ENDBRANCH  12  13
ENDBRANCH  11  12
ENDBRANCH   1  11
TORSDOF 15
ENDMDL
MODEL 4
REMARK VINA RESULT:    -4.136      1.483      2.063
REMARK INTER + INTRA:          -9.989
REMARK INTER:                  -7.345
REMARK INTRA:                  -2.644
REMARK UNBOUND:                -2.226
REMARK SMILES O=C([O-])CCCCCCCCCCCCCCC(=O)[O-]
REMARK SMILES IDX 10 1 9 2 8 3 7 4 6 5 5 6 4 7 2 8 1 9 3 10 11 11 12 12 13 13
REMARK SMILES IDX 14 14 15 15 16 16 17 17 18 18 19 19 20 20
REMARK H PARENT
REMARK Flexibility Score: inf
ROOT
ATOM      1  C   UNL     1      19.080  33.614  44.416  1.00  0.00     0.000 C 
ENDROOT
BRANCH   1   2
ATOM      2  C   UNL     1      18.201  33.639  45.676  1.00  0.00     0.000 C 
BRANCH   2   3
ATOM      3  C   UNL     1      17.973  32.216  46.211  1.00  0.00     0.000 C 
BRANCH   3   4
ATOM      4  C   UNL     1      18.520  31.131  45.268  1.00  0.00     0.000 C 
BRANCH   4   5
ATOM      5  C   UNL     1      18.963  29.865  46.020  1.00  0.00     0.000 C 
BRANCH   5   6
ATOM      6  C   UNL     1      18.990  30.052  47.549  1.00  0.00     0.006 C 
BRANCH   6   7
ATOM      7  C   UNL     1      20.014  29.160  48.272  1.00  0.00     0.053 C 
BRANCH   7   8
ATOM      8  C   UNL     1      19.699  28.977  49.724  1.00  0.00     0.041 C 
ATOM      9  O   UNL     1      19.313  29.955  50.418  1.00  0.00    -0.550 OA
ATOM     10  O   UNL     1      19.856  27.731  50.319  1.00  0.00    -0.550 OA
ENDBRANCH   7   8
ENDBRANCH   6   7
ENDBRANCH   5   6
ENDBRANCH   4   5
ENDBRANCH   3   4
ENDBRANCH   2   3
ENDBRANCH   1   2
BRANCH   1  11
ATOM     11  C   UNL     1      20.452  34.272  44.635  1.00  0.00     0.000 C 
BRANCH  11  12
ATOM     12  C   UNL     1      21.619  33.346  44.250  1.00  0.00     0.000 C 
BRANCH  12  13
ATOM     13  C   UNL     1      21.931  32.295  45.331  1.00  0.00     0.000 C 
BRANCH  13  14
ATOM     14  C   UNL     1      22.444  32.865  46.667  1.00  0.00     0.000 C 
BRANCH  14  15
ATOM     15  C   UNL     1      21.556  32.566  47.891  1.00  0.00     0.000 C 
BRANCH  15  16
ATOM     16  C   UNL     1      20.750  33.785  48.387  1.00  0.00     0.006 C 
BRANCH  16  17
ATOM     17  C   UNL     1      19.598  33.389  49.319  1.00  0.00     0.053 C 
BRANCH  17  18
ATOM     18  C   UNL     1      20.032  33.463  50.749  1.00  0.00     0.041 C 
ATOM     19  O   UNL     1      21.166  33.922  51.043  1.00  0.00    -0.550 OA
ATOM     20  O   UNL     1      19.202  32.980  51.753  1.00  0.00    -0.550 OA
ENDBRANCH  17  18
ENDBRANCH  16  17
ENDBRANCH  15  16
ENDBRANCH  14  15
ENDBRANCH  13  14
ENDBRANCH  12  13
ENDBRANCH  11  12
ENDBRANCH   1  11
TORSDOF 15
ENDMDL
MODEL 5
REMARK VINA RESULT:    -4.021      1.186      1.832
REMARK INTER + INTRA:          -9.774
REMARK INTER:                  -7.619
REMARK INTRA:                  -2.155
REMARK UNBOUND:                -2.226
REMARK SMILES O=C([O-])CCCCCCCCCCCCCCC(=O)[O-]
REMARK SMILES IDX 10 1 9 2 8 3 7 4 6 5 5 6 4 7 2 8 1 9 3 10 11 11 12 12 13 13
REMARK SMILES IDX 14 14 15 15 16 16 17 17 18 18 19 19 20 20
REMARK H PARENT
REMARK Flexibility Score: inf
ROOT
ATOM      1  C   UNL     1      20.241  34.587  45.190  1.00  0.00     0.000 C 
ENDROOT
BRANCH   1   2
ATOM      2  C   UNL     1      19.592  33.688  44.126  1.00  0.00     0.000 C 
BRANCH   2   3
ATOM      3  C   UNL     1      18.267  33.104  44.639  1.00  0.00     0.000 C 
BRANCH   3   4
ATOM      4  C   UNL     1      18.411  31.662  45.153  1.00  0.00     0.000 C 
BRANCH   4   5
ATOM      5  C   UNL     1      17.921  31.499  46.602  1.00  0.00     0.000 C 
BRANCH   5   6
ATOM      6  C   UNL     1      18.844  30.605  47.451  1.00  0.00     0.006 C 
BRANCH   6   7
ATOM      7  C   UNL     1      20.341  30.930  47.302  1.00  0.00     0.053 C 
BRANCH   7   8
ATOM      8  C   UNL     1      21.213  30.039  48.133  1.00  0.00     0.041 C 
ATOM      9  O   UNL     1      20.880  28.842  48.342  1.00  0.00    -0.550 OA
ATOM     10  O   UNL     1      22.381  30.537  48.697  1.00  0.00    -0.550 OA
ENDBRANCH   7   8
ENDBRANCH   6   7
ENDBRANCH   5   6
ENDBRANCH   4   5
ENDBRANCH   3   4
ENDBRANCH   2   3
ENDBRANCH   1   2
BRANCH   1  11
ATOM     11  C   UNL     1      19.230  35.111  46.223  1.00  0.00     0.000 C 
BRANCH  11  12
ATOM     12  C   UNL     1      19.585  34.692  47.660  1.00  0.00     0.000 C 
BRANCH  12  13
ATOM     13  C   UNL     1      21.085  34.392  47.843  1.00  0.00     0.000 C 
BRANCH  13  14
ATOM     14  C   UNL     1      21.500  33.981  49.269  1.00  0.00     0.000 C 
BRANCH  14  15
ATOM     15  C   UNL     1      20.629  34.565  50.398  1.00  0.00     0.000 C 
BRANCH  15  16
ATOM     16  C   UNL     1      20.563  33.675  51.656  1.00  0.00     0.006 C 
BRANCH  16  17
ATOM     17  C   UNL     1      20.671  32.180  51.326  1.00  0.00     0.053 C 
BRANCH  17  18
ATOM     18  C   UNL     1      19.319  31.610  51.033  1.00  0.00     0.041 C 
ATOM     19  O   UNL     1      19.180  30.373  50.845  1.00  0.00    -0.550 OA
ATOM     20  O   UNL     1      18.219  32.452  50.921  1.00  0.00    -0.550 OA
ENDBRANCH  17  18
ENDBRANCH  16  17
ENDBRANCH  15  16
ENDBRANCH  14  15
ENDBRANCH  13  14
ENDBRANCH  12  13
ENDBRANCH  11  12
ENDBRANCH   1  11
TORSDOF 15
ENDMDL
MODEL 6
REMARK VINA RESULT:    -4.009      2.009      2.813
REMARK INTER + INTRA:          -9.750
REMARK INTER:                  -7.476
REMARK INTRA:                  -2.275
REMARK UNBOUND:                -2.226
REMARK SMILES O=C([O-])CCCCCCCCCCCCCCC(=O)[O-]
REMARK SMILES IDX 10 1 9 2 8 3 7 4 6 5 5 6 4 7 2 8 1 9 3 10 11 11 12 12 13 13
REMARK SMILES IDX 14 14 15 15 16 16 17 17 18 18 19 19 20 20
REMARK H PARENT
REMARK Flexibility Score: inf
ROOT
ATOM      1  C   UNL     1      20.136  33.515  43.875  1.00  0.00     0.000 C 
ENDROOT
BRANCH   1   2
ATOM      2  C   UNL     1      20.386  32.118  44.464  1.00  0.00     0.000 C 
BRANCH   2   3
ATOM      3  C   UNL     1      19.356  31.109  43.933  1.00  0.00     0.000 C 
BRANCH   3   4
ATOM      4  C   UNL     1      18.637  30.345  45.057  1.00  0.00     0.000 C 
BRANCH   4   5
ATOM      5  C   UNL     1      18.099  31.279  46.154  1.00  0.00     0.000 C 
BRANCH   5   6
ATOM      6  C   UNL     1      18.105  30.629  47.551  1.00  0.00     0.006 C 
BRANCH   6   7
ATOM      7  C   UNL     1      19.397  29.861  47.880  1.00  0.00     0.053 C 
BRANCH   7   8
ATOM      8  C   UNL     1      19.576  29.631  49.349  1.00  0.00     0.041 C 
ATOM      9  O   UNL     1      19.870  30.591  50.110  1.00  0.00    -0.550 OA
ATOM     10  O   UNL     1      19.443  28.352  49.875  1.00  0.00    -0.550 OA
ENDBRANCH   7   8
ENDBRANCH   6   7
ENDBRANCH   5   6
ENDBRANCH   4   5
ENDBRANCH   3   4
ENDBRANCH   2   3
ENDBRANCH   1   2
BRANCH   1  11
ATOM     11  C   UNL     1      20.267  34.634  44.922  1.00  0.00     0.000 C 
BRANCH  11  12
ATOM     12  C   UNL     1      19.023  34.749  45.820  1.00  0.00     0.000 C 
BRANCH  12  13
ATOM     13  C   UNL     1      19.363  35.166  47.263  1.00  0.00     0.000 C 
BRANCH  13  14
ATOM     14  C   UNL     1      19.589  34.001  48.244  1.00  0.00     0.000 C 
BRANCH  14  15
ATOM     15  C   UNL     1      21.054  33.777  48.668  1.00  0.00     0.000 C 
BRANCH  15  16
ATOM     16  C   UNL     1      21.787  32.709  47.831  1.00  0.00     0.006 C 
BRANCH  16  17
ATOM     17  C   UNL     1      22.809  31.914  48.656  1.00  0.00     0.053 C 
BRANCH  17  18
ATOM     18  C   UNL     1      23.979  31.527  47.808  1.00  0.00     0.041 C 
ATOM     19  O   UNL     1      25.115  31.374  48.328  1.00  0.00    -0.550 OA
ATOM     20  O   UNL     1      23.824  31.382  46.435  1.00  0.00    -0.550 OA
ENDBRANCH  17  18
ENDBRANCH  16  17
ENDBRANCH  15  16
ENDBRANCH  14  15
ENDBRANCH  13  14
ENDBRANCH  12  13
ENDBRANCH  11  12
ENDBRANCH   1  11
TORSDOF 15
ENDMDL
MODEL 7
REMARK VINA RESULT:    -3.994      1.647      4.836
REMARK INTER + INTRA:          -9.723
REMARK INTER:                  -7.776
REMARK INTRA:                  -1.948
REMARK UNBOUND:                -2.226
REMARK SMILES O=C([O-])CCCCCCCCCCCCCCC(=O)[O-]
REMARK SMILES IDX 10 1 9 2 8 3 7 4 6 5 5 6 4 7 2 8 1 9 3 10 11 11 12 12 13 13
REMARK SMILES IDX 14 14 15 15 16 16 17 17 18 18 19 19 20 20
REMARK H PARENT
REMARK Flexibility Score: inf
ROOT
ATOM      1  C   UNL     1      20.128  34.853  45.168  1.00  0.00     0.000 C 
ENDROOT
BRANCH   1   2
ATOM      2  C   UNL     1      18.950  34.591  46.119  1.00  0.00     0.000 C 
BRANCH   2   3
ATOM      3  C   UNL     1      19.433  34.502  47.575  1.00  0.00     0.000 C 
BRANCH   3   4
ATOM      4  C   UNL     1      20.917  34.114  47.687  1.00  0.00     0.000 C 
BRANCH   4   5
ATOM      5  C   UNL     1      21.298  33.637  49.099  1.00  0.00     0.000 C 
BRANCH   5   6
ATOM      6  C   UNL     1      21.006  34.688  50.186  1.00  0.00     0.006 C 
BRANCH   6   7
ATOM      7  C   UNL     1      20.585  34.089  51.540  1.00  0.00     0.053 C 
BRANCH   7   8
ATOM      8  C   UNL     1      20.672  35.076  52.662  1.00  0.00     0.041 C 
ATOM      9  O   UNL     1      19.699  35.836  52.917  1.00  0.00    -0.550 OA
ATOM     10  O   UNL     1      21.836  35.176  53.413  1.00  0.00    -0.550 OA
ENDBRANCH   7   8
ENDBRANCH   6   7
ENDBRANCH   5   6
ENDBRANCH   4   5
ENDBRANCH   3   4
ENDBRANCH   2   3
ENDBRANCH   1   2
BRANCH   1  11
ATOM     11  C   UNL     1      20.166  33.872  43.985  1.00  0.00     0.000 C 
BRANCH  11  12
ATOM     12  C   UNL     1      19.025  32.842  44.036  1.00  0.00     0.000 C 
BRANCH  12  13
ATOM     13  C   UNL     1      19.520  31.392  43.875  1.00  0.00     0.000 C 
BRANCH  13  14
ATOM     14  C   UNL     1      18.796  30.353  44.753  1.00  0.00     0.000 C 
BRANCH  14  15
ATOM     15  C   UNL     1      18.328  30.870  46.127  1.00  0.00     0.000 C 
BRANCH  15  16
ATOM     16  C   UNL     1      19.382  30.711  47.243  1.00  0.00     0.006 C 
BRANCH  16  17
ATOM     17  C   UNL     1      18.796  30.944  48.643  1.00  0.00     0.053 C 
BRANCH  17  18
ATOM     18  C   UNL     1      19.436  30.027  49.637  1.00  0.00     0.041 C 
ATOM     19  O   UNL     1      19.521  28.794  49.398  1.00  0.00    -0.550 OA
ATOM     20  O   UNL     1      19.895  30.528  50.849  1.00  0.00    -0.550 OA
ENDBRANCH  17  18
ENDBRANCH  16  17
ENDBRANCH  15  16
ENDBRANCH  14  15
ENDBRANCH  13  14
ENDBRANCH  12  13
ENDBRANCH  11  12
ENDBRANCH   1  11
TORSDOF 15
ENDMDL
MODEL 8
REMARK VINA RESULT:    -3.949      1.386      2.212
REMARK INTER + INTRA:          -9.638
REMARK INTER:                  -7.734
REMARK INTRA:                  -1.905
REMARK UNBOUND:                -2.226
REMARK SMILES O=C([O-])CCCCCCCCCCCCCCC(=O)[O-]
REMARK SMILES IDX 10 1 9 2 8 3 7 4 6 5 5 6 4 7 2 8 1 9 3 10 11 11 12 12 13 13
REMARK SMILES IDX 14 14 15 15 16 16 17 17 18 18 19 19 20 20
REMARK H PARENT
REMARK Flexibility Score: inf
ROOT
ATOM      1  C   UNL     1      20.384  34.384  44.636  1.00  0.00     0.000 C 
ENDROOT
BRANCH   1   2
ATOM      2  C   UNL     1      19.515  33.369  43.876  1.00  0.00     0.000 C 
BRANCH   2   3
ATOM      3  C   UNL     1      20.007  31.935  44.124  1.00  0.00     0.000 C 
BRANCH   3   4
ATOM      4  C   UNL     1      18.868  30.902  44.097  1.00  0.00     0.000 C 
BRANCH   4   5
ATOM      5  C   UNL     1      18.617  30.265  45.474  1.00  0.00     0.000 C 
BRANCH   5   6
ATOM      6  C   UNL     1      17.914  31.220  46.458  1.00  0.00     0.006 C 
BRANCH   6   7
ATOM      7  C   UNL     1      18.634  31.369  47.810  1.00  0.00     0.053 C 
BRANCH   7   8
ATOM      8  C   UNL     1      19.859  30.513  47.911  1.00  0.00     0.041 C 
ATOM      9  O   UNL     1      20.990  30.987  47.622  1.00  0.00    -0.550 OA
ATOM     10  O   UNL     1      19.749  29.184  48.301  1.00  0.00    -0.550 OA
ENDBRANCH   7   8
ENDBRANCH   6   7
ENDBRANCH   5   6
ENDBRANCH   4   5
ENDBRANCH   3   4
ENDBRANCH   2   3
ENDBRANCH   1   2
BRANCH   1  11
ATOM     11  C   UNL     1      20.457  34.093  46.144  1.00  0.00     0.000 C 
BRANCH  11  12
ATOM     12  C   UNL     1      19.516  34.990  46.964  1.00  0.00     0.000 C 
BRANCH  12  13
ATOM     13  C   UNL     1      19.950  35.126  48.436  1.00  0.00     0.000 C 
BRANCH  13  14
ATOM     14  C   UNL     1      21.068  34.164  48.879  1.00  0.00     0.000 C 
BRANCH  14  15
ATOM     15  C   UNL     1      21.191  33.962  50.402  1.00  0.00     0.000 C 
BRANCH  15  16
ATOM     16  C   UNL     1      20.856  32.529  50.868  1.00  0.00     0.006 C 
BRANCH  16  17
ATOM     17  C   UNL     1      22.094  31.765  51.357  1.00  0.00     0.053 C 
BRANCH  17  18
ATOM     18  C   UNL     1      22.008  30.324  50.962  1.00  0.00     0.041 C 
ATOM     19  O   UNL     1      22.819  29.847  50.125  1.00  0.00    -0.550 OA
ATOM     20  O   UNL     1      21.002  29.519  51.483  1.00  0.00    -0.550 OA
ENDBRANCH  17  18
ENDBRANCH  16  17
ENDBRANCH  15  16
ENDBRANCH  14  15
ENDBRANCH  13  14
ENDBRANCH  12  13
ENDBRANCH  11  12
ENDBRANCH   1  11
TORSDOF 15
ENDMDL
MODEL 9
REMARK VINA RESULT:    -3.237      0.991      4.285
REMARK INTER + INTRA:          -8.302
REMARK INTER:                  -6.070
REMARK INTRA:                  -2.232
REMARK UNBOUND:                -2.226
REMARK SMILES O=C([O-])CCCCCCCCCCCCCCC(=O)[O-]
REMARK SMILES IDX 10 1 9 2 8 3 7 4 6 5 5 6 4 7 2 8 1 9 3 10 11 11 12 12 13 13
REMARK SMILES IDX 14 14 15 15 16 16 17 17 18 18 19 19 20 20
REMARK H PARENT
REMARK Flexibility Score: inf
ROOT
ATOM      1  C   UNL     1      20.524  34.339  45.197  1.00  0.00     0.000 C 
ENDROOT
BRANCH   1   2
ATOM      2  C   UNL     1      19.247  34.735  45.954  1.00  0.00     0.000 C 
BRANCH   2   3
ATOM      3  C   UNL     1      19.301  34.244  47.410  1.00  0.00     0.000 C 
BRANCH   3   4
ATOM      4  C   UNL     1      20.693  34.412  48.043  1.00  0.00     0.000 C 
BRANCH   4   5
ATOM      5  C   UNL     1      20.631  34.564  49.572  1.00  0.00     0.000 C 
BRANCH   5   6
ATOM      6  C   UNL     1      21.287  33.387  50.319  1.00  0.00     0.006 C 
BRANCH   6   7
ATOM      7  C   UNL     1      20.437  32.825  51.472  1.00  0.00     0.053 C 
BRANCH   7   8
ATOM      8  C   UNL     1      19.431  31.815  51.012  1.00  0.00     0.041 C 
ATOM      9  O   UNL     1      18.293  32.186  50.619  1.00  0.00    -0.550 OA
ATOM     10  O   UNL     1      19.741  30.461  51.039  1.00  0.00    -0.550 OA
ENDBRANCH   7   8
ENDBRANCH   6   7
ENDBRANCH   5   6
ENDBRANCH   4   5
ENDBRANCH   3   4
ENDBRANCH   2   3
ENDBRANCH   1   2
BRANCH   1  11
ATOM     11  C   UNL     1      20.230  33.597  43.882  1.00  0.00     0.000 C 
BRANCH  11  12
ATOM     12  C   UNL     1      20.608  32.108  43.948  1.00  0.00     0.000 C 
BRANCH  12  13
ATOM     13  C   UNL     1      19.384  31.176  43.875  1.00  0.00     0.000 C 
BRANCH  13  14
ATOM     14  C   UNL     1      18.572  31.060  45.179  1.00  0.00     0.000 C 
BRANCH  14  15
ATOM     15  C   UNL     1      18.944  29.863  46.077  1.00  0.00     0.000 C 
BRANCH  15  16
ATOM     16  C   UNL     1      19.349  30.264  47.510  1.00  0.00     0.006 C 
BRANCH  16  17
ATOM     17  C   UNL     1      20.779  30.818  47.584  1.00  0.00     0.053 C 
BRANCH  17  18
ATOM     18  C   UNL     1      21.661  29.886  48.353  1.00  0.00     0.041 C 
ATOM     19  O   UNL     1      21.374  28.662  48.433  1.00  0.00    -0.550 OA
ATOM     20  O   UNL     1      22.776  30.377  49.022  1.00  0.00    -0.550 OA
ENDBRANCH  17  18
ENDBRANCH  16  17
ENDBRANCH  15  16
ENDBRANCH  14  15
ENDBRANCH  13  14
ENDBRANCH  12  13
ENDBRANCH  11  12
ENDBRANCH   1  11
TORSDOF 15
ENDMDL
