MODEL 1
REMARK VINA RESULT:    -3.814      0.000      0.000
REMARK INTER + INTRA:          -4.840
REMARK INTER:                  -4.594
REMARK INTRA:                  -0.246
REMARK UNBOUND:                -0.246
REMARK SMILES C=CCc1ccc(O)c(OC)c1
REMARK SMILES IDX 9 1 7 2 6 3 5 4 4 5 12 6 10 7 11 8 8 9 3 11 2 12 1 13
REMARK H PARENT 8 10
REMARK Flexibility Score: inf
ROOT
ATOM      1  C   UNL     1     160.019 164.307 169.025  1.00  0.00     0.160 A 
ATOM      2  C   UNL     1     159.494 164.286 167.719  1.00  0.00     0.157 A 
ATOM      3  C   UNL     1     160.340 164.472 166.621  1.00  0.00     0.050 A 
ATOM      4  C   UNL     1     161.708 164.675 166.808  1.00  0.00     0.008 A 
ATOM      5  C   UNL     1     162.249 164.688 168.102  1.00  0.00    -0.040 A 
ATOM      6  C   UNL     1     161.402 164.512 169.206  1.00  0.00     0.054 A 
ENDROOT
BRANCH   1   7
ATOM      7  O   UNL     1     159.147 164.123 170.110  1.00  0.00    -0.493 OA
ATOM      8  C   UNL     1     158.509 165.179 170.821  1.00  0.00     0.278 C 
ENDBRANCH   1   7
BRANCH   2   9
ATOM      9  O   UNL     1     158.133 164.084 167.494  1.00  0.00    -0.504 OA
ATOM     10  H   UNL     1     157.537 164.804 167.103  1.00  0.00     0.293 HD
ENDBRANCH   2   9
BRANCH   5  11
ATOM     11  C   UNL     1     163.721 164.937 168.308  1.00  0.00     0.062 C 
BRANCH  11  12
ATOM     12  C   UNL     1     164.374 165.364 167.023  1.00  0.00    -0.030 C 
ATOM     13  C   UNL     1     165.051 166.512 166.928  1.00  0.00     0.004 C 
ENDBRANCH  11  12
ENDBRANCH   5  11
TORSDOF 4
ENDMDL
MODEL 2
REMARK VINA RESULT:    -3.805      7.533     10.224
REMARK INTER + INTRA:          -4.829
REMARK INTER:                  -4.580
REMARK INTRA:                  -0.249
REMARK UNBOUND:                -0.246
REMARK SMILES C=CCc1ccc(O)c(OC)c1
REMARK SMILES IDX 9 1 7 2 6 3 5 4 4 5 12 6 10 7 11 8 8 9 3 11 2 12 1 13
REMARK H PARENT 8 10
REMARK Flexibility Score: inf
ROOT
ATOM      1  C   UNL     1     171.341 166.922 169.065  1.00  0.00     0.160 A 
ATOM      2  C   UNL     1     171.794 166.925 167.732  1.00  0.00     0.157 A 
ATOM      3  C   UNL     1     170.887 166.739 166.684  1.00  0.00     0.050 A 
ATOM      4  C   UNL     1     169.529 166.552 166.948  1.00  0.00     0.008 A 
ATOM      5  C   UNL     1     169.060 166.556 168.269  1.00  0.00    -0.040 A 
ATOM      6  C   UNL     1     169.968 166.733 169.324  1.00  0.00     0.054 A 
ENDROOT
BRANCH   1   7
ATOM      7  O   UNL     1     172.274 167.106 170.098  1.00  0.00    -0.493 OA
ATOM      8  C   UNL     1     172.834 166.055 170.878  1.00  0.00     0.278 C 
ENDBRANCH   1   7
BRANCH   2   9
ATOM      9  O   UNL     1     173.142 167.110 167.431  1.00  0.00    -0.504 OA
ATOM     10  H   UNL     1     173.850 166.428 167.676  1.00  0.00     0.293 HD
ENDBRANCH   2   9
BRANCH   5  11
ATOM     11  C   UNL     1     167.599 166.325 168.557  1.00  0.00     0.062 C 
BRANCH  11  12
ATOM     12  C   UNL     1     166.943 165.584 167.427  1.00  0.00    -0.030 C 
ATOM     13  C   UNL     1     166.285 164.438 167.628  1.00  0.00     0.004 C 
ENDBRANCH  11  12
ENDBRANCH   5  11
TORSDOF 4
ENDMDL
MODEL 3
REMARK VINA RESULT:    -3.760      6.241      7.704
REMARK INTER + INTRA:          -4.775
REMARK INTER:                  -4.555
REMARK INTRA:                  -0.220
REMARK UNBOUND:                -0.246
REMARK SMILES C=CCc1ccc(O)c(OC)c1
REMARK SMILES IDX 9 1 7 2 6 3 5 4 4 5 12 6 10 7 11 8 8 9 3 11 2 12 1 13
REMARK H PARENT 8 10
REMARK Flexibility Score: inf
ROOT
ATOM      1  C   UNL     1     164.534 172.145 169.031  1.00  0.00     0.160 A 
ATOM      2  C   UNL     1     164.497 172.233 167.627  1.00  0.00     0.157 A 
ATOM      3  C   UNL     1     164.500 171.070 166.852  1.00  0.00     0.050 A 
ATOM      4  C   UNL     1     164.537 169.814 167.461  1.00  0.00     0.008 A 
ATOM      5  C   UNL     1     164.563 169.708 168.858  1.00  0.00    -0.040 A 
ATOM      6  C   UNL     1     164.569 170.874 169.639  1.00  0.00     0.054 A 
ENDROOT
BRANCH   1   7
ATOM      7  O   UNL     1     164.534 173.330 169.785  1.00  0.00    -0.493 OA
ATOM      8  C   UNL     1     163.395 173.864 170.452  1.00  0.00     0.278 C 
ENDBRANCH   1   7
BRANCH   2   9
ATOM      9  O   UNL     1     164.459 173.470 166.984  1.00  0.00    -0.504 OA
ATOM     10  H   UNL     1     165.055 174.242 167.260  1.00  0.00     0.293 HD
ENDBRANCH   2   9
BRANCH   5  11
ATOM     11  C   UNL     1     164.631 168.355 169.517  1.00  0.00     0.062 C 
BRANCH  11  12
ATOM     12  C   UNL     1     165.242 167.341 168.591  1.00  0.00    -0.030 C 
ATOM     13  C   UNL     1     164.572 166.253 168.201  1.00  0.00     0.004 C 
ENDBRANCH  11  12
ENDBRANCH   5  11
TORSDOF 4
ENDMDL
MODEL 4
REMARK VINA RESULT:    -3.753      1.242      1.404
REMARK INTER + INTRA:          -4.767
REMARK INTER:                  -4.529
REMARK INTRA:                  -0.238
REMARK UNBOUND:                -0.246
REMARK SMILES C=CCc1ccc(O)c(OC)c1
REMARK SMILES IDX 9 1 7 2 6 3 5 4 4 5 12 6 10 7 11 8 8 9 3 11 2 12 1 13
REMARK H PARENT 8 10
REMARK Flexibility Score: inf
ROOT
ATOM      1  C   UNL     1     159.041 164.522 169.048  1.00  0.00     0.160 A 
ATOM      2  C   UNL     1     158.971 164.493 167.642  1.00  0.00     0.157 A 
ATOM      3  C   UNL     1     160.145 164.496 166.882  1.00  0.00     0.050 A 
ATOM      4  C   UNL     1     161.393 164.524 167.507  1.00  0.00     0.008 A 
ATOM      5  C   UNL     1     161.481 164.542 168.906  1.00  0.00    -0.040 A 
ATOM      6  C   UNL     1     160.305 164.549 169.672  1.00  0.00     0.054 A 
ENDROOT
BRANCH   1   7
ATOM      7  O   UNL     1     157.847 164.523 169.786  1.00  0.00    -0.493 OA
ATOM      8  C   UNL     1     157.358 163.414 170.533  1.00  0.00     0.278 C 
ENDBRANCH   1   7
BRANCH   2   9
ATOM      9  O   UNL     1     157.743 164.463 166.984  1.00  0.00    -0.504 OA
ATOM     10  H   UNL     1     157.154 163.638 166.974  1.00  0.00     0.293 HD
ENDBRANCH   2   9
BRANCH   5  11
ATOM     11  C   UNL     1     162.825 164.602 169.583  1.00  0.00     0.062 C 
BRANCH  11  12
ATOM     12  C   UNL     1     163.873 165.126 168.641  1.00  0.00    -0.030 C 
ATOM     13  C   UNL     1     165.045 164.505 168.480  1.00  0.00     0.004 C 
ENDBRANCH  11  12
ENDBRANCH   5  11
TORSDOF 4
ENDMDL
MODEL 5
REMARK VINA RESULT:    -3.747      6.453      7.681
REMARK INTER + INTRA:          -4.760
REMARK INTER:                  -4.507
REMARK INTRA:                  -0.253
REMARK UNBOUND:                -0.246
REMARK SMILES C=CCc1ccc(O)c(OC)c1
REMARK SMILES IDX 9 1 7 2 6 3 5 4 4 5 12 6 10 7 11 8 8 9 3 11 2 12 1 13
REMARK H PARENT 8 10
REMARK Flexibility Score: inf
ROOT
ATOM      1  C   UNL     1     166.659 159.063 169.088  1.00  0.00     0.160 A 
ATOM      2  C   UNL     1     166.723 159.007 167.683  1.00  0.00     0.157 A 
ATOM      3  C   UNL     1     166.734 160.187 166.934  1.00  0.00     0.050 A 
ATOM      4  C   UNL     1     166.686 161.429 167.570  1.00  0.00     0.008 A 
ATOM      5  C   UNL     1     166.632 161.504 168.969  1.00  0.00    -0.040 A 
ATOM      6  C   UNL     1     166.611 160.321 169.724  1.00  0.00     0.054 A 
ENDROOT
BRANCH   1   7
ATOM      7  O   UNL     1     166.644 157.862 169.816  1.00  0.00    -0.493 OA
ATOM      8  C   UNL     1     167.742 157.364 170.574  1.00  0.00     0.278 C 
ENDBRANCH   1   7
BRANCH   2   9
ATOM      9  O   UNL     1     166.774 157.784 167.014  1.00  0.00    -0.504 OA
ATOM     10  H   UNL     1     166.703 157.716 166.006  1.00  0.00     0.293 HD
ENDBRANCH   2   9
BRANCH   5  11
ATOM     11  C   UNL     1     166.551 162.842 169.656  1.00  0.00     0.062 C 
BRANCH  11  12
ATOM     12  C   UNL     1     166.187 163.923 168.677  1.00  0.00    -0.030 C 
ATOM     13  C   UNL     1     165.014 164.559 168.738  1.00  0.00     0.004 C 
ENDBRANCH  11  12
ENDBRANCH   5  11
TORSDOF 4
ENDMDL
MODEL 6
REMARK VINA RESULT:    -3.716      6.394      7.832
REMARK INTER + INTRA:          -4.723
REMARK INTER:                  -4.484
REMARK INTRA:                  -0.239
REMARK UNBOUND:                -0.246
REMARK SMILES C=CCc1ccc(O)c(OC)c1
REMARK SMILES IDX 9 1 7 2 6 3 5 4 4 5 12 6 10 7 11 8 8 9 3 11 2 12 1 13
REMARK H PARENT 8 10
REMARK Flexibility Score: inf
ROOT
ATOM      1  C   UNL     1     166.649 159.047 167.741  1.00  0.00     0.160 A 
ATOM      2  C   UNL     1     166.911 158.962 169.121  1.00  0.00     0.157 A 
ATOM      3  C   UNL     1     167.028 160.128 169.885  1.00  0.00     0.050 A 
ATOM      4  C   UNL     1     166.883 161.382 169.289  1.00  0.00     0.008 A 
ATOM      5  C   UNL     1     166.612 161.484 167.917  1.00  0.00    -0.040 A 
ATOM      6  C   UNL     1     166.504 160.317 167.146  1.00  0.00     0.054 A 
ENDROOT
BRANCH   1   7
ATOM      7  O   UNL     1     166.542 157.861 166.997  1.00  0.00    -0.493 OA
ATOM      8  C   UNL     1     165.430 157.521 166.175  1.00  0.00     0.278 C 
ENDBRANCH   1   7
BRANCH   2   9
ATOM      9  O   UNL     1     167.060 157.727 169.751  1.00  0.00    -0.504 OA
ATOM     10  H   UNL     1     166.486 157.449 170.538  1.00  0.00     0.293 HD
ENDBRANCH   2   9
BRANCH   5  11
ATOM     11  C   UNL     1     166.484 162.837 167.266  1.00  0.00     0.062 C 
BRANCH  11  12
ATOM     12  C   UNL     1     166.224 163.901 168.295  1.00  0.00    -0.030 C 
ATOM     13  C   UNL     1     165.138 164.678 168.240  1.00  0.00     0.004 C 
ENDBRANCH  11  12
ENDBRANCH   5  11
TORSDOF 4
ENDMDL
MODEL 7
REMARK VINA RESULT:    -3.673      7.316      9.891
REMARK INTER + INTRA:          -4.670
REMARK INTER:                  -4.429
REMARK INTRA:                  -0.241
REMARK UNBOUND:                -0.246
REMARK SMILES C=CCc1ccc(O)c(OC)c1
REMARK SMILES IDX 9 1 7 2 6 3 5 4 4 5 12 6 10 7 11 8 8 9 3 11 2 12 1 13
REMARK H PARENT 8 10
REMARK Flexibility Score: inf
ROOT
ATOM      1  C   UNL     1     170.819 167.167 169.290  1.00  0.00     0.160 A 
ATOM      2  C   UNL     1     171.505 167.177 168.061  1.00  0.00     0.157 A 
ATOM      3  C   UNL     1     170.828 166.862 166.879  1.00  0.00     0.050 A 
ATOM      4  C   UNL     1     169.470 166.538 166.906  1.00  0.00     0.008 A 
ATOM      5  C   UNL     1     168.769 166.534 168.120  1.00  0.00    -0.040 A 
ATOM      6  C   UNL     1     169.448 166.841 169.309  1.00  0.00     0.054 A 
ENDROOT
BRANCH   1   7
ATOM      7  O   UNL     1     171.525 167.483 170.462  1.00  0.00    -0.493 OA
ATOM      8  C   UNL     1     171.519 168.762 171.089  1.00  0.00     0.278 C 
ENDBRANCH   1   7
BRANCH   2   9
ATOM      9  O   UNL     1     172.860 167.496 167.996  1.00  0.00    -0.504 OA
ATOM     10  H   UNL     1     173.279 167.912 167.172  1.00  0.00     0.293 HD
ENDBRANCH   2   9
BRANCH   5  11
ATOM     11  C   UNL     1     167.311 166.157 168.155  1.00  0.00     0.062 C 
BRANCH  11  12
ATOM     12  C   UNL     1     166.822 165.791 166.782  1.00  0.00    -0.030 C 
ATOM     13  C   UNL     1     166.086 164.696 166.569  1.00  0.00     0.004 C 
ENDBRANCH  11  12
ENDBRANCH   5  11
TORSDOF 4
ENDMDL
MODEL 8
REMARK VINA RESULT:    -3.671      6.166      7.373
REMARK INTER + INTRA:          -4.667
REMARK INTER:                  -4.428
REMARK INTRA:                  -0.240
REMARK UNBOUND:                -0.246
REMARK SMILES C=CCc1ccc(O)c(OC)c1
REMARK SMILES IDX 9 1 7 2 6 3 5 4 4 5 12 6 10 7 11 8 8 9 3 11 2 12 1 13
REMARK H PARENT 8 10
REMARK Flexibility Score: inf
ROOT
ATOM      1  C   UNL     1     167.133 160.400 169.167  1.00  0.00     0.160 A 
ATOM      2  C   UNL     1     167.145 159.786 167.900  1.00  0.00     0.157 A 
ATOM      3  C   UNL     1     166.812 160.524 166.761  1.00  0.00     0.050 A 
ATOM      4  C   UNL     1     166.469 161.873 166.867  1.00  0.00     0.008 A 
ATOM      5  C   UNL     1     166.463 162.503 168.119  1.00  0.00    -0.040 A 
ATOM      6  C   UNL     1     166.787 161.763 169.266  1.00  0.00     0.054 A 
ENDROOT
BRANCH   1   7
ATOM      7  O   UNL     1     167.467 159.633 170.295  1.00  0.00    -0.493 OA
ATOM      8  C   UNL     1     168.781 159.515 170.831  1.00  0.00     0.278 C 
ENDBRANCH   1   7
BRANCH   2   9
ATOM      9  O   UNL     1     167.483 158.441 167.756  1.00  0.00    -0.504 OA
ATOM     10  H   UNL     1     167.514 157.803 168.543  1.00  0.00     0.293 HD
ENDBRANCH   2   9
BRANCH   5  11
ATOM     11  C   UNL     1     166.066 163.951 168.240  1.00  0.00     0.062 C 
BRANCH  11  12
ATOM     12  C   UNL     1     166.147 164.639 166.907  1.00  0.00    -0.030 C 
ATOM     13  C   UNL     1     166.889 165.736 166.727  1.00  0.00     0.004 C 
ENDBRANCH  11  12
ENDBRANCH   5  11
TORSDOF 4
ENDMDL
MODEL 9
REMARK VINA RESULT:    -3.589      5.768      6.868
REMARK INTER + INTRA:          -4.570
REMARK INTER:                  -4.302
REMARK INTRA:                  -0.267
REMARK UNBOUND:                -0.246
REMARK SMILES C=CCc1ccc(O)c(OC)c1
REMARK SMILES IDX 9 1 7 2 6 3 5 4 4 5 12 6 10 7 11 8 8 9 3 11 2 12 1 13
REMARK H PARENT 8 10
REMARK Flexibility Score: inf
ROOT
ATOM      1  C   UNL     1     164.263 170.499 168.265  1.00  0.00     0.160 A 
ATOM      2  C   UNL     1     164.176 170.303 169.656  1.00  0.00     0.157 A 
ATOM      3  C   UNL     1     164.471 169.053 170.207  1.00  0.00     0.050 A 
ATOM      4  C   UNL     1     164.858 167.991 169.387  1.00  0.00     0.008 A 
ATOM      5  C   UNL     1     164.960 168.171 168.001  1.00  0.00    -0.040 A 
ATOM      6  C   UNL     1     164.655 169.422 167.443  1.00  0.00     0.054 A 
ENDROOT
BRANCH   1   7
ATOM      7  O   UNL     1     163.956 171.763 167.737  1.00  0.00    -0.493 OA
ATOM      8  C   UNL     1     164.923 172.738 167.361  1.00  0.00     0.278 C 
ENDBRANCH   1   7
BRANCH   2   9
ATOM      9  O   UNL     1     163.795 171.341 170.506  1.00  0.00    -0.504 OA
ATOM     10  H   UNL     1     162.840 171.455 170.825  1.00  0.00     0.293 HD
ENDBRANCH   2   9
BRANCH   5  11
ATOM     11  C   UNL     1     165.348 167.020 167.111  1.00  0.00     0.062 C 
BRANCH  11  12
ATOM     12  C   UNL     1     166.284 166.086 167.825  1.00  0.00    -0.030 C 
ATOM     13  C   UNL     1     167.601 166.105 167.600  1.00  0.00     0.004 C 
ENDBRANCH  11  12
ENDBRANCH   5  11
TORSDOF 4
ENDMDL
