MODEL 1
REMARK VINA RESULT:    -5.144      0.000      0.000
REMARK INTER + INTRA:         -12.140
REMARK INTER:                  -9.955
REMARK INTRA:                  -2.185
REMARK UNBOUND:                -2.185
REMARK SMILES CCCCCCCCCCCCCCCCCC(=O)[O-]
REMARK SMILES IDX 10 1 11 2 12 3 13 4 14 5 15 6 16 7 17 8 18 9 19 10 20 11
REMARK SMILES IDX 9 12 8 13 7 14 6 15 5 16 4 17 3 18 2 19 1 20
REMARK H PARENT
REMARK Flexibility Score: inf
ROOT
ATOM      1  C   UNL     1      10.122  18.140  32.361  1.00  0.00     0.000 C 
ENDROOT
BRANCH   1   2
ATOM      2  C   UNL     1       9.486  17.414  33.560  1.00  0.00     0.000 C 
BRANCH   2   3
ATOM      3  C   UNL     1       8.227  18.122  34.092  1.00  0.00     0.000 C 
BRANCH   3   4
ATOM      4  C   UNL     1       8.437  19.644  34.245  1.00  0.00     0.000 C 
BRANCH   4   5
ATOM      5  C   UNL     1       9.002  20.053  35.615  1.00  0.00     0.000 C 
BRANCH   5   6
ATOM      6  C   UNL     1       8.550  19.120  36.750  1.00  0.00     0.000 C 
BRANCH   6   7
ATOM      7  C   UNL     1       9.711  18.305  37.349  1.00  0.00     0.006 C 
BRANCH   7   8
ATOM      8  C   UNL     1      11.092  18.641  36.761  1.00  0.00     0.053 C 
BRANCH   8   9
ATOM      9  C   UNL     1      12.052  17.499  36.897  1.00  0.00     0.041 C 
ATOM     10  O   UNL     1      12.188  16.670  35.960  1.00  0.00    -0.550 OA
ATOM     11  O   UNL     1      12.774  17.334  38.072  1.00  0.00    -0.550 OA
ENDBRANCH   8   9
ENDBRANCH   7   8
ENDBRANCH   6   7
ENDBRANCH   5   6
ENDBRANCH   4   5
ENDBRANCH   3   4
ENDBRANCH   2   3
ENDBRANCH   1   2
BRANCH   1  12
ATOM     12  C   UNL     1      10.027  17.390  31.018  1.00  0.00     0.000 C 
BRANCH  12  13
ATOM     13  C   UNL     1       9.375  18.232  29.908  1.00  0.00    -0.000 C 
BRANCH  13  14
ATOM     14  C   UNL     1       8.636  19.470  30.447  1.00  0.00    -0.000 C 
BRANCH  14  15
ATOM     15  C   UNL     1       8.088  20.429  29.374  1.00  0.00    -0.000 C 
BRANCH  15  16
ATOM     16  C   UNL     1       8.078  21.896  29.830  1.00  0.00    -0.000 C 
BRANCH  16  17
ATOM     17  C   UNL     1       8.294  22.004  31.346  1.00  0.00    -0.000 C 
BRANCH  17  18
ATOM     18  C   UNL     1       9.577  22.767  31.715  1.00  0.00    -0.000 C 
BRANCH  18  19
ATOM     19  C   UNL     1      10.645  21.887  32.399  1.00  0.00    -0.003 C 
ATOM     20  C   UNL     1      11.919  22.666  32.724  1.00  0.00     0.004 C 
ENDBRANCH  18  19
ENDBRANCH  17  18
ENDBRANCH  16  17
ENDBRANCH  15  16
ENDBRANCH  14  15
ENDBRANCH  13  14
ENDBRANCH  12  13
ENDBRANCH   1  12
TORSDOF 16
ENDMDL
MODEL 2
REMARK VINA RESULT:    -5.123      1.054      1.484
REMARK INTER + INTRA:         -12.100
REMARK INTER:                  -9.477
REMARK INTRA:                  -2.622
REMARK UNBOUND:                -2.185
REMARK SMILES CCCCCCCCCCCCCCCCCC(=O)[O-]
REMARK SMILES IDX 10 1 11 2 12 3 13 4 14 5 15 6 16 7 17 8 18 9 19 10 20 11
REMARK SMILES IDX 9 12 8 13 7 14 6 15 5 16 4 17 3 18 2 19 1 20
REMARK H PARENT
REMARK Flexibility Score: inf
ROOT
ATOM      1  C   UNL     1      10.107  18.421  32.004  1.00  0.00     0.000 C 
ENDROOT
BRANCH   1   2
ATOM      2  C   UNL     1       9.729  17.559  33.222  1.00  0.00     0.000 C 
BRANCH   2   3
ATOM      3  C   UNL     1       8.444  18.038  33.920  1.00  0.00     0.000 C 
BRANCH   3   4
ATOM      4  C   UNL     1       8.449  19.562  34.165  1.00  0.00     0.000 C 
BRANCH   4   5
ATOM      5  C   UNL     1       8.954  19.961  35.562  1.00  0.00     0.000 C 
BRANCH   5   6
ATOM      6  C   UNL     1      10.364  20.571  35.535  1.00  0.00     0.000 C 
BRANCH   6   7
ATOM      7  C   UNL     1      11.463  19.548  35.874  1.00  0.00     0.006 C 
BRANCH   7   8
ATOM      8  C   UNL     1      11.138  18.643  37.075  1.00  0.00     0.053 C 
BRANCH   8   9
ATOM      9  C   UNL     1      11.173  17.192  36.708  1.00  0.00     0.041 C 
ATOM     10  O   UNL     1      12.270  16.625  36.465  1.00  0.00    -0.550 OA
ATOM     11  O   UNL     1       9.989  16.472  36.606  1.00  0.00    -0.550 OA
ENDBRANCH   8   9
ENDBRANCH   7   8
ENDBRANCH   6   7
ENDBRANCH   5   6
ENDBRANCH   4   5
ENDBRANCH   3   4
ENDBRANCH   2   3
ENDBRANCH   1   2
BRANCH   1  12
ATOM     12  C   UNL     1       9.927  17.735  30.637  1.00  0.00     0.000 C 
BRANCH  12  13
ATOM     13  C   UNL     1       9.096  18.574  29.651  1.00  0.00    -0.000 C 
BRANCH  13  14
ATOM     14  C   UNL     1       8.312  19.707  30.338  1.00  0.00    -0.000 C 
BRANCH  14  15
ATOM     15  C   UNL     1       8.027  20.938  29.458  1.00  0.00    -0.000 C 
BRANCH  15  16
ATOM     16  C   UNL     1       8.269  22.267  30.190  1.00  0.00    -0.000 C 
BRANCH  16  17
ATOM     17  C   UNL     1       8.574  22.031  31.675  1.00  0.00    -0.000 C 
BRANCH  17  18
ATOM     18  C   UNL     1      10.002  22.447  32.066  1.00  0.00    -0.000 C 
BRANCH  18  19
ATOM     19  C   UNL     1      10.052  23.532  33.163  1.00  0.00    -0.003 C 
ATOM     20  C   UNL     1       8.761  23.592  33.981  1.00  0.00     0.004 C 
ENDBRANCH  18  19
ENDBRANCH  17  18
ENDBRANCH  16  17
ENDBRANCH  15  16
ENDBRANCH  14  15
ENDBRANCH  13  14
ENDBRANCH  12  13
ENDBRANCH   1  12
TORSDOF 16
ENDMDL
MODEL 3
REMARK VINA RESULT:    -4.974      1.017      1.905
REMARK INTER + INTRA:         -11.813
REMARK INTER:                  -9.198
REMARK INTRA:                  -2.614
REMARK UNBOUND:                -2.185
REMARK SMILES CCCCCCCCCCCCCCCCCC(=O)[O-]
REMARK SMILES IDX 10 1 11 2 12 3 13 4 14 5 15 6 16 7 17 8 18 9 19 10 20 11
REMARK SMILES IDX 9 12 8 13 7 14 6 15 5 16 4 17 3 18 2 19 1 20
REMARK H PARENT
REMARK Flexibility Score: inf
ROOT
ATOM      1  C   UNL     1       9.042  17.503  34.059  1.00  0.00     0.000 C 
ENDROOT
BRANCH   1   2
ATOM      2  C   UNL     1       8.288  18.844  34.135  1.00  0.00     0.000 C 
BRANCH   2   3
ATOM      3  C   UNL     1       8.885  19.809  35.176  1.00  0.00     0.000 C 
BRANCH   3   4
ATOM      4  C   UNL     1       8.995  19.160  36.573  1.00  0.00     0.000 C 
BRANCH   4   5
ATOM      5  C   UNL     1      10.444  18.954  37.044  1.00  0.00     0.000 C 
BRANCH   5   6
ATOM      6  C   UNL     1      11.479  19.489  36.042  1.00  0.00     0.000 C 
BRANCH   6   7
ATOM      7  C   UNL     1      12.411  18.388  35.503  1.00  0.00     0.006 C 
BRANCH   7   8
ATOM      8  C   UNL     1      12.071  16.971  35.996  1.00  0.00     0.053 C 
BRANCH   8   9
ATOM      9  C   UNL     1      13.147  16.412  36.876  1.00  0.00     0.041 C 
ATOM     10  O   UNL     1      13.747  15.355  36.549  1.00  0.00    -0.550 OA
ATOM     11  O   UNL     1      13.465  17.041  38.072  1.00  0.00    -0.550 OA
ENDBRANCH   8   9
ENDBRANCH   7   8
ENDBRANCH   6   7
ENDBRANCH   5   6
ENDBRANCH   4   5
ENDBRANCH   3   4
ENDBRANCH   2   3
ENDBRANCH   1   2
BRANCH   1  12
ATOM     12  C   UNL     1       9.967  17.342  32.838  1.00  0.00     0.000 C 
BRANCH  12  13
ATOM     13  C   UNL     1      10.036  18.608  31.968  1.00  0.00    -0.000 C 
BRANCH  13  14
ATOM     14  C   UNL     1       9.384  18.422  30.585  1.00  0.00    -0.000 C 
BRANCH  14  15
ATOM     15  C   UNL     1       8.636  19.653  30.038  1.00  0.00    -0.000 C 
BRANCH  15  16
ATOM     16  C   UNL     1       8.281  20.673  31.130  1.00  0.00    -0.000 C 
BRANCH  16  17
ATOM     17  C   UNL     1       8.420  22.110  30.608  1.00  0.00    -0.000 C 
BRANCH  17  18
ATOM     18  C   UNL     1       9.532  22.900  31.319  1.00  0.00    -0.000 C 
BRANCH  18  19
ATOM     19  C   UNL     1       9.928  22.312  32.690  1.00  0.00    -0.003 C 
ATOM     20  C   UNL     1      11.385  21.852  32.727  1.00  0.00     0.004 C 
ENDBRANCH  18  19
ENDBRANCH  17  18
ENDBRANCH  16  17
ENDBRANCH  15  16
ENDBRANCH  14  15
ENDBRANCH  13  14
ENDBRANCH  12  13
ENDBRANCH   1  12
TORSDOF 16
ENDMDL
MODEL 4
REMARK VINA RESULT:    -4.930      1.532      2.986
REMARK INTER + INTRA:         -11.727
REMARK INTER:                  -9.927
REMARK INTRA:                  -1.801
REMARK UNBOUND:                -2.185
REMARK SMILES CCCCCCCCCCCCCCCCCC(=O)[O-]
REMARK SMILES IDX 10 1 11 2 12 3 13 4 14 5 15 6 16 7 17 8 18 9 19 10 20 11
REMARK SMILES IDX 9 12 8 13 7 14 6 15 5 16 4 17 3 18 2 19 1 20
REMARK H PARENT
REMARK Flexibility Score: inf
ROOT
ATOM      1  C   UNL     1       8.228  19.548  30.263  1.00  0.00     0.000 C 
ENDROOT
BRANCH   1   2
ATOM      2  C   UNL     1       9.387  18.558  30.047  1.00  0.00     0.000 C 
BRANCH   2   3
ATOM      3  C   UNL     1       9.747  17.769  31.319  1.00  0.00     0.000 C 
BRANCH   3   4
ATOM      4  C   UNL     1       9.682  18.648  32.586  1.00  0.00     0.000 C 
BRANCH   4   5
ATOM      5  C   UNL     1       8.623  18.189  33.602  1.00  0.00     0.000 C 
BRANCH   5   6
ATOM      6  C   UNL     1       8.255  19.283  34.617  1.00  0.00     0.000 C 
BRANCH   6   7
ATOM      7  C   UNL     1       8.401  18.816  36.076  1.00  0.00     0.006 C 
BRANCH   7   8
ATOM      8  C   UNL     1       9.831  18.914  36.634  1.00  0.00     0.053 C 
BRANCH   8   9
ATOM      9  C   UNL     1      10.443  17.563  36.847  1.00  0.00     0.041 C 
ATOM     10  O   UNL     1       9.822  16.524  36.501  1.00  0.00    -0.550 OA
ATOM     11  O   UNL     1      11.686  17.451  37.455  1.00  0.00    -0.550 OA
ENDBRANCH   8   9
ENDBRANCH   7   8
ENDBRANCH   6   7
ENDBRANCH   5   6
ENDBRANCH   4   5
ENDBRANCH   3   4
ENDBRANCH   2   3
ENDBRANCH   1   2
BRANCH   1  12
ATOM     12  C   UNL     1       8.099  20.648  29.192  1.00  0.00     0.000 C 
BRANCH  12  13
ATOM     13  C   UNL     1       8.064  22.064  29.791  1.00  0.00    -0.000 C 
BRANCH  13  14
ATOM     14  C   UNL     1       7.875  22.067  31.319  1.00  0.00    -0.000 C 
BRANCH  14  15
ATOM     15  C   UNL     1       9.136  22.400  32.138  1.00  0.00    -0.000 C 
BRANCH  15  16
ATOM     16  C   UNL     1       9.995  23.500  31.496  1.00  0.00    -0.000 C 
BRANCH  16  17
ATOM     17  C   UNL     1      10.375  24.573  32.526  1.00  0.00    -0.000 C 
BRANCH  17  18
ATOM     18  C   UNL     1       9.415  24.616  33.726  1.00  0.00    -0.000 C 
BRANCH  18  19
ATOM     19  C   UNL     1      10.108  24.364  35.082  1.00  0.00    -0.003 C 
ATOM     20  C   UNL     1       9.654  23.057  35.733  1.00  0.00     0.004 C 
ENDBRANCH  18  19
ENDBRANCH  17  18
ENDBRANCH  16  17
ENDBRANCH  15  16
ENDBRANCH  14  15
ENDBRANCH  13  14
ENDBRANCH  12  13
ENDBRANCH   1  12
TORSDOF 16
ENDMDL
MODEL 5
REMARK VINA RESULT:    -4.921      2.738      3.279
REMARK INTER + INTRA:         -11.709
REMARK INTER:                  -9.208
REMARK INTRA:                  -2.501
REMARK UNBOUND:                -2.185
REMARK SMILES CCCCCCCCCCCCCCCCCC(=O)[O-]
REMARK SMILES IDX 10 1 11 2 12 3 13 4 14 5 15 6 16 7 17 8 18 9 19 10 20 11
REMARK SMILES IDX 9 12 8 13 7 14 6 15 5 16 4 17 3 18 2 19 1 20
REMARK H PARENT
REMARK Flexibility Score: inf
ROOT
ATOM      1  C   UNL     1      10.225  18.511  32.137  1.00  0.00     0.000 C 
ENDROOT
BRANCH   1   2
ATOM      2  C   UNL     1      10.036  17.571  33.341  1.00  0.00     0.000 C 
BRANCH   2   3
ATOM      3  C   UNL     1       8.697  17.789  34.068  1.00  0.00     0.000 C 
BRANCH   3   4
ATOM      4  C   UNL     1       8.410  19.284  34.322  1.00  0.00     0.000 C 
BRANCH   4   5
ATOM      5  C   UNL     1       8.662  19.721  35.775  1.00  0.00     0.000 C 
BRANCH   5   6
ATOM      6  C   UNL     1       9.608  20.928  35.880  1.00  0.00     0.000 C 
BRANCH   6   7
ATOM      7  C   UNL     1       8.913  22.183  36.437  1.00  0.00     0.006 C 
BRANCH   7   8
ATOM      8  C   UNL     1       9.870  23.334  36.791  1.00  0.00     0.053 C 
BRANCH   8   9
ATOM      9  C   UNL     1       9.939  23.571  38.269  1.00  0.00     0.041 C 
ATOM     10  O   UNL     1      10.728  22.899  38.983  1.00  0.00    -0.550 OA
ATOM     11  O   UNL     1       9.109  24.515  38.861  1.00  0.00    -0.550 OA
ENDBRANCH   8   9
ENDBRANCH   7   8
ENDBRANCH   6   7
ENDBRANCH   5   6
ENDBRANCH   4   5
ENDBRANCH   3   4
ENDBRANCH   2   3
ENDBRANCH   1   2
BRANCH   1  12
ATOM     12  C   UNL     1       9.884  17.894  30.767  1.00  0.00     0.000 C 
BRANCH  12  13
ATOM     13  C   UNL     1       8.973  18.794  29.916  1.00  0.00    -0.000 C 
BRANCH  13  14
ATOM     14  C   UNL     1       8.356  19.955  30.717  1.00  0.00    -0.000 C 
BRANCH  14  15
ATOM     15  C   UNL     1       8.071  21.235  29.909  1.00  0.00    -0.000 C 
BRANCH  15  16
ATOM     16  C   UNL     1       8.058  22.502  30.777  1.00  0.00    -0.000 C 
BRANCH  16  17
ATOM     17  C   UNL     1       8.557  22.202  32.197  1.00  0.00    -0.000 C 
BRANCH  17  18
ATOM     18  C   UNL     1       9.189  23.426  32.880  1.00  0.00    -0.000 C 
BRANCH  18  19
ATOM     19  C   UNL     1      10.713  23.298  33.091  1.00  0.00    -0.003 C 
ATOM     20  C   UNL     1      11.250  21.937  32.650  1.00  0.00     0.004 C 
ENDBRANCH  18  19
ENDBRANCH  17  18
ENDBRANCH  16  17
ENDBRANCH  15  16
ENDBRANCH  14  15
ENDBRANCH  13  14
ENDBRANCH  12  13
ENDBRANCH   1  12
TORSDOF 16
ENDMDL
MODEL 6
REMARK VINA RESULT:    -4.920      3.136      6.109
REMARK INTER + INTRA:         -11.708
REMARK INTER:                  -9.379
REMARK INTRA:                  -2.329
REMARK UNBOUND:                -2.185
REMARK SMILES CCCCCCCCCCCCCCCCCC(=O)[O-]
REMARK SMILES IDX 10 1 11 2 12 3 13 4 14 5 15 6 16 7 17 8 18 9 19 10 20 11
REMARK SMILES IDX 9 12 8 13 7 14 6 15 5 16 4 17 3 18 2 19 1 20
REMARK H PARENT
REMARK Flexibility Score: inf
ROOT
ATOM      1  C   UNL     1      10.072  18.179  32.565  1.00  0.00     0.000 C 
ENDROOT
BRANCH   1   2
ATOM      2  C   UNL     1       9.946  17.480  31.199  1.00  0.00     0.000 C 
BRANCH   2   3
ATOM      3  C   UNL     1       9.367  18.397  30.106  1.00  0.00     0.000 C 
BRANCH   3   4
ATOM      4  C   UNL     1       8.619  19.609  30.702  1.00  0.00     0.000 C 
BRANCH   4   5
ATOM      5  C   UNL     1       8.062  20.571  29.639  1.00  0.00     0.000 C 
BRANCH   5   6
ATOM      6  C   UNL     1       8.055  22.036  30.106  1.00  0.00     0.000 C 
BRANCH   6   7
ATOM      7  C   UNL     1       8.411  22.188  31.595  1.00  0.00     0.006 C 
BRANCH   7   8
ATOM      8  C   UNL     1       9.886  22.534  31.862  1.00  0.00     0.053 C 
BRANCH   8   9
ATOM      9  C   UNL     1      10.109  24.013  31.944  1.00  0.00     0.041 C 
ATOM     10  O   UNL     1       9.388  24.722  32.694  1.00  0.00    -0.550 OA
ATOM     11  O   UNL     1      11.093  24.612  31.168  1.00  0.00    -0.550 OA
ENDBRANCH   8   9
ENDBRANCH   7   8
ENDBRANCH   6   7
ENDBRANCH   5   6
ENDBRANCH   4   5
ENDBRANCH   3   4
ENDBRANCH   2   3
ENDBRANCH   1   2
BRANCH   1  12
ATOM     12  C   UNL     1       9.525  17.379  33.762  1.00  0.00     0.000 C 
BRANCH  12  13
ATOM     13  C   UNL     1       8.368  18.093  34.480  1.00  0.00    -0.000 C 
BRANCH  13  14
ATOM     14  C   UNL     1       8.401  19.622  34.302  1.00  0.00    -0.000 C 
BRANCH  14  15
ATOM     15  C   UNL     1       8.986  20.411  35.489  1.00  0.00    -0.000 C 
BRANCH  15  16
ATOM     16  C   UNL     1      10.489  20.692  35.341  1.00  0.00    -0.000 C 
BRANCH  16  17
ATOM     17  C   UNL     1      11.320  19.686  36.149  1.00  0.00    -0.000 C 
BRANCH  17  18
ATOM     18  C   UNL     1      12.525  19.139  35.365  1.00  0.00    -0.000 C 
BRANCH  18  19
ATOM     19  C   UNL     1      12.722  17.616  35.518  1.00  0.00    -0.003 C 
ATOM     20  C   UNL     1      11.911  17.037  36.677  1.00  0.00     0.004 C 
ENDBRANCH  18  19
ENDBRANCH  17  18
ENDBRANCH  16  17
ENDBRANCH  15  16
ENDBRANCH  14  15
ENDBRANCH  13  14
ENDBRANCH  12  13
ENDBRANCH   1  12
TORSDOF 16
ENDMDL
MODEL 7
REMARK VINA RESULT:    -4.891      1.135      3.165
REMARK INTER + INTRA:         -11.651
REMARK INTER:                  -9.021
REMARK INTRA:                  -2.630
REMARK UNBOUND:                -2.185
REMARK SMILES CCCCCCCCCCCCCCCCCC(=O)[O-]
REMARK SMILES IDX 10 1 11 2 12 3 13 4 14 5 15 6 16 7 17 8 18 9 19 10 20 11
REMARK SMILES IDX 9 12 8 13 7 14 6 15 5 16 4 17 3 18 2 19 1 20
REMARK H PARENT
REMARK Flexibility Score: inf
ROOT
ATOM      1  C   UNL     1       8.614  19.666  30.310  1.00  0.00     0.000 C 
ENDROOT
BRANCH   1   2
ATOM      2  C   UNL     1       8.729  18.258  30.923  1.00  0.00     0.000 C 
BRANCH   2   3
ATOM      3  C   UNL     1      10.060  18.032  31.662  1.00  0.00     0.000 C 
BRANCH   3   4
ATOM      4  C   UNL     1       9.845  17.617  33.134  1.00  0.00     0.000 C 
BRANCH   4   5
ATOM      5  C   UNL     1       8.449  17.970  33.676  1.00  0.00     0.000 C 
BRANCH   5   6
ATOM      6  C   UNL     1       8.373  17.913  35.210  1.00  0.00     0.000 C 
BRANCH   6   7
ATOM      7  C   UNL     1       9.405  16.950  35.822  1.00  0.00     0.006 C 
BRANCH   7   8
ATOM      8  C   UNL     1      10.275  17.572  36.928  1.00  0.00     0.053 C 
BRANCH   8   9
ATOM      9  C   UNL     1      11.715  17.184  36.794  1.00  0.00     0.041 C 
ATOM     10  O   UNL     1      12.495  17.294  37.776  1.00  0.00    -0.550 OA
ATOM     11  O   UNL     1      12.202  16.729  35.576  1.00  0.00    -0.550 OA
ENDBRANCH   8   9
ENDBRANCH   7   8
ENDBRANCH   6   7
ENDBRANCH   5   6
ENDBRANCH   4   5
ENDBRANCH   3   4
ENDBRANCH   2   3
ENDBRANCH   1   2
BRANCH   1  12
ATOM     12  C   UNL     1       8.331  20.797  31.317  1.00  0.00     0.000 C 
BRANCH  12  13
ATOM     13  C   UNL     1       8.494  22.198  30.705  1.00  0.00    -0.000 C 
BRANCH  13  14
ATOM     14  C   UNL     1       8.994  23.243  31.718  1.00  0.00    -0.000 C 
BRANCH  14  15
ATOM     15  C   UNL     1      10.497  23.570  31.640  1.00  0.00    -0.000 C 
BRANCH  15  16
ATOM     16  C   UNL     1      11.281  23.086  32.870  1.00  0.00    -0.000 C 
BRANCH  16  17
ATOM     17  C   UNL     1      11.692  21.615  32.717  1.00  0.00    -0.000 C 
BRANCH  17  18
ATOM     18  C   UNL     1      11.254  20.746  33.908  1.00  0.00    -0.000 C 
BRANCH  18  19
ATOM     19  C   UNL     1       9.978  21.258  34.611  1.00  0.00    -0.003 C 
ATOM     20  C   UNL     1      10.106  21.239  36.134  1.00  0.00     0.004 C 
ENDBRANCH  18  19
ENDBRANCH  17  18
ENDBRANCH  16  17
ENDBRANCH  15  16
ENDBRANCH  14  15
ENDBRANCH  13  14
ENDBRANCH  12  13
ENDBRANCH   1  12
TORSDOF 16
ENDMDL
MODEL 8
REMARK VINA RESULT:    -4.870      3.512      4.981
REMARK INTER + INTRA:         -11.610
REMARK INTER:                  -8.885
REMARK INTRA:                  -2.725
REMARK UNBOUND:                -2.185
REMARK SMILES CCCCCCCCCCCCCCCCCC(=O)[O-]
REMARK SMILES IDX 10 1 11 2 12 3 13 4 14 5 15 6 16 7 17 8 18 9 19 10 20 11
REMARK SMILES IDX 9 12 8 13 7 14 6 15 5 16 4 17 3 18 2 19 1 20
REMARK H PARENT
REMARK Flexibility Score: inf
ROOT
ATOM      1  C   UNL     1       9.096  17.525  36.006  1.00  0.00     0.000 C 
ENDROOT
BRANCH   1   2
ATOM      2  C   UNL     1       7.884  18.458  36.178  1.00  0.00     0.000 C 
BRANCH   2   3
ATOM      3  C   UNL     1       8.082  19.501  37.292  1.00  0.00     0.000 C 
BRANCH   3   4
ATOM      4  C   UNL     1       9.546  19.558  37.780  1.00  0.00     0.000 C 
BRANCH   4   5
ATOM      5  C   UNL     1      10.082  20.990  37.954  1.00  0.00     0.000 C 
BRANCH   5   6
ATOM      6  C   UNL     1       9.172  22.049  37.312  1.00  0.00     0.000 C 
BRANCH   6   7
ATOM      7  C   UNL     1       9.907  23.373  37.030  1.00  0.00     0.006 C 
BRANCH   7   8
ATOM      8  C   UNL     1      10.772  23.879  38.196  1.00  0.00     0.053 C 
BRANCH   8   9
ATOM      9  C   UNL     1       9.939  24.326  39.358  1.00  0.00     0.041 C 
ATOM     10  O   UNL     1       9.043  25.195  39.199  1.00  0.00    -0.550 OA
ATOM     11  O   UNL     1      10.175  23.804  40.623  1.00  0.00    -0.550 OA
ENDBRANCH   8   9
ENDBRANCH   7   8
ENDBRANCH   6   7
ENDBRANCH   5   6
ENDBRANCH   4   5
ENDBRANCH   3   4
ENDBRANCH   2   3
ENDBRANCH   1   2
BRANCH   1  12
ATOM     12  C   UNL     1       9.327  17.009  34.574  1.00  0.00     0.000 C 
BRANCH  12  13
ATOM     13  C   UNL     1      10.718  17.368  34.025  1.00  0.00    -0.000 C 
BRANCH  13  14
ATOM     14  C   UNL     1      11.250  18.707  34.566  1.00  0.00    -0.000 C 
BRANCH  14  15
ATOM     15  C   UNL     1      11.232  19.877  33.563  1.00  0.00    -0.000 C 
BRANCH  15  16
ATOM     16  C   UNL     1      10.079  20.860  33.810  1.00  0.00    -0.000 C 
BRANCH  16  17
ATOM     17  C   UNL     1       8.794  20.387  33.116  1.00  0.00    -0.000 C 
BRANCH  17  18
ATOM     18  C   UNL     1       9.001  20.070  31.625  1.00  0.00    -0.000 C 
BRANCH  18  19
ATOM     19  C   UNL     1       8.677  18.608  31.253  1.00  0.00    -0.003 C 
ATOM     20  C   UNL     1       9.755  17.979  30.369  1.00  0.00     0.004 C 
ENDBRANCH  18  19
ENDBRANCH  17  18
ENDBRANCH  16  17
ENDBRANCH  15  16
ENDBRANCH  14  15
ENDBRANCH  13  14
ENDBRANCH  12  13
ENDBRANCH   1  12
TORSDOF 16
ENDMDL
MODEL 9
REMARK VINA RESULT:    -4.768      1.639      2.454
REMARK INTER + INTRA:         -11.414
REMARK INTER:                  -8.758
REMARK INTRA:                  -2.655
REMARK UNBOUND:                -2.185
REMARK SMILES CCCCCCCCCCCCCCCCCC(=O)[O-]
REMARK SMILES IDX 10 1 11 2 12 3 13 4 14 5 15 6 16 7 17 8 18 9 19 10 20 11
REMARK SMILES IDX 9 12 8 13 7 14 6 15 5 16 4 17 3 18 2 19 1 20
REMARK H PARENT
REMARK Flexibility Score: inf
ROOT
ATOM      1  C   UNL     1       9.723  17.884  30.663  1.00  0.00     0.000 C 
ENDROOT
BRANCH   1   2
ATOM      2  C   UNL     1      10.119  18.435  32.044  1.00  0.00     0.000 C 
BRANCH   2   3
ATOM      3  C   UNL     1       9.569  17.590  33.207  1.00  0.00     0.000 C 
BRANCH   3   4
ATOM      4  C   UNL     1       8.225  18.134  33.737  1.00  0.00     0.000 C 
BRANCH   4   5
ATOM      5  C   UNL     1       8.376  19.344  34.673  1.00  0.00     0.000 C 
BRANCH   5   6
ATOM      6  C   UNL     1       8.361  18.955  36.160  1.00  0.00     0.000 C 
BRANCH   6   7
ATOM      7  C   UNL     1       9.624  19.416  36.910  1.00  0.00     0.006 C 
BRANCH   7   8
ATOM      8  C   UNL     1      10.862  19.597  36.016  1.00  0.00     0.053 C 
BRANCH   8   9
ATOM      9  C   UNL     1      12.073  19.983  36.807  1.00  0.00     0.041 C 
ATOM     10  O   UNL     1      12.253  19.512  37.961  1.00  0.00    -0.550 OA
ATOM     11  O   UNL     1      12.988  20.886  36.283  1.00  0.00    -0.550 OA
ENDBRANCH   8   9
ENDBRANCH   7   8
ENDBRANCH   6   7
ENDBRANCH   5   6
ENDBRANCH   4   5
ENDBRANCH   3   4
ENDBRANCH   2   3
ENDBRANCH   1   2
BRANCH   1  12
ATOM     12  C   UNL     1       8.993  18.882  29.745  1.00  0.00     0.000 C 
BRANCH  12  13
ATOM     13  C   UNL     1       8.175  19.925  30.525  1.00  0.00    -0.000 C 
BRANCH  13  14
ATOM     14  C   UNL     1       8.224  21.326  29.889  1.00  0.00    -0.000 C 
BRANCH  14  15
ATOM     15  C   UNL     1       8.582  22.474  30.851  1.00  0.00    -0.000 C 
BRANCH  15  16
ATOM     16  C   UNL     1       8.730  22.012  32.308  1.00  0.00    -0.000 C 
BRANCH  16  17
ATOM     17  C   UNL     1      10.202  22.032  32.746  1.00  0.00    -0.000 C 
BRANCH  17  18
ATOM     18  C   UNL     1      10.412  22.725  34.103  1.00  0.00    -0.000 C 
BRANCH  18  19
ATOM     19  C   UNL     1       9.097  23.040  34.846  1.00  0.00    -0.003 C 
ATOM     20  C   UNL     1       9.253  22.959  36.365  1.00  0.00     0.004 C 
ENDBRANCH  18  19
ENDBRANCH  17  18
ENDBRANCH  16  17
ENDBRANCH  15  16
ENDBRANCH  14  15
ENDBRANCH  13  14
ENDBRANCH  12  13
ENDBRANCH   1  12
TORSDOF 16
ENDMDL
