MODEL 1
REMARK VINA RESULT:    -6.706      0.000      0.000
REMARK INTER + INTRA:          -8.175
REMARK INTER:                  -7.883
REMARK INTRA:                  -0.292
REMARK UNBOUND:                -0.292
REMARK SMILES O=c1cc(-c2ccc(O)c(O)c2)oc2cc(O)cc(O)c12
REMARK SMILES IDX 4 1 3 2 2 3 1 4 21 5 19 6 18 7 16 8 15 9 14 10 13 11 5 12
REMARK SMILES IDX 6 13 7 14 8 15 12 16 10 17 9 18 11 20 20 22 17 24
REMARK H PARENT 9 19 11 21 20 23 17 25
REMARK Flexibility Score: inf
ROOT
ATOM      1  C   UNL     1     128.879 134.763 125.400  1.00  0.00     0.138 A 
ATOM      2  C   UNL     1     128.963 134.963 126.785  1.00  0.00     0.100 A 
ATOM      3  C   UNL     1     129.701 134.074 127.568  1.00  0.00     0.197 A 
ATOM      4  O   UNL     1     129.803 134.312 128.799  1.00  0.00    -0.289 OA
ATOM      5  C   UNL     1     130.329 132.958 126.964  1.00  0.00     0.107 A 
ATOM      6  C   UNL     1     131.079 131.967 127.666  1.00  0.00     0.134 A 
ATOM      7  C   UNL     1     131.737 130.962 126.947  1.00  0.00     0.093 A 
ATOM      8  C   UNL     1     131.626 130.878 125.556  1.00  0.00     0.123 A 
ATOM      9  C   UNL     1     130.855 131.812 124.867  1.00  0.00     0.094 A 
ATOM     10  C   UNL     1     130.214 132.846 125.552  1.00  0.00     0.146 A 
ATOM     11  O   UNL     1     129.505 133.726 124.853  1.00  0.00    -0.456 OA
ENDROOT
BRANCH   1  12
ATOM     12  C   UNL     1     128.106 135.676 124.521  1.00  0.00     0.021 A 
ATOM     13  C   UNL     1     126.813 136.115 124.863  1.00  0.00     0.016 A 
ATOM     14  C   UNL     1     126.113 136.983 124.020  1.00  0.00     0.051 A 
ATOM     15  C   UNL     1     126.694 137.431 122.827  1.00  0.00     0.157 A 
ATOM     16  C   UNL     1     128.687 136.142 123.327  1.00  0.00     0.062 A 
ATOM     17  C   UNL     1     127.984 137.012 122.481  1.00  0.00     0.158 A 
BRANCH  15  18
ATOM     18  O   UNL     1     125.998 138.296 121.984  1.00  0.00    -0.504 OA
ATOM     19  H   UNL     1     126.393 138.611 121.105  1.00  0.00     0.293 HD
ENDBRANCH  15  18
BRANCH  17  20
ATOM     20  O   UNL     1     128.561 137.462 121.295  1.00  0.00    -0.504 OA
ATOM     21  H   UNL     1     129.062 138.342 121.249  1.00  0.00     0.293 HD
ENDBRANCH  17  20
ENDBRANCH   1  12
BRANCH   6  22
ATOM     22  O   UNL     1     131.191 131.909 129.059  1.00  0.00    -0.507 OA
ATOM     23  H   UNL     1     130.744 132.544 129.702  1.00  0.00     0.293 HD
ENDBRANCH   6  22
BRANCH   8  24
ATOM     24  O   UNL     1     132.273 129.867 124.851  1.00  0.00    -0.508 OA
ATOM     25  H   UNL     1     132.168 128.891 125.106  1.00  0.00     0.293 HD
ENDBRANCH   8  24
TORSDOF 5
ENDMDL
MODEL 2
REMARK VINA RESULT:    -6.693      6.703      9.328
REMARK INTER + INTRA:          -8.159
REMARK INTER:                  -7.878
REMARK INTRA:                  -0.281
REMARK UNBOUND:                -0.292
REMARK SMILES O=c1cc(-c2ccc(O)c(O)c2)oc2cc(O)cc(O)c12
REMARK SMILES IDX 4 1 3 2 2 3 1 4 21 5 19 6 18 7 16 8 15 9 14 10 13 11 5 12
REMARK SMILES IDX 6 13 7 14 8 15 12 16 10 17 9 18 11 20 20 22 17 24
REMARK H PARENT 9 19 11 21 20 23 17 25
REMARK Flexibility Score: inf
ROOT
ATOM      1  C   UNL     1     129.300 125.667 125.314  1.00  0.00     0.138 A 
ATOM      2  C   UNL     1     129.110 124.843 126.433  1.00  0.00     0.100 A 
ATOM      3  C   UNL     1     129.747 123.603 126.493  1.00  0.00     0.197 A 
ATOM      4  O   UNL     1     129.600 122.912 127.534  1.00  0.00    -0.289 OA
ATOM      5  C   UNL     1     130.551 123.171 125.411  1.00  0.00     0.107 A 
ATOM      6  C   UNL     1     131.222 121.912 125.347  1.00  0.00     0.134 A 
ATOM      7  C   UNL     1     132.070 121.637 124.268  1.00  0.00     0.093 A 
ATOM      8  C   UNL     1     132.227 122.550 123.221  1.00  0.00     0.123 A 
ATOM      9  C   UNL     1     131.537 123.760 123.251  1.00  0.00     0.094 A 
ATOM     10  C   UNL     1     130.711 124.078 124.330  1.00  0.00     0.146 A 
ATOM     11  O   UNL     1     130.086 125.252 124.326  1.00  0.00    -0.456 OA
ENDROOT
BRANCH   1  12
ATOM     12  C   UNL     1     128.645 126.994 125.196  1.00  0.00     0.021 A 
ATOM     13  C   UNL     1     128.160 127.474 123.965  1.00  0.00     0.016 A 
ATOM     14  C   UNL     1     127.538 128.724 123.887  1.00  0.00     0.051 A 
ATOM     15  C   UNL     1     127.383 129.509 125.036  1.00  0.00     0.157 A 
ATOM     16  C   UNL     1     128.473 127.784 126.348  1.00  0.00     0.062 A 
ATOM     17  C   UNL     1     127.850 129.038 126.269  1.00  0.00     0.158 A 
BRANCH  15  18
ATOM     18  O   UNL     1     126.764 130.756 124.961  1.00  0.00    -0.504 OA
ATOM     19  H   UNL     1     125.996 130.929 124.323  1.00  0.00     0.293 HD
ENDBRANCH  15  18
BRANCH  17  20
ATOM     20  O   UNL     1     127.692 129.820 127.411  1.00  0.00    -0.504 OA
ATOM     21  H   UNL     1     127.757 130.831 127.375  1.00  0.00     0.293 HD
ENDBRANCH  17  20
ENDBRANCH   1  12
BRANCH   6  22
ATOM     22  O   UNL     1     131.075 120.896 126.297  1.00  0.00    -0.507 OA
ATOM     23  H   UNL     1     130.283 120.788 126.911  1.00  0.00     0.293 HD
ENDBRANCH   6  22
BRANCH   8  24
ATOM     24  O   UNL     1     133.061 122.261 122.144  1.00  0.00    -0.508 OA
ATOM     25  H   UNL     1     133.005 121.376 121.653  1.00  0.00     0.293 HD
ENDBRANCH   8  24
TORSDOF 5
ENDMDL
MODEL 3
REMARK VINA RESULT:    -6.671      1.703      6.837
REMARK INTER + INTRA:          -8.133
REMARK INTER:                  -7.851
REMARK INTRA:                  -0.282
REMARK UNBOUND:                -0.292
REMARK SMILES O=c1cc(-c2ccc(O)c(O)c2)oc2cc(O)cc(O)c12
REMARK SMILES IDX 4 1 3 2 2 3 1 4 21 5 19 6 18 7 16 8 15 9 14 10 13 11 5 12
REMARK SMILES IDX 6 13 7 14 8 15 12 16 10 17 9 18 11 20 20 22 17 24
REMARK H PARENT 9 19 11 21 20 23 17 25
REMARK Flexibility Score: inf
ROOT
ATOM      1  C   UNL     1     129.840 133.346 125.302  1.00  0.00     0.138 A 
ATOM      2  C   UNL     1     130.045 134.165 126.421  1.00  0.00     0.100 A 
ATOM      3  C   UNL     1     129.393 135.396 126.504  1.00  0.00     0.197 A 
ATOM      4  O   UNL     1     129.554 136.083 127.546  1.00  0.00    -0.289 OA
ATOM      5  C   UNL     1     128.558 135.824 125.443  1.00  0.00     0.107 A 
ATOM      6  C   UNL     1     127.869 137.074 125.403  1.00  0.00     0.134 A 
ATOM      7  C   UNL     1     126.993 137.344 124.345  1.00  0.00     0.093 A 
ATOM      8  C   UNL     1     126.824 136.435 123.297  1.00  0.00     0.123 A 
ATOM      9  C   UNL     1     127.531 135.234 123.303  1.00  0.00     0.094 A 
ATOM     10  C   UNL     1     128.386 134.921 124.361  1.00  0.00     0.146 A 
ATOM     11  O   UNL     1     129.026 133.756 124.335  1.00  0.00    -0.456 OA
ENDROOT
BRANCH   1  12
ATOM     12  C   UNL     1     130.510 132.029 125.161  1.00  0.00     0.021 A 
ATOM     13  C   UNL     1     130.953 131.552 123.912  1.00  0.00     0.016 A 
ATOM     14  C   UNL     1     131.591 130.312 123.812  1.00  0.00     0.051 A 
ATOM     15  C   UNL     1     131.803 129.533 124.955  1.00  0.00     0.157 A 
ATOM     16  C   UNL     1     130.740 131.244 126.306  1.00  0.00     0.062 A 
ATOM     17  C   UNL     1     131.379 130.000 126.205  1.00  0.00     0.158 A 
BRANCH  15  18
ATOM     18  O   UNL     1     132.437 128.295 124.858  1.00  0.00    -0.504 OA
ATOM     19  H   UNL     1     133.097 128.095 124.116  1.00  0.00     0.293 HD
ENDBRANCH  15  18
BRANCH  17  20
ATOM     20  O   UNL     1     131.594 129.222 127.341  1.00  0.00    -0.504 OA
ATOM     21  H   UNL     1     130.823 128.838 127.875  1.00  0.00     0.293 HD
ENDBRANCH  17  20
ENDBRANCH   1  12
BRANCH   6  22
ATOM     22  O   UNL     1     128.024 138.086 126.356  1.00  0.00    -0.507 OA
ATOM     23  H   UNL     1     127.849 137.984 127.343  1.00  0.00     0.293 HD
ENDBRANCH   6  22
BRANCH   8  24
ATOM     24  O   UNL     1     125.961 136.719 122.241  1.00  0.00    -0.508 OA
ATOM     25  H   UNL     1     126.289 136.750 121.282  1.00  0.00     0.293 HD
ENDBRANCH   8  24
TORSDOF 5
ENDMDL
MODEL 4
REMARK VINA RESULT:    -6.533      7.087     11.243
REMARK INTER + INTRA:          -7.970
REMARK INTER:                  -7.677
REMARK INTRA:                  -0.293
REMARK UNBOUND:                -0.292
REMARK SMILES O=c1cc(-c2ccc(O)c(O)c2)oc2cc(O)cc(O)c12
REMARK SMILES IDX 4 1 3 2 2 3 1 4 21 5 19 6 18 7 16 8 15 9 14 10 13 11 5 12
REMARK SMILES IDX 6 13 7 14 8 15 12 16 10 17 9 18 11 20 20 22 17 24
REMARK H PARENT 9 19 11 21 20 23 17 25
REMARK Flexibility Score: inf
ROOT
ATOM      1  C   UNL     1     130.192 124.366 125.388  1.00  0.00     0.138 A 
ATOM      2  C   UNL     1     130.091 124.170 126.773  1.00  0.00     0.100 A 
ATOM      3  C   UNL     1     129.369 125.078 127.548  1.00  0.00     0.197 A 
ATOM      4  O   UNL     1     129.250 124.844 128.779  1.00  0.00    -0.289 OA
ATOM      5  C   UNL     1     128.773 126.208 126.937  1.00  0.00     0.107 A 
ATOM      6  C   UNL     1     128.042 127.218 127.632  1.00  0.00     0.134 A 
ATOM      7  C   UNL     1     127.414 128.238 126.905  1.00  0.00     0.093 A 
ATOM      8  C   UNL     1     127.540 128.317 125.515  1.00  0.00     0.123 A 
ATOM      9  C   UNL     1     128.293 127.364 124.834  1.00  0.00     0.094 A 
ATOM     10  C   UNL     1     128.903 126.315 125.527  1.00  0.00     0.146 A 
ATOM     11  O   UNL     1     129.597 125.417 124.835  1.00  0.00    -0.456 OA
ENDROOT
BRANCH   1  12
ATOM     12  C   UNL     1     130.951 123.433 124.517  1.00  0.00     0.021 A 
ATOM     13  C   UNL     1     132.212 122.931 124.890  1.00  0.00     0.016 A 
ATOM     14  C   UNL     1     132.898 122.046 124.053  1.00  0.00     0.051 A 
ATOM     15  C   UNL     1     132.334 121.643 122.837  1.00  0.00     0.157 A 
ATOM     16  C   UNL     1     130.386 123.012 123.300  1.00  0.00     0.062 A 
ATOM     17  C   UNL     1     131.075 122.125 122.460  1.00  0.00     0.158 A 
BRANCH  15  18
ATOM     18  O   UNL     1     133.016 120.761 122.000  1.00  0.00    -0.504 OA
ATOM     19  H   UNL     1     132.974 120.848 120.991  1.00  0.00     0.293 HD
ENDBRANCH  15  18
BRANCH  17  20
ATOM     20  O   UNL     1     130.515 121.719 121.250  1.00  0.00    -0.504 OA
ATOM     21  H   UNL     1     130.249 122.388 120.537  1.00  0.00     0.293 HD
ENDBRANCH  17  20
ENDBRANCH   1  12
BRANCH   6  22
ATOM     22  O   UNL     1     127.919 127.281 129.023  1.00  0.00    -0.507 OA
ATOM     23  H   UNL     1     127.057 127.171 129.534  1.00  0.00     0.293 HD
ENDBRANCH   6  22
BRANCH   8  24
ATOM     24  O   UNL     1     126.924 129.343 124.803  1.00  0.00    -0.508 OA
ATOM     25  H   UNL     1     126.002 129.228 124.399  1.00  0.00     0.293 HD
ENDBRANCH   8  24
TORSDOF 5
ENDMDL
MODEL 5
REMARK VINA RESULT:    -6.455      3.070      4.307
REMARK INTER + INTRA:          -7.878
REMARK INTER:                  -7.613
REMARK INTRA:                  -0.266
REMARK UNBOUND:                -0.292
REMARK SMILES O=c1cc(-c2ccc(O)c(O)c2)oc2cc(O)cc(O)c12
REMARK SMILES IDX 4 1 3 2 2 3 1 4 21 5 19 6 18 7 16 8 15 9 14 10 13 11 5 12
REMARK SMILES IDX 6 13 7 14 8 15 12 16 10 17 9 18 11 20 20 22 17 24
REMARK H PARENT 9 19 11 21 20 23 17 25
REMARK Flexibility Score: inf
ROOT
ATOM      1  C   UNL     1     130.707 133.912 126.597  1.00  0.00     0.138 A 
ATOM      2  C   UNL     1     130.111 132.644 126.666  1.00  0.00     0.100 A 
ATOM      3  C   UNL     1     130.857 131.512 126.335  1.00  0.00     0.197 A 
ATOM      4  O   UNL     1     130.311 130.385 126.460  1.00  0.00    -0.289 OA
ATOM      5  C   UNL     1     132.196 131.654 125.898  1.00  0.00     0.107 A 
ATOM      6  C   UNL     1     133.042 130.574 125.502  1.00  0.00     0.134 A 
ATOM      7  C   UNL     1     134.381 130.829 125.183  1.00  0.00     0.093 A 
ATOM      8  C   UNL     1     134.891 132.130 125.189  1.00  0.00     0.123 A 
ATOM      9  C   UNL     1     134.059 133.196 125.526  1.00  0.00     0.094 A 
ATOM     10  C   UNL     1     132.728 132.971 125.882  1.00  0.00     0.146 A 
ATOM     11  O   UNL     1     131.975 134.015 126.215  1.00  0.00    -0.456 OA
ENDROOT
BRANCH   1  12
ATOM     12  C   UNL     1     129.959 135.149 126.934  1.00  0.00     0.021 A 
ATOM     13  C   UNL     1     129.777 136.184 125.997  1.00  0.00     0.016 A 
ATOM     14  C   UNL     1     129.059 137.333 126.341  1.00  0.00     0.051 A 
ATOM     15  C   UNL     1     128.507 137.465 127.621  1.00  0.00     0.157 A 
ATOM     16  C   UNL     1     129.389 135.284 128.213  1.00  0.00     0.062 A 
ATOM     17  C   UNL     1     128.670 136.438 128.558  1.00  0.00     0.158 A 
BRANCH  15  18
ATOM     18  O   UNL     1     127.792 138.610 127.967  1.00  0.00    -0.504 OA
ATOM     19  H   UNL     1     127.122 139.029 127.332  1.00  0.00     0.293 HD
ENDBRANCH  15  18
BRANCH  17  20
ATOM     20  O   UNL     1     128.116 136.570 129.830  1.00  0.00    -0.504 OA
ATOM     21  H   UNL     1     127.947 135.765 130.422  1.00  0.00     0.293 HD
ENDBRANCH  17  20
ENDBRANCH   1  12
BRANCH   6  22
ATOM     22  O   UNL     1     132.616 129.247 125.384  1.00  0.00    -0.507 OA
ATOM     23  H   UNL     1     132.045 128.761 126.057  1.00  0.00     0.293 HD
ENDBRANCH   6  22
BRANCH   8  24
ATOM     24  O   UNL     1     136.221 132.375 124.856  1.00  0.00    -0.508 OA
ATOM     25  H   UNL     1     136.473 133.051 124.144  1.00  0.00     0.293 HD
ENDBRANCH   8  24
TORSDOF 5
ENDMDL
MODEL 6
REMARK VINA RESULT:    -6.453      8.167      9.611
REMARK INTER + INTRA:          -7.876
REMARK INTER:                  -7.606
REMARK INTRA:                  -0.271
REMARK UNBOUND:                -0.292
REMARK SMILES O=c1cc(-c2ccc(O)c(O)c2)oc2cc(O)cc(O)c12
REMARK SMILES IDX 4 1 3 2 2 3 1 4 21 5 19 6 18 7 16 8 15 9 14 10 13 11 5 12
REMARK SMILES IDX 6 13 7 14 8 15 12 16 10 17 9 18 11 20 20 22 17 24
REMARK H PARENT 9 19 11 21 20 23 17 25
REMARK Flexibility Score: inf
ROOT
ATOM      1  C   UNL     1     126.749 126.095 125.618  1.00  0.00     0.138 A 
ATOM      2  C   UNL     1     127.592 126.914 124.854  1.00  0.00     0.100 A 
ATOM      3  C   UNL     1     128.963 126.656 124.822  1.00  0.00     0.197 A 
ATOM      4  O   UNL     1     129.685 127.375 124.083  1.00  0.00    -0.289 OA
ATOM      5  C   UNL     1     129.498 125.592 125.590  1.00  0.00     0.107 A 
ATOM      6  C   UNL     1     130.883 125.256 125.662  1.00  0.00     0.134 A 
ATOM      7  C   UNL     1     131.281 124.120 126.377  1.00  0.00     0.093 A 
ATOM      8  C   UNL     1     130.350 123.341 127.070  1.00  0.00     0.123 A 
ATOM      9  C   UNL     1     129.002 123.690 127.046  1.00  0.00     0.094 A 
ATOM     10  C   UNL     1     128.569 124.798 126.314  1.00  0.00     0.146 A 
ATOM     11  O   UNL     1     127.271 125.084 126.304  1.00  0.00    -0.456 OA
ENDROOT
BRANCH   1  12
ATOM     12  C   UNL     1     125.285 126.327 125.690  1.00  0.00     0.021 A 
ATOM     13  C   UNL     1     124.742 127.438 126.363  1.00  0.00     0.016 A 
ATOM     14  C   UNL     1     123.359 127.635 126.404  1.00  0.00     0.051 A 
ATOM     15  C   UNL     1     122.497 126.732 125.770  1.00  0.00     0.157 A 
ATOM     16  C   UNL     1     124.412 125.432 125.044  1.00  0.00     0.062 A 
ATOM     17  C   UNL     1     123.024 125.630 125.087  1.00  0.00     0.158 A 
BRANCH  15  18
ATOM     18  O   UNL     1     121.117 126.925 125.811  1.00  0.00    -0.504 OA
ATOM     19  H   UNL     1     120.668 127.373 126.601  1.00  0.00     0.293 HD
ENDBRANCH  15  18
BRANCH  17  20
ATOM     20  O   UNL     1     122.164 124.734 124.455  1.00  0.00    -0.504 OA
ATOM     21  H   UNL     1     122.002 124.771 123.455  1.00  0.00     0.293 HD
ENDBRANCH  17  20
ENDBRANCH   1  12
BRANCH   6  22
ATOM     22  O   UNL     1     131.904 126.010 125.074  1.00  0.00    -0.507 OA
ATOM     23  H   UNL     1     131.804 126.572 124.244  1.00  0.00     0.293 HD
ENDBRANCH   6  22
BRANCH   8  24
ATOM     24  O   UNL     1     130.757 122.221 127.791  1.00  0.00    -0.508 OA
ATOM     25  H   UNL     1     130.432 121.291 127.553  1.00  0.00     0.293 HD
ENDBRANCH   8  24
TORSDOF 5
ENDMDL
MODEL 7
REMARK VINA RESULT:    -6.391      4.200      7.279
REMARK INTER + INTRA:          -7.803
REMARK INTER:                  -7.538
REMARK INTRA:                  -0.265
REMARK UNBOUND:                -0.292
REMARK SMILES O=c1cc(-c2ccc(O)c(O)c2)oc2cc(O)cc(O)c12
REMARK SMILES IDX 4 1 3 2 2 3 1 4 21 5 19 6 18 7 16 8 15 9 14 10 13 11 5 12
REMARK SMILES IDX 6 13 7 14 8 15 12 16 10 17 9 18 11 20 20 22 17 24
REMARK H PARENT 9 19 11 21 20 23 17 25
REMARK Flexibility Score: inf
ROOT
ATOM      1  C   UNL     1     126.908 132.215 123.383  1.00  0.00     0.138 A 
ATOM      2  C   UNL     1     127.481 132.543 122.146  1.00  0.00     0.100 A 
ATOM      3  C   UNL     1     127.960 133.835 121.927  1.00  0.00     0.197 A 
ATOM      4  O   UNL     1     128.518 134.082 120.827  1.00  0.00    -0.289 OA
ATOM      5  C   UNL     1     127.832 134.815 122.941  1.00  0.00     0.107 A 
ATOM      6  C   UNL     1     128.253 136.173 122.819  1.00  0.00     0.134 A 
ATOM      7  C   UNL     1     128.165 137.025 123.927  1.00  0.00     0.093 A 
ATOM      8  C   UNL     1     127.617 136.584 125.135  1.00  0.00     0.123 A 
ATOM      9  C   UNL     1     127.158 135.274 125.248  1.00  0.00     0.094 A 
ATOM     10  C   UNL     1     127.264 134.390 124.172  1.00  0.00     0.146 A 
ATOM     11  O   UNL     1     126.829 133.144 124.330  1.00  0.00    -0.456 OA
ENDROOT
BRANCH   1  12
ATOM     12  C   UNL     1     126.380 130.857 123.668  1.00  0.00     0.021 A 
ATOM     13  C   UNL     1     125.028 130.642 123.998  1.00  0.00     0.016 A 
ATOM     14  C   UNL     1     124.558 129.350 124.251  1.00  0.00     0.051 A 
ATOM     15  C   UNL     1     125.426 128.254 124.173  1.00  0.00     0.157 A 
ATOM     16  C   UNL     1     127.241 129.749 123.579  1.00  0.00     0.062 A 
ATOM     17  C   UNL     1     126.769 128.453 123.835  1.00  0.00     0.158 A 
BRANCH  15  18
ATOM     18  O   UNL     1     124.960 126.965 124.427  1.00  0.00    -0.504 OA
ATOM     19  H   UNL     1     125.260 126.174 123.869  1.00  0.00     0.293 HD
ENDBRANCH  15  18
BRANCH  17  20
ATOM     20  O   UNL     1     127.630 127.360 123.755  1.00  0.00    -0.504 OA
ATOM     21  H   UNL     1     128.518 127.418 123.270  1.00  0.00     0.293 HD
ENDBRANCH  17  20
ENDBRANCH   1  12
BRANCH   6  22
ATOM     22  O   UNL     1     128.741 136.739 121.637  1.00  0.00    -0.507 OA
ATOM     23  H   UNL     1     128.574 137.686 121.336  1.00  0.00     0.293 HD
ENDBRANCH   6  22
BRANCH   8  24
ATOM     24  O   UNL     1     127.520 137.443 126.226  1.00  0.00    -0.508 OA
ATOM     25  H   UNL     1     128.048 137.282 127.076  1.00  0.00     0.293 HD
ENDBRANCH   8  24
TORSDOF 5
ENDMDL
MODEL 8
REMARK VINA RESULT:    -6.363      3.335      7.285
REMARK INTER + INTRA:          -7.770
REMARK INTER:                  -7.502
REMARK INTRA:                  -0.268
REMARK UNBOUND:                -0.292
REMARK SMILES O=c1cc(-c2ccc(O)c(O)c2)oc2cc(O)cc(O)c12
REMARK SMILES IDX 4 1 3 2 2 3 1 4 21 5 19 6 18 7 16 8 15 9 14 10 13 11 5 12
REMARK SMILES IDX 6 13 7 14 8 15 12 16 10 17 9 18 11 20 20 22 17 24
REMARK H PARENT 9 19 11 21 20 23 17 25
REMARK Flexibility Score: inf
ROOT
ATOM      1  C   UNL     1     132.542 132.940 125.730  1.00  0.00     0.138 A 
ATOM      2  C   UNL     1     131.688 132.151 124.947  1.00  0.00     0.100 A 
ATOM      3  C   UNL     1     130.318 132.414 124.940  1.00  0.00     0.197 A 
ATOM      4  O   UNL     1     129.585 131.724 124.185  1.00  0.00    -0.289 OA
ATOM      5  C   UNL     1     129.795 133.451 125.751  1.00  0.00     0.107 A 
ATOM      6  C   UNL     1     128.412 133.788 125.851  1.00  0.00     0.134 A 
ATOM      7  C   UNL     1     128.026 134.900 126.610  1.00  0.00     0.093 A 
ATOM      8  C   UNL     1     128.967 135.651 127.320  1.00  0.00     0.123 A 
ATOM      9  C   UNL     1     130.313 135.299 127.268  1.00  0.00     0.094 A 
ATOM     10  C   UNL     1     130.734 134.217 126.492  1.00  0.00     0.146 A 
ATOM     11  O   UNL     1     132.031 133.928 126.457  1.00  0.00    -0.456 OA
ENDROOT
BRANCH   1  12
ATOM     12  C   UNL     1     134.007 132.702 125.777  1.00  0.00     0.021 A 
ATOM     13  C   UNL     1     134.559 131.618 126.484  1.00  0.00     0.016 A 
ATOM     14  C   UNL     1     135.942 131.413 126.501  1.00  0.00     0.051 A 
ATOM     15  C   UNL     1     136.793 132.283 125.808  1.00  0.00     0.157 A 
ATOM     16  C   UNL     1     134.869 133.563 125.073  1.00  0.00     0.062 A 
ATOM     17  C   UNL     1     136.256 133.358 125.091  1.00  0.00     0.158 A 
BRANCH  15  18
ATOM     18  O   UNL     1     138.173 132.082 125.825  1.00  0.00    -0.504 OA
ATOM     19  H   UNL     1     138.745 132.398 126.599  1.00  0.00     0.293 HD
ENDBRANCH  15  18
BRANCH  17  20
ATOM     20  O   UNL     1     137.106 134.220 124.400  1.00  0.00    -0.504 OA
ATOM     21  H   UNL     1     137.325 135.144 124.753  1.00  0.00     0.293 HD
ENDBRANCH  17  20
ENDBRANCH   1  12
BRANCH   6  22
ATOM     22  O   UNL     1     127.382 133.059 125.248  1.00  0.00    -0.507 OA
ATOM     23  H   UNL     1     127.052 132.158 125.557  1.00  0.00     0.293 HD
ENDBRANCH   6  22
BRANCH   8  24
ATOM     24  O   UNL     1     128.571 136.746 128.085  1.00  0.00    -0.508 OA
ATOM     25  H   UNL     1     128.525 136.697 129.096  1.00  0.00     0.293 HD
ENDBRANCH   8  24
TORSDOF 5
ENDMDL
MODEL 9
REMARK VINA RESULT:    -6.209      6.715      9.846
REMARK INTER + INTRA:          -7.589
REMARK INTER:                  -7.281
REMARK INTRA:                  -0.308
REMARK UNBOUND:                -0.292
REMARK SMILES O=c1cc(-c2ccc(O)c(O)c2)oc2cc(O)cc(O)c12
REMARK SMILES IDX 4 1 3 2 2 3 1 4 21 5 19 6 18 7 16 8 15 9 14 10 13 11 5 12
REMARK SMILES IDX 6 13 7 14 8 15 12 16 10 17 9 18 11 20 20 22 17 24
REMARK H PARENT 9 19 11 21 20 23 17 25
REMARK Flexibility Score: inf
ROOT
ATOM      1  C   UNL     1     129.867 125.812 125.784  1.00  0.00     0.138 A 
ATOM      2  C   UNL     1     130.207 125.469 124.468  1.00  0.00     0.100 A 
ATOM      3  C   UNL     1     130.594 124.161 124.173  1.00  0.00     0.197 A 
ATOM      4  O   UNL     1     130.840 123.872 122.973  1.00  0.00    -0.289 OA
ATOM      5  C   UNL     1     130.675 123.200 125.209  1.00  0.00     0.107 A 
ATOM      6  C   UNL     1     131.090 121.845 125.032  1.00  0.00     0.134 A 
ATOM      7  C   UNL     1     131.034 120.960 126.116  1.00  0.00     0.093 A 
ATOM      8  C   UNL     1     130.635 121.394 127.383  1.00  0.00     0.123 A 
ATOM      9  C   UNL     1     130.276 122.726 127.576  1.00  0.00     0.094 A 
ATOM     10  C   UNL     1     130.288 123.625 126.508  1.00  0.00     0.146 A 
ATOM     11  O   UNL     1     129.920 124.883 126.733  1.00  0.00    -0.456 OA
ENDROOT
BRANCH   1  12
ATOM     12  C   UNL     1     129.452 127.188 126.154  1.00  0.00     0.021 A 
ATOM     13  C   UNL     1     129.871 128.312 125.418  1.00  0.00     0.016 A 
ATOM     14  C   UNL     1     129.455 129.595 125.784  1.00  0.00     0.051 A 
ATOM     15  C   UNL     1     128.609 129.776 126.885  1.00  0.00     0.157 A 
ATOM     16  C   UNL     1     128.591 127.379 127.250  1.00  0.00     0.062 A 
ATOM     17  C   UNL     1     128.175 128.666 127.618  1.00  0.00     0.158 A 
BRANCH  15  18
ATOM     18  O   UNL     1     128.194 131.055 127.254  1.00  0.00    -0.504 OA
ATOM     19  H   UNL     1     127.426 131.197 127.900  1.00  0.00     0.293 HD
ENDBRANCH  15  18
BRANCH  17  20
ATOM     20  O   UNL     1     127.330 128.849 128.712  1.00  0.00    -0.504 OA
ATOM     21  H   UNL     1     126.722 128.109 129.043  1.00  0.00     0.293 HD
ENDBRANCH  17  20
ENDBRANCH   1  12
BRANCH   6  22
ATOM     22  O   UNL     1     131.581 121.326 123.831  1.00  0.00    -0.507 OA
ATOM     23  H   UNL     1     131.967 121.874 123.078  1.00  0.00     0.293 HD
ENDBRANCH   6  22
BRANCH   8  24
ATOM     24  O   UNL     1     130.597 120.510 128.459  1.00  0.00    -0.508 OA
ATOM     25  H   UNL     1     129.983 119.704 128.461  1.00  0.00     0.293 HD
ENDBRANCH   8  24
TORSDOF 5
ENDMDL
