MODEL 1
REMARK VINA RESULT:    -4.432      0.000      0.000
REMARK INTER + INTRA:         -16.687
REMARK INTER:                 -11.687
REMARK INTRA:                  -5.000
REMARK UNBOUND:                -5.000
REMARK SMILES CCCCCCCCCCCCCCCCCCCCCCCCCCCCCC(=O)[O-]
REMARK SMILES IDX 16 1 17 2 18 3 19 4 20 5 21 6 22 7 23 8 24 9 25 10 26 11
REMARK SMILES IDX 27 12 28 13 29 14 30 15 31 16 32 17 15 18 14 19 13 20 12 21
REMARK SMILES IDX 11 22 10 23 9 24 8 25 7 26 6 27 5 28 4 29 3 30 2 31 1 32
REMARK H PARENT
REMARK Flexibility Score: inf
ROOT
ATOM      1  C   UNL     1      10.117  15.085  22.249  1.00  0.00     0.000 C 
ENDROOT
BRANCH   1   2
ATOM      2  C   UNL     1      10.618  15.649  23.591  1.00  0.00     0.000 C 
BRANCH   2   3
ATOM      3  C   UNL     1      11.659  14.743  24.271  1.00  0.00     0.000 C 
BRANCH   3   4
ATOM      4  C   UNL     1      12.929  15.515  24.670  1.00  0.00     0.000 C 
BRANCH   4   5
ATOM      5  C   UNL     1      12.639  16.642  25.677  1.00  0.00     0.000 C 
BRANCH   5   6
ATOM      6  C   UNL     1      13.251  17.984  25.246  1.00  0.00     0.000 C 
BRANCH   6   7
ATOM      7  C   UNL     1      12.244  19.143  25.367  1.00  0.00     0.000 C 
BRANCH   7   8
ATOM      8  C   UNL     1      11.489  19.427  24.055  1.00  0.00     0.000 C 
BRANCH   8   9
ATOM      9  C   UNL     1      12.372  19.486  22.796  1.00  0.00     0.000 C 
BRANCH   9  10
ATOM     10  C   UNL     1      12.002  18.416  21.752  1.00  0.00     0.000 C 
BRANCH  10  11
ATOM     11  C   UNL     1      13.147  17.425  21.495  1.00  0.00     0.000 C 
BRANCH  11  12
ATOM     12  C   UNL     1      13.696  17.517  20.059  1.00  0.00     0.000 C 
BRANCH  12  13
ATOM     13  C   UNL     1      15.177  17.935  20.014  1.00  0.00     0.006 C 
BRANCH  13  14
ATOM     14  C   UNL     1      15.480  19.269  20.714  1.00  0.00     0.053 C 
BRANCH  14  15
ATOM     15  C   UNL     1      15.117  20.450  19.865  1.00  0.00     0.041 C 
ATOM     16  O   UNL     1      15.840  20.780  18.889  1.00  0.00    -0.550 OA
ATOM     17  O   UNL     1      13.968  21.181  20.147  1.00  0.00    -0.550 OA
ENDBRANCH  14  15
ENDBRANCH  13  14
ENDBRANCH  12  13
ENDBRANCH  11  12
ENDBRANCH  10  11
ENDBRANCH   9  10
ENDBRANCH   8   9
ENDBRANCH   7   8
ENDBRANCH   6   7
ENDBRANCH   5   6
ENDBRANCH   4   5
ENDBRANCH   3   4
ENDBRANCH   2   3
ENDBRANCH   1   2
BRANCH   1  18
ATOM     18  C   UNL     1       9.172  13.873  22.357  1.00  0.00     0.000 C 
BRANCH  18  19
ATOM     19  C   UNL     1       7.686  14.270  22.407  1.00  0.00     0.000 C 
BRANCH  19  20
ATOM     20  C   UNL     1       6.852  13.310  23.276  1.00  0.00     0.000 C 
BRANCH  20  21
ATOM     21  C   UNL     1       6.436  12.011  22.558  1.00  0.00     0.000 C 
BRANCH  21  22
ATOM     22  C   UNL     1       7.315  10.810  22.948  1.00  0.00     0.000 C 
BRANCH  22  23
ATOM     23  C   UNL     1       7.936  10.108  21.730  1.00  0.00     0.000 C 
BRANCH  23  24
ATOM     24  C   UNL     1       8.079  11.042  20.516  1.00  0.00    -0.000 C 
BRANCH  24  25
ATOM     25  C   UNL     1       9.305  10.713  19.648  1.00  0.00    -0.000 C 
BRANCH  25  26
ATOM     26  C   UNL     1      10.550  11.560  19.987  1.00  0.00    -0.000 C 
BRANCH  26  27
ATOM     27  C   UNL     1      11.477  10.857  20.994  1.00  0.00    -0.000 C 
BRANCH  27  28
ATOM     28  C   UNL     1      11.988  11.802  22.092  1.00  0.00    -0.000 C 
BRANCH  28  29
ATOM     29  C   UNL     1      13.446  12.236  21.871  1.00  0.00    -0.000 C 
BRANCH  29  30
ATOM     30  C   UNL     1      13.564  13.682  21.354  1.00  0.00    -0.000 C 
BRANCH  30  31
ATOM     31  C   UNL     1      14.314  13.838  20.019  1.00  0.00    -0.003 C 
ATOM     32  C   UNL     1      14.798  12.507  19.441  1.00  0.00     0.004 C 
ENDBRANCH  30  31
ENDBRANCH  29  30
ENDBRANCH  28  29
ENDBRANCH  27  28
ENDBRANCH  26  27
ENDBRANCH  25  26
ENDBRANCH  24  25
ENDBRANCH  23  24
ENDBRANCH  22  23
ENDBRANCH  21  22
ENDBRANCH  20  21
ENDBRANCH  19  20
ENDBRANCH  18  19
ENDBRANCH   1  18
TORSDOF 28
ENDMDL
MODEL 2
REMARK VINA RESULT:    -4.328      4.062      8.151
REMARK INTER + INTRA:         -16.412
REMARK INTER:                 -13.314
REMARK INTRA:                  -3.098
REMARK UNBOUND:                -5.000
REMARK SMILES CCCCCCCCCCCCCCCCCCCCCCCCCCCCCC(=O)[O-]
REMARK SMILES IDX 16 1 17 2 18 3 19 4 20 5 21 6 22 7 23 8 24 9 25 10 26 11
REMARK SMILES IDX 27 12 28 13 29 14 30 15 31 16 32 17 15 18 14 19 13 20 12 21
REMARK SMILES IDX 11 22 10 23 9 24 8 25 7 26 6 27 5 28 4 29 3 30 2 31 1 32
REMARK H PARENT
REMARK Flexibility Score: inf
ROOT
ATOM      1  C   UNL     1       7.741  14.082  22.063  1.00  0.00     0.000 C 
ENDROOT
BRANCH   1   2
ATOM      2  C   UNL     1       7.020  13.443  23.264  1.00  0.00     0.000 C 
BRANCH   2   3
ATOM      3  C   UNL     1       6.376  12.087  22.925  1.00  0.00     0.000 C 
BRANCH   3   4
ATOM      4  C   UNL     1       6.819  11.562  21.548  1.00  0.00     0.000 C 
BRANCH   4   5
ATOM      5  C   UNL     1       7.666  10.282  21.653  1.00  0.00     0.000 C 
BRANCH   5   6
ATOM      6  C   UNL     1       8.789  10.235  20.604  1.00  0.00     0.000 C 
BRANCH   6   7
ATOM      7  C   UNL     1       8.703  11.414  19.616  1.00  0.00     0.000 C 
BRANCH   7   8
ATOM      8  C   UNL     1      10.071  11.812  19.030  1.00  0.00     0.000 C 
BRANCH   8   9
ATOM      9  C   UNL     1      10.181  11.692  17.500  1.00  0.00     0.000 C 
BRANCH   9  10
ATOM     10  C   UNL     1      11.286  12.585  16.906  1.00  0.00     0.000 C 
BRANCH  10  11
ATOM     11  C   UNL     1      10.878  13.212  15.565  1.00  0.00     0.000 C 
BRANCH  11  12
ATOM     12  C   UNL     1      10.077  12.240  14.678  1.00  0.00     0.000 C 
BRANCH  12  13
ATOM     13  C   UNL     1      10.804  11.896  13.366  1.00  0.00     0.006 C 
BRANCH  13  14
ATOM     14  C   UNL     1      10.162  12.503  12.108  1.00  0.00     0.053 C 
BRANCH  14  15
ATOM     15  C   UNL     1      10.962  13.645  11.558  1.00  0.00     0.041 C 
ATOM     16  O   UNL     1      11.394  13.610  10.376  1.00  0.00    -0.550 OA
ATOM     17  O   UNL     1      11.218  14.759  12.351  1.00  0.00    -0.550 OA
ENDBRANCH  14  15
ENDBRANCH  13  14
ENDBRANCH  12  13
ENDBRANCH  11  12
ENDBRANCH  10  11
ENDBRANCH   9  10
ENDBRANCH   8   9
ENDBRANCH   7   8
ENDBRANCH   6   7
ENDBRANCH   5   6
ENDBRANCH   4   5
ENDBRANCH   3   4
ENDBRANCH   2   3
ENDBRANCH   1   2
BRANCH   1  18
ATOM     18  C   UNL     1       9.254  14.299  22.244  1.00  0.00     0.000 C 
BRANCH  18  19
ATOM     19  C   UNL     1       9.982  13.052  22.779  1.00  0.00     0.000 C 
BRANCH  19  20
ATOM     20  C   UNL     1      11.358  12.847  22.117  1.00  0.00     0.000 C 
BRANCH  20  21
ATOM     21  C   UNL     1      12.350  14.002  22.354  1.00  0.00     0.000 C 
BRANCH  21  22
ATOM     22  C   UNL     1      13.145  13.842  23.662  1.00  0.00     0.000 C 
BRANCH  22  23
ATOM     23  C   UNL     1      13.120  15.110  24.532  1.00  0.00     0.000 C 
BRANCH  23  24
ATOM     24  C   UNL     1      11.692  15.570  24.868  1.00  0.00    -0.000 C 
BRANCH  24  25
ATOM     25  C   UNL     1      11.545  17.100  24.890  1.00  0.00    -0.000 C 
BRANCH  25  26
ATOM     26  C   UNL     1      12.702  17.824  25.611  1.00  0.00    -0.000 C 
BRANCH  26  27
ATOM     27  C   UNL     1      13.340  18.917  24.735  1.00  0.00    -0.000 C 
BRANCH  27  28
ATOM     28  C   UNL     1      14.523  18.396  23.904  1.00  0.00    -0.000 C 
BRANCH  28  29
ATOM     29  C   UNL     1      15.254  19.514  23.144  1.00  0.00    -0.000 C 
BRANCH  29  30
ATOM     30  C   UNL     1      14.993  19.473  21.628  1.00  0.00    -0.000 C 
BRANCH  30  31
ATOM     31  C   UNL     1      13.553  19.813  21.203  1.00  0.00    -0.003 C 
ATOM     32  C   UNL     1      13.466  21.059  20.320  1.00  0.00     0.004 C 
ENDBRANCH  30  31
ENDBRANCH  29  30
ENDBRANCH  28  29
ENDBRANCH  27  28
ENDBRANCH  26  27
ENDBRANCH  25  26
ENDBRANCH  24  25
ENDBRANCH  23  24
ENDBRANCH  22  23
ENDBRANCH  21  22
ENDBRANCH  20  21
ENDBRANCH  19  20
ENDBRANCH  18  19
ENDBRANCH   1  18
TORSDOF 28
ENDMDL
MODEL 3
REMARK VINA RESULT:    -4.318      3.604      8.170
REMARK INTER + INTRA:         -16.385
REMARK INTER:                 -12.722
REMARK INTRA:                  -3.664
REMARK UNBOUND:                -5.000
REMARK SMILES CCCCCCCCCCCCCCCCCCCCCCCCCCCCCC(=O)[O-]
REMARK SMILES IDX 16 1 17 2 18 3 19 4 20 5 21 6 22 7 23 8 24 9 25 10 26 11
REMARK SMILES IDX 27 12 28 13 29 14 30 15 31 16 32 17 15 18 14 19 13 20 12 21
REMARK SMILES IDX 11 22 10 23 9 24 8 25 7 26 6 27 5 28 4 29 3 30 2 31 1 32
REMARK H PARENT
REMARK Flexibility Score: inf
ROOT
ATOM      1  C   UNL     1       7.795  13.954  21.956  1.00  0.00     0.000 C 
ENDROOT
BRANCH   1   2
ATOM      2  C   UNL     1       7.010  13.459  23.184  1.00  0.00     0.000 C 
BRANCH   2   3
ATOM      3  C   UNL     1       6.413  12.054  22.989  1.00  0.00     0.000 C 
BRANCH   3   4
ATOM      4  C   UNL     1       6.912  11.386  21.696  1.00  0.00     0.000 C 
BRANCH   4   5
ATOM      5  C   UNL     1       7.679  10.080  21.968  1.00  0.00     0.000 C 
BRANCH   5   6
ATOM      6  C   UNL     1       8.622  10.196  23.176  1.00  0.00     0.000 C 
BRANCH   6   7
ATOM      7  C   UNL     1      10.090  10.378  22.745  1.00  0.00     0.000 C 
BRANCH   7   8
ATOM      8  C   UNL     1      10.324  10.077  21.253  1.00  0.00     0.000 C 
BRANCH   8   9
ATOM      9  C   UNL     1      10.935  11.236  20.445  1.00  0.00     0.000 C 
BRANCH   9  10
ATOM     10  C   UNL     1       9.889  12.015  19.626  1.00  0.00     0.000 C 
BRANCH  10  11
ATOM     11  C   UNL     1       9.688  11.430  18.221  1.00  0.00     0.000 C 
BRANCH  11  12
ATOM     12  C   UNL     1      10.668  12.021  17.189  1.00  0.00     0.000 C 
BRANCH  12  13
ATOM     13  C   UNL     1      10.299  11.653  15.740  1.00  0.00     0.006 C 
BRANCH  13  14
ATOM     14  C   UNL     1      10.496  12.793  14.728  1.00  0.00     0.053 C 
BRANCH  14  15
ATOM     15  C   UNL     1      10.868  12.286  13.368  1.00  0.00     0.041 C 
ATOM     16  O   UNL     1      10.037  11.638  12.679  1.00  0.00    -0.550 OA
ATOM     17  O   UNL     1      12.135  12.542  12.854  1.00  0.00    -0.550 OA
ENDBRANCH  14  15
ENDBRANCH  13  14
ENDBRANCH  12  13
ENDBRANCH  11  12
ENDBRANCH  10  11
ENDBRANCH   9  10
ENDBRANCH   8   9
ENDBRANCH   7   8
ENDBRANCH   6   7
ENDBRANCH   5   6
ENDBRANCH   4   5
ENDBRANCH   3   4
ENDBRANCH   2   3
ENDBRANCH   1   2
BRANCH   1  18
ATOM     18  C   UNL     1       9.034  14.812  22.270  1.00  0.00     0.000 C 
BRANCH  18  19
ATOM     19  C   UNL     1      10.212  13.990  22.824  1.00  0.00     0.000 C 
BRANCH  19  20
ATOM     20  C   UNL     1      11.578  14.575  22.417  1.00  0.00     0.000 C 
BRANCH  20  21
ATOM     21  C   UNL     1      12.612  14.612  23.559  1.00  0.00     0.000 C 
BRANCH  21  22
ATOM     22  C   UNL     1      12.018  15.129  24.881  1.00  0.00     0.000 C 
BRANCH  22  23
ATOM     23  C   UNL     1      11.710  16.634  24.848  1.00  0.00     0.000 C 
BRANCH  23  24
ATOM     24  C   UNL     1      12.608  17.444  25.798  1.00  0.00    -0.000 C 
BRANCH  24  25
ATOM     25  C   UNL     1      12.130  18.894  25.983  1.00  0.00    -0.000 C 
BRANCH  25  26
ATOM     26  C   UNL     1      11.095  19.345  24.931  1.00  0.00    -0.000 C 
BRANCH  26  27
ATOM     27  C   UNL     1      11.749  20.089  23.753  1.00  0.00    -0.000 C 
BRANCH  27  28
ATOM     28  C   UNL     1      11.735  19.271  22.453  1.00  0.00    -0.000 C 
BRANCH  28  29
ATOM     29  C   UNL     1      12.992  19.493  21.597  1.00  0.00    -0.000 C 
BRANCH  29  30
ATOM     30  C   UNL     1      14.032  20.394  22.289  1.00  0.00    -0.000 C 
BRANCH  30  31
ATOM     31  C   UNL     1      15.357  19.702  22.653  1.00  0.00    -0.003 C 
ATOM     32  C   UNL     1      15.261  18.847  23.918  1.00  0.00     0.004 C 
ENDBRANCH  30  31
ENDBRANCH  29  30
ENDBRANCH  28  29
ENDBRANCH  27  28
ENDBRANCH  26  27
ENDBRANCH  25  26
ENDBRANCH  24  25
ENDBRANCH  23  24
ENDBRANCH  22  23
ENDBRANCH  21  22
ENDBRANCH  20  21
ENDBRANCH  19  20
ENDBRANCH  18  19
ENDBRANCH   1  18
TORSDOF 28
ENDMDL
MODEL 4
REMARK VINA RESULT:    -4.312      3.765      8.470
REMARK INTER + INTRA:         -16.370
REMARK INTER:                 -12.211
REMARK INTRA:                  -4.159
REMARK UNBOUND:                -5.000
REMARK SMILES CCCCCCCCCCCCCCCCCCCCCCCCCCCCCC(=O)[O-]
REMARK SMILES IDX 16 1 17 2 18 3 19 4 20 5 21 6 22 7 23 8 24 9 25 10 26 11
REMARK SMILES IDX 27 12 28 13 29 14 30 15 31 16 32 17 15 18 14 19 13 20 12 21
REMARK SMILES IDX 11 22 10 23 9 24 8 25 7 26 6 27 5 28 4 29 3 30 2 31 1 32
REMARK H PARENT
REMARK Flexibility Score: inf
ROOT
ATOM      1  C   UNL     1      10.069  13.629  22.832  1.00  0.00     0.000 C 
ENDROOT
BRANCH   1   2
ATOM      2  C   UNL     1       9.084  14.285  21.848  1.00  0.00     0.000 C 
BRANCH   2   3
ATOM      3  C   UNL     1       7.613  14.092  22.254  1.00  0.00     0.000 C 
BRANCH   3   4
ATOM      4  C   UNL     1       7.421  12.886  23.189  1.00  0.00     0.000 C 
BRANCH   4   5
ATOM      5  C   UNL     1       6.130  12.106  22.886  1.00  0.00     0.000 C 
BRANCH   5   6
ATOM      6  C   UNL     1       6.409  10.743  22.233  1.00  0.00     0.000 C 
BRANCH   6   7
ATOM      7  C   UNL     1       7.912  10.406  22.222  1.00  0.00     0.000 C 
BRANCH   7   8
ATOM      8  C   UNL     1       8.457  10.119  20.811  1.00  0.00     0.000 C 
BRANCH   8   9
ATOM      9  C   UNL     1       9.751  10.871  20.450  1.00  0.00     0.000 C 
BRANCH   9  10
ATOM     10  C   UNL     1       9.605  11.749  19.194  1.00  0.00     0.000 C 
BRANCH  10  11
ATOM     11  C   UNL     1      10.576  11.342  18.076  1.00  0.00     0.000 C 
BRANCH  11  12
ATOM     12  C   UNL     1      10.637  12.381  16.940  1.00  0.00     0.000 C 
BRANCH  12  13
ATOM     13  C   UNL     1      10.206  11.800  15.580  1.00  0.00     0.006 C 
BRANCH  13  14
ATOM     14  C   UNL     1      10.767  12.555  14.364  1.00  0.00     0.053 C 
BRANCH  14  15
ATOM     15  C   UNL     1      10.787  11.705  13.129  1.00  0.00     0.041 C 
ATOM     16  O   UNL     1       9.984  10.744  13.003  1.00  0.00    -0.550 OA
ATOM     17  O   UNL     1      11.688  11.986  12.108  1.00  0.00    -0.550 OA
ENDBRANCH  14  15
ENDBRANCH  13  14
ENDBRANCH  12  13
ENDBRANCH  11  12
ENDBRANCH  10  11
ENDBRANCH   9  10
ENDBRANCH   8   9
ENDBRANCH   7   8
ENDBRANCH   6   7
ENDBRANCH   5   6
ENDBRANCH   4   5
ENDBRANCH   3   4
ENDBRANCH   2   3
ENDBRANCH   1   2
BRANCH   1  18
ATOM     18  C   UNL     1      11.558  13.770  22.464  1.00  0.00     0.000 C 
BRANCH  18  19
ATOM     19  C   UNL     1      12.471  13.924  23.694  1.00  0.00     0.000 C 
BRANCH  19  20
ATOM     20  C   UNL     1      12.218  15.242  24.450  1.00  0.00     0.000 C 
BRANCH  20  21
ATOM     21  C   UNL     1      13.473  16.121  24.621  1.00  0.00     0.000 C 
BRANCH  21  22
ATOM     22  C   UNL     1      13.134  17.570  25.011  1.00  0.00     0.000 C 
BRANCH  22  23
ATOM     23  C   UNL     1      11.623  17.803  25.178  1.00  0.00     0.000 C 
BRANCH  23  24
ATOM     24  C   UNL     1      11.211  19.254  24.878  1.00  0.00    -0.000 C 
BRANCH  24  25
ATOM     25  C   UNL     1      12.318  20.059  24.178  1.00  0.00    -0.000 C 
BRANCH  25  26
ATOM     26  C   UNL     1      11.800  20.962  23.038  1.00  0.00    -0.000 C 
BRANCH  26  27
ATOM     27  C   UNL     1      12.836  21.128  21.912  1.00  0.00    -0.000 C 
BRANCH  27  28
ATOM     28  C   UNL     1      14.027  20.169  22.054  1.00  0.00    -0.000 C 
BRANCH  28  29
ATOM     29  C   UNL     1      14.329  19.401  20.757  1.00  0.00    -0.000 C 
BRANCH  29  30
ATOM     30  C   UNL     1      13.150  18.525  20.295  1.00  0.00    -0.000 C 
BRANCH  30  31
ATOM     31  C   UNL     1      12.701  17.450  21.302  1.00  0.00    -0.003 C 
ATOM     32  C   UNL     1      11.216  17.542  21.656  1.00  0.00     0.004 C 
ENDBRANCH  30  31
ENDBRANCH  29  30
ENDBRANCH  28  29
ENDBRANCH  27  28
ENDBRANCH  26  27
ENDBRANCH  25  26
ENDBRANCH  24  25
ENDBRANCH  23  24
ENDBRANCH  22  23
ENDBRANCH  21  22
ENDBRANCH  20  21
ENDBRANCH  19  20
ENDBRANCH  18  19
ENDBRANCH   1  18
TORSDOF 28
ENDMDL
MODEL 5
REMARK VINA RESULT:    -4.307      1.183      2.259
REMARK INTER + INTRA:         -16.356
REMARK INTER:                 -11.940
REMARK INTRA:                  -4.415
REMARK UNBOUND:                -5.000
REMARK SMILES CCCCCCCCCCCCCCCCCCCCCCCCCCCCCC(=O)[O-]
REMARK SMILES IDX 16 1 17 2 18 3 19 4 20 5 21 6 22 7 23 8 24 9 25 10 26 11
REMARK SMILES IDX 27 12 28 13 29 14 30 15 31 16 32 17 15 18 14 19 13 20 12 21
REMARK SMILES IDX 11 22 10 23 9 24 8 25 7 26 6 27 5 28 4 29 3 30 2 31 1 32
REMARK H PARENT
REMARK Flexibility Score: inf
ROOT
ATOM      1  C   UNL     1       8.736  14.428  22.280  1.00  0.00     0.000 C 
ENDROOT
BRANCH   1   2
ATOM      2  C   UNL     1      10.036  13.733  21.838  1.00  0.00     0.000 C 
BRANCH   2   3
ATOM      3  C   UNL     1      10.841  13.160  23.017  1.00  0.00     0.000 C 
BRANCH   3   4
ATOM      4  C   UNL     1      11.319  14.258  23.982  1.00  0.00     0.000 C 
BRANCH   4   5
ATOM      5  C   UNL     1      12.852  14.311  24.100  1.00  0.00     0.000 C 
BRANCH   5   6
ATOM      6  C   UNL     1      13.384  15.751  24.173  1.00  0.00     0.000 C 
BRANCH   6   7
ATOM      7  C   UNL     1      12.305  16.740  24.652  1.00  0.00     0.000 C 
BRANCH   7   8
ATOM      8  C   UNL     1      12.779  17.637  25.812  1.00  0.00     0.000 C 
BRANCH   8   9
ATOM      9  C   UNL     1      11.965  18.929  26.008  1.00  0.00     0.000 C 
BRANCH   9  10
ATOM     10  C   UNL     1      11.018  19.226  24.831  1.00  0.00     0.000 C 
BRANCH  10  11
ATOM     11  C   UNL     1      11.551  20.337  23.914  1.00  0.00     0.000 C 
BRANCH  11  12
ATOM     12  C   UNL     1      12.298  19.782  22.686  1.00  0.00     0.000 C 
BRANCH  12  13
ATOM     13  C   UNL     1      13.826  19.774  22.874  1.00  0.00     0.006 C 
BRANCH  13  14
ATOM     14  C   UNL     1      14.598  19.068  21.747  1.00  0.00     0.053 C 
BRANCH  14  15
ATOM     15  C   UNL     1      14.809  19.958  20.560  1.00  0.00     0.041 C 
ATOM     16  O   UNL     1      14.062  20.953  20.368  1.00  0.00    -0.550 OA
ATOM     17  O   UNL     1      15.844  19.693  19.669  1.00  0.00    -0.550 OA
ENDBRANCH  14  15
ENDBRANCH  13  14
ENDBRANCH  12  13
ENDBRANCH  11  12
ENDBRANCH  10  11
ENDBRANCH   9  10
ENDBRANCH   8   9
ENDBRANCH   7   8
ENDBRANCH   6   7
ENDBRANCH   5   6
ENDBRANCH   4   5
ENDBRANCH   3   4
ENDBRANCH   2   3
ENDBRANCH   1   2
BRANCH   1  18
ATOM     18  C   UNL     1       7.439  13.660  21.964  1.00  0.00     0.000 C 
BRANCH  18  19
ATOM     19  C   UNL     1       6.893  12.877  23.172  1.00  0.00     0.000 C 
BRANCH  19  20
ATOM     20  C   UNL     1       5.976  11.714  22.751  1.00  0.00     0.000 C 
BRANCH  20  21
ATOM     21  C   UNL     1       6.672  10.339  22.726  1.00  0.00     0.000 C 
BRANCH  21  22
ATOM     22  C   UNL     1       8.159  10.420  23.117  1.00  0.00     0.000 C 
BRANCH  22  23
ATOM     23  C   UNL     1       9.099  10.049  21.959  1.00  0.00     0.000 C 
BRANCH  23  24
ATOM     24  C   UNL     1       8.524  10.427  20.584  1.00  0.00    -0.000 C 
BRANCH  24  25
ATOM     25  C   UNL     1       9.600  10.904  19.594  1.00  0.00    -0.000 C 
BRANCH  25  26
ATOM     26  C   UNL     1      10.996  10.301  19.860  1.00  0.00    -0.000 C 
BRANCH  26  27
ATOM     27  C   UNL     1      12.087  11.382  19.966  1.00  0.00    -0.000 C 
BRANCH  27  28
ATOM     28  C   UNL     1      13.175  11.029  20.991  1.00  0.00    -0.000 C 
BRANCH  28  29
ATOM     29  C   UNL     1      14.195  12.162  21.188  1.00  0.00    -0.000 C 
BRANCH  29  30
ATOM     30  C   UNL     1      13.733  13.494  20.570  1.00  0.00    -0.000 C 
BRANCH  30  31
ATOM     31  C   UNL     1      14.838  14.309  19.874  1.00  0.00    -0.003 C 
ATOM     32  C   UNL     1      14.546  15.811  19.840  1.00  0.00     0.004 C 
ENDBRANCH  30  31
ENDBRANCH  29  30
ENDBRANCH  28  29
ENDBRANCH  27  28
ENDBRANCH  26  27
ENDBRANCH  25  26
ENDBRANCH  24  25
ENDBRANCH  23  24
ENDBRANCH  22  23
ENDBRANCH  21  22
ENDBRANCH  20  21
ENDBRANCH  19  20
ENDBRANCH  18  19
ENDBRANCH   1  18
TORSDOF 28
ENDMDL
MODEL 6
REMARK VINA RESULT:    -4.290      3.549      7.886
REMARK INTER + INTRA:         -16.313
REMARK INTER:                 -12.330
REMARK INTRA:                  -3.984
REMARK UNBOUND:                -5.000
REMARK SMILES CCCCCCCCCCCCCCCCCCCCCCCCCCCCCC(=O)[O-]
REMARK SMILES IDX 16 1 17 2 18 3 19 4 20 5 21 6 22 7 23 8 24 9 25 10 26 11
REMARK SMILES IDX 27 12 28 13 29 14 30 15 31 16 32 17 15 18 14 19 13 20 12 21
REMARK SMILES IDX 11 22 10 23 9 24 8 25 7 26 6 27 5 28 4 29 3 30 2 31 1 32
REMARK H PARENT
REMARK Flexibility Score: inf
ROOT
ATOM      1  C   UNL     1      10.040  13.574  21.700  1.00  0.00     0.000 C 
ENDROOT
BRANCH   1   2
ATOM      2  C   UNL     1       9.067  14.324  22.628  1.00  0.00     0.000 C 
BRANCH   2   3
ATOM      3  C   UNL     1       7.592  14.114  22.245  1.00  0.00     0.000 C 
BRANCH   3   4
ATOM      4  C   UNL     1       6.858  13.199  23.240  1.00  0.00     0.000 C 
BRANCH   4   5
ATOM      5  C   UNL     1       6.673  11.771  22.698  1.00  0.00     0.000 C 
BRANCH   5   6
ATOM      6  C   UNL     1       7.829  10.839  23.096  1.00  0.00     0.000 C 
BRANCH   6   7
ATOM      7  C   UNL     1       8.478  10.171  21.870  1.00  0.00     0.000 C 
BRANCH   7   8
ATOM      8  C   UNL     1       8.119  10.864  20.542  1.00  0.00     0.000 C 
BRANCH   8   9
ATOM      9  C   UNL     1       8.924  10.385  19.321  1.00  0.00     0.000 C 
BRANCH   9  10
ATOM     10  C   UNL     1       9.545  11.544  18.519  1.00  0.00     0.000 C 
BRANCH  10  11
ATOM     11  C   UNL     1      11.043  11.723  18.809  1.00  0.00     0.000 C 
BRANCH  11  12
ATOM     12  C   UNL     1      11.865  11.982  17.532  1.00  0.00     0.000 C 
BRANCH  12  13
ATOM     13  C   UNL     1      11.043  12.667  16.425  1.00  0.00     0.006 C 
BRANCH  13  14
ATOM     14  C   UNL     1      11.641  12.530  15.015  1.00  0.00     0.053 C 
BRANCH  14  15
ATOM     15  C   UNL     1      10.631  12.057  14.014  1.00  0.00     0.041 C 
ATOM     16  O   UNL     1      10.098  12.870  13.214  1.00  0.00    -0.550 OA
ATOM     17  O   UNL     1      10.288  10.711  13.957  1.00  0.00    -0.550 OA
ENDBRANCH  14  15
ENDBRANCH  13  14
ENDBRANCH  12  13
ENDBRANCH  11  12
ENDBRANCH  10  11
ENDBRANCH   9  10
ENDBRANCH   8   9
ENDBRANCH   7   8
ENDBRANCH   6   7
ENDBRANCH   5   6
ENDBRANCH   4   5
ENDBRANCH   3   4
ENDBRANCH   2   3
ENDBRANCH   1   2
BRANCH   1  18
ATOM     18  C   UNL     1      11.310  13.030  22.381  1.00  0.00     0.000 C 
BRANCH  18  19
ATOM     19  C   UNL     1      12.432  14.079  22.489  1.00  0.00     0.000 C 
BRANCH  19  20
ATOM     20  C   UNL     1      13.155  14.026  23.848  1.00  0.00     0.000 C 
BRANCH  20  21
ATOM     21  C   UNL     1      13.105  15.347  24.641  1.00  0.00     0.000 C 
BRANCH  21  22
ATOM     22  C   UNL     1      11.669  15.861  24.846  1.00  0.00     0.000 C 
BRANCH  22  23
ATOM     23  C   UNL     1      11.491  17.322  24.402  1.00  0.00     0.000 C 
BRANCH  23  24
ATOM     24  C   UNL     1      10.794  17.446  23.037  1.00  0.00    -0.000 C 
BRANCH  24  25
ATOM     25  C   UNL     1      11.783  17.619  21.872  1.00  0.00    -0.000 C 
BRANCH  25  26
ATOM     26  C   UNL     1      13.164  18.154  22.306  1.00  0.00    -0.000 C 
BRANCH  26  27
ATOM     27  C   UNL     1      14.284  17.725  21.342  1.00  0.00    -0.000 C 
BRANCH  27  28
ATOM     28  C   UNL     1      13.770  17.443  19.922  1.00  0.00    -0.000 C 
BRANCH  28  29
ATOM     29  C   UNL     1      14.179  18.531  18.915  1.00  0.00    -0.000 C 
BRANCH  29  30
ATOM     30  C   UNL     1      15.279  19.461  19.459  1.00  0.00    -0.000 C 
BRANCH  30  31
ATOM     31  C   UNL     1      14.934  20.961  19.438  1.00  0.00    -0.003 C 
ATOM     32  C   UNL     1      15.846  21.775  18.518  1.00  0.00     0.004 C 
ENDBRANCH  30  31
ENDBRANCH  29  30
ENDBRANCH  28  29
ENDBRANCH  27  28
ENDBRANCH  26  27
ENDBRANCH  25  26
ENDBRANCH  24  25
ENDBRANCH  23  24
ENDBRANCH  22  23
ENDBRANCH  21  22
ENDBRANCH  20  21
ENDBRANCH  19  20
ENDBRANCH  18  19
ENDBRANCH   1  18
TORSDOF 28
ENDMDL
MODEL 7
REMARK VINA RESULT:    -4.243      2.583      3.720
REMARK INTER + INTRA:         -16.189
REMARK INTER:                 -12.673
REMARK INTRA:                  -3.516
REMARK UNBOUND:                -5.000
REMARK SMILES CCCCCCCCCCCCCCCCCCCCCCCCCCCCCC(=O)[O-]
REMARK SMILES IDX 16 1 17 2 18 3 19 4 20 5 21 6 22 7 23 8 24 9 25 10 26 11
REMARK SMILES IDX 27 12 28 13 29 14 30 15 31 16 32 17 15 18 14 19 13 20 12 21
REMARK SMILES IDX 11 22 10 23 9 24 8 25 7 26 6 27 5 28 4 29 3 30 2 31 1 32
REMARK H PARENT
REMARK Flexibility Score: inf
ROOT
ATOM      1  C   UNL     1       9.997  13.598  21.495  1.00  0.00     0.000 C 
ENDROOT
BRANCH   1   2
ATOM      2  C   UNL     1      11.051  12.672  22.129  1.00  0.00     0.000 C 
BRANCH   2   3
ATOM      3  C   UNL     1      11.582  13.200  23.473  1.00  0.00     0.000 C 
BRANCH   3   4
ATOM      4  C   UNL     1      12.961  13.868  23.331  1.00  0.00     0.000 C 
BRANCH   4   5
ATOM      5  C   UNL     1      13.118  15.092  24.249  1.00  0.00     0.000 C 
BRANCH   5   6
ATOM      6  C   UNL     1      11.793  15.502  24.911  1.00  0.00     0.000 C 
BRANCH   6   7
ATOM      7  C   UNL     1      11.494  17.001  24.722  1.00  0.00     0.000 C 
BRANCH   7   8
ATOM      8  C   UNL     1      12.369  17.908  25.608  1.00  0.00     0.000 C 
BRANCH   8   9
ATOM      9  C   UNL     1      12.877  19.189  24.924  1.00  0.00     0.000 C 
BRANCH   9  10
ATOM     10  C   UNL     1      11.837  19.818  23.978  1.00  0.00     0.000 C 
BRANCH  10  11
ATOM     11  C   UNL     1      12.455  20.855  23.030  1.00  0.00     0.000 C 
BRANCH  11  12
ATOM     12  C   UNL     1      11.959  20.700  21.580  1.00  0.00     0.000 C 
BRANCH  12  13
ATOM     13  C   UNL     1      11.907  19.231  21.124  1.00  0.00     0.006 C 
BRANCH  13  14
ATOM     14  C   UNL     1      13.019  18.833  20.139  1.00  0.00     0.053 C 
BRANCH  14  15
ATOM     15  C   UNL     1      14.153  18.127  20.819  1.00  0.00     0.041 C 
ATOM     16  O   UNL     1      13.987  17.593  21.946  1.00  0.00    -0.550 OA
ATOM     17  O   UNL     1      15.394  18.049  20.197  1.00  0.00    -0.550 OA
ENDBRANCH  14  15
ENDBRANCH  13  14
ENDBRANCH  12  13
ENDBRANCH  11  12
ENDBRANCH  10  11
ENDBRANCH   9  10
ENDBRANCH   8   9
ENDBRANCH   7   8
ENDBRANCH   6   7
ENDBRANCH   5   6
ENDBRANCH   4   5
ENDBRANCH   3   4
ENDBRANCH   2   3
ENDBRANCH   1   2
BRANCH   1  18
ATOM     18  C   UNL     1       9.056  14.302  22.491  1.00  0.00     0.000 C 
BRANCH  18  19
ATOM     19  C   UNL     1       7.566  14.071  22.179  1.00  0.00     0.000 C 
BRANCH  19  20
ATOM     20  C   UNL     1       6.833  13.345  23.322  1.00  0.00     0.000 C 
BRANCH  20  21
ATOM     21  C   UNL     1       6.185  12.010  22.907  1.00  0.00     0.000 C 
BRANCH  21  22
ATOM     22  C   UNL     1       6.841  11.395  21.658  1.00  0.00     0.000 C 
BRANCH  22  23
ATOM     23  C   UNL     1       7.962  10.400  22.003  1.00  0.00     0.000 C 
BRANCH  23  24
ATOM     24  C   UNL     1       8.774   9.971  20.770  1.00  0.00    -0.000 C 
BRANCH  24  25
ATOM     25  C   UNL     1       8.564  10.898  19.561  1.00  0.00    -0.000 C 
BRANCH  25  26
ATOM     26  C   UNL     1       9.583  10.675  18.424  1.00  0.00    -0.000 C 
BRANCH  26  27
ATOM     27  C   UNL     1      10.431  11.928  18.147  1.00  0.00    -0.000 C 
BRANCH  27  28
ATOM     28  C   UNL     1      10.628  12.193  16.647  1.00  0.00    -0.000 C 
BRANCH  28  29
ATOM     29  C   UNL     1      10.822  10.902  15.836  1.00  0.00    -0.000 C 
BRANCH  29  30
ATOM     30  C   UNL     1      10.248  11.001  14.411  1.00  0.00    -0.000 C 
BRANCH  30  31
ATOM     31  C   UNL     1      10.381  12.384  13.748  1.00  0.00    -0.003 C 
ATOM     32  C   UNL     1      10.188  12.346  12.231  1.00  0.00     0.004 C 
ENDBRANCH  30  31
ENDBRANCH  29  30
ENDBRANCH  28  29
ENDBRANCH  27  28
ENDBRANCH  26  27
ENDBRANCH  25  26
ENDBRANCH  24  25
ENDBRANCH  23  24
ENDBRANCH  22  23
ENDBRANCH  21  22
ENDBRANCH  20  21
ENDBRANCH  19  20
ENDBRANCH  18  19
ENDBRANCH   1  18
TORSDOF 28
ENDMDL
MODEL 8
REMARK VINA RESULT:    -4.232      3.781      8.266
REMARK INTER + INTRA:         -16.159
REMARK INTER:                 -11.989
REMARK INTRA:                  -4.169
REMARK UNBOUND:                -5.000
REMARK SMILES CCCCCCCCCCCCCCCCCCCCCCCCCCCCCC(=O)[O-]
REMARK SMILES IDX 16 1 17 2 18 3 19 4 20 5 21 6 22 7 23 8 24 9 25 10 26 11
REMARK SMILES IDX 27 12 28 13 29 14 30 15 31 16 32 17 15 18 14 19 13 20 12 21
REMARK SMILES IDX 11 22 10 23 9 24 8 25 7 26 6 27 5 28 4 29 3 30 2 31 1 32
REMARK H PARENT
REMARK Flexibility Score: inf
ROOT
ATOM      1  C   UNL     1      10.120  13.534  21.584  1.00  0.00     0.000 C 
ENDROOT
BRANCH   1   2
ATOM      2  C   UNL     1       9.008  14.221  22.397  1.00  0.00     0.000 C 
BRANCH   2   3
ATOM      3  C   UNL     1       7.596  13.774  21.980  1.00  0.00     0.000 C 
BRANCH   3   4
ATOM      4  C   UNL     1       6.879  12.998  23.098  1.00  0.00     0.000 C 
BRANCH   4   5
ATOM      5  C   UNL     1       7.033  11.475  22.950  1.00  0.00     0.000 C 
BRANCH   5   6
ATOM      6  C   UNL     1       6.909  11.014  21.489  1.00  0.00     0.000 C 
BRANCH   6   7
ATOM      7  C   UNL     1       8.201  10.345  20.984  1.00  0.00     0.000 C 
BRANCH   7   8
ATOM      8  C   UNL     1       8.656  10.869  19.609  1.00  0.00     0.000 C 
BRANCH   8   9
ATOM      9  C   UNL     1      10.131  10.592  19.264  1.00  0.00     0.000 C 
BRANCH   9  10
ATOM     10  C   UNL     1      10.529  11.113  17.871  1.00  0.00     0.000 C 
BRANCH  10  11
ATOM     11  C   UNL     1       9.722  10.453  16.743  1.00  0.00     0.000 C 
BRANCH  11  12
ATOM     12  C   UNL     1      10.039  11.053  15.360  1.00  0.00     0.000 C 
BRANCH  12  13
ATOM     13  C   UNL     1      10.141  12.589  15.388  1.00  0.00     0.006 C 
BRANCH  13  14
ATOM     14  C   UNL     1      11.103  13.179  14.344  1.00  0.00     0.053 C 
BRANCH  14  15
ATOM     15  C   UNL     1      10.761  12.748  12.950  1.00  0.00     0.041 C 
ATOM     16  O   UNL     1       9.723  13.183  12.385  1.00  0.00    -0.550 OA
ATOM     17  O   UNL     1      11.599  11.873  12.268  1.00  0.00    -0.550 OA
ENDBRANCH  14  15
ENDBRANCH  13  14
ENDBRANCH  12  13
ENDBRANCH  11  12
ENDBRANCH  10  11
ENDBRANCH   9  10
ENDBRANCH   8   9
ENDBRANCH   7   8
ENDBRANCH   6   7
ENDBRANCH   5   6
ENDBRANCH   4   5
ENDBRANCH   3   4
ENDBRANCH   2   3
ENDBRANCH   1   2
BRANCH   1  18
ATOM     18  C   UNL     1      11.029  12.583  22.384  1.00  0.00     0.000 C 
BRANCH  18  19
ATOM     19  C   UNL     1      12.387  13.211  22.748  1.00  0.00     0.000 C 
BRANCH  19  20
ATOM     20  C   UNL     1      12.361  13.911  24.120  1.00  0.00     0.000 C 
BRANCH  20  21
ATOM     21  C   UNL     1      12.654  15.423  24.061  1.00  0.00     0.000 C 
BRANCH  21  22
ATOM     22  C   UNL     1      11.377  16.279  24.141  1.00  0.00     0.000 C 
BRANCH  22  23
ATOM     23  C   UNL     1      11.087  17.037  22.836  1.00  0.00     0.000 C 
BRANCH  23  24
ATOM     24  C   UNL     1      12.200  16.863  21.789  1.00  0.00    -0.000 C 
BRANCH  24  25
ATOM     25  C   UNL     1      12.265  18.025  20.784  1.00  0.00    -0.000 C 
BRANCH  25  26
ATOM     26  C   UNL     1      13.647  18.709  20.716  1.00  0.00    -0.000 C 
BRANCH  26  27
ATOM     27  C   UNL     1      13.565  20.217  21.011  1.00  0.00    -0.000 C 
BRANCH  27  28
ATOM     28  C   UNL     1      13.946  20.561  22.460  1.00  0.00    -0.000 C 
BRANCH  28  29
ATOM     29  C   UNL     1      14.826  19.483  23.114  1.00  0.00    -0.000 C 
BRANCH  29  30
ATOM     30  C   UNL     1      14.120  18.765  24.279  1.00  0.00    -0.000 C 
BRANCH  30  31
ATOM     31  C   UNL     1      12.893  19.498  24.851  1.00  0.00    -0.003 C 
ATOM     32  C   UNL     1      12.425  18.930  26.192  1.00  0.00     0.004 C 
ENDBRANCH  30  31
ENDBRANCH  29  30
ENDBRANCH  28  29
ENDBRANCH  27  28
ENDBRANCH  26  27
ENDBRANCH  25  26
ENDBRANCH  24  25
ENDBRANCH  23  24
ENDBRANCH  22  23
ENDBRANCH  21  22
ENDBRANCH  20  21
ENDBRANCH  19  20
ENDBRANCH  18  19
ENDBRANCH   1  18
TORSDOF 28
ENDMDL
MODEL 9
REMARK VINA RESULT:    -4.172      3.706      8.354
REMARK INTER + INTRA:         -16.001
REMARK INTER:                 -11.654
REMARK INTRA:                  -4.346
REMARK UNBOUND:                -5.000
REMARK SMILES CCCCCCCCCCCCCCCCCCCCCCCCCCCCCC(=O)[O-]
REMARK SMILES IDX 16 1 17 2 18 3 19 4 20 5 21 6 22 7 23 8 24 9 25 10 26 11
REMARK SMILES IDX 27 12 28 13 29 14 30 15 31 16 32 17 15 18 14 19 13 20 12 21
REMARK SMILES IDX 11 22 10 23 9 24 8 25 7 26 6 27 5 28 4 29 3 30 2 31 1 32
REMARK H PARENT
REMARK Flexibility Score: inf
ROOT
ATOM      1  C   UNL     1      12.856  15.199  22.264  1.00  0.00     0.000 C 
ENDROOT
BRANCH   1   2
ATOM      2  C   UNL     1      13.026  13.676  22.114  1.00  0.00     0.000 C 
BRANCH   2   3
ATOM      3  C   UNL     1      11.776  12.987  21.541  1.00  0.00     0.000 C 
BRANCH   3   4
ATOM      4  C   UNL     1      11.202  11.931  22.501  1.00  0.00     0.000 C 
BRANCH   4   5
ATOM      5  C   UNL     1       9.667  11.987  22.588  1.00  0.00     0.000 C 
BRANCH   5   6
ATOM      6  C   UNL     1       9.051  12.872  21.493  1.00  0.00     0.000 C 
BRANCH   6   7
ATOM      7  C   UNL     1       8.029  12.102  20.637  1.00  0.00     0.000 C 
BRANCH   7   8
ATOM      8  C   UNL     1       8.401  10.621  20.437  1.00  0.00     0.000 C 
BRANCH   8   9
ATOM      9  C   UNL     1       8.919  10.265  19.032  1.00  0.00     0.000 C 
BRANCH   9  10
ATOM     10  C   UNL     1      10.453  10.148  18.968  1.00  0.00     0.000 C 
BRANCH  10  11
ATOM     11  C   UNL     1      11.122  11.439  18.475  1.00  0.00     0.000 C 
BRANCH  11  12
ATOM     12  C   UNL     1      10.318  12.130  17.357  1.00  0.00     0.000 C 
BRANCH  12  13
ATOM     13  C   UNL     1      10.753  11.682  15.949  1.00  0.00     0.006 C 
BRANCH  13  14
ATOM     14  C   UNL     1      10.724  12.798  14.892  1.00  0.00     0.053 C 
BRANCH  14  15
ATOM     15  C   UNL     1      10.316  12.291  13.542  1.00  0.00     0.041 C 
ATOM     16  O   UNL     1       9.967  13.095  12.638  1.00  0.00    -0.550 OA
ATOM     17  O   UNL     1      10.333  10.926  13.279  1.00  0.00    -0.550 OA
ENDBRANCH  14  15
ENDBRANCH  13  14
ENDBRANCH  12  13
ENDBRANCH  11  12
ENDBRANCH  10  11
ENDBRANCH   9  10
ENDBRANCH   8   9
ENDBRANCH   7   8
ENDBRANCH   6   7
ENDBRANCH   5   6
ENDBRANCH   4   5
ENDBRANCH   3   4
ENDBRANCH   2   3
ENDBRANCH   1   2
BRANCH   1  18
ATOM     18  C   UNL     1      11.489  15.659  22.802  1.00  0.00     0.000 C 
BRANCH  18  19
ATOM     19  C   UNL     1      11.413  15.650  24.340  1.00  0.00     0.000 C 
BRANCH  19  20
ATOM     20  C   UNL     1      12.782  15.905  24.997  1.00  0.00     0.000 C 
BRANCH  20  21
ATOM     21  C   UNL     1      13.186  17.391  25.057  1.00  0.00     0.000 C 
BRANCH  21  22
ATOM     22  C   UNL     1      12.289  18.211  26.001  1.00  0.00     0.000 C 
BRANCH  22  23
ATOM     23  C   UNL     1      11.418  19.235  25.254  1.00  0.00     0.000 C 
BRANCH  23  24
ATOM     24  C   UNL     1      11.773  19.337  23.761  1.00  0.00    -0.000 C 
BRANCH  24  25
ATOM     25  C   UNL     1      11.762  20.784  23.240  1.00  0.00    -0.000 C 
BRANCH  25  26
ATOM     26  C   UNL     1      13.109  21.236  22.637  1.00  0.00    -0.000 C 
BRANCH  26  27
ATOM     27  C   UNL     1      14.112  20.075  22.516  1.00  0.00    -0.000 C 
BRANCH  27  28
ATOM     28  C   UNL     1      14.372  19.665  21.059  1.00  0.00    -0.000 C 
BRANCH  28  29
ATOM     29  C   UNL     1      13.768  18.295  20.709  1.00  0.00    -0.000 C 
BRANCH  29  30
ATOM     30  C   UNL     1      12.275  18.380  20.342  1.00  0.00    -0.000 C 
BRANCH  30  31
ATOM     31  C   UNL     1      11.907  19.509  19.363  1.00  0.00    -0.003 C 
ATOM     32  C   UNL     1      10.402  19.772  19.287  1.00  0.00     0.004 C 
ENDBRANCH  30  31
ENDBRANCH  29  30
ENDBRANCH  28  29
ENDBRANCH  27  28
ENDBRANCH  26  27
ENDBRANCH  25  26
ENDBRANCH  24  25
ENDBRANCH  23  24
ENDBRANCH  22  23
ENDBRANCH  21  22
ENDBRANCH  20  21
ENDBRANCH  19  20
ENDBRANCH  18  19
ENDBRANCH   1  18
TORSDOF 28
ENDMDL
