MODEL 1
REMARK VINA RESULT:    -3.091      0.000      0.000
REMARK INTER + INTRA:          -3.362
REMARK INTER:                  -3.362
REMARK INTRA:                   0.000
REMARK UNBOUND:                 0.000
REMARK SMILES Oc1cccc(O)c1O
REMARK SMILES IDX 4 1 5 2 6 3 8 4 2 5 3 6 7 7 1 9 9 11
REMARK H PARENT 7 8 1 10 9 12
REMARK Flexibility Score: inf
ROOT
ATOM      1  C   UNL     1     -97.032  24.964 -29.894  1.00  0.00     0.008 A 
ATOM      2  C   UNL     1     -95.867  24.245 -29.616  1.00  0.00     0.050 A 
ATOM      3  C   UNL     1     -95.925  23.082 -28.839  1.00  0.00     0.161 A 
ATOM      4  C   UNL     1     -97.160  22.635 -28.337  1.00  0.00     0.200 A 
ATOM      5  C   UNL     1     -98.333  23.361 -28.619  1.00  0.00     0.161 A 
ATOM      6  C   UNL     1     -98.262  24.524 -29.398  1.00  0.00     0.050 A 
ENDROOT
BRANCH   3   7
ATOM      7  O   UNL     1     -94.746  22.384 -28.579  1.00  0.00    -0.504 OA
ATOM      8  H   UNL     1     -94.614  21.848 -27.731  1.00  0.00     0.293 HD
ENDBRANCH   3   7
BRANCH   5   9
ATOM      9  O   UNL     1     -99.561  22.925 -28.125  1.00  0.00    -0.504 OA
ATOM     10  H   UNL     1     -99.891  21.980 -28.280  1.00  0.00     0.293 HD
ENDBRANCH   5   9
BRANCH   4  11
ATOM     11  O   UNL     1     -97.212  21.474 -27.564  1.00  0.00    -0.502 OA
ATOM     12  H   UNL     1     -98.085  21.091 -27.221  1.00  0.00     0.293 HD
ENDBRANCH   4  11
TORSDOF 3
ENDMDL
MODEL 2
REMARK VINA RESULT:    -3.085      0.048      2.808
REMARK INTER + INTRA:          -3.355
REMARK INTER:                  -3.355
REMARK INTRA:                   0.000
REMARK UNBOUND:                 0.000
REMARK SMILES Oc1cccc(O)c1O
REMARK SMILES IDX 4 1 5 2 6 3 8 4 2 5 3 6 7 7 1 9 9 11
REMARK H PARENT 7 8 1 10 9 12
REMARK Flexibility Score: inf
ROOT
ATOM      1  C   UNL     1     -97.002  24.992 -29.889  1.00  0.00     0.008 A 
ATOM      2  C   UNL     1     -98.229  24.535 -29.404  1.00  0.00     0.050 A 
ATOM      3  C   UNL     1     -98.293  23.369 -28.632  1.00  0.00     0.161 A 
ATOM      4  C   UNL     1     -97.116  22.656 -28.341  1.00  0.00     0.200 A 
ATOM      5  C   UNL     1     -95.880  23.118 -28.830  1.00  0.00     0.161 A 
ATOM      6  C   UNL     1     -95.830  24.287 -29.603  1.00  0.00     0.050 A 
ENDROOT
BRANCH   3   7
ATOM      7  O   UNL     1     -99.533  22.937 -28.162  1.00  0.00    -0.504 OA
ATOM      8  H   UNL     1    -100.401  23.200 -28.611  1.00  0.00     0.293 HD
ENDBRANCH   3   7
BRANCH   5   9
ATOM      9  O   UNL     1     -94.709  22.417 -28.547  1.00  0.00    -0.504 OA
ATOM     10  H   UNL     1     -94.644  21.791 -27.753  1.00  0.00     0.293 HD
ENDBRANCH   5   9
BRANCH   4  11
ATOM     11  O   UNL     1     -97.186  21.494 -27.570  1.00  0.00    -0.502 OA
ATOM     12  H   UNL     1     -96.416  21.185 -26.989  1.00  0.00     0.293 HD
ENDBRANCH   4  11
TORSDOF 3
ENDMDL
MODEL 3
REMARK VINA RESULT:    -2.971     10.110     10.962
REMARK INTER + INTRA:          -3.232
REMARK INTER:                  -3.232
REMARK INTRA:                   0.000
REMARK UNBOUND:                 0.000
REMARK SMILES Oc1cccc(O)c1O
REMARK SMILES IDX 4 1 5 2 6 3 8 4 2 5 3 6 7 7 1 9 9 11
REMARK H PARENT 7 8 1 10 9 12
REMARK Flexibility Score: inf
ROOT
ATOM      1  C   UNL     1     -94.672  26.254 -37.876  1.00  0.00     0.008 A 
ATOM      2  C   UNL     1     -94.450  27.120 -38.949  1.00  0.00     0.050 A 
ATOM      3  C   UNL     1     -95.481  27.944 -39.415  1.00  0.00     0.161 A 
ATOM      4  C   UNL     1     -96.745  27.902 -38.800  1.00  0.00     0.200 A 
ATOM      5  C   UNL     1     -96.967  27.028 -37.718  1.00  0.00     0.161 A 
ATOM      6  C   UNL     1     -95.927  26.207 -37.261  1.00  0.00     0.050 A 
ENDROOT
BRANCH   3   7
ATOM      7  O   UNL     1     -95.229  28.799 -40.487  1.00  0.00    -0.504 OA
ATOM      8  H   UNL     1     -95.789  28.783 -41.331  1.00  0.00     0.293 HD
ENDBRANCH   3   7
BRANCH   5   9
ATOM      9  O   UNL     1     -98.217  26.979 -37.104  1.00  0.00    -0.504 OA
ATOM     10  H   UNL     1     -98.717  27.823 -36.851  1.00  0.00     0.293 HD
ENDBRANCH   5   9
BRANCH   4  11
ATOM     11  O   UNL     1     -97.769  28.727 -39.268  1.00  0.00    -0.502 OA
ATOM     12  H   UNL     1     -98.245  28.552 -40.145  1.00  0.00     0.293 HD
ENDBRANCH   4  11
TORSDOF 3
ENDMDL
MODEL 4
REMARK VINA RESULT:    -2.894     10.758     11.341
REMARK INTER + INTRA:          -3.148
REMARK INTER:                  -3.148
REMARK INTRA:                   0.000
REMARK UNBOUND:                 0.000
REMARK SMILES Oc1cccc(O)c1O
REMARK SMILES IDX 4 1 5 2 6 3 8 4 2 5 3 6 7 7 1 9 9 11
REMARK H PARENT 7 8 1 10 9 12
REMARK Flexibility Score: inf
ROOT
ATOM      1  C   UNL     1     -96.820  25.463 -38.526  1.00  0.00     0.008 A 
ATOM      2  C   UNL     1     -95.496  25.874 -38.691  1.00  0.00     0.050 A 
ATOM      3  C   UNL     1     -95.208  27.197 -39.047  1.00  0.00     0.161 A 
ATOM      4  C   UNL     1     -96.256  28.116 -39.238  1.00  0.00     0.200 A 
ATOM      5  C   UNL     1     -97.590  27.699 -39.071  1.00  0.00     0.161 A 
ATOM      6  C   UNL     1     -97.865  26.371 -38.715  1.00  0.00     0.050 A 
ENDROOT
BRANCH   3   7
ATOM      7  O   UNL     1     -93.876  27.580 -39.204  1.00  0.00    -0.504 OA
ATOM      8  H   UNL     1     -93.108  26.947 -39.015  1.00  0.00     0.293 HD
ENDBRANCH   3   7
BRANCH   5   9
ATOM      9  O   UNL     1     -98.634  28.603 -39.258  1.00  0.00    -0.504 OA
ATOM     10  H   UNL     1     -98.480  29.604 -39.237  1.00  0.00     0.293 HD
ENDBRANCH   5   9
BRANCH   4  11
ATOM     11  O   UNL     1     -95.962  29.434 -39.591  1.00  0.00    -0.502 OA
ATOM     12  H   UNL     1     -95.337  30.014 -39.045  1.00  0.00     0.293 HD
ENDBRANCH   4  11
TORSDOF 3
ENDMDL
MODEL 5
REMARK VINA RESULT:    -2.887     10.723     11.660
REMARK INTER + INTRA:          -3.140
REMARK INTER:                  -3.140
REMARK INTRA:                   0.000
REMARK UNBOUND:                 0.000
REMARK SMILES Oc1cccc(O)c1O
REMARK SMILES IDX 4 1 5 2 6 3 8 4 2 5 3 6 7 7 1 9 9 11
REMARK H PARENT 7 8 1 10 9 12
REMARK Flexibility Score: inf
ROOT
ATOM      1  C   UNL     1     -96.865  25.471 -38.480  1.00  0.00     0.008 A 
ATOM      2  C   UNL     1     -97.885  26.401 -38.686  1.00  0.00     0.050 A 
ATOM      3  C   UNL     1     -97.578  27.715 -39.061  1.00  0.00     0.161 A 
ATOM      4  C   UNL     1     -96.235  28.099 -39.230  1.00  0.00     0.200 A 
ATOM      5  C   UNL     1     -95.208  27.159 -39.021  1.00  0.00     0.161 A 
ATOM      6  C   UNL     1     -95.529  25.847 -38.646  1.00  0.00     0.050 A 
ENDROOT
BRANCH   3   7
ATOM      7  O   UNL     1     -98.618  28.621 -39.261  1.00  0.00    -0.504 OA
ATOM      8  H   UNL     1     -99.380  28.721 -38.601  1.00  0.00     0.293 HD
ENDBRANCH   3   7
BRANCH   5   9
ATOM      9  O   UNL     1     -93.875  27.531 -39.187  1.00  0.00    -0.504 OA
ATOM     10  H   UNL     1     -93.370  27.332 -40.042  1.00  0.00     0.293 HD
ENDBRANCH   5   9
BRANCH   4  11
ATOM     11  O   UNL     1     -95.934  29.409 -39.604  1.00  0.00    -0.502 OA
ATOM     12  H   UNL     1     -95.971  30.181 -38.949  1.00  0.00     0.293 HD
ENDBRANCH   4  11
TORSDOF 3
ENDMDL
MODEL 6
REMARK VINA RESULT:    -2.886     12.291     13.601
REMARK INTER + INTRA:          -3.139
REMARK INTER:                  -3.139
REMARK INTRA:                   0.000
REMARK UNBOUND:                 0.000
REMARK SMILES Oc1cccc(O)c1O
REMARK SMILES IDX 4 1 5 2 6 3 8 4 2 5 3 6 7 7 1 9 9 11
REMARK H PARENT 7 8 1 10 9 12
REMARK Flexibility Score: inf
ROOT
ATOM      1  C   UNL     1     -99.015  33.476 -33.889  1.00  0.00     0.008 A 
ATOM      2  C   UNL     1     -99.771  34.299 -34.727  1.00  0.00     0.050 A 
ATOM      3  C   UNL     1     -99.139  35.097 -35.688  1.00  0.00     0.161 A 
ATOM      4  C   UNL     1     -97.738  35.070 -35.811  1.00  0.00     0.200 A 
ATOM      5  C   UNL     1     -96.979  34.239 -34.965  1.00  0.00     0.161 A 
ATOM      6  C   UNL     1     -97.623  33.445 -34.007  1.00  0.00     0.050 A 
ENDROOT
BRANCH   3   7
ATOM      7  O   UNL     1     -99.920  35.908 -36.511  1.00  0.00    -0.504 OA
ATOM      8  H   UNL     1    -100.218  36.834 -36.228  1.00  0.00     0.293 HD
ENDBRANCH   3   7
BRANCH   5   9
ATOM      9  O   UNL     1     -95.590  34.207 -35.081  1.00  0.00    -0.504 OA
ATOM     10  H   UNL     1     -95.049  35.050 -35.230  1.00  0.00     0.293 HD
ENDBRANCH   5   9
BRANCH   4  11
ATOM     11  O   UNL     1     -97.114  35.867 -36.772  1.00  0.00    -0.502 OA
ATOM     12  H   UNL     1     -97.624  36.543 -37.327  1.00  0.00     0.293 HD
ENDBRANCH   4  11
TORSDOF 3
ENDMDL
MODEL 7
REMARK VINA RESULT:    -2.776     12.212     13.259
REMARK INTER + INTRA:          -3.019
REMARK INTER:                  -3.019
REMARK INTRA:                   0.000
REMARK UNBOUND:                 0.000
REMARK SMILES Oc1cccc(O)c1O
REMARK SMILES IDX 4 1 5 2 6 3 8 4 2 5 3 6 7 7 1 9 9 11
REMARK H PARENT 7 8 1 10 9 12
REMARK Flexibility Score: inf
ROOT
ATOM      1  C   UNL     1     -99.147  33.500 -33.784  1.00  0.00     0.008 A 
ATOM      2  C   UNL     1     -97.751  33.500 -33.801  1.00  0.00     0.050 A 
ATOM      3  C   UNL     1     -97.057  34.248 -34.758  1.00  0.00     0.161 A 
ATOM      4  C   UNL     1     -97.768  35.005 -35.707  1.00  0.00     0.200 A 
ATOM      5  C   UNL     1     -99.176  35.004 -35.689  1.00  0.00     0.161 A 
ATOM      6  C   UNL     1     -99.859  34.249 -34.725  1.00  0.00     0.050 A 
ENDROOT
BRANCH   3   7
ATOM      7  O   UNL     1     -95.663  34.229 -34.750  1.00  0.00    -0.504 OA
ATOM      8  H   UNL     1     -95.111  34.924 -35.237  1.00  0.00     0.293 HD
ENDBRANCH   3   7
BRANCH   5   9
ATOM      9  O   UNL     1     -99.888  35.750 -36.625  1.00  0.00    -0.504 OA
ATOM     10  H   UNL     1    -100.752  35.410 -37.029  1.00  0.00     0.293 HD
ENDBRANCH   5   9
BRANCH   4  11
ATOM     11  O   UNL     1     -97.071  35.750 -36.659  1.00  0.00    -0.502 OA
ATOM     12  H   UNL     1     -97.535  36.206 -37.435  1.00  0.00     0.293 HD
ENDBRANCH   4  11
TORSDOF 3
ENDMDL
MODEL 8
REMARK VINA RESULT:    -2.759      1.027      2.766
REMARK INTER + INTRA:          -3.001
REMARK INTER:                  -3.001
REMARK INTRA:                   0.000
REMARK UNBOUND:                 0.000
REMARK SMILES Oc1cccc(O)c1O
REMARK SMILES IDX 4 1 5 2 6 3 8 4 2 5 3 6 7 7 1 9 9 11
REMARK H PARENT 7 8 1 10 9 12
REMARK Flexibility Score: inf
ROOT
ATOM      1  C   UNL     1     -95.579  24.241 -29.305  1.00  0.00     0.008 A 
ATOM      2  C   UNL     1     -96.684  25.010 -29.677  1.00  0.00     0.050 A 
ATOM      3  C   UNL     1     -97.977  24.603 -29.327  1.00  0.00     0.161 A 
ATOM      4  C   UNL     1     -98.165  23.415 -28.598  1.00  0.00     0.200 A 
ATOM      5  C   UNL     1     -97.050  22.641 -28.224  1.00  0.00     0.161 A 
ATOM      6  C   UNL     1     -95.761  23.059 -28.580  1.00  0.00     0.050 A 
ENDROOT
BRANCH   3   7
ATOM      7  O   UNL     1     -99.061  25.392 -29.712  1.00  0.00    -0.504 OA
ATOM      8  H   UNL     1     -99.622  25.176 -30.527  1.00  0.00     0.293 HD
ENDBRANCH   3   7
BRANCH   5   9
ATOM      9  O   UNL     1     -97.227  21.463 -27.502  1.00  0.00    -0.504 OA
ATOM     10  H   UNL     1     -96.439  20.927 -27.156  1.00  0.00     0.293 HD
ENDBRANCH   5   9
BRANCH   4  11
ATOM     11  O   UNL     1     -99.456  23.015 -28.251  1.00  0.00    -0.502 OA
ATOM     12  H   UNL     1     -99.922  22.239 -28.707  1.00  0.00     0.293 HD
ENDBRANCH   4  11
TORSDOF 3
ENDMDL
MODEL 9
REMARK VINA RESULT:    -2.748      1.225      2.748
REMARK INTER + INTRA:          -2.989
REMARK INTER:                  -2.989
REMARK INTRA:                   0.000
REMARK UNBOUND:                 0.000
REMARK SMILES Oc1cccc(O)c1O
REMARK SMILES IDX 4 1 5 2 6 3 8 4 2 5 3 6 7 7 1 9 9 11
REMARK H PARENT 7 8 1 10 9 12
REMARK Flexibility Score: inf
ROOT
ATOM      1  C   UNL     1     -98.931  23.653 -29.765  1.00  0.00     0.008 A 
ATOM      2  C   UNL     1     -98.738  22.642 -28.821  1.00  0.00     0.050 A 
ATOM      3  C   UNL     1     -97.451  22.349 -28.354  1.00  0.00     0.161 A 
ATOM      4  C   UNL     1     -96.348  23.076 -28.837  1.00  0.00     0.200 A 
ATOM      5  C   UNL     1     -96.544  24.094 -29.789  1.00  0.00     0.161 A 
ATOM      6  C   UNL     1     -97.838  24.378 -30.248  1.00  0.00     0.050 A 
ENDROOT
BRANCH   3   7
ATOM      7  O   UNL     1     -97.290  21.335 -27.411  1.00  0.00    -0.504 OA
ATOM      8  H   UNL     1     -97.690  21.393 -26.483  1.00  0.00     0.293 HD
ENDBRANCH   3   7
BRANCH   5   9
ATOM      9  O   UNL     1     -95.457  24.819 -30.272  1.00  0.00    -0.504 OA
ATOM     10  H   UNL     1     -94.723  25.149 -29.657  1.00  0.00     0.293 HD
ENDBRANCH   5   9
BRANCH   4  11
ATOM     11  O   UNL     1     -95.067  22.779 -28.367  1.00  0.00    -0.502 OA
ATOM     12  H   UNL     1     -94.494  23.465 -27.891  1.00  0.00     0.293 HD
ENDBRANCH   4  11
TORSDOF 3
ENDMDL
