MODEL 1
REMARK VINA RESULT:    -2.771      0.000      0.000
REMARK INTER + INTRA:          -3.994
REMARK INTER:                  -3.742
REMARK INTRA:                  -0.252
REMARK UNBOUND:                -0.252
REMARK SMILES CCCCCCCC(=O)[O-]
REMARK SMILES IDX 5 1 6 2 7 3 8 4 9 5 10 6 4 7 3 8 2 9 1 10
REMARK H PARENT
REMARK Flexibility Score: inf
ROOT
ATOM      1  C   UNL     1       3.256 -51.305   9.561  1.00  0.00     0.000 C 
ENDROOT
BRANCH   1   2
ATOM      2  C   UNL     1       2.151 -50.245   9.486  1.00  0.00     0.006 C 
BRANCH   2   3
ATOM      3  C   UNL     1       0.939 -50.654  10.328  1.00  0.00     0.053 C 
BRANCH   3   4
ATOM      4  C   UNL     1      -0.319 -50.534   9.528  1.00  0.00     0.041 C 
ATOM      5  O   UNL     1      -0.791 -49.400   9.256  1.00  0.00    -0.550 OA
ATOM      6  O   UNL     1      -0.945 -51.675   9.041  1.00  0.00    -0.550 OA
ENDBRANCH   3   4
ENDBRANCH   2   3
ENDBRANCH   1   2
BRANCH   1   7
ATOM      7  C   UNL     1       3.574 -51.666  11.017  1.00  0.00     0.000 C 
BRANCH   7   8
ATOM      8  C   UNL     1       4.266 -53.031  11.106  1.00  0.00    -0.000 C 
BRANCH   8   9
ATOM      9  C   UNL     1       5.271 -53.215   9.962  1.00  0.00    -0.003 C 
ATOM     10  C   UNL     1       6.705 -53.217  10.482  1.00  0.00     0.004 C 
ENDBRANCH   8   9
ENDBRANCH   7   8
ENDBRANCH   1   7
TORSDOF 6
ENDMDL
MODEL 2
REMARK VINA RESULT:    -2.633      3.094      5.530
REMARK INTER + INTRA:          -3.809
REMARK INTER:                  -3.506
REMARK INTRA:                  -0.303
REMARK UNBOUND:                -0.252
REMARK SMILES CCCCCCCC(=O)[O-]
REMARK SMILES IDX 5 1 6 2 7 3 8 4 9 5 10 6 4 7 3 8 2 9 1 10
REMARK H PARENT
REMARK Flexibility Score: inf
ROOT
ATOM      1  C   UNL     1       2.651 -50.706   9.660  1.00  0.00     0.000 C 
ENDROOT
BRANCH   1   2
ATOM      2  C   UNL     1       2.819 -51.670  10.841  1.00  0.00     0.006 C 
BRANCH   2   3
ATOM      3  C   UNL     1       4.299 -51.939  11.125  1.00  0.00     0.053 C 
BRANCH   3   4
ATOM      4  C   UNL     1       4.719 -53.244  10.527  1.00  0.00     0.041 C 
ATOM      5  O   UNL     1       4.123 -54.307  10.844  1.00  0.00    -0.550 OA
ATOM      6  O   UNL     1       5.736 -53.281   9.582  1.00  0.00    -0.550 OA
ENDBRANCH   3   4
ENDBRANCH   2   3
ENDBRANCH   1   2
BRANCH   1   7
ATOM      7  C   UNL     1       1.420 -49.812   9.850  1.00  0.00     0.000 C 
BRANCH   7   8
ATOM      8  C   UNL     1       0.499 -50.368  10.943  1.00  0.00    -0.000 C 
BRANCH   8   9
ATOM      9  C   UNL     1      -0.973 -50.274  10.523  1.00  0.00    -0.003 C 
ATOM     10  C   UNL     1      -1.122 -49.534   9.197  1.00  0.00     0.004 C 
ENDBRANCH   8   9
ENDBRANCH   7   8
ENDBRANCH   1   7
TORSDOF 6
ENDMDL
MODEL 3
REMARK VINA RESULT:    -2.325      4.416      6.301
REMARK INTER + INTRA:          -3.392
REMARK INTER:                  -3.098
REMARK INTRA:                  -0.294
REMARK UNBOUND:                -0.252
REMARK SMILES CCCCCCCC(=O)[O-]
REMARK SMILES IDX 5 1 6 2 7 3 8 4 9 5 10 6 4 7 3 8 2 9 1 10
REMARK H PARENT
REMARK Flexibility Score: inf
ROOT
ATOM      1  C   UNL     1       4.107 -52.501   9.963  1.00  0.00     0.000 C 
ENDROOT
BRANCH   1   2
ATOM      2  C   UNL     1       5.475 -53.185   9.873  1.00  0.00     0.006 C 
BRANCH   2   3
ATOM      3  C   UNL     1       6.317 -52.898  11.120  1.00  0.00     0.053 C 
BRANCH   3   4
ATOM      4  C   UNL     1       7.775 -52.991  10.801  1.00  0.00     0.041 C 
ATOM      5  O   UNL     1       8.291 -54.102  10.511  1.00  0.00    -0.550 OA
ATOM      6  O   UNL     1       8.556 -51.842  10.776  1.00  0.00    -0.550 OA
ENDBRANCH   3   4
ENDBRANCH   2   3
ENDBRANCH   1   2
BRANCH   1   7
ATOM      7  C   UNL     1       4.067 -51.500  11.125  1.00  0.00     0.000 C 
BRANCH   7   8
ATOM      8  C   UNL     1       3.101 -50.348  10.827  1.00  0.00    -0.000 C 
BRANCH   8   9
ATOM      9  C   UNL     1       2.359 -50.580   9.505  1.00  0.00    -0.003 C 
ATOM     10  C   UNL     1       0.862 -50.333   9.661  1.00  0.00     0.004 C 
ENDBRANCH   8   9
ENDBRANCH   7   8
ENDBRANCH   1   7
TORSDOF 6
ENDMDL
MODEL 4
REMARK VINA RESULT:    -0.114      2.908      4.927
REMARK INTER + INTRA:          -0.406
REMARK INTER:                  -0.148
REMARK INTRA:                  -0.257
REMARK UNBOUND:                -0.252
REMARK SMILES CCCCCCCC(=O)[O-]
REMARK SMILES IDX 5 1 6 2 7 3 8 4 9 5 10 6 4 7 3 8 2 9 1 10
REMARK H PARENT
REMARK Flexibility Score: inf
ROOT
ATOM      1  C   UNL     1       1.433 -49.184   9.020  1.00  0.00     0.000 C 
ENDROOT
BRANCH   1   2
ATOM      2  C   UNL     1       2.590 -50.149   8.739  1.00  0.00     0.006 C 
BRANCH   2   3
ATOM      3  C   UNL     1       2.450 -51.431   9.565  1.00  0.00     0.053 C 
BRANCH   3   4
ATOM      4  C   UNL     1       3.531 -51.511  10.595  1.00  0.00     0.041 C 
ATOM      5  O   UNL     1       3.996 -50.460  11.109  1.00  0.00    -0.550 OA
ATOM      6  O   UNL     1       3.992 -52.749  11.025  1.00  0.00    -0.550 OA
ENDBRANCH   3   4
ENDBRANCH   2   3
ENDBRANCH   1   2
BRANCH   1   7
ATOM      7  C   UNL     1       0.093 -49.928   9.064  1.00  0.00     0.000 C 
BRANCH   7   8
ATOM      8  C   UNL     1      -0.525 -49.868  10.466  1.00  0.00    -0.000 C 
BRANCH   8   9
ATOM      9  C   UNL     1      -1.114 -51.225  10.867  1.00  0.00    -0.003 C 
ATOM     10  C   UNL     1      -0.867 -52.275   9.788  1.00  0.00     0.004 C 
ENDBRANCH   8   9
ENDBRANCH   7   8
ENDBRANCH   1   7
TORSDOF 6
ENDMDL
