MODEL 1
REMARK VINA RESULT:    -4.911      0.000      0.000
REMARK INTER + INTRA:          -5.640
REMARK INTER:                  -5.485
REMARK INTRA:                  -0.155
REMARK UNBOUND:                -0.155
REMARK SMILES O=C([O-])c1ccccc1C(=O)[O-]
REMARK SMILES IDX 4 1 9 2 5 3 8 4 6 5 7 6 2 7 1 8 3 9 10 10 11 11 12 12
REMARK H PARENT
REMARK Flexibility Score: inf
ROOT
ATOM      1  C   UNL     1       3.676  -3.593  26.059  1.00  0.00     0.006 A 
ATOM      2  C   UNL     1       2.805  -3.443  27.173  1.00  0.00     0.006 A 
ATOM      3  C   UNL     1       3.224  -3.215  24.780  1.00  0.00     0.010 A 
ATOM      4  C   UNL     1       1.538  -2.859  26.978  1.00  0.00     0.010 A 
ATOM      5  C   UNL     1       1.957  -2.658  24.607  1.00  0.00     0.001 A 
ATOM      6  C   UNL     1       1.120  -2.471  25.705  1.00  0.00     0.001 A 
ENDROOT
BRANCH   1   7
ATOM      7  C   UNL     1       5.073  -4.066  26.196  1.00  0.00     0.072 C 
ATOM      8  O   UNL     1       5.443  -5.125  25.623  1.00  0.00    -0.545 OA
ATOM      9  O   UNL     1       6.008  -3.317  26.901  1.00  0.00    -0.545 OA
ENDBRANCH   1   7
BRANCH   2  10
ATOM     10  C   UNL     1       3.144  -3.943  28.525  1.00  0.00     0.072 C 
ATOM     11  O   UNL     1       2.857  -5.125  28.854  1.00  0.00    -0.545 OA
ATOM     12  O   UNL     1       3.838  -3.141  29.424  1.00  0.00    -0.545 OA
ENDBRANCH   2  10
TORSDOF 2
ENDMDL
MODEL 2
REMARK VINA RESULT:    -4.892      0.100      2.862
REMARK INTER + INTRA:          -5.619
REMARK INTER:                  -5.482
REMARK INTRA:                  -0.137
REMARK UNBOUND:                -0.155
REMARK SMILES O=C([O-])c1ccccc1C(=O)[O-]
REMARK SMILES IDX 4 1 9 2 5 3 8 4 6 5 7 6 2 7 1 8 3 9 10 10 11 11 12 12
REMARK H PARENT
REMARK Flexibility Score: inf
ROOT
ATOM      1  C   UNL     1       2.819  -3.432  27.227  1.00  0.00     0.006 A 
ATOM      2  C   UNL     1       3.651  -3.605  26.087  1.00  0.00     0.006 A 
ATOM      3  C   UNL     1       1.549  -2.846  27.065  1.00  0.00     0.010 A 
ATOM      4  C   UNL     1       3.157  -3.247  24.818  1.00  0.00     0.010 A 
ATOM      5  C   UNL     1       1.089  -2.479  25.800  1.00  0.00     0.001 A 
ATOM      6  C   UNL     1       1.887  -2.689  24.678  1.00  0.00     0.001 A 
ENDROOT
BRANCH   1   7
ATOM      7  C   UNL     1       3.202  -3.910  28.576  1.00  0.00     0.072 C 
ATOM      8  O   UNL     1       3.069  -5.125  28.879  1.00  0.00    -0.545 OA
ATOM      9  O   UNL     1       3.770  -3.041  29.500  1.00  0.00    -0.545 OA
ENDBRANCH   1   7
BRANCH   2  10
ATOM     10  C   UNL     1       5.050  -4.080  26.185  1.00  0.00     0.072 C 
ATOM     11  O   UNL     1       5.409  -5.125  25.580  1.00  0.00    -0.545 OA
ATOM     12  O   UNL     1       5.999  -3.349  26.889  1.00  0.00    -0.545 OA
ENDBRANCH   2  10
TORSDOF 2
ENDMDL
MODEL 3
REMARK VINA RESULT:    -4.607      2.191      4.128
REMARK INTER + INTRA:          -5.300
REMARK INTER:                  -5.094
REMARK INTRA:                  -0.206
REMARK UNBOUND:                -0.155
REMARK SMILES O=C([O-])c1ccccc1C(=O)[O-]
REMARK SMILES IDX 4 1 9 2 5 3 8 4 6 5 7 6 2 7 1 8 3 9 10 10 11 11 12 12
REMARK H PARENT
REMARK Flexibility Score: inf
ROOT
ATOM      1  C   UNL     1       2.601  -3.941  26.547  1.00  0.00     0.006 A 
ATOM      2  C   UNL     1       4.020  -4.037  26.581  1.00  0.00     0.006 A 
ATOM      3  C   UNL     1       1.860  -4.374  27.663  1.00  0.00     0.010 A 
ATOM      4  C   UNL     1       4.647  -4.499  27.753  1.00  0.00     0.010 A 
ATOM      5  C   UNL     1       2.502  -4.849  28.806  1.00  0.00     0.001 A 
ATOM      6  C   UNL     1       3.893  -4.901  28.855  1.00  0.00     0.001 A 
ENDROOT
BRANCH   1   7
ATOM      7  C   UNL     1       1.867  -3.336  25.412  1.00  0.00     0.072 C 
ATOM      8  O   UNL     1       1.537  -2.121  25.446  1.00  0.00    -0.545 OA
ATOM      9  O   UNL     1       1.591  -4.079  24.270  1.00  0.00    -0.545 OA
ENDBRANCH   1   7
BRANCH   2  10
ATOM     10  C   UNL     1       4.868  -3.738  25.404  1.00  0.00     0.072 C 
ATOM     11  O   UNL     1       5.551  -2.680  25.367  1.00  0.00    -0.545 OA
ATOM     12  O   UNL     1       4.973  -4.647  24.357  1.00  0.00    -0.545 OA
ENDBRANCH   2  10
TORSDOF 2
ENDMDL
MODEL 4
REMARK VINA RESULT:    -4.586      2.189      3.461
REMARK INTER + INTRA:          -5.277
REMARK INTER:                  -5.085
REMARK INTRA:                  -0.192
REMARK UNBOUND:                -0.155
REMARK SMILES O=C([O-])c1ccccc1C(=O)[O-]
REMARK SMILES IDX 4 1 9 2 5 3 8 4 6 5 7 6 2 7 1 8 3 9 10 10 11 11 12 12
REMARK H PARENT
REMARK Flexibility Score: inf
ROOT
ATOM      1  C   UNL     1       4.017  -4.108  26.552  1.00  0.00     0.006 A 
ATOM      2  C   UNL     1       2.600  -3.995  26.553  1.00  0.00     0.006 A 
ATOM      3  C   UNL     1       4.662  -4.633  27.689  1.00  0.00     0.010 A 
ATOM      4  C   UNL     1       1.875  -4.470  27.662  1.00  0.00     0.010 A 
ATOM      5  C   UNL     1       3.925  -5.077  28.786  1.00  0.00     0.001 A 
ATOM      6  C   UNL     1       2.534  -5.006  28.768  1.00  0.00     0.001 A 
ENDROOT
BRANCH   1   7
ATOM      7  C   UNL     1       4.846  -3.765  25.373  1.00  0.00     0.072 C 
ATOM      8  O   UNL     1       5.524  -2.704  25.363  1.00  0.00    -0.545 OA
ATOM      9  O   UNL     1       4.937  -4.635  24.294  1.00  0.00    -0.545 OA
ENDBRANCH   1   7
BRANCH   2  10
ATOM     10  C   UNL     1       1.852  -3.328  25.462  1.00  0.00     0.072 C 
ATOM     11  O   UNL     1       1.479  -2.131  25.588  1.00  0.00    -0.545 OA
ATOM     12  O   UNL     1       1.608  -3.988  24.263  1.00  0.00    -0.545 OA
ENDBRANCH   2  10
TORSDOF 2
ENDMDL
MODEL 5
REMARK VINA RESULT:    -4.573      2.283      4.361
REMARK INTER + INTRA:          -5.262
REMARK INTER:                  -5.095
REMARK INTRA:                  -0.168
REMARK UNBOUND:                -0.155
REMARK SMILES O=C([O-])c1ccccc1C(=O)[O-]
REMARK SMILES IDX 4 1 9 2 5 3 8 4 6 5 7 6 2 7 1 8 3 9 10 10 11 11 12 12
REMARK H PARENT
REMARK Flexibility Score: inf
ROOT
ATOM      1  C   UNL     1       4.862  -4.561  26.001  1.00  0.00     0.006 A 
ATOM      2  C   UNL     1       4.486  -4.416  24.637  1.00  0.00     0.006 A 
ATOM      3  C   UNL     1       6.183  -4.938  26.310  1.00  0.00     0.010 A 
ATOM      4  C   UNL     1       5.460  -4.589  23.636  1.00  0.00     0.010 A 
ATOM      5  C   UNL     1       7.126  -5.125  25.300  1.00  0.00     0.001 A 
ATOM      6  C   UNL     1       6.769  -4.940  23.967  1.00  0.00     0.001 A 
ENDROOT
BRANCH   1   7
ATOM      7  C   UNL     1       3.940  -4.261  27.121  1.00  0.00     0.072 C 
ATOM      8  O   UNL     1       4.058  -3.187  27.768  1.00  0.00    -0.545 OA
ATOM      9  O   UNL     1       2.896  -5.125  27.430  1.00  0.00    -0.545 OA
ENDBRANCH   1   7
BRANCH   2  10
ATOM     10  C   UNL     1       3.088  -4.161  24.217  1.00  0.00     0.072 C 
ATOM     11  O   UNL     1       2.340  -5.120  23.892  1.00  0.00    -0.545 OA
ATOM     12  O   UNL     1       2.566  -2.873  24.237  1.00  0.00    -0.545 OA
ENDBRANCH   2  10
TORSDOF 2
ENDMDL
MODEL 6
REMARK VINA RESULT:    -4.569      2.166      3.563
REMARK INTER + INTRA:          -5.258
REMARK INTER:                  -5.025
REMARK INTRA:                  -0.234
REMARK UNBOUND:                -0.155
REMARK SMILES O=C([O-])c1ccccc1C(=O)[O-]
REMARK SMILES IDX 4 1 9 2 5 3 8 4 6 5 7 6 2 7 1 8 3 9 10 10 11 11 12 12
REMARK H PARENT
REMARK Flexibility Score: inf
ROOT
ATOM      1  C   UNL     1       4.009  -4.270  24.975  1.00  0.00     0.006 A 
ATOM      2  C   UNL     1       4.015  -4.436  26.387  1.00  0.00     0.006 A 
ATOM      3  C   UNL     1       5.211  -4.435  24.261  1.00  0.00     0.010 A 
ATOM      4  C   UNL     1       5.208  -4.824  27.025  1.00  0.00     0.010 A 
ATOM      5  C   UNL     1       6.387  -4.799  24.918  1.00  0.00     0.001 A 
ATOM      6  C   UNL     1       6.382  -5.004  26.295  1.00  0.00     0.001 A 
ENDROOT
BRANCH   1   7
ATOM      7  C   UNL     1       2.771  -4.001  24.207  1.00  0.00     0.072 C 
ATOM      8  O   UNL     1       2.061  -4.956  23.794  1.00  0.00    -0.545 OA
ATOM      9  O   UNL     1       2.342  -2.697  23.987  1.00  0.00    -0.545 OA
ENDBRANCH   1   7
BRANCH   2  10
ATOM     10  C   UNL     1       2.832  -4.145  27.230  1.00  0.00     0.072 C 
ATOM     11  O   UNL     1       2.654  -2.988  27.694  1.00  0.00    -0.545 OA
ATOM     12  O   UNL     1       1.873  -5.123  27.467  1.00  0.00    -0.545 OA
ENDBRANCH   2  10
TORSDOF 2
ENDMDL
MODEL 7
REMARK VINA RESULT:    -4.286     11.223     12.828
REMARK INTER + INTRA:          -4.942
REMARK INTER:                  -4.767
REMARK INTRA:                  -0.175
REMARK UNBOUND:                -0.155
REMARK SMILES O=C([O-])c1ccccc1C(=O)[O-]
REMARK SMILES IDX 4 1 9 2 5 3 8 4 6 5 7 6 2 7 1 8 3 9 10 10 11 11 12 12
REMARK H PARENT
REMARK Flexibility Score: inf
ROOT
ATOM      1  C   UNL     1      -2.577  -2.945  15.045  1.00  0.00     0.006 A 
ATOM      2  C   UNL     1      -2.013  -1.838  15.737  1.00  0.00     0.006 A 
ATOM      3  C   UNL     1      -2.795  -2.846  13.658  1.00  0.00     0.010 A 
ATOM      4  C   UNL     1      -1.626  -0.699  15.006  1.00  0.00     0.010 A 
ATOM      5  C   UNL     1      -2.423  -1.699  12.957  1.00  0.00     0.001 A 
ATOM      6  C   UNL     1      -1.830  -0.632  13.628  1.00  0.00     0.001 A 
ENDROOT
BRANCH   1   7
ATOM      7  C   UNL     1      -2.882  -4.233  15.711  1.00  0.00     0.072 C 
ATOM      8  O   UNL     1      -1.997  -5.125  15.800  1.00  0.00    -0.545 OA
ATOM      9  O   UNL     1      -4.122  -4.449  16.301  1.00  0.00    -0.545 OA
ENDBRANCH   1   7
BRANCH   2  10
ATOM     10  C   UNL     1      -1.880  -1.802  17.212  1.00  0.00     0.072 C 
ATOM     11  O   UNL     1      -0.741  -1.743  17.745  1.00  0.00    -0.545 OA
ATOM     12  O   UNL     1      -3.008  -1.767  18.024  1.00  0.00    -0.545 OA
ENDBRANCH   2  10
TORSDOF 2
ENDMDL
MODEL 8
REMARK VINA RESULT:    -4.257     11.281     12.954
REMARK INTER + INTRA:          -4.909
REMARK INTER:                  -4.745
REMARK INTRA:                  -0.165
REMARK UNBOUND:                -0.155
REMARK SMILES O=C([O-])c1ccccc1C(=O)[O-]
REMARK SMILES IDX 4 1 9 2 5 3 8 4 6 5 7 6 2 7 1 8 3 9 10 10 11 11 12 12
REMARK H PARENT
REMARK Flexibility Score: inf
ROOT
ATOM      1  C   UNL     1      -2.127  -1.817  15.723  1.00  0.00     0.006 A 
ATOM      2  C   UNL     1      -2.636  -2.943  15.021  1.00  0.00     0.006 A 
ATOM      3  C   UNL     1      -1.769  -0.663  15.000  1.00  0.00     0.010 A 
ATOM      4  C   UNL     1      -2.831  -2.852  13.630  1.00  0.00     0.010 A 
ATOM      5  C   UNL     1      -1.950  -0.603  13.618  1.00  0.00     0.001 A 
ATOM      6  C   UNL     1      -2.490  -1.691  12.936  1.00  0.00     0.001 A 
ENDROOT
BRANCH   1   7
ATOM      7  C   UNL     1      -2.023  -1.777  17.201  1.00  0.00     0.072 C 
ATOM      8  O   UNL     1      -0.896  -1.674  17.754  1.00  0.00    -0.545 OA
ATOM      9  O   UNL     1      -3.166  -1.786  17.992  1.00  0.00    -0.545 OA
ENDBRANCH   1   7
BRANCH   2  10
ATOM     10  C   UNL     1      -2.905  -4.242  15.681  1.00  0.00     0.072 C 
ATOM     11  O   UNL     1      -2.006  -5.122  15.737  1.00  0.00    -0.545 OA
ATOM     12  O   UNL     1      -4.125  -4.482  16.302  1.00  0.00    -0.545 OA
ENDBRANCH   2  10
TORSDOF 2
ENDMDL
MODEL 9
REMARK VINA RESULT:    -4.160     19.635     21.048
REMARK INTER + INTRA:          -4.802
REMARK INTER:                  -4.650
REMARK INTRA:                  -0.151
REMARK UNBOUND:                -0.155
REMARK SMILES O=C([O-])c1ccccc1C(=O)[O-]
REMARK SMILES IDX 4 1 9 2 5 3 8 4 6 5 7 6 2 7 1 8 3 9 10 10 11 11 12 12
REMARK H PARENT
REMARK Flexibility Score: inf
ROOT
ATOM      1  C   UNL     1      -1.091  11.403  12.970  1.00  0.00     0.006 A 
ATOM      2  C   UNL     1      -0.111  12.419  13.136  1.00  0.00     0.006 A 
ATOM      3  C   UNL     1      -2.429  11.774  12.737  1.00  0.00     0.010 A 
ATOM      4  C   UNL     1      -0.492  13.767  12.997  1.00  0.00     0.010 A 
ATOM      5  C   UNL     1      -2.788  13.117  12.625  1.00  0.00     0.001 A 
ATOM      6  C   UNL     1      -1.820  14.111  12.743  1.00  0.00     0.001 A 
ENDROOT
BRANCH   1   7
ATOM      7  C   UNL     1      -0.753   9.961  12.960  1.00  0.00     0.072 C 
ATOM      8  O   UNL     1      -0.741   9.320  11.875  1.00  0.00    -0.545 OA
ATOM      9  O   UNL     1      -0.383   9.311  14.132  1.00  0.00    -0.545 OA
ENDBRANCH   1   7
BRANCH   2  10
ATOM     10  C   UNL     1       1.289  12.124  13.522  1.00  0.00     0.072 C 
ATOM     11  O   UNL     1       2.197  12.106  12.650  1.00  0.00    -0.545 OA
ATOM     12  O   UNL     1       1.629  11.928  14.856  1.00  0.00    -0.545 OA
ENDBRANCH   2  10
TORSDOF 2
ENDMDL
