MODEL 1
REMARK VINA RESULT:    -5.787      0.000      0.000
REMARK INTER + INTRA:         -12.211
REMARK INTER:                 -11.199
REMARK INTRA:                  -1.011
REMARK UNBOUND:                -1.011
REMARK SMILES CCCCCCCCCCCCCCCCCC(=O)[O-]
REMARK SMILES IDX 10 1 11 2 12 3 13 4 14 5 15 6 16 7 17 8 18 9 19 10 20 11
REMARK SMILES IDX 9 12 8 13 7 14 6 15 5 16 4 17 3 18 2 19 1 20
REMARK H PARENT
REMARK Flexibility Score: inf
ROOT
ATOM      1  C   UNL     1     -16.167  -6.119  41.002  1.00  0.00     0.000 C 
ENDROOT
BRANCH   1   2
ATOM      2  C   UNL     1     -17.010  -6.602  42.199  1.00  0.00     0.000 C 
BRANCH   2   3
ATOM      3  C   UNL     1     -18.106  -7.629  41.848  1.00  0.00     0.000 C 
BRANCH   3   4
ATOM      4  C   UNL     1     -18.029  -8.957  42.628  1.00  0.00     0.000 C 
BRANCH   4   5
ATOM      5  C   UNL     1     -17.228  -8.902  43.942  1.00  0.00     0.000 C 
BRANCH   5   6
ATOM      6  C   UNL     1     -16.648 -10.268  44.344  1.00  0.00     0.000 C 
BRANCH   6   7
ATOM      7  C   UNL     1     -15.359 -10.141  45.173  1.00  0.00     0.006 C 
BRANCH   7   8
ATOM      8  C   UNL     1     -15.344 -11.069  46.394  1.00  0.00     0.053 C 
BRANCH   8   9
ATOM      9  C   UNL     1     -15.389 -10.270  47.657  1.00  0.00     0.041 C 
ATOM     10  O   UNL     1     -14.320  -9.921  48.224  1.00  0.00    -0.550 OA
ATOM     11  O   UNL     1     -16.610  -9.865  48.182  1.00  0.00    -0.550 OA
ENDBRANCH   8   9
ENDBRANCH   7   8
ENDBRANCH   6   7
ENDBRANCH   5   6
ENDBRANCH   4   5
ENDBRANCH   3   4
ENDBRANCH   2   3
ENDBRANCH   1   2
BRANCH   1  12
ATOM     12  C   UNL     1     -16.957  -5.897  39.696  1.00  0.00     0.000 C 
BRANCH  12  13
ATOM     13  C   UNL     1     -16.425  -6.671  38.475  1.00  0.00    -0.000 C 
BRANCH  13  14
ATOM     14  C   UNL     1     -15.377  -5.917  37.633  1.00  0.00    -0.000 C 
BRANCH  14  15
ATOM     15  C   UNL     1     -13.976  -6.560  37.604  1.00  0.00    -0.000 C 
BRANCH  15  16
ATOM     16  C   UNL     1     -13.254  -6.599  38.964  1.00  0.00    -0.000 C 
BRANCH  16  17
ATOM     17  C   UNL     1     -12.150  -7.669  39.019  1.00  0.00    -0.000 C 
BRANCH  17  18
ATOM     18  C   UNL     1     -11.801  -8.229  37.631  1.00  0.00    -0.000 C 
BRANCH  18  19
ATOM     19  C   UNL     1     -11.090  -9.588  37.706  1.00  0.00    -0.003 C 
ATOM     20  C   UNL     1     -10.429  -9.789  39.067  1.00  0.00     0.004 C 
ENDBRANCH  18  19
ENDBRANCH  17  18
ENDBRANCH  16  17
ENDBRANCH  15  16
ENDBRANCH  14  15
ENDBRANCH  13  14
ENDBRANCH  12  13
ENDBRANCH   1  12
TORSDOF 16
ENDMDL
MODEL 2
REMARK VINA RESULT:    -5.782      0.952      1.818
REMARK INTER + INTRA:         -12.202
REMARK INTER:                 -11.192
REMARK INTRA:                  -1.010
REMARK UNBOUND:                -1.011
REMARK SMILES CCCCCCCCCCCCCCCCCC(=O)[O-]
REMARK SMILES IDX 10 1 11 2 12 3 13 4 14 5 15 6 16 7 17 8 18 9 19 10 20 11
REMARK SMILES IDX 9 12 8 13 7 14 6 15 5 16 4 17 3 18 2 19 1 20
REMARK H PARENT
REMARK Flexibility Score: inf
ROOT
ATOM      1  C   UNL     1     -16.706  -6.510  41.692  1.00  0.00     0.000 C 
ENDROOT
BRANCH   1   2
ATOM      2  C   UNL     1     -16.912  -7.031  43.128  1.00  0.00     0.000 C 
BRANCH   2   3
ATOM      3  C   UNL     1     -17.641  -8.386  43.228  1.00  0.00     0.000 C 
BRANCH   3   4
ATOM      4  C   UNL     1     -17.496  -9.107  44.583  1.00  0.00     0.000 C 
BRANCH   4   5
ATOM      5  C   UNL     1     -16.608 -10.366  44.565  1.00  0.00     0.000 C 
BRANCH   5   6
ATOM      6  C   UNL     1     -15.244 -10.142  45.237  1.00  0.00     0.000 C 
BRANCH   6   7
ATOM      7  C   UNL     1     -15.045 -11.029  46.477  1.00  0.00     0.006 C 
BRANCH   7   8
ATOM      8  C   UNL     1     -16.078 -10.753  47.577  1.00  0.00     0.053 C 
BRANCH   8   9
ATOM      9  C   UNL     1     -15.693  -9.540  48.362  1.00  0.00     0.041 C 
ATOM     10  O   UNL     1     -16.262  -8.438  48.143  1.00  0.00    -0.550 OA
ATOM     11  O   UNL     1     -14.743  -9.637  49.371  1.00  0.00    -0.550 OA
ENDBRANCH   8   9
ENDBRANCH   7   8
ENDBRANCH   6   7
ENDBRANCH   5   6
ENDBRANCH   4   5
ENDBRANCH   3   4
ENDBRANCH   2   3
ENDBRANCH   1   2
BRANCH   1  12
ATOM     12  C   UNL     1     -17.847  -6.839  40.709  1.00  0.00     0.000 C 
BRANCH  12  13
ATOM     13  C   UNL     1     -17.394  -7.169  39.274  1.00  0.00    -0.000 C 
BRANCH  13  14
ATOM     14  C   UNL     1     -16.927  -5.957  38.445  1.00  0.00    -0.000 C 
BRANCH  14  15
ATOM     15  C   UNL     1     -15.400  -5.750  38.394  1.00  0.00    -0.000 C 
BRANCH  15  16
ATOM     16  C   UNL     1     -14.729  -6.198  37.082  1.00  0.00    -0.000 C 
BRANCH  16  17
ATOM     17  C   UNL     1     -13.414  -6.960  37.316  1.00  0.00    -0.000 C 
BRANCH  17  18
ATOM     18  C   UNL     1     -13.020  -7.011  38.801  1.00  0.00    -0.000 C 
BRANCH  18  19
ATOM     19  C   UNL     1     -11.818  -7.933  39.059  1.00  0.00    -0.003 C 
ATOM     20  C   UNL     1     -11.509  -8.789  37.835  1.00  0.00     0.004 C 
ENDBRANCH  18  19
ENDBRANCH  17  18
ENDBRANCH  16  17
ENDBRANCH  15  16
ENDBRANCH  14  15
ENDBRANCH  13  14
ENDBRANCH  12  13
ENDBRANCH   1  12
TORSDOF 16
ENDMDL
MODEL 3
REMARK VINA RESULT:    -5.707      1.609      3.042
REMARK INTER + INTRA:         -12.057
REMARK INTER:                 -11.045
REMARK INTRA:                  -1.012
REMARK UNBOUND:                -1.011
REMARK SMILES CCCCCCCCCCCCCCCCCC(=O)[O-]
REMARK SMILES IDX 10 1 11 2 12 3 13 4 14 5 15 6 16 7 17 8 18 9 19 10 20 11
REMARK SMILES IDX 9 12 8 13 7 14 6 15 5 16 4 17 3 18 2 19 1 20
REMARK H PARENT
REMARK Flexibility Score: inf
ROOT
ATOM      1  C   UNL     1     -15.470  -6.100  38.616  1.00  0.00     0.000 C 
ENDROOT
BRANCH   1   2
ATOM      2  C   UNL     1     -16.976  -6.349  38.835  1.00  0.00     0.000 C 
BRANCH   2   3
ATOM      3  C   UNL     1     -17.407  -6.460  40.311  1.00  0.00     0.000 C 
BRANCH   3   4
ATOM      4  C   UNL     1     -16.270  -6.286  41.338  1.00  0.00     0.000 C 
BRANCH   4   5
ATOM      5  C   UNL     1     -16.575  -6.818  42.751  1.00  0.00     0.000 C 
BRANCH   5   6
ATOM      6  C   UNL     1     -17.916  -7.566  42.829  1.00  0.00     0.000 C 
BRANCH   6   7
ATOM      7  C   UNL     1     -17.743  -9.053  43.181  1.00  0.00     0.006 C 
BRANCH   7   8
ATOM      8  C   UNL     1     -17.389  -9.277  44.657  1.00  0.00     0.053 C 
BRANCH   8   9
ATOM      9  C   UNL     1     -16.051  -9.934  44.779  1.00  0.00     0.041 C 
ATOM     10  O   UNL     1     -15.946 -11.183  44.652  1.00  0.00    -0.550 OA
ATOM     11  O   UNL     1     -14.912  -9.164  44.979  1.00  0.00    -0.550 OA
ENDBRANCH   8   9
ENDBRANCH   7   8
ENDBRANCH   6   7
ENDBRANCH   5   6
ENDBRANCH   4   5
ENDBRANCH   3   4
ENDBRANCH   2   3
ENDBRANCH   1   2
BRANCH   1  12
ATOM     12  C   UNL     1     -15.069  -5.770  37.164  1.00  0.00     0.000 C 
BRANCH  12  13
ATOM     13  C   UNL     1     -13.918  -6.624  36.598  1.00  0.00    -0.000 C 
BRANCH  13  14
ATOM     14  C   UNL     1     -13.019  -7.288  37.660  1.00  0.00    -0.000 C 
BRANCH  14  15
ATOM     15  C   UNL     1     -12.060  -8.368  37.121  1.00  0.00    -0.000 C 
BRANCH  15  16
ATOM     16  C   UNL     1     -11.161  -9.025  38.186  1.00  0.00    -0.000 C 
BRANCH  16  17
ATOM     17  C   UNL     1     -11.381  -8.441  39.591  1.00  0.00    -0.000 C 
BRANCH  17  18
ATOM     18  C   UNL     1     -10.326  -8.921  40.601  1.00  0.00    -0.000 C 
BRANCH  18  19
ATOM     19  C   UNL     1     -10.095 -10.438  40.535  1.00  0.00    -0.003 C 
ATOM     20  C   UNL     1      -8.651 -10.759  40.162  1.00  0.00     0.004 C 
ENDBRANCH  18  19
ENDBRANCH  17  18
ENDBRANCH  16  17
ENDBRANCH  15  16
ENDBRANCH  14  15
ENDBRANCH  13  14
ENDBRANCH  12  13
ENDBRANCH   1  12
TORSDOF 16
ENDMDL
MODEL 4
REMARK VINA RESULT:    -5.675      1.452      2.225
REMARK INTER + INTRA:         -11.995
REMARK INTER:                 -10.776
REMARK INTRA:                  -1.219
REMARK UNBOUND:                -1.011
REMARK SMILES CCCCCCCCCCCCCCCCCC(=O)[O-]
REMARK SMILES IDX 10 1 11 2 12 3 13 4 14 5 15 6 16 7 17 8 18 9 19 10 20 11
REMARK SMILES IDX 9 12 8 13 7 14 6 15 5 16 4 17 3 18 2 19 1 20
REMARK H PARENT
REMARK Flexibility Score: inf
ROOT
ATOM      1  C   UNL     1     -15.996  -6.553  42.991  1.00  0.00     0.000 C 
ENDROOT
BRANCH   1   2
ATOM      2  C   UNL     1     -17.458  -6.576  43.480  1.00  0.00     0.000 C 
BRANCH   2   3
ATOM      3  C   UNL     1     -17.862  -7.845  44.257  1.00  0.00     0.000 C 
BRANCH   3   4
ATOM      4  C   UNL     1     -17.447  -9.175  43.596  1.00  0.00     0.000 C 
BRANCH   4   5
ATOM      5  C   UNL     1     -16.810 -10.208  44.545  1.00  0.00     0.000 C 
BRANCH   5   6
ATOM      6  C   UNL     1     -17.283 -10.052  46.000  1.00  0.00     0.000 C 
BRANCH   6   7
ATOM      7  C   UNL     1     -16.116 -10.049  47.002  1.00  0.00     0.006 C 
BRANCH   7   8
ATOM      8  C   UNL     1     -15.069 -11.128  46.697  1.00  0.00     0.053 C 
BRANCH   8   9
ATOM      9  C   UNL     1     -13.705 -10.521  46.613  1.00  0.00     0.041 C 
ATOM     10  O   UNL     1     -13.291 -10.040  45.526  1.00  0.00    -0.550 OA
ATOM     11  O   UNL     1     -12.909 -10.439  47.749  1.00  0.00    -0.550 OA
ENDBRANCH   8   9
ENDBRANCH   7   8
ENDBRANCH   6   7
ENDBRANCH   5   6
ENDBRANCH   4   5
ENDBRANCH   3   4
ENDBRANCH   2   3
ENDBRANCH   1   2
BRANCH   1  12
ATOM     12  C   UNL     1     -15.806  -6.108  41.527  1.00  0.00     0.000 C 
BRANCH  12  13
ATOM     13  C   UNL     1     -17.004  -6.391  40.600  1.00  0.00    -0.000 C 
BRANCH  13  14
ATOM     14  C   UNL     1     -16.982  -5.631  39.260  1.00  0.00    -0.000 C 
BRANCH  14  15
ATOM     15  C   UNL     1     -16.236  -6.345  38.115  1.00  0.00    -0.000 C 
BRANCH  15  16
ATOM     16  C   UNL     1     -14.803  -5.841  37.862  1.00  0.00    -0.000 C 
BRANCH  16  17
ATOM     17  C   UNL     1     -14.077  -6.637  36.765  1.00  0.00    -0.000 C 
BRANCH  17  18
ATOM     18  C   UNL     1     -12.884  -7.438  37.309  1.00  0.00    -0.000 C 
BRANCH  18  19
ATOM     19  C   UNL     1     -12.671  -7.227  38.816  1.00  0.00    -0.003 C 
ATOM     20  C   UNL     1     -11.614  -8.183  39.361  1.00  0.00     0.004 C 
ENDBRANCH  18  19
ENDBRANCH  17  18
ENDBRANCH  16  17
ENDBRANCH  15  16
ENDBRANCH  14  15
ENDBRANCH  13  14
ENDBRANCH  12  13
ENDBRANCH   1  12
TORSDOF 16
ENDMDL
MODEL 5
REMARK VINA RESULT:    -5.537      1.477      3.242
REMARK INTER + INTRA:         -11.728
REMARK INTER:                 -10.310
REMARK INTRA:                  -1.418
REMARK UNBOUND:                -1.011
REMARK SMILES CCCCCCCCCCCCCCCCCC(=O)[O-]
REMARK SMILES IDX 10 1 11 2 12 3 13 4 14 5 15 6 16 7 17 8 18 9 19 10 20 11
REMARK SMILES IDX 9 12 8 13 7 14 6 15 5 16 4 17 3 18 2 19 1 20
REMARK H PARENT
REMARK Flexibility Score: inf
ROOT
ATOM      1  C   UNL     1     -17.502  -7.255  44.518  1.00  0.00     0.000 C 
ENDROOT
BRANCH   1   2
ATOM      2  C   UNL     1     -18.118  -8.657  44.341  1.00  0.00     0.000 C 
BRANCH   2   3
ATOM      3  C   UNL     1     -17.231  -9.665  43.583  1.00  0.00     0.000 C 
BRANCH   3   4
ATOM      4  C   UNL     1     -16.564 -10.740  44.464  1.00  0.00     0.000 C 
BRANCH   4   5
ATOM      5  C   UNL     1     -15.224 -10.327  45.101  1.00  0.00     0.000 C 
BRANCH   5   6
ATOM      6  C   UNL     1     -15.129 -10.707  46.588  1.00  0.00     0.000 C 
BRANCH   6   7
ATOM      7  C   UNL     1     -16.411 -10.368  47.366  1.00  0.00     0.006 C 
BRANCH   7   8
ATOM      8  C   UNL     1     -16.126  -9.848  48.781  1.00  0.00     0.053 C 
BRANCH   8   9
ATOM      9  C   UNL     1     -15.743  -8.403  48.737  1.00  0.00     0.041 C 
ATOM     10  O   UNL     1     -14.904  -7.945  49.558  1.00  0.00    -0.550 OA
ATOM     11  O   UNL     1     -16.271  -7.572  47.757  1.00  0.00    -0.550 OA
ENDBRANCH   8   9
ENDBRANCH   7   8
ENDBRANCH   6   7
ENDBRANCH   5   6
ENDBRANCH   4   5
ENDBRANCH   3   4
ENDBRANCH   2   3
ENDBRANCH   1   2
BRANCH   1  12
ATOM     12  C   UNL     1     -17.294  -6.465  43.210  1.00  0.00     0.000 C 
BRANCH  12  13
ATOM     13  C   UNL     1     -15.823  -6.279  42.790  1.00  0.00    -0.000 C 
BRANCH  13  14
ATOM     14  C   UNL     1     -15.602  -6.061  41.280  1.00  0.00    -0.000 C 
BRANCH  14  15
ATOM     15  C   UNL     1     -16.825  -6.359  40.390  1.00  0.00    -0.000 C 
BRANCH  15  16
ATOM     16  C   UNL     1     -16.618  -6.082  38.890  1.00  0.00    -0.000 C 
BRANCH  16  17
ATOM     17  C   UNL     1     -15.312  -5.323  38.601  1.00  0.00    -0.000 C 
BRANCH  17  18
ATOM     18  C   UNL     1     -14.372  -6.101  37.666  1.00  0.00    -0.000 C 
BRANCH  18  19
ATOM     19  C   UNL     1     -13.323  -6.919  38.433  1.00  0.00    -0.003 C 
ATOM     20  C   UNL     1     -12.451  -7.728  37.478  1.00  0.00     0.004 C 
ENDBRANCH  18  19
ENDBRANCH  17  18
ENDBRANCH  16  17
ENDBRANCH  15  16
ENDBRANCH  14  15
ENDBRANCH  13  14
ENDBRANCH  12  13
ENDBRANCH   1  12
TORSDOF 16
ENDMDL
MODEL 6
REMARK VINA RESULT:    -5.456      4.056      7.887
REMARK INTER + INTRA:         -11.572
REMARK INTER:                 -10.437
REMARK INTRA:                  -1.134
REMARK UNBOUND:                -1.011
REMARK SMILES CCCCCCCCCCCCCCCCCC(=O)[O-]
REMARK SMILES IDX 10 1 11 2 12 3 13 4 14 5 15 6 16 7 17 8 18 9 19 10 20 11
REMARK SMILES IDX 9 12 8 13 7 14 6 15 5 16 4 17 3 18 2 19 1 20
REMARK H PARENT
REMARK Flexibility Score: inf
ROOT
ATOM      1  C   UNL     1     -16.146  -6.156  40.552  1.00  0.00     0.000 C 
ENDROOT
BRANCH   1   2
ATOM      2  C   UNL     1     -16.208  -5.413  39.203  1.00  0.00     0.000 C 
BRANCH   2   3
ATOM      3  C   UNL     1     -14.853  -5.260  38.484  1.00  0.00     0.000 C 
BRANCH   3   4
ATOM      4  C   UNL     1     -14.626  -6.228  37.305  1.00  0.00     0.000 C 
BRANCH   4   5
ATOM      5  C   UNL     1     -13.291  -6.996  37.334  1.00  0.00     0.000 C 
BRANCH   5   6
ATOM      6  C   UNL     1     -12.753  -7.202  38.759  1.00  0.00     0.000 C 
BRANCH   6   7
ATOM      7  C   UNL     1     -11.475  -8.056  38.789  1.00  0.00     0.006 C 
BRANCH   7   8
ATOM      8  C   UNL     1     -11.430  -9.097  37.664  1.00  0.00     0.053 C 
BRANCH   8   9
ATOM      9  C   UNL     1     -10.031  -9.258  37.158  1.00  0.00     0.041 C 
ATOM     10  O   UNL     1      -9.080  -9.419  37.967  1.00  0.00    -0.550 OA
ATOM     11  O   UNL     1      -9.784  -9.284  35.791  1.00  0.00    -0.550 OA
ENDBRANCH   8   9
ENDBRANCH   7   8
ENDBRANCH   6   7
ENDBRANCH   5   6
ENDBRANCH   4   5
ENDBRANCH   3   4
ENDBRANCH   2   3
ENDBRANCH   1   2
BRANCH   1  12
ATOM     12  C   UNL     1     -17.503  -6.668  41.077  1.00  0.00     0.000 C 
BRANCH  12  13
ATOM     13  C   UNL     1     -17.746  -6.439  42.581  1.00  0.00    -0.000 C 
BRANCH  13  14
ATOM     14  C   UNL     1     -17.427  -7.648  43.482  1.00  0.00    -0.000 C 
BRANCH  14  15
ATOM     15  C   UNL     1     -17.791  -9.022  42.885  1.00  0.00    -0.000 C 
BRANCH  15  16
ATOM     16  C   UNL     1     -17.153 -10.228  43.599  1.00  0.00    -0.000 C 
BRANCH  16  17
ATOM     17  C   UNL     1     -16.462  -9.840  44.917  1.00  0.00    -0.000 C 
BRANCH  17  18
ATOM     18  C   UNL     1     -15.121 -10.565  45.116  1.00  0.00    -0.000 C 
BRANCH  18  19
ATOM     19  C   UNL     1     -14.010  -9.624  45.604  1.00  0.00    -0.003 C 
ATOM     20  C   UNL     1     -14.000  -8.324  44.805  1.00  0.00     0.004 C 
ENDBRANCH  18  19
ENDBRANCH  17  18
ENDBRANCH  16  17
ENDBRANCH  15  16
ENDBRANCH  14  15
ENDBRANCH  13  14
ENDBRANCH  12  13
ENDBRANCH   1  12
TORSDOF 16
ENDMDL
MODEL 7
REMARK VINA RESULT:    -5.449      3.617      8.591
REMARK INTER + INTRA:         -11.556
REMARK INTER:                 -10.119
REMARK INTRA:                  -1.438
REMARK UNBOUND:                -1.011
REMARK SMILES CCCCCCCCCCCCCCCCCC(=O)[O-]
REMARK SMILES IDX 10 1 11 2 12 3 13 4 14 5 15 6 16 7 17 8 18 9 19 10 20 11
REMARK SMILES IDX 9 12 8 13 7 14 6 15 5 16 4 17 3 18 2 19 1 20
REMARK H PARENT
REMARK Flexibility Score: inf
ROOT
ATOM      1  C   UNL     1     -17.475  -7.571  45.213  1.00  0.00     0.000 C 
ENDROOT
BRANCH   1   2
ATOM      2  C   UNL     1     -16.959  -6.950  43.900  1.00  0.00     0.000 C 
BRANCH   2   3
ATOM      3  C   UNL     1     -18.060  -6.493  42.922  1.00  0.00     0.000 C 
BRANCH   3   4
ATOM      4  C   UNL     1     -17.847  -6.917  41.454  1.00  0.00     0.000 C 
BRANCH   4   5
ATOM      5  C   UNL     1     -16.523  -6.451  40.822  1.00  0.00     0.000 C 
BRANCH   5   6
ATOM      6  C   UNL     1     -16.726  -5.717  39.486  1.00  0.00     0.000 C 
BRANCH   6   7
ATOM      7  C   UNL     1     -15.401  -5.247  38.863  1.00  0.00     0.006 C 
BRANCH   7   8
ATOM      8  C   UNL     1     -14.980  -6.093  37.655  1.00  0.00     0.053 C 
BRANCH   8   9
ATOM      9  C   UNL     1     -13.663  -6.753  37.914  1.00  0.00     0.041 C 
ATOM     10  O   UNL     1     -13.019  -7.274  36.966  1.00  0.00    -0.550 OA
ATOM     11  O   UNL     1     -13.122  -6.747  39.194  1.00  0.00    -0.550 OA
ENDBRANCH   8   9
ENDBRANCH   7   8
ENDBRANCH   6   7
ENDBRANCH   5   6
ENDBRANCH   4   5
ENDBRANCH   3   4
ENDBRANCH   2   3
ENDBRANCH   1   2
BRANCH   1  12
ATOM     12  C   UNL     1     -17.767  -9.083  45.148  1.00  0.00     0.000 C 
BRANCH  12  13
ATOM     13  C   UNL     1     -16.973  -9.853  44.074  1.00  0.00    -0.000 C 
BRANCH  13  14
ATOM     14  C   UNL     1     -16.009 -10.924  44.622  1.00  0.00    -0.000 C 
BRANCH  14  15
ATOM     15  C   UNL     1     -15.041 -10.433  45.717  1.00  0.00    -0.000 C 
BRANCH  15  16
ATOM     16  C   UNL     1     -15.137 -11.191  47.054  1.00  0.00    -0.000 C 
BRANCH  16  17
ATOM     17  C   UNL     1     -15.991 -10.450  48.097  1.00  0.00    -0.000 C 
BRANCH  17  18
ATOM     18  C   UNL     1     -15.199 -10.104  49.368  1.00  0.00    -0.000 C 
BRANCH  18  19
ATOM     19  C   UNL     1     -15.214  -8.600  49.680  1.00  0.00    -0.003 C 
ATOM     20  C   UNL     1     -15.786  -7.802  48.512  1.00  0.00     0.004 C 
ENDBRANCH  18  19
ENDBRANCH  17  18
ENDBRANCH  16  17
ENDBRANCH  15  16
ENDBRANCH  14  15
ENDBRANCH  13  14
ENDBRANCH  12  13
ENDBRANCH   1  12
TORSDOF 16
ENDMDL
MODEL 8
REMARK VINA RESULT:    -5.420      3.471      7.918
REMARK INTER + INTRA:         -11.502
REMARK INTER:                 -10.564
REMARK INTRA:                  -0.938
REMARK UNBOUND:                -1.011
REMARK SMILES CCCCCCCCCCCCCCCCCC(=O)[O-]
REMARK SMILES IDX 10 1 11 2 12 3 13 4 14 5 15 6 16 7 17 8 18 9 19 10 20 11
REMARK SMILES IDX 9 12 8 13 7 14 6 15 5 16 4 17 3 18 2 19 1 20
REMARK H PARENT
REMARK Flexibility Score: inf
ROOT
ATOM      1  C   UNL     1     -16.865  -6.540  41.833  1.00  0.00     0.000 C 
ENDROOT
BRANCH   1   2
ATOM      2  C   UNL     1     -17.857  -6.524  40.653  1.00  0.00     0.000 C 
BRANCH   2   3
ATOM      3  C   UNL     1     -17.398  -5.705  39.431  1.00  0.00     0.000 C 
BRANCH   3   4
ATOM      4  C   UNL     1     -16.476  -6.456  38.449  1.00  0.00     0.000 C 
BRANCH   4   5
ATOM      5  C   UNL     1     -15.069  -5.854  38.277  1.00  0.00     0.000 C 
BRANCH   5   6
ATOM      6  C   UNL     1     -14.443  -6.184  36.912  1.00  0.00     0.000 C 
BRANCH   6   7
ATOM      7  C   UNL     1     -13.293  -7.199  37.021  1.00  0.00     0.006 C 
BRANCH   7   8
ATOM      8  C   UNL     1     -12.706  -7.283  38.436  1.00  0.00     0.053 C 
BRANCH   8   9
ATOM      9  C   UNL     1     -11.527  -8.202  38.458  1.00  0.00     0.041 C 
ATOM     10  O   UNL     1     -11.250  -8.852  39.501  1.00  0.00    -0.550 OA
ATOM     11  O   UNL     1     -10.765  -8.384  37.311  1.00  0.00    -0.550 OA
ENDBRANCH   8   9
ENDBRANCH   7   8
ENDBRANCH   6   7
ENDBRANCH   5   6
ENDBRANCH   4   5
ENDBRANCH   3   4
ENDBRANCH   2   3
ENDBRANCH   1   2
BRANCH   1  12
ATOM     12  C   UNL     1     -17.432  -7.096  43.154  1.00  0.00     0.000 C 
BRANCH  12  13
ATOM     13  C   UNL     1     -17.740  -8.606  43.146  1.00  0.00    -0.000 C 
BRANCH  13  14
ATOM     14  C   UNL     1     -17.438  -9.338  44.468  1.00  0.00    -0.000 C 
BRANCH  14  15
ATOM     15  C   UNL     1     -16.541 -10.585  44.334  1.00  0.00    -0.000 C 
BRANCH  15  16
ATOM     16  C   UNL     1     -15.466 -10.730  45.427  1.00  0.00    -0.000 C 
BRANCH  16  17
ATOM     17  C   UNL     1     -14.270  -9.787  45.212  1.00  0.00    -0.000 C 
BRANCH  17  18
ATOM     18  C   UNL     1     -14.112  -8.766  46.350  1.00  0.00    -0.000 C 
BRANCH  18  19
ATOM     19  C   UNL     1     -14.912  -9.153  47.603  1.00  0.00    -0.003 C 
ATOM     20  C   UNL     1     -14.027  -9.864  48.623  1.00  0.00     0.004 C 
ENDBRANCH  18  19
ENDBRANCH  17  18
ENDBRANCH  16  17
ENDBRANCH  15  16
ENDBRANCH  14  15
ENDBRANCH  13  14
ENDBRANCH  12  13
ENDBRANCH   1  12
TORSDOF 16
ENDMDL
MODEL 9
REMARK VINA RESULT:    -5.350      3.910      8.287
REMARK INTER + INTRA:         -11.366
REMARK INTER:                  -9.572
REMARK INTRA:                  -1.794
REMARK UNBOUND:                -1.011
REMARK SMILES CCCCCCCCCCCCCCCCCC(=O)[O-]
REMARK SMILES IDX 10 1 11 2 12 3 13 4 14 5 15 6 16 7 17 8 18 9 19 10 20 11
REMARK SMILES IDX 9 12 8 13 7 14 6 15 5 16 4 17 3 18 2 19 1 20
REMARK H PARENT
REMARK Flexibility Score: inf
ROOT
ATOM      1  C   UNL     1     -17.080  -9.635  44.758  1.00  0.00     0.000 C 
ENDROOT
BRANCH   1   2
ATOM      2  C   UNL     1     -17.404  -8.894  43.445  1.00  0.00     0.000 C 
BRANCH   2   3
ATOM      3  C   UNL     1     -16.939  -7.425  43.398  1.00  0.00     0.000 C 
BRANCH   3   4
ATOM      4  C   UNL     1     -17.529  -6.590  42.245  1.00  0.00     0.000 C 
BRANCH   4   5
ATOM      5  C   UNL     1     -16.609  -6.417  41.022  1.00  0.00     0.000 C 
BRANCH   5   6
ATOM      6  C   UNL     1     -17.387  -6.124  39.728  1.00  0.00     0.000 C 
BRANCH   6   7
ATOM      7  C   UNL     1     -16.516  -6.274  38.469  1.00  0.00     0.006 C 
BRANCH   7   8
ATOM      8  C   UNL     1     -15.057  -5.866  38.706  1.00  0.00     0.053 C 
BRANCH   8   9
ATOM      9  C   UNL     1     -14.163  -6.525  37.704  1.00  0.00     0.041 C 
ATOM     10  O   UNL     1     -14.358  -6.354  36.472  1.00  0.00    -0.550 OA
ATOM     11  O   UNL     1     -13.081  -7.286  38.131  1.00  0.00    -0.550 OA
ENDBRANCH   8   9
ENDBRANCH   7   8
ENDBRANCH   6   7
ENDBRANCH   5   6
ENDBRANCH   4   5
ENDBRANCH   3   4
ENDBRANCH   2   3
ENDBRANCH   1   2
BRANCH   1  12
ATOM     12  C   UNL     1     -17.135  -8.764  46.029  1.00  0.00     0.000 C 
BRANCH  12  13
ATOM     13  C   UNL     1     -17.297  -9.546  47.347  1.00  0.00    -0.000 C 
BRANCH  13  14
ATOM     14  C   UNL     1     -15.977  -9.871  48.074  1.00  0.00    -0.000 C 
BRANCH  14  15
ATOM     15  C   UNL     1     -15.410 -11.279  47.800  1.00  0.00    -0.000 C 
BRANCH  15  16
ATOM     16  C   UNL     1     -13.902 -11.320  47.489  1.00  0.00    -0.000 C 
BRANCH  16  17
ATOM     17  C   UNL     1     -13.379  -9.995  46.909  1.00  0.00    -0.000 C 
BRANCH  17  18
ATOM     18  C   UNL     1     -13.540  -9.915  45.383  1.00  0.00    -0.000 C 
BRANCH  18  19
ATOM     19  C   UNL     1     -13.481  -8.472  44.859  1.00  0.00    -0.003 C 
ATOM     20  C   UNL     1     -13.785  -7.471  45.970  1.00  0.00     0.004 C 
ENDBRANCH  18  19
ENDBRANCH  17  18
ENDBRANCH  16  17
ENDBRANCH  15  16
ENDBRANCH  14  15
ENDBRANCH  13  14
ENDBRANCH  12  13
ENDBRANCH   1  12
TORSDOF 16
ENDMDL
