MODEL 1
REMARK VINA RESULT:    -3.714      0.000      0.000
REMARK INTER + INTRA:          -3.823
REMARK INTER:                  -3.823
REMARK INTRA:                   0.000
REMARK UNBOUND:                 0.000
REMARK SMILES Nc1ncnc2nc[nH]c12
REMARK SMILES IDX 8 1 7 2 6 3 5 4 4 5 3 6 2 7 10 8 9 9 1 11
REMARK H PARENT 9 10 1 12 1 13
REMARK Flexibility Score: inf
ROOT
ATOM      1  C   UNL     1      18.249  31.296  30.123  1.00  0.00     0.199 A 
ATOM      2  N   UNL     1      17.918  31.791  31.347  1.00  0.00    -0.217 NA
ATOM      3  C   UNL     1      17.218  30.779  31.884  1.00  0.00     0.182 A 
ATOM      4  N   UNL     1      16.649  30.753  33.114  1.00  0.00    -0.215 NA
ATOM      5  C   UNL     1      15.971  29.626  33.488  1.00  0.00     0.226 A 
ATOM      6  N   UNL     1      15.876  28.556  32.634  1.00  0.00    -0.217 NA
ATOM      7  C   UNL     1      16.448  28.580  31.394  1.00  0.00     0.152 A 
ATOM      8  C   UNL     1      17.135  29.735  31.028  1.00  0.00     0.127 A 
ATOM      9  N   UNL     1      17.785  30.040  29.898  1.00  0.00    -0.340 N 
ATOM     10  H   UNL     1      17.911  29.460  29.040  1.00  0.00     0.168 HD
ENDROOT
BRANCH   7  11
ATOM     11  N   UNL     1      16.335  27.455  30.522  1.00  0.00    -0.382 N 
ATOM     12  H   UNL     1      16.890  27.391  29.641  1.00  0.00     0.158 HD
ATOM     13  H   UNL     1      15.686  26.672  30.761  1.00  0.00     0.158 HD
ENDBRANCH   7  11
TORSDOF 1
ENDMDL
MODEL 2
REMARK VINA RESULT:    -3.699      1.860      2.361
REMARK INTER + INTRA:          -3.807
REMARK INTER:                  -3.807
REMARK INTRA:                   0.000
REMARK UNBOUND:                 0.000
REMARK SMILES Nc1ncnc2nc[nH]c12
REMARK SMILES IDX 8 1 7 2 6 3 5 4 4 5 3 6 2 7 10 8 9 9 1 11
REMARK H PARENT 9 10 1 12 1 13
REMARK Flexibility Score: inf
ROOT
ATOM      1  C   UNL     1      17.456  29.571  30.709  1.00  0.00     0.199 A 
ATOM      2  N   UNL     1      17.916  29.088  31.895  1.00  0.00    -0.217 NA
ATOM      3  C   UNL     1      16.791  29.000  32.623  1.00  0.00     0.182 A 
ATOM      4  N   UNL     1      16.689  28.566  33.903  1.00  0.00    -0.215 NA
ATOM      5  C   UNL     1      15.448  28.548  34.480  1.00  0.00     0.226 A 
ATOM      6  N   UNL     1      14.346  28.958  33.774  1.00  0.00    -0.217 NA
ATOM      7  C   UNL     1      14.447  29.396  32.484  1.00  0.00     0.152 A 
ATOM      8  C   UNL     1      15.716  29.409  31.911  1.00  0.00     0.127 A 
ATOM      9  N   UNL     1      16.115  29.778  30.687  1.00  0.00    -0.340 N 
ATOM     10  H   UNL     1      15.540  30.142  29.895  1.00  0.00     0.168 HD
ENDROOT
BRANCH   7  11
ATOM     11  N   UNL     1      13.286  29.819  31.770  1.00  0.00    -0.382 N 
ATOM     12  H   UNL     1      13.360  30.300  30.847  1.00  0.00     0.158 HD
ATOM     13  H   UNL     1      12.336  29.647  32.168  1.00  0.00     0.158 HD
ENDBRANCH   7  11
TORSDOF 1
ENDMDL
MODEL 3
REMARK VINA RESULT:    -3.583      1.478      2.971
REMARK INTER + INTRA:          -3.688
REMARK INTER:                  -3.688
REMARK INTRA:                   0.000
REMARK UNBOUND:                 0.000
REMARK SMILES Nc1ncnc2nc[nH]c12
REMARK SMILES IDX 8 1 7 2 6 3 5 4 4 5 3 6 2 7 10 8 9 9 1 11
REMARK H PARENT 9 10 1 12 1 13
REMARK Flexibility Score: inf
ROOT
ATOM      1  C   UNL     1      13.523  29.715  32.803  1.00  0.00     0.199 A 
ATOM      2  N   UNL     1      14.359  30.708  33.210  1.00  0.00    -0.217 NA
ATOM      3  C   UNL     1      15.526  30.347  32.650  1.00  0.00     0.182 A 
ATOM      4  N   UNL     1      16.705  31.007  32.745  1.00  0.00    -0.215 NA
ATOM      5  C   UNL     1      17.792  30.481  32.101  1.00  0.00     0.226 A 
ATOM      6  N   UNL     1      17.678  29.318  31.381  1.00  0.00    -0.217 NA
ATOM      7  C   UNL     1      16.490  28.652  31.285  1.00  0.00     0.152 A 
ATOM      8  C   UNL     1      15.394  29.200  31.946  1.00  0.00     0.127 A 
ATOM      9  N   UNL     1      14.126  28.777  32.029  1.00  0.00    -0.340 N 
ATOM     10  H   UNL     1      13.691  27.928  31.603  1.00  0.00     0.168 HD
ENDROOT
BRANCH   7  11
ATOM     11  N   UNL     1      16.396  27.443  30.531  1.00  0.00    -0.382 N 
ATOM     12  H   UNL     1      17.112  27.192  29.814  1.00  0.00     0.158 HD
ATOM     13  H   UNL     1      15.599  26.787  30.691  1.00  0.00     0.158 HD
ENDBRANCH   7  11
TORSDOF 1
ENDMDL
MODEL 4
REMARK VINA RESULT:    -3.466     11.663     12.795
REMARK INTER + INTRA:          -3.568
REMARK INTER:                  -3.568
REMARK INTRA:                   0.000
REMARK UNBOUND:                 0.000
REMARK SMILES Nc1ncnc2nc[nH]c12
REMARK SMILES IDX 8 1 7 2 6 3 5 4 4 5 3 6 2 7 10 8 9 9 1 11
REMARK H PARENT 9 10 1 12 1 13
REMARK Flexibility Score: inf
ROOT
ATOM      1  C   UNL     1      18.749  28.083  42.827  1.00  0.00     0.199 A 
ATOM      2  N   UNL     1      19.131  26.840  43.227  1.00  0.00    -0.217 NA
ATOM      3  C   UNL     1      20.471  26.938  43.223  1.00  0.00     0.182 A 
ATOM      4  N   UNL     1      21.353  25.963  43.549  1.00  0.00    -0.215 NA
ATOM      5  C   UNL     1      22.689  26.253  43.483  1.00  0.00     0.226 A 
ATOM      6  N   UNL     1      23.111  27.500  43.097  1.00  0.00    -0.217 NA
ATOM      7  C   UNL     1      22.223  28.484  42.768  1.00  0.00     0.152 A 
ATOM      8  C   UNL     1      20.868  28.173  42.840  1.00  0.00     0.127 A 
ATOM      9  N   UNL     1      19.788  28.922  42.582  1.00  0.00    -0.340 N 
ATOM     10  H   UNL     1      19.742  29.916  42.267  1.00  0.00     0.168 HD
ENDROOT
BRANCH   7  11
ATOM     11  N   UNL     1      22.687  29.775  42.369  1.00  0.00    -0.382 N 
ATOM     12  H   UNL     1      23.476  30.246  42.863  1.00  0.00     0.158 HD
ATOM     13  H   UNL     1      22.235  30.267  41.566  1.00  0.00     0.158 HD
ENDBRANCH   7  11
TORSDOF 1
ENDMDL
MODEL 5
REMARK VINA RESULT:    -3.449     12.124     12.936
REMARK INTER + INTRA:          -3.549
REMARK INTER:                  -3.549
REMARK INTRA:                   0.000
REMARK UNBOUND:                 0.000
REMARK SMILES Nc1ncnc2nc[nH]c12
REMARK SMILES IDX 8 1 7 2 6 3 5 4 4 5 3 6 2 7 10 8 9 9 1 11
REMARK H PARENT 9 10 1 12 1 13
REMARK Flexibility Score: inf
ROOT
ATOM      1  C   UNL     1      23.903  29.431  42.528  1.00  0.00     0.199 A 
ATOM      2  N   UNL     1      24.294  28.174  42.869  1.00  0.00    -0.217 NA
ATOM      3  C   UNL     1      23.121  27.557  43.082  1.00  0.00     0.182 A 
ATOM      4  N   UNL     1      22.942  26.265  43.451  1.00  0.00    -0.215 NA
ATOM      5  C   UNL     1      21.661  25.815  43.621  1.00  0.00     0.226 A 
ATOM      6  N   UNL     1      20.595  26.654  43.419  1.00  0.00    -0.217 NA
ATOM      7  C   UNL     1      20.774  27.957  43.047  1.00  0.00     0.152 A 
ATOM      8  C   UNL     1      22.083  28.400  42.878  1.00  0.00     0.127 A 
ATOM      9  N   UNL     1      22.556  29.602  42.524  1.00  0.00    -0.340 N 
ATOM     10  H   UNL     1      22.026  30.472  42.297  1.00  0.00     0.168 HD
ENDROOT
BRANCH   7  11
ATOM     11  N   UNL     1      19.649  28.812  42.843  1.00  0.00    -0.382 N 
ATOM     12  H   UNL     1      18.913  28.927  43.574  1.00  0.00     0.158 HD
ATOM     13  H   UNL     1      19.550  29.341  41.948  1.00  0.00     0.158 HD
ENDBRANCH   7  11
TORSDOF 1
ENDMDL
MODEL 6
REMARK VINA RESULT:    -3.446     13.018     13.763
REMARK INTER + INTRA:          -3.547
REMARK INTER:                  -3.547
REMARK INTRA:                   0.000
REMARK UNBOUND:                 0.000
REMARK SMILES Nc1ncnc2nc[nH]c12
REMARK SMILES IDX 8 1 7 2 6 3 5 4 4 5 3 6 2 7 10 8 9 9 1 11
REMARK H PARENT 9 10 1 12 1 13
REMARK Flexibility Score: inf
ROOT
ATOM      1  C   UNL     1      26.441  27.574  42.252  1.00  0.00     0.199 A 
ATOM      2  N   UNL     1      25.481  26.611  42.296  1.00  0.00    -0.217 NA
ATOM      3  C   UNL     1      24.382  27.318  42.610  1.00  0.00     0.182 A 
ATOM      4  N   UNL     1      23.130  26.830  42.779  1.00  0.00    -0.215 NA
ATOM      5  C   UNL     1      22.133  27.711  43.098  1.00  0.00     0.226 A 
ATOM      6  N   UNL     1      22.404  29.048  43.240  1.00  0.00    -0.217 NA
ATOM      7  C   UNL     1      23.667  29.541  43.071  1.00  0.00     0.152 A 
ATOM      8  C   UNL     1      24.671  28.632  42.746  1.00  0.00     0.127 A 
ATOM      9  N   UNL     1      25.977  28.821  42.523  1.00  0.00    -0.340 N 
ATOM     10  H   UNL     1      26.523  29.711  42.548  1.00  0.00     0.168 HD
ENDROOT
BRANCH   7  11
ATOM     11  N   UNL     1      23.926  30.937  43.225  1.00  0.00    -0.382 N 
ATOM     12  H   UNL     1      23.317  31.656  42.776  1.00  0.00     0.158 HD
ATOM     13  H   UNL     1      24.739  31.257  43.797  1.00  0.00     0.158 HD
ENDBRANCH   7  11
TORSDOF 1
ENDMDL
MODEL 7
REMARK VINA RESULT:    -3.442     11.409     12.306
REMARK INTER + INTRA:          -3.543
REMARK INTER:                  -3.543
REMARK INTRA:                   0.000
REMARK UNBOUND:                 0.000
REMARK SMILES Nc1ncnc2nc[nH]c12
REMARK SMILES IDX 8 1 7 2 6 3 5 4 4 5 3 6 2 7 10 8 9 9 1 11
REMARK H PARENT 9 10 1 12 1 13
REMARK Flexibility Score: inf
ROOT
ATOM      1  C   UNL     1      20.365  27.543  43.530  1.00  0.00     0.199 A 
ATOM      2  N   UNL     1      19.657  26.624  42.819  1.00  0.00    -0.217 NA
ATOM      3  C   UNL     1      18.412  27.126  42.863  1.00  0.00     0.182 A 
ATOM      4  N   UNL     1      17.303  26.588  42.300  1.00  0.00    -0.215 NA
ATOM      5  C   UNL     1      16.115  27.250  42.454  1.00  0.00     0.226 A 
ATOM      6  N   UNL     1      16.060  28.424  43.160  1.00  0.00    -0.217 NA
ATOM      7  C   UNL     1      17.176  28.968  43.729  1.00  0.00     0.152 A 
ATOM      8  C   UNL     1      18.377  28.283  43.563  1.00  0.00     0.127 A 
ATOM      9  N   UNL     1      19.611  28.570  43.999  1.00  0.00    -0.340 N 
ATOM     10  H   UNL     1      19.930  29.386  44.566  1.00  0.00     0.168 HD
ENDROOT
BRANCH   7  11
ATOM     11  N   UNL     1      17.094  30.192  44.461  1.00  0.00    -0.382 N 
ATOM     12  H   UNL     1      16.190  30.527  44.860  1.00  0.00     0.158 HD
ATOM     13  H   UNL     1      17.950  30.772  44.606  1.00  0.00     0.158 HD
ENDBRANCH   7  11
TORSDOF 1
ENDMDL
MODEL 8
REMARK VINA RESULT:    -3.410     11.785     12.775
REMARK INTER + INTRA:          -3.510
REMARK INTER:                  -3.510
REMARK INTRA:                   0.000
REMARK UNBOUND:                 0.000
REMARK SMILES Nc1ncnc2nc[nH]c12
REMARK SMILES IDX 8 1 7 2 6 3 5 4 4 5 3 6 2 7 10 8 9 9 1 11
REMARK H PARENT 9 10 1 12 1 13
REMARK Flexibility Score: inf
ROOT
ATOM      1  C   UNL     1      18.983  27.788  42.966  1.00  0.00     0.199 A 
ATOM      2  N   UNL     1      19.686  28.910  42.656  1.00  0.00    -0.217 NA
ATOM      3  C   UNL     1      20.957  28.488  42.752  1.00  0.00     0.182 A 
ATOM      4  N   UNL     1      22.073  29.226  42.539  1.00  0.00    -0.215 NA
ATOM      5  C   UNL     1      23.288  28.616  42.687  1.00  0.00     0.226 A 
ATOM      6  N   UNL     1      23.364  27.293  43.041  1.00  0.00    -0.217 NA
ATOM      7  C   UNL     1      22.240  26.547  43.257  1.00  0.00     0.152 A 
ATOM      8  C   UNL     1      21.011  27.182  43.102  1.00  0.00     0.127 A 
ATOM      9  N   UNL     1      19.765  26.713  43.245  1.00  0.00    -0.340 N 
ATOM     10  H   UNL     1      19.454  25.751  43.507  1.00  0.00     0.168 HD
ENDROOT
BRANCH   7  11
ATOM     11  N   UNL     1      22.344  25.171  43.625  1.00  0.00    -0.382 N 
ATOM     12  H   UNL     1      22.020  24.831  44.557  1.00  0.00     0.158 HD
ATOM     13  H   UNL     1      22.750  24.480  42.955  1.00  0.00     0.158 HD
ENDBRANCH   7  11
TORSDOF 1
ENDMDL
MODEL 9
REMARK VINA RESULT:    -3.393      1.998      3.768
REMARK INTER + INTRA:          -3.492
REMARK INTER:                  -3.492
REMARK INTRA:                   0.000
REMARK UNBOUND:                 0.000
REMARK SMILES Nc1ncnc2nc[nH]c12
REMARK SMILES IDX 8 1 7 2 6 3 5 4 4 5 3 6 2 7 10 8 9 9 1 11
REMARK H PARENT 9 10 1 12 1 13
REMARK Flexibility Score: inf
ROOT
ATOM      1  C   UNL     1      13.546  27.991  33.297  1.00  0.00     0.199 A 
ATOM      2  N   UNL     1      14.407  27.800  34.332  1.00  0.00    -0.217 NA
ATOM      3  C   UNL     1      15.570  28.236  33.822  1.00  0.00     0.182 A 
ATOM      4  N   UNL     1      16.769  28.266  34.452  1.00  0.00    -0.215 NA
ATOM      5  C   UNL     1      17.848  28.749  33.763  1.00  0.00     0.226 A 
ATOM      6  N   UNL     1      17.709  29.190  32.472  1.00  0.00    -0.217 NA
ATOM      7  C   UNL     1      16.501  29.160  31.834  1.00  0.00     0.152 A 
ATOM      8  C   UNL     1      15.412  28.666  32.549  1.00  0.00     0.127 A 
ATOM      9  N   UNL     1      14.130  28.520  32.191  1.00  0.00    -0.340 N 
ATOM     10  H   UNL     1      13.675  28.753  31.280  1.00  0.00     0.168 HD
ENDROOT
BRANCH   7  11
ATOM     11  N   UNL     1      16.380  29.624  30.489  1.00  0.00    -0.382 N 
ATOM     12  H   UNL     1      15.447  29.809  30.059  1.00  0.00     0.158 HD
ATOM     13  H   UNL     1      17.236  29.786  29.914  1.00  0.00     0.158 HD
ENDBRANCH   7  11
TORSDOF 1
ENDMDL
