MODEL 1
REMARK VINA RESULT:    -4.530      0.000      0.000
REMARK INTER + INTRA:         -10.129
REMARK INTER:                  -8.503
REMARK INTRA:                  -1.626
REMARK UNBOUND:                -1.626
REMARK SMILES O=C([O-])CCCCCCCCCCCCCCC(=O)[O-]
REMARK SMILES IDX 10 1 9 2 8 3 7 4 6 5 5 6 4 7 2 8 1 9 3 10 11 11 12 12 13 13
REMARK SMILES IDX 14 14 15 15 16 16 17 17 18 18 19 19 20 20
REMARK H PARENT
REMARK Flexibility Score: inf
ROOT
ATOM      1  C   UNL     1      22.125  22.942  19.438  1.00  0.00     0.000 C 
ENDROOT
BRANCH   1   2
ATOM      2  C   UNL     1      22.021  22.497  20.905  1.00  0.00     0.000 C 
BRANCH   2   3
ATOM      3  C   UNL     1      21.738  20.986  21.044  1.00  0.00     0.000 C 
BRANCH   3   4
ATOM      4  C   UNL     1      22.878  20.201  21.721  1.00  0.00     0.000 C 
BRANCH   4   5
ATOM      5  C   UNL     1      22.951  18.708  21.355  1.00  0.00     0.000 C 
BRANCH   5   6
ATOM      6  C   UNL     1      24.369  18.105  21.327  1.00  0.00     0.006 C 
BRANCH   6   7
ATOM      7  C   UNL     1      25.099  18.285  19.982  1.00  0.00     0.053 C 
BRANCH   7   8
ATOM      8  C   UNL     1      25.256  16.994  19.239  1.00  0.00     0.041 C 
ATOM      9  O   UNL     1      24.274  16.216  19.105  1.00  0.00    -0.550 OA
ATOM     10  O   UNL     1      26.495  16.626  18.729  1.00  0.00    -0.550 OA
ENDBRANCH   7   8
ENDBRANCH   6   7
ENDBRANCH   5   6
ENDBRANCH   4   5
ENDBRANCH   3   4
ENDBRANCH   2   3
ENDBRANCH   1   2
BRANCH   1  11
ATOM     11  C   UNL     1      21.213  24.141  19.159  1.00  0.00     0.000 C 
BRANCH  11  12
ATOM     12  C   UNL     1      20.792  24.180  17.683  1.00  0.00     0.000 C 
BRANCH  12  13
ATOM     13  C   UNL     1      20.325  22.811  17.162  1.00  0.00     0.000 C 
BRANCH  13  14
ATOM     14  C   UNL     1      18.895  22.464  17.613  1.00  0.00     0.000 C 
BRANCH  14  15
ATOM     15  C   UNL     1      18.840  21.186  18.466  1.00  0.00     0.000 C 
BRANCH  15  16
ATOM     16  C   UNL     1      18.073  21.386  19.785  1.00  0.00     0.006 C 
BRANCH  16  17
ATOM     17  C   UNL     1      18.343  22.761  20.410  1.00  0.00     0.053 C 
BRANCH  17  18
ATOM     18  C   UNL     1      18.347  22.700  21.907  1.00  0.00     0.041 C 
ATOM     19  O   UNL     1      18.996  23.548  22.574  1.00  0.00    -0.550 OA
ATOM     20  O   UNL     1      17.604  21.729  22.566  1.00  0.00    -0.550 OA
ENDBRANCH  17  18
ENDBRANCH  16  17
ENDBRANCH  15  16
ENDBRANCH  14  15
ENDBRANCH  13  14
ENDBRANCH  12  13
ENDBRANCH  11  12
ENDBRANCH   1  11
TORSDOF 15
ENDMDL
MODEL 2
REMARK VINA RESULT:    -4.439      1.162      6.976
REMARK INTER + INTRA:          -9.957
REMARK INTER:                  -8.169
REMARK INTRA:                  -1.788
REMARK UNBOUND:                -1.626
REMARK SMILES O=C([O-])CCCCCCCCCCCCCCC(=O)[O-]
REMARK SMILES IDX 10 1 9 2 8 3 7 4 6 5 5 6 4 7 2 8 1 9 3 10 11 11 12 12 13 13
REMARK SMILES IDX 14 14 15 15 16 16 17 17 18 18 19 19 20 20
REMARK H PARENT
REMARK Flexibility Score: inf
ROOT
ATOM      1  C   UNL     1      19.834  24.330  20.687  1.00  0.00     0.000 C 
ENDROOT
BRANCH   1   2
ATOM      2  C   UNL     1      20.614  24.908  19.497  1.00  0.00     0.000 C 
BRANCH   2   3
ATOM      3  C   UNL     1      19.926  24.622  18.145  1.00  0.00     0.000 C 
BRANCH   3   4
ATOM      4  C   UNL     1      18.853  23.519  18.217  1.00  0.00     0.000 C 
BRANCH   4   5
ATOM      5  C   UNL     1      19.339  22.108  17.836  1.00  0.00     0.000 C 
BRANCH   5   6
ATOM      6  C   UNL     1      18.656  20.951  18.592  1.00  0.00     0.006 C 
BRANCH   6   7
ATOM      7  C   UNL     1      17.579  21.406  19.594  1.00  0.00     0.053 C 
BRANCH   7   8
ATOM      8  C   UNL     1      17.902  21.006  21.002  1.00  0.00     0.041 C 
ATOM      9  O   UNL     1      18.428  19.886  21.238  1.00  0.00    -0.550 OA
ATOM     10  O   UNL     1      17.583  21.850  22.059  1.00  0.00    -0.550 OA
ENDBRANCH   7   8
ENDBRANCH   6   7
ENDBRANCH   5   6
ENDBRANCH   4   5
ENDBRANCH   3   4
ENDBRANCH   2   3
ENDBRANCH   1   2
BRANCH   1  11
ATOM     11  C   UNL     1      20.725  23.422  21.542  1.00  0.00     0.000 C 
BRANCH  11  12
ATOM     12  C   UNL     1      21.799  22.738  20.683  1.00  0.00     0.000 C 
BRANCH  12  13
ATOM     13  C   UNL     1      21.686  21.204  20.702  1.00  0.00     0.000 C 
BRANCH  13  14
ATOM     14  C   UNL     1      22.837  20.537  21.475  1.00  0.00     0.000 C 
BRANCH  14  15
ATOM     15  C   UNL     1      22.685  19.010  21.555  1.00  0.00     0.000 C 
BRANCH  15  16
ATOM     16  C   UNL     1      24.023  18.270  21.379  1.00  0.00     0.006 C 
BRANCH  16  17
ATOM     17  C   UNL     1      24.748  18.683  20.091  1.00  0.00     0.053 C 
BRANCH  17  18
ATOM     18  C   UNL     1      25.925  17.800  19.809  1.00  0.00     0.041 C 
ATOM     19  O   UNL     1      27.000  17.957  20.445  1.00  0.00    -0.550 OA
ATOM     20  O   UNL     1      25.823  16.782  18.870  1.00  0.00    -0.550 OA
ENDBRANCH  17  18
ENDBRANCH  16  17
ENDBRANCH  15  16
ENDBRANCH  14  15
ENDBRANCH  13  14
ENDBRANCH  12  13
ENDBRANCH  11  12
ENDBRANCH   1  11
TORSDOF 15
ENDMDL
MODEL 3
REMARK VINA RESULT:    -4.417      1.268      1.721
REMARK INTER + INTRA:          -9.915
REMARK INTER:                  -8.147
REMARK INTRA:                  -1.768
REMARK UNBOUND:                -1.626
REMARK SMILES O=C([O-])CCCCCCCCCCCCCCC(=O)[O-]
REMARK SMILES IDX 10 1 9 2 8 3 7 4 6 5 5 6 4 7 2 8 1 9 3 10 11 11 12 12 13 13
REMARK SMILES IDX 14 14 15 15 16 16 17 17 18 18 19 19 20 20
REMARK H PARENT
REMARK Flexibility Score: inf
ROOT
ATOM      1  C   UNL     1      20.313  23.586  21.291  1.00  0.00     0.000 C 
ENDROOT
BRANCH   1   2
ATOM      2  C   UNL     1      21.634  22.884  20.943  1.00  0.00     0.000 C 
BRANCH   2   3
ATOM      3  C   UNL     1      21.485  21.349  20.874  1.00  0.00     0.000 C 
BRANCH   3   4
ATOM      4  C   UNL     1      22.768  20.584  21.254  1.00  0.00     0.000 C 
BRANCH   4   5
ATOM      5  C   UNL     1      22.542  19.168  21.814  1.00  0.00     0.000 C 
BRANCH   5   6
ATOM      6  C   UNL     1      23.318  18.045  21.099  1.00  0.00     0.006 C 
BRANCH   6   7
ATOM      7  C   UNL     1      24.816  17.995  21.454  1.00  0.00     0.053 C 
BRANCH   7   8
ATOM      8  C   UNL     1      25.695  18.082  20.244  1.00  0.00     0.041 C 
ATOM      9  O   UNL     1      25.187  18.234  19.101  1.00  0.00    -0.550 OA
ATOM     10  O   UNL     1      27.073  17.953  20.369  1.00  0.00    -0.550 OA
ENDBRANCH   7   8
ENDBRANCH   6   7
ENDBRANCH   5   6
ENDBRANCH   4   5
ENDBRANCH   3   4
ENDBRANCH   2   3
ENDBRANCH   1   2
BRANCH   1  11
ATOM     11  C   UNL     1      19.994  24.693  20.280  1.00  0.00     0.000 C 
BRANCH  11  12
ATOM     12  C   UNL     1      20.974  24.657  19.098  1.00  0.00     0.000 C 
BRANCH  12  13
ATOM     13  C   UNL     1      20.293  24.278  17.772  1.00  0.00     0.000 C 
BRANCH  13  14
ATOM     14  C   UNL     1      20.365  22.769  17.480  1.00  0.00     0.000 C 
BRANCH  14  15
ATOM     15  C   UNL     1      18.975  22.125  17.359  1.00  0.00     0.000 C 
BRANCH  15  16
ATOM     16  C   UNL     1      18.679  21.133  18.497  1.00  0.00     0.006 C 
BRANCH  16  17
ATOM     17  C   UNL     1      17.623  21.669  19.473  1.00  0.00     0.053 C 
BRANCH  17  18
ATOM     18  C   UNL     1      17.753  21.046  20.828  1.00  0.00     0.041 C 
ATOM     19  O   UNL     1      17.311  21.643  21.845  1.00  0.00    -0.550 OA
ATOM     20  O   UNL     1      18.329  19.789  20.965  1.00  0.00    -0.550 OA
ENDBRANCH  17  18
ENDBRANCH  16  17
ENDBRANCH  15  16
ENDBRANCH  14  15
ENDBRANCH  13  14
ENDBRANCH  12  13
ENDBRANCH  11  12
ENDBRANCH   1  11
TORSDOF 15
ENDMDL
MODEL 4
REMARK VINA RESULT:    -4.404      0.773      7.066
REMARK INTER + INTRA:          -9.892
REMARK INTER:                  -8.292
REMARK INTRA:                  -1.599
REMARK UNBOUND:                -1.626
REMARK SMILES O=C([O-])CCCCCCCCCCCCCCC(=O)[O-]
REMARK SMILES IDX 10 1 9 2 8 3 7 4 6 5 5 6 4 7 2 8 1 9 3 10 11 11 12 12 13 13
REMARK SMILES IDX 14 14 15 15 16 16 17 17 18 18 19 19 20 20
REMARK H PARENT
REMARK Flexibility Score: inf
ROOT
ATOM      1  C   UNL     1      20.965  24.375  18.910  1.00  0.00     0.000 C 
ENDROOT
BRANCH   1   2
ATOM      2  C   UNL     1      19.680  24.136  18.104  1.00  0.00     0.000 C 
BRANCH   2   3
ATOM      3  C   UNL     1      19.753  22.857  17.241  1.00  0.00     0.000 C 
BRANCH   3   4
ATOM      4  C   UNL     1      18.596  21.872  17.492  1.00  0.00     0.000 C 
BRANCH   4   5
ATOM      5  C   UNL     1      18.640  21.144  18.847  1.00  0.00     0.000 C 
BRANCH   5   6
ATOM      6  C   UNL     1      17.620  21.637  19.893  1.00  0.00     0.006 C 
BRANCH   6   7
ATOM      7  C   UNL     1      17.952  21.218  21.337  1.00  0.00     0.053 C 
BRANCH   7   8
ATOM      8  C   UNL     1      18.146  22.395  22.244  1.00  0.00     0.041 C 
ATOM      9  O   UNL     1      17.569  22.435  23.364  1.00  0.00    -0.550 OA
ATOM     10  O   UNL     1      18.929  23.469  21.839  1.00  0.00    -0.550 OA
ENDBRANCH   7   8
ENDBRANCH   6   7
ENDBRANCH   5   6
ENDBRANCH   4   5
ENDBRANCH   3   4
ENDBRANCH   2   3
ENDBRANCH   1   2
BRANCH   1  11
ATOM     11  C   UNL     1      21.794  23.090  19.020  1.00  0.00     0.000 C 
BRANCH  11  12
ATOM     12  C   UNL     1      22.094  22.754  20.489  1.00  0.00     0.000 C 
BRANCH  12  13
ATOM     13  C   UNL     1      21.676  21.324  20.869  1.00  0.00     0.000 C 
BRANCH  13  14
ATOM     14  C   UNL     1      22.864  20.466  21.338  1.00  0.00     0.000 C 
BRANCH  14  15
ATOM     15  C   UNL     1      22.491  18.984  21.503  1.00  0.00     0.000 C 
BRANCH  15  16
ATOM     16  C   UNL     1      23.725  18.067  21.588  1.00  0.00     0.006 C 
BRANCH  16  17
ATOM     17  C   UNL     1      24.659  18.240  20.383  1.00  0.00     0.053 C 
BRANCH  17  18
ATOM     18  C   UNL     1      24.576  17.076  19.445  1.00  0.00     0.041 C 
ATOM     19  O   UNL     1      23.744  16.154  19.652  1.00  0.00    -0.550 OA
ATOM     20  O   UNL     1      25.392  17.027  18.322  1.00  0.00    -0.550 OA
ENDBRANCH  17  18
ENDBRANCH  16  17
ENDBRANCH  15  16
ENDBRANCH  14  15
ENDBRANCH  13  14
ENDBRANCH  12  13
ENDBRANCH  11  12
ENDBRANCH   1  11
TORSDOF 15
ENDMDL
MODEL 5
REMARK VINA RESULT:    -4.361      2.012      2.976
REMARK INTER + INTRA:          -9.812
REMARK INTER:                  -7.780
REMARK INTRA:                  -2.031
REMARK UNBOUND:                -1.626
REMARK SMILES O=C([O-])CCCCCCCCCCCCCCC(=O)[O-]
REMARK SMILES IDX 10 1 9 2 8 3 7 4 6 5 5 6 4 7 2 8 1 9 3 10 11 11 12 12 13 13
REMARK SMILES IDX 14 14 15 15 16 16 17 17 18 18 19 19 20 20
REMARK H PARENT
REMARK Flexibility Score: inf
ROOT
ATOM      1  C   UNL     1      21.370  23.746  18.012  1.00  0.00     0.000 C 
ENDROOT
BRANCH   1   2
ATOM      2  C   UNL     1      21.499  22.390  18.722  1.00  0.00     0.000 C 
BRANCH   2   3
ATOM      3  C   UNL     1      22.610  22.388  19.793  1.00  0.00     0.000 C 
BRANCH   3   4
ATOM      4  C   UNL     1      22.143  21.881  21.171  1.00  0.00     0.000 C 
BRANCH   4   5
ATOM      5  C   UNL     1      22.536  20.429  21.500  1.00  0.00     0.000 C 
BRANCH   5   6
ATOM      6  C   UNL     1      23.688  19.851  20.655  1.00  0.00     0.006 C 
BRANCH   6   7
ATOM      7  C   UNL     1      24.041  18.391  20.994  1.00  0.00     0.053 C 
BRANCH   7   8
ATOM      8  C   UNL     1      25.131  17.849  20.120  1.00  0.00     0.041 C 
ATOM      9  O   UNL     1      26.311  18.276  20.238  1.00  0.00    -0.550 OA
ATOM     10  O   UNL     1      24.840  16.903  19.144  1.00  0.00    -0.550 OA
ENDBRANCH   7   8
ENDBRANCH   6   7
ENDBRANCH   5   6
ENDBRANCH   4   5
ENDBRANCH   3   4
ENDBRANCH   2   3
ENDBRANCH   1   2
BRANCH   1  11
ATOM     11  C   UNL     1      20.830  24.818  18.965  1.00  0.00     0.000 C 
BRANCH  11  12
ATOM     12  C   UNL     1      19.499  24.378  19.591  1.00  0.00     0.000 C 
BRANCH  12  13
ATOM     13  C   UNL     1      19.557  24.313  21.126  1.00  0.00     0.000 C 
BRANCH  13  14
ATOM     14  C   UNL     1      18.742  23.140  21.699  1.00  0.00     0.000 C 
BRANCH  14  15
ATOM     15  C   UNL     1      18.377  22.098  20.630  1.00  0.00     0.000 C 
BRANCH  15  16
ATOM     16  C   UNL     1      18.392  20.659  21.174  1.00  0.00     0.006 C 
BRANCH  16  17
ATOM     17  C   UNL     1      19.126  19.692  20.234  1.00  0.00     0.053 C 
BRANCH  17  18
ATOM     18  C   UNL     1      19.298  18.339  20.853  1.00  0.00     0.041 C 
ATOM     19  O   UNL     1      20.391  17.725  20.738  1.00  0.00    -0.550 OA
ATOM     20  O   UNL     1      18.264  17.773  21.588  1.00  0.00    -0.550 OA
ENDBRANCH  17  18
ENDBRANCH  16  17
ENDBRANCH  15  16
ENDBRANCH  14  15
ENDBRANCH  13  14
ENDBRANCH  12  13
ENDBRANCH  11  12
ENDBRANCH   1  11
TORSDOF 15
ENDMDL
MODEL 6
REMARK VINA RESULT:    -4.262      1.247      2.106
REMARK INTER + INTRA:          -9.626
REMARK INTER:                  -8.419
REMARK INTRA:                  -1.207
REMARK UNBOUND:                -1.626
REMARK SMILES O=C([O-])CCCCCCCCCCCCCCC(=O)[O-]
REMARK SMILES IDX 10 1 9 2 8 3 7 4 6 5 5 6 4 7 2 8 1 9 3 10 11 11 12 12 13 13
REMARK SMILES IDX 14 14 15 15 16 16 17 17 18 18 19 19 20 20
REMARK H PARENT
REMARK Flexibility Score: inf
ROOT
ATOM      1  C   UNL     1      21.818  21.343  20.973  1.00  0.00     0.000 C 
ENDROOT
BRANCH   1   2
ATOM      2  C   UNL     1      22.887  20.504  21.688  1.00  0.00     0.000 C 
BRANCH   2   3
ATOM      3  C   UNL     1      22.724  18.991  21.424  1.00  0.00     0.000 C 
BRANCH   3   4
ATOM      4  C   UNL     1      24.058  18.222  21.377  1.00  0.00     0.000 C 
BRANCH   4   5
ATOM      5  C   UNL     1      24.969  18.566  20.185  1.00  0.00     0.000 C 
BRANCH   5   6
ATOM      6  C   UNL     1      25.242  17.405  19.208  1.00  0.00     0.006 C 
BRANCH   6   7
ATOM      7  C   UNL     1      24.185  16.285  19.256  1.00  0.00     0.053 C 
BRANCH   7   8
ATOM      8  C   UNL     1      24.009  15.608  17.931  1.00  0.00     0.041 C 
ATOM      9  O   UNL     1      22.895  15.109  17.617  1.00  0.00    -0.550 OA
ATOM     10  O   UNL     1      25.084  15.488  17.058  1.00  0.00    -0.550 OA
ENDBRANCH   7   8
ENDBRANCH   6   7
ENDBRANCH   5   6
ENDBRANCH   4   5
ENDBRANCH   3   4
ENDBRANCH   2   3
ENDBRANCH   1   2
BRANCH   1  11
ATOM     11  C   UNL     1      22.451  22.520  20.222  1.00  0.00     0.000 C 
BRANCH  11  12
ATOM     12  C   UNL     1      22.142  22.443  18.719  1.00  0.00     0.000 C 
BRANCH  12  13
ATOM     13  C   UNL     1      21.387  23.679  18.204  1.00  0.00     0.000 C 
BRANCH  13  14
ATOM     14  C   UNL     1      20.143  23.309  17.376  1.00  0.00     0.000 C 
BRANCH  14  15
ATOM     15  C   UNL     1      18.833  23.558  18.139  1.00  0.00     0.000 C 
BRANCH  15  16
ATOM     16  C   UNL     1      19.067  24.022  19.587  1.00  0.00     0.006 C 
BRANCH  16  17
ATOM     17  C   UNL     1      18.532  23.015  20.613  1.00  0.00     0.053 C 
BRANCH  17  18
ATOM     18  C   UNL     1      18.945  23.371  22.008  1.00  0.00     0.041 C 
ATOM     19  O   UNL     1      19.969  24.077  22.205  1.00  0.00    -0.550 OA
ATOM     20  O   UNL     1      18.179  22.953  23.089  1.00  0.00    -0.550 OA
ENDBRANCH  17  18
ENDBRANCH  16  17
ENDBRANCH  15  16
ENDBRANCH  14  15
ENDBRANCH  13  14
ENDBRANCH  12  13
ENDBRANCH  11  12
ENDBRANCH   1  11
TORSDOF 15
ENDMDL
MODEL 7
REMARK VINA RESULT:    -4.176      2.038      3.293
REMARK INTER + INTRA:          -9.463
REMARK INTER:                  -7.231
REMARK INTRA:                  -2.233
REMARK UNBOUND:                -1.626
REMARK SMILES O=C([O-])CCCCCCCCCCCCCCC(=O)[O-]
REMARK SMILES IDX 10 1 9 2 8 3 7 4 6 5 5 6 4 7 2 8 1 9 3 10 11 11 12 12 13 13
REMARK SMILES IDX 14 14 15 15 16 16 17 17 18 18 19 19 20 20
REMARK H PARENT
REMARK Flexibility Score: inf
ROOT
ATOM      1  C   UNL     1      20.401  24.897  18.310  1.00  0.00     0.000 C 
ENDROOT
BRANCH   1   2
ATOM      2  C   UNL     1      20.644  25.006  19.823  1.00  0.00     0.000 C 
BRANCH   2   3
ATOM      3  C   UNL     1      19.501  24.380  20.651  1.00  0.00     0.000 C 
BRANCH   3   4
ATOM      4  C   UNL     1      19.918  23.117  21.428  1.00  0.00     0.000 C 
BRANCH   4   5
ATOM      5  C   UNL     1      21.409  22.750  21.326  1.00  0.00     0.000 C 
BRANCH   5   6
ATOM      6  C   UNL     1      21.702  21.303  20.884  1.00  0.00     0.006 C 
BRANCH   6   7
ATOM      7  C   UNL     1      22.899  20.657  21.607  1.00  0.00     0.053 C 
BRANCH   7   8
ATOM      8  C   UNL     1      22.933  19.168  21.439  1.00  0.00     0.041 C 
ATOM      9  O   UNL     1      24.030  18.575  21.257  1.00  0.00    -0.550 OA
ATOM     10  O   UNL     1      21.751  18.437  21.441  1.00  0.00    -0.550 OA
ENDBRANCH   7   8
ENDBRANCH   6   7
ENDBRANCH   5   6
ENDBRANCH   4   5
ENDBRANCH   3   4
ENDBRANCH   2   3
ENDBRANCH   1   2
BRANCH   1  11
ATOM     11  C   UNL     1      21.358  23.886  17.670  1.00  0.00     0.000 C 
BRANCH  11  12
ATOM     12  C   UNL     1      20.711  22.496  17.582  1.00  0.00     0.000 C 
BRANCH  12  13
ATOM     13  C   UNL     1      19.207  22.560  17.264  1.00  0.00     0.000 C 
BRANCH  13  14
ATOM     14  C   UNL     1      18.353  21.807  18.300  1.00  0.00     0.000 C 
BRANCH  14  15
ATOM     15  C   UNL     1      17.863  20.446  17.782  1.00  0.00     0.000 C 
BRANCH  15  16
ATOM     16  C   UNL     1      17.625  19.431  18.914  1.00  0.00     0.006 C 
BRANCH  16  17
ATOM     17  C   UNL     1      18.662  19.561  20.037  1.00  0.00     0.053 C 
BRANCH  17  18
ATOM     18  C   UNL     1      18.018  19.576  21.389  1.00  0.00     0.041 C 
ATOM     19  O   UNL     1      17.467  20.624  21.817  1.00  0.00    -0.550 OA
ATOM     20  O   UNL     1      17.994  18.421  22.162  1.00  0.00    -0.550 OA
ENDBRANCH  17  18
ENDBRANCH  16  17
ENDBRANCH  15  16
ENDBRANCH  14  15
ENDBRANCH  13  14
ENDBRANCH  12  13
ENDBRANCH  11  12
ENDBRANCH   1  11
TORSDOF 15
ENDMDL
MODEL 8
REMARK VINA RESULT:    -4.161      3.197      4.830
REMARK INTER + INTRA:          -9.436
REMARK INTER:                  -7.154
REMARK INTRA:                  -2.282
REMARK UNBOUND:                -1.626
REMARK SMILES O=C([O-])CCCCCCCCCCCCCCC(=O)[O-]
REMARK SMILES IDX 10 1 9 2 8 3 7 4 6 5 5 6 4 7 2 8 1 9 3 10 11 11 12 12 13 13
REMARK SMILES IDX 14 14 15 15 16 16 17 17 18 18 19 19 20 20
REMARK H PARENT
REMARK Flexibility Score: inf
ROOT
ATOM      1  C   UNL     1      20.805  22.980  17.259  1.00  0.00     0.000 C 
ENDROOT
BRANCH   1   2
ATOM      2  C   UNL     1      20.970  24.425  17.754  1.00  0.00     0.000 C 
BRANCH   2   3
ATOM      3  C   UNL     1      19.771  24.897  18.605  1.00  0.00     0.000 C 
BRANCH   3   4
ATOM      4  C   UNL     1      20.035  24.859  20.123  1.00  0.00     0.000 C 
BRANCH   4   5
ATOM      5  C   UNL     1      19.219  23.811  20.902  1.00  0.00     0.000 C 
BRANCH   5   6
ATOM      6  C   UNL     1      20.007  22.565  21.351  1.00  0.00     0.006 C 
BRANCH   6   7
ATOM      7  C   UNL     1      21.518  22.807  21.522  1.00  0.00     0.053 C 
BRANCH   7   8
ATOM      8  C   UNL     1      22.346  21.721  20.904  1.00  0.00     0.041 C 
ATOM      9  O   UNL     1      22.566  20.654  21.536  1.00  0.00    -0.550 OA
ATOM     10  O   UNL     1      22.911  21.903  19.647  1.00  0.00    -0.550 OA
ENDBRANCH   7   8
ENDBRANCH   6   7
ENDBRANCH   5   6
ENDBRANCH   4   5
ENDBRANCH   3   4
ENDBRANCH   2   3
ENDBRANCH   1   2
BRANCH   1  11
ATOM     11  C   UNL     1      19.325  22.620  17.092  1.00  0.00     0.000 C 
BRANCH  11  12
ATOM     12  C   UNL     1      18.950  21.416  17.970  1.00  0.00     0.000 C 
BRANCH  12  13
ATOM     13  C   UNL     1      17.501  21.483  18.481  1.00  0.00     0.000 C 
BRANCH  13  14
ATOM     14  C   UNL     1      17.090  20.218  19.256  1.00  0.00     0.000 C 
BRANCH  14  15
ATOM     15  C   UNL     1      17.099  20.431  20.778  1.00  0.00     0.000 C 
BRANCH  15  16
ATOM     16  C   UNL     1      17.898  19.348  21.524  1.00  0.00     0.006 C 
BRANCH  16  17
ATOM     17  C   UNL     1      19.240  19.046  20.844  1.00  0.00     0.053 C 
BRANCH  17  18
ATOM     18  C   UNL     1      19.848  17.776  21.354  1.00  0.00     0.041 C 
ATOM     19  O   UNL     1      21.097  17.673  21.469  1.00  0.00    -0.550 OA
ATOM     20  O   UNL     1      19.033  16.718  21.737  1.00  0.00    -0.550 OA
ENDBRANCH  17  18
ENDBRANCH  16  17
ENDBRANCH  15  16
ENDBRANCH  14  15
ENDBRANCH  13  14
ENDBRANCH  12  13
ENDBRANCH  11  12
ENDBRANCH   1  11
TORSDOF 15
ENDMDL
MODEL 9
REMARK VINA RESULT:    -4.124      2.040      6.804
REMARK INTER + INTRA:          -9.367
REMARK INTER:                  -7.745
REMARK INTRA:                  -1.622
REMARK UNBOUND:                -1.626
REMARK SMILES O=C([O-])CCCCCCCCCCCCCCC(=O)[O-]
REMARK SMILES IDX 10 1 9 2 8 3 7 4 6 5 5 6 4 7 2 8 1 9 3 10 11 11 12 12 13 13
REMARK SMILES IDX 14 14 15 15 16 16 17 17 18 18 19 19 20 20
REMARK H PARENT
REMARK Flexibility Score: inf
ROOT
ATOM      1  C   UNL     1      19.574  23.656  21.336  1.00  0.00     0.000 C 
ENDROOT
BRANCH   1   2
ATOM      2  C   UNL     1      18.596  22.747  22.096  1.00  0.00     0.000 C 
BRANCH   2   3
ATOM      3  C   UNL     1      17.635  21.993  21.152  1.00  0.00     0.000 C 
BRANCH   3   4
ATOM      4  C   UNL     1      18.218  20.681  20.592  1.00  0.00     0.000 C 
BRANCH   4   5
ATOM      5  C   UNL     1      18.487  20.680  19.076  1.00  0.00     0.000 C 
BRANCH   5   6
ATOM      6  C   UNL     1      18.128  21.988  18.343  1.00  0.00     0.006 C 
BRANCH   6   7
ATOM      7  C   UNL     1      19.106  22.361  17.213  1.00  0.00     0.053 C 
BRANCH   7   8
ATOM      8  C   UNL     1      19.938  23.561  17.549  1.00  0.00     0.041 C 
ATOM      9  O   UNL     1      19.387  24.625  17.940  1.00  0.00    -0.550 OA
ATOM     10  O   UNL     1      21.318  23.523  17.392  1.00  0.00    -0.550 OA
ENDBRANCH   7   8
ENDBRANCH   6   7
ENDBRANCH   5   6
ENDBRANCH   4   5
ENDBRANCH   3   4
ENDBRANCH   2   3
ENDBRANCH   1   2
BRANCH   1  11
ATOM     11  C   UNL     1      21.003  23.491  21.864  1.00  0.00     0.000 C 
BRANCH  11  12
ATOM     12  C   UNL     1      21.910  22.850  20.803  1.00  0.00     0.000 C 
BRANCH  12  13
ATOM     13  C   UNL     1      21.701  21.331  20.682  1.00  0.00     0.000 C 
BRANCH  13  14
ATOM     14  C   UNL     1      22.964  20.530  21.043  1.00  0.00     0.000 C 
BRANCH  14  15
ATOM     15  C   UNL     1      22.643  19.241  21.815  1.00  0.00     0.000 C 
BRANCH  15  16
ATOM     16  C   UNL     1      23.325  18.001  21.210  1.00  0.00     0.006 C 
BRANCH  16  17
ATOM     17  C   UNL     1      24.815  17.927  21.567  1.00  0.00     0.053 C 
BRANCH  17  18
ATOM     18  C   UNL     1      25.685  18.081  20.358  1.00  0.00     0.041 C 
ATOM     19  O   UNL     1      26.933  17.948  20.454  1.00  0.00    -0.550 OA
ATOM     20  O   UNL     1      25.114  18.337  19.117  1.00  0.00    -0.550 OA
ENDBRANCH  17  18
ENDBRANCH  16  17
ENDBRANCH  15  16
ENDBRANCH  14  15
ENDBRANCH  13  14
ENDBRANCH  12  13
ENDBRANCH  11  12
ENDBRANCH   1  11
TORSDOF 15
ENDMDL
