MODEL 1
REMARK VINA RESULT:    -3.812      0.000      0.000
REMARK INTER + INTRA:          -8.647
REMARK INTER:                  -6.486
REMARK INTRA:                  -2.161
REMARK UNBOUND:                -2.161
REMARK SMILES CCCCCCCCCCCCCC(=O)[O-]
REMARK SMILES IDX 8 1 9 2 10 3 11 4 12 5 13 6 14 7 15 8 16 9 7 10 6 11 5 12
REMARK SMILES IDX 4 13 3 14 2 15 1 16
REMARK H PARENT
REMARK Flexibility Score: inf
ROOT
ATOM      1  C   UNL     1      -7.125  39.083  20.105  1.00  0.00     0.000 C 
ENDROOT
BRANCH   1   2
ATOM      2  C   UNL     1      -6.633  37.701  19.636  1.00  0.00     0.000 C 
BRANCH   2   3
ATOM      3  C   UNL     1      -5.480  37.787  18.624  1.00  0.00     0.000 C 
BRANCH   3   4
ATOM      4  C   UNL     1      -4.470  38.867  19.036  1.00  0.00     0.000 C 
BRANCH   4   5
ATOM      5  C   UNL     1      -3.008  38.418  18.855  1.00  0.00     0.006 C 
BRANCH   5   6
ATOM      6  C   UNL     1      -2.812  36.893  18.844  1.00  0.00     0.053 C 
BRANCH   6   7
ATOM      7  C   UNL     1      -2.277  36.407  17.533  1.00  0.00     0.041 C 
ATOM      8  O   UNL     1      -2.900  36.647  16.465  1.00  0.00    -0.550 OA
ATOM      9  O   UNL     1      -1.072  35.716  17.486  1.00  0.00    -0.550 OA
ENDBRANCH   6   7
ENDBRANCH   5   6
ENDBRANCH   4   5
ENDBRANCH   3   4
ENDBRANCH   2   3
ENDBRANCH   1   2
BRANCH   1  10
ATOM     10  C   UNL     1      -7.788  39.100  21.494  1.00  0.00     0.000 C 
BRANCH  10  11
ATOM     11  C   UNL     1      -6.812  39.472  22.619  1.00  0.00    -0.000 C 
BRANCH  11  12
ATOM     12  C   UNL     1      -5.770  40.486  22.131  1.00  0.00    -0.000 C 
BRANCH  12  13
ATOM     13  C   UNL     1      -4.351  40.053  22.528  1.00  0.00    -0.000 C 
BRANCH  13  14
ATOM     14  C   UNL     1      -4.319  38.692  23.248  1.00  0.00    -0.000 C 
BRANCH  14  15
ATOM     15  C   UNL     1      -3.576  37.577  22.491  1.00  0.00    -0.003 C 
ATOM     16  C   UNL     1      -4.448  36.349  22.228  1.00  0.00     0.004 C 
ENDBRANCH  14  15
ENDBRANCH  13  14
ENDBRANCH  12  13
ENDBRANCH  11  12
ENDBRANCH  10  11
ENDBRANCH   1  10
TORSDOF 12
ENDMDL
MODEL 2
REMARK VINA RESULT:    -3.734      1.206      2.209
REMARK INTER + INTRA:          -8.514
REMARK INTER:                  -7.039
REMARK INTRA:                  -1.475
REMARK UNBOUND:                -2.161
REMARK SMILES CCCCCCCCCCCCCC(=O)[O-]
REMARK SMILES IDX 8 1 9 2 10 3 11 4 12 5 13 6 14 7 15 8 16 9 7 10 6 11 5 12
REMARK SMILES IDX 4 13 3 14 2 15 1 16
REMARK H PARENT
REMARK Flexibility Score: inf
ROOT
ATOM      1  C   UNL     1      -5.396  37.975  18.776  1.00  0.00     0.000 C 
ENDROOT
BRANCH   1   2
ATOM      2  C   UNL     1      -4.268  38.992  19.026  1.00  0.00     0.000 C 
BRANCH   2   3
ATOM      3  C   UNL     1      -3.359  39.191  17.804  1.00  0.00     0.000 C 
BRANCH   3   4
ATOM      4  C   UNL     1      -1.880  39.038  18.190  1.00  0.00     0.000 C 
BRANCH   4   5
ATOM      5  C   UNL     1      -1.519  37.601  18.611  1.00  0.00     0.006 C 
BRANCH   5   6
ATOM      6  C   UNL     1      -0.995  36.720  17.465  1.00  0.00     0.053 C 
BRANCH   6   7
ATOM      7  C   UNL     1      -1.981  35.662  17.076  1.00  0.00     0.041 C 
ATOM      8  O   UNL     1      -2.965  35.952  16.345  1.00  0.00    -0.550 OA
ATOM      9  O   UNL     1      -1.795  34.350  17.492  1.00  0.00    -0.550 OA
ENDBRANCH   6   7
ENDBRANCH   5   6
ENDBRANCH   4   5
ENDBRANCH   3   4
ENDBRANCH   2   3
ENDBRANCH   1   2
BRANCH   1  10
ATOM     10  C   UNL     1      -6.792  38.422  19.248  1.00  0.00     0.000 C 
BRANCH  10  11
ATOM     11  C   UNL     1      -6.738  39.462  20.377  1.00  0.00    -0.000 C 
BRANCH  11  12
ATOM     12  C   UNL     1      -7.564  39.004  21.586  1.00  0.00    -0.000 C 
BRANCH  12  13
ATOM     13  C   UNL     1      -6.655  38.461  22.699  1.00  0.00    -0.000 C 
BRANCH  13  14
ATOM     14  C   UNL     1      -6.387  36.951  22.570  1.00  0.00    -0.000 C 
BRANCH  14  15
ATOM     15  C   UNL     1      -4.953  36.582  22.148  1.00  0.00    -0.003 C 
ATOM     16  C   UNL     1      -3.930  37.664  22.496  1.00  0.00     0.004 C 
ENDBRANCH  14  15
ENDBRANCH  13  14
ENDBRANCH  12  13
ENDBRANCH  11  12
ENDBRANCH  10  11
ENDBRANCH   1  10
TORSDOF 12
ENDMDL
MODEL 3
REMARK VINA RESULT:    -3.575      1.282      3.070
REMARK INTER + INTRA:          -8.243
REMARK INTER:                  -6.490
REMARK INTRA:                  -1.753
REMARK UNBOUND:                -2.161
REMARK SMILES CCCCCCCCCCCCCC(=O)[O-]
REMARK SMILES IDX 8 1 9 2 10 3 11 4 12 5 13 6 14 7 15 8 16 9 7 10 6 11 5 12
REMARK SMILES IDX 4 13 3 14 2 15 1 16
REMARK H PARENT
REMARK Flexibility Score: inf
ROOT
ATOM      1  C   UNL     1      -3.507  37.214  20.466  1.00  0.00     0.000 C 
ENDROOT
BRANCH   1   2
ATOM      2  C   UNL     1      -2.791  38.572  20.343  1.00  0.00     0.000 C 
BRANCH   2   3
ATOM      3  C   UNL     1      -3.555  39.574  19.464  1.00  0.00     0.000 C 
BRANCH   3   4
ATOM      4  C   UNL     1      -2.902  39.697  18.080  1.00  0.00     0.000 C 
BRANCH   4   5
ATOM      5  C   UNL     1      -3.297  38.552  17.129  1.00  0.00     0.006 C 
BRANCH   5   6
ATOM      6  C   UNL     1      -2.111  37.889  16.411  1.00  0.00     0.053 C 
BRANCH   6   7
ATOM      7  C   UNL     1      -1.351  36.969  17.317  1.00  0.00     0.041 C 
ATOM      8  O   UNL     1      -1.862  35.879  17.686  1.00  0.00    -0.550 OA
ATOM      9  O   UNL     1      -0.065  37.300  17.725  1.00  0.00    -0.550 OA
ENDBRANCH   6   7
ENDBRANCH   5   6
ENDBRANCH   4   5
ENDBRANCH   3   4
ENDBRANCH   2   3
ENDBRANCH   1   2
BRANCH   1  10
ATOM     10  C   UNL     1      -4.207  36.968  21.815  1.00  0.00     0.000 C 
BRANCH  10  11
ATOM     11  C   UNL     1      -3.947  38.084  22.838  1.00  0.00    -0.000 C 
BRANCH  11  12
ATOM     12  C   UNL     1      -5.226  38.883  23.116  1.00  0.00    -0.000 C 
BRANCH  12  13
ATOM     13  C   UNL     1      -6.473  38.086  22.705  1.00  0.00    -0.000 C 
BRANCH  13  14
ATOM     14  C   UNL     1      -7.471  38.918  21.879  1.00  0.00    -0.000 C 
BRANCH  14  15
ATOM     15  C   UNL     1      -6.965  39.341  20.488  1.00  0.00    -0.003 C 
ATOM     16  C   UNL     1      -7.001  38.205  19.467  1.00  0.00     0.004 C 
ENDBRANCH  14  15
ENDBRANCH  13  14
ENDBRANCH  12  13
ENDBRANCH  11  12
ENDBRANCH  10  11
ENDBRANCH   1  10
TORSDOF 12
ENDMDL
MODEL 4
REMARK VINA RESULT:    -3.573      2.360      4.868
REMARK INTER + INTRA:          -8.241
REMARK INTER:                  -6.780
REMARK INTRA:                  -1.460
REMARK UNBOUND:                -2.161
REMARK SMILES CCCCCCCCCCCCCC(=O)[O-]
REMARK SMILES IDX 8 1 9 2 10 3 11 4 12 5 13 6 14 7 15 8 16 9 7 10 6 11 5 12
REMARK SMILES IDX 4 13 3 14 2 15 1 16
REMARK H PARENT
REMARK Flexibility Score: inf
ROOT
ATOM      1  C   UNL     1      -6.534  37.718  19.375  1.00  0.00     0.000 C 
ENDROOT
BRANCH   1   2
ATOM      2  C   UNL     1      -7.142  39.083  19.749  1.00  0.00     0.000 C 
BRANCH   2   3
ATOM      3  C   UNL     1      -7.515  39.186  21.236  1.00  0.00     0.000 C 
BRANCH   3   4
ATOM      4  C   UNL     1      -6.417  39.911  22.026  1.00  0.00     0.000 C 
BRANCH   4   5
ATOM      5  C   UNL     1      -5.778  39.026  23.113  1.00  0.00     0.006 C 
BRANCH   5   6
ATOM      6  C   UNL     1      -4.605  38.165  22.618  1.00  0.00     0.053 C 
BRANCH   6   7
ATOM      7  C   UNL     1      -5.001  36.731  22.437  1.00  0.00     0.041 C 
ATOM      8  O   UNL     1      -6.186  36.368  22.657  1.00  0.00    -0.550 OA
ATOM      9  O   UNL     1      -4.067  35.803  21.992  1.00  0.00    -0.550 OA
ENDBRANCH   6   7
ENDBRANCH   5   6
ENDBRANCH   4   5
ENDBRANCH   3   4
ENDBRANCH   2   3
ENDBRANCH   1   2
BRANCH   1  10
ATOM     10  C   UNL     1      -5.146  37.783  18.714  1.00  0.00     0.000 C 
BRANCH  10  11
ATOM     11  C   UNL     1      -4.357  39.044  19.099  1.00  0.00    -0.000 C 
BRANCH  11  12
ATOM     12  C   UNL     1      -2.850  38.830  18.905  1.00  0.00    -0.000 C 
BRANCH  12  13
ATOM     13  C   UNL     1      -2.491  37.339  18.991  1.00  0.00    -0.000 C 
BRANCH  13  14
ATOM     14  C   UNL     1      -1.454  36.909  17.937  1.00  0.00    -0.000 C 
BRANCH  14  15
ATOM     15  C   UNL     1      -1.971  35.904  16.893  1.00  0.00    -0.003 C 
ATOM     16  C   UNL     1      -1.689  34.450  17.271  1.00  0.00     0.004 C 
ENDBRANCH  14  15
ENDBRANCH  13  14
ENDBRANCH  12  13
ENDBRANCH  11  12
ENDBRANCH  10  11
ENDBRANCH   1  10
TORSDOF 12
ENDMDL
MODEL 5
REMARK VINA RESULT:    -3.565      1.416      2.748
REMARK INTER + INTRA:          -8.226
REMARK INTER:                  -6.054
REMARK INTRA:                  -2.173
REMARK UNBOUND:                -2.161
REMARK SMILES CCCCCCCCCCCCCC(=O)[O-]
REMARK SMILES IDX 8 1 9 2 10 3 11 4 12 5 13 6 14 7 15 8 16 9 7 10 6 11 5 12
REMARK SMILES IDX 4 13 3 14 2 15 1 16
REMARK H PARENT
REMARK Flexibility Score: inf
ROOT
ATOM      1  C   UNL     1      -5.632  37.010  21.076  1.00  0.00     0.000 C 
ENDROOT
BRANCH   1   2
ATOM      2  C   UNL     1      -4.126  36.692  21.118  1.00  0.00     0.000 C 
BRANCH   2   3
ATOM      3  C   UNL     1      -3.411  37.003  19.794  1.00  0.00     0.000 C 
BRANCH   3   4
ATOM      4  C   UNL     1      -2.379  38.124  19.980  1.00  0.00     0.000 C 
BRANCH   4   5
ATOM      5  C   UNL     1      -2.576  39.287  18.990  1.00  0.00     0.006 C 
BRANCH   5   6
ATOM      6  C   UNL     1      -3.408  38.927  17.749  1.00  0.00     0.053 C 
BRANCH   6   7
ATOM      7  C   UNL     1      -2.545  38.664  16.553  1.00  0.00     0.041 C 
ATOM      8  O   UNL     1      -2.065  39.624  15.895  1.00  0.00    -0.550 OA
ATOM      9  O   UNL     1      -2.245  37.358  16.186  1.00  0.00    -0.550 OA
ENDBRANCH   6   7
ENDBRANCH   5   6
ENDBRANCH   4   5
ENDBRANCH   3   4
ENDBRANCH   2   3
ENDBRANCH   1   2
BRANCH   1  10
ATOM     10  C   UNL     1      -6.182  37.375  19.685  1.00  0.00     0.000 C 
BRANCH  10  11
ATOM     11  C   UNL     1      -6.765  38.795  19.625  1.00  0.00    -0.000 C 
BRANCH  11  12
ATOM     12  C   UNL     1      -7.369  39.199  20.977  1.00  0.00    -0.000 C 
BRANCH  12  13
ATOM     13  C   UNL     1      -6.740  40.501  21.494  1.00  0.00    -0.000 C 
BRANCH  13  14
ATOM     14  C   UNL     1      -5.288  40.694  21.021  1.00  0.00    -0.000 C 
BRANCH  14  15
ATOM     15  C   UNL     1      -4.223  40.548  22.124  1.00  0.00    -0.003 C 
ATOM     16  C   UNL     1      -4.735  39.799  23.354  1.00  0.00     0.004 C 
ENDBRANCH  14  15
ENDBRANCH  13  14
ENDBRANCH  12  13
ENDBRANCH  11  12
ENDBRANCH  10  11
ENDBRANCH   1  10
TORSDOF 12
ENDMDL
MODEL 6
REMARK VINA RESULT:    -3.558      2.838      5.601
REMARK INTER + INTRA:          -8.214
REMARK INTER:                  -6.344
REMARK INTRA:                  -1.870
REMARK UNBOUND:                -2.161
REMARK SMILES CCCCCCCCCCCCCC(=O)[O-]
REMARK SMILES IDX 8 1 9 2 10 3 11 4 12 5 13 6 14 7 15 8 16 9 7 10 6 11 5 12
REMARK SMILES IDX 4 13 3 14 2 15 1 16
REMARK H PARENT
REMARK Flexibility Score: inf
ROOT
ATOM      1  C   UNL     1      -4.579  39.399  19.332  1.00  0.00     0.000 C 
ENDROOT
BRANCH   1   2
ATOM      2  C   UNL     1      -5.269  38.108  18.854  1.00  0.00     0.000 C 
BRANCH   2   3
ATOM      3  C   UNL     1      -6.747  38.031  19.267  1.00  0.00     0.000 C 
BRANCH   3   4
ATOM      4  C   UNL     1      -7.146  39.255  20.103  1.00  0.00     0.000 C 
BRANCH   4   5
ATOM      5  C   UNL     1      -7.487  38.897  21.562  1.00  0.00     0.006 C 
BRANCH   5   6
ATOM      6  C   UNL     1      -6.508  39.469  22.599  1.00  0.00     0.053 C 
BRANCH   6   7
ATOM      7  C   UNL     1      -5.391  38.518  22.900  1.00  0.00     0.041 C 
ATOM      8  O   UNL     1      -5.437  37.333  22.477  1.00  0.00    -0.550 OA
ATOM      9  O   UNL     1      -4.283  38.951  23.618  1.00  0.00    -0.550 OA
ENDBRANCH   6   7
ENDBRANCH   5   6
ENDBRANCH   4   5
ENDBRANCH   3   4
ENDBRANCH   2   3
ENDBRANCH   1   2
BRANCH   1  10
ATOM     10  C   UNL     1      -3.228  39.191  20.040  1.00  0.00     0.000 C 
BRANCH  10  11
ATOM     11  C   UNL     1      -2.680  37.766  19.879  1.00  0.00    -0.000 C 
BRANCH  11  12
ATOM     12  C   UNL     1      -1.530  37.730  18.864  1.00  0.00    -0.000 C 
BRANCH  12  13
ATOM     13  C   UNL     1      -1.783  36.668  17.784  1.00  0.00    -0.000 C 
BRANCH  13  14
ATOM     14  C   UNL     1      -2.281  37.269  16.457  1.00  0.00    -0.000 C 
BRANCH  14  15
ATOM     15  C   UNL     1      -1.815  38.711  16.185  1.00  0.00    -0.003 C 
ATOM     16  C   UNL     1      -2.974  39.699  16.054  1.00  0.00     0.004 C 
ENDBRANCH  14  15
ENDBRANCH  13  14
ENDBRANCH  12  13
ENDBRANCH  11  12
ENDBRANCH  10  11
ENDBRANCH   1  10
TORSDOF 12
ENDMDL
MODEL 7
REMARK VINA RESULT:    -3.489      1.469      3.622
REMARK INTER + INTRA:          -8.098
REMARK INTER:                  -6.005
REMARK INTRA:                  -2.093
REMARK UNBOUND:                -2.161
REMARK SMILES CCCCCCCCCCCCCC(=O)[O-]
REMARK SMILES IDX 8 1 9 2 10 3 11 4 12 5 13 6 14 7 15 8 16 9 7 10 6 11 5 12
REMARK SMILES IDX 4 13 3 14 2 15 1 16
REMARK H PARENT
REMARK Flexibility Score: inf
ROOT
ATOM      1  C   UNL     1      -3.787  39.069  23.619  1.00  0.00     0.000 C 
ENDROOT
BRANCH   1   2
ATOM      2  C   UNL     1      -3.689  40.343  22.760  1.00  0.00     0.000 C 
BRANCH   2   3
ATOM      3  C   UNL     1      -2.959  40.113  21.428  1.00  0.00     0.000 C 
BRANCH   3   4
ATOM      4  C   UNL     1      -3.919  40.282  20.241  1.00  0.00     0.000 C 
BRANCH   4   5
ATOM      5  C   UNL     1      -3.235  40.048  18.881  1.00  0.00     0.006 C 
BRANCH   5   6
ATOM      6  C   UNL     1      -3.424  38.632  18.315  1.00  0.00     0.053 C 
BRANCH   6   7
ATOM      7  C   UNL     1      -2.218  37.772  18.543  1.00  0.00     0.041 C 
ATOM      8  O   UNL     1      -1.151  38.279  18.978  1.00  0.00    -0.550 OA
ATOM      9  O   UNL     1      -2.285  36.404  18.307  1.00  0.00    -0.550 OA
ENDBRANCH   6   7
ENDBRANCH   5   6
ENDBRANCH   4   5
ENDBRANCH   3   4
ENDBRANCH   2   3
ENDBRANCH   1   2
BRANCH   1  10
ATOM     10  C   UNL     1      -3.098  37.828  23.023  1.00  0.00     0.000 C 
BRANCH  10  11
ATOM     11  C   UNL     1      -4.081  36.690  22.709  1.00  0.00    -0.000 C 
BRANCH  11  12
ATOM     12  C   UNL     1      -4.459  36.684  21.222  1.00  0.00    -0.000 C 
BRANCH  12  13
ATOM     13  C   UNL     1      -5.863  37.268  21.009  1.00  0.00    -0.000 C 
BRANCH  13  14
ATOM     14  C   UNL     1      -6.686  37.340  22.308  1.00  0.00    -0.000 C 
BRANCH  14  15
ATOM     15  C   UNL     1      -7.255  38.733  22.636  1.00  0.00    -0.003 C 
ATOM     16  C   UNL     1      -7.367  39.638  21.409  1.00  0.00     0.004 C 
ENDBRANCH  14  15
ENDBRANCH  13  14
ENDBRANCH  12  13
ENDBRANCH  11  12
ENDBRANCH  10  11
ENDBRANCH   1  10
TORSDOF 12
ENDMDL
MODEL 8
REMARK VINA RESULT:    -3.489      1.308      3.480
REMARK INTER + INTRA:          -8.098
REMARK INTER:                  -6.024
REMARK INTRA:                  -2.074
REMARK UNBOUND:                -2.161
REMARK SMILES CCCCCCCCCCCCCC(=O)[O-]
REMARK SMILES IDX 8 1 9 2 10 3 11 4 12 5 13 6 14 7 15 8 16 9 7 10 6 11 5 12
REMARK SMILES IDX 4 13 3 14 2 15 1 16
REMARK H PARENT
REMARK Flexibility Score: inf
ROOT
ATOM      1  C   UNL     1      -2.958  39.469  21.971  1.00  0.00     0.000 C 
ENDROOT
BRANCH   1   2
ATOM      2  C   UNL     1      -3.561  40.133  20.719  1.00  0.00     0.000 C 
BRANCH   2   3
ATOM      3  C   UNL     1      -2.971  39.589  19.409  1.00  0.00     0.000 C 
BRANCH   3   4
ATOM      4  C   UNL     1      -2.247  38.256  19.647  1.00  0.00     0.000 C 
BRANCH   4   5
ATOM      5  C   UNL     1      -2.817  37.106  18.796  1.00  0.00     0.006 C 
BRANCH   5   6
ATOM      6  C   UNL     1      -1.776  36.391  17.921  1.00  0.00     0.053 C 
BRANCH   6   7
ATOM      7  C   UNL     1      -0.954  37.357  17.124  1.00  0.00     0.041 C 
ATOM      8  O   UNL     1       0.289  37.434  17.307  1.00  0.00    -0.550 OA
ATOM      9  O   UNL     1      -1.558  38.150  16.155  1.00  0.00    -0.550 OA
ENDBRANCH   6   7
ENDBRANCH   5   6
ENDBRANCH   4   5
ENDBRANCH   3   4
ENDBRANCH   2   3
ENDBRANCH   1   2
BRANCH   1  10
ATOM     10  C   UNL     1      -3.973  38.756  22.882  1.00  0.00     0.000 C 
BRANCH  10  11
ATOM     11  C   UNL     1      -3.725  37.244  22.988  1.00  0.00    -0.000 C 
BRANCH  11  12
ATOM     12  C   UNL     1      -4.553  36.477  21.948  1.00  0.00    -0.000 C 
BRANCH  12  13
ATOM     13  C   UNL     1      -5.902  37.168  21.701  1.00  0.00    -0.000 C 
BRANCH  13  14
ATOM     14  C   UNL     1      -6.168  37.448  20.211  1.00  0.00    -0.000 C 
BRANCH  14  15
ATOM     15  C   UNL     1      -7.125  38.622  19.934  1.00  0.00    -0.003 C 
ATOM     16  C   UNL     1      -7.230  39.597  21.106  1.00  0.00     0.004 C 
ENDBRANCH  14  15
ENDBRANCH  13  14
ENDBRANCH  12  13
ENDBRANCH  11  12
ENDBRANCH  10  11
ENDBRANCH   1  10
TORSDOF 12
ENDMDL
MODEL 9
REMARK VINA RESULT:    -3.471     17.276     19.387
REMARK INTER + INTRA:          -8.067
REMARK INTER:                  -6.755
REMARK INTRA:                  -1.312
REMARK UNBOUND:                -2.161
REMARK SMILES CCCCCCCCCCCCCC(=O)[O-]
REMARK SMILES IDX 8 1 9 2 10 3 11 4 12 5 13 6 14 7 15 8 16 9 7 10 6 11 5 12
REMARK SMILES IDX 4 13 3 14 2 15 1 16
REMARK H PARENT
REMARK Flexibility Score: inf
ROOT
ATOM      1  C   UNL     1      -7.382  23.934  34.598  1.00  0.00     0.000 C 
ENDROOT
BRANCH   1   2
ATOM      2  C   UNL     1      -6.638  23.178  33.482  1.00  0.00     0.000 C 
BRANCH   2   3
ATOM      3  C   UNL     1      -7.088  21.716  33.346  1.00  0.00     0.000 C 
BRANCH   3   4
ATOM      4  C   UNL     1      -8.421  21.622  32.589  1.00  0.00     0.000 C 
BRANCH   4   5
ATOM      5  C   UNL     1      -8.274  21.903  31.083  1.00  0.00     0.006 C 
BRANCH   5   6
ATOM      6  C   UNL     1      -7.217  21.037  30.378  1.00  0.00     0.053 C 
BRANCH   6   7
ATOM      7  C   UNL     1      -6.114  21.865  29.793  1.00  0.00     0.041 C 
ATOM      8  O   UNL     1      -5.309  21.357  28.969  1.00  0.00    -0.550 OA
ATOM      9  O   UNL     1      -5.997  23.207  30.134  1.00  0.00    -0.550 OA
ENDBRANCH   6   7
ENDBRANCH   5   6
ENDBRANCH   4   5
ENDBRANCH   3   4
ENDBRANCH   2   3
ENDBRANCH   1   2
BRANCH   1  10
ATOM     10  C   UNL     1      -6.489  24.457  35.738  1.00  0.00     0.000 C 
BRANCH  10  11
ATOM     11  C   UNL     1      -5.014  24.587  35.332  1.00  0.00    -0.000 C 
BRANCH  11  12
ATOM     12  C   UNL     1      -4.614  26.059  35.175  1.00  0.00    -0.000 C 
BRANCH  12  13
ATOM     13  C   UNL     1      -4.946  26.572  33.765  1.00  0.00    -0.000 C 
BRANCH  13  14
ATOM     14  C   UNL     1      -5.759  27.878  33.778  1.00  0.00    -0.000 C 
BRANCH  14  15
ATOM     15  C   UNL     1      -6.615  28.095  35.039  1.00  0.00    -0.003 C 
ATOM     16  C   UNL     1      -8.048  27.587  34.884  1.00  0.00     0.004 C 
ENDBRANCH  14  15
ENDBRANCH  13  14
ENDBRANCH  12  13
ENDBRANCH  11  12
ENDBRANCH  10  11
ENDBRANCH   1  10
TORSDOF 12
ENDMDL
