MODEL 1
REMARK VINA RESULT:    -7.283      0.000      0.000
REMARK INTER + INTRA:         -10.830
REMARK INTER:                  -9.837
REMARK INTRA:                  -0.993
REMARK UNBOUND:                -0.993
REMARK SMILES O=c1c(-c2ccc(O)cc2)coc2c([C@H]3O[C@H](CO)[C@@H](O)[C@H](O)[C@H]3O)c(O)ccc12
REMARK SMILES IDX 3 1 11 2 12 3 13 4 30 5 2 6 1 7 29 8 28 9 26 10 14 11 4 12
REMARK SMILES IDX 5 13 6 14 7 15 10 16 9 17 8 18 15 20 24 21 16 22 22 23 17 24
REMARK SMILES IDX 20 25 25 26 23 28 18 30 19 31 21 33 27 35
REMARK H PARENT 8 19 25 27 23 29 19 32 21 34 27 36
REMARK Flexibility Score: inf
ROOT
ATOM      1  C   UNL     1      -7.626  -7.330  12.942  1.00  0.00     0.065 A 
ATOM      2  C   UNL     1      -6.366  -6.799  12.631  1.00  0.00     0.208 A 
ATOM      3  O   UNL     1      -5.255  -7.412  13.016  1.00  0.00    -0.463 OA
ATOM      4  C   UNL     1      -5.249  -8.547  13.711  1.00  0.00     0.147 A 
ATOM      5  C   UNL     1      -6.477  -9.147  14.076  1.00  0.00     0.066 A 
ATOM      6  C   UNL     1      -7.676  -8.521  13.687  1.00  0.00     0.200 A 
ATOM      7  O   UNL     1      -8.790  -9.014  14.021  1.00  0.00    -0.288 OA
ATOM      8  C   UNL     1      -6.476 -10.333  14.824  1.00  0.00     0.020 A 
ATOM      9  C   UNL     1      -5.272 -10.914  15.215  1.00  0.00     0.047 A 
ATOM     10  C   UNL     1      -4.049 -10.330  14.861  1.00  0.00     0.125 A 
ATOM     11  C   UNL     1      -4.021  -9.149  14.084  1.00  0.00     0.069 A 
ENDROOT
BRANCH   1  12
ATOM     12  C   UNL     1      -8.855  -6.630  12.493  1.00  0.00    -0.011 A 
ATOM     13  C   UNL     1      -9.640  -7.155  11.450  1.00  0.00     0.013 A 
ATOM     14  C   UNL     1     -10.791  -6.487  11.025  1.00  0.00     0.047 A 
ATOM     15  C   UNL     1     -11.173  -5.283  11.634  1.00  0.00     0.115 A 
ATOM     16  C   UNL     1      -9.241  -5.417  13.092  1.00  0.00     0.013 A 
ATOM     17  C   UNL     1     -10.394  -4.751  12.666  1.00  0.00     0.047 A 
BRANCH  15  18
ATOM     18  O   UNL     1     -12.319  -4.610  11.219  1.00  0.00    -0.508 OA
ATOM     19  H   UNL     1     -13.156  -5.109  10.942  1.00  0.00     0.293 HD
ENDBRANCH  15  18
ENDBRANCH   1  12
BRANCH  11  20
ATOM     20  C   UNL     1      -2.679  -8.515  13.735  1.00  0.00     0.188 C 
ATOM     21  C   UNL     1      -2.080  -9.183  12.479  1.00  0.00     0.179 C 
ATOM     22  O   UNL     1      -1.791  -8.593  14.837  1.00  0.00    -0.362 OA
ATOM     23  C   UNL     1      -0.743  -8.515  12.098  1.00  0.00     0.177 C 
ATOM     24  C   UNL     1      -0.564  -7.910  14.617  1.00  0.00     0.176 C 
ATOM     25  C   UNL     1       0.186  -8.347  13.324  1.00  0.00     0.177 C 
BRANCH  21  26
ATOM     26  O   UNL     1      -1.925 -10.573  12.639  1.00  0.00    -0.387 OA
ATOM     27  H   UNL     1      -1.749 -10.971  11.748  1.00  0.00     0.211 HD
ENDBRANCH  21  26
BRANCH  23  28
ATOM     28  O   UNL     1      -0.980  -7.262  11.512  1.00  0.00    -0.387 OA
ATOM     29  H   UNL     1      -0.466  -6.593  12.036  1.00  0.00     0.211 HD
ENDBRANCH  23  28
BRANCH  24  30
ATOM     30  C   UNL     1      -0.680  -6.384  14.826  1.00  0.00     0.191 C 
BRANCH  30  31
ATOM     31  O   UNL     1       0.173  -5.667  13.981  1.00  0.00    -0.394 OA
ATOM     32  H   UNL     1      -0.190  -5.774  13.064  1.00  0.00     0.210 HD
ENDBRANCH  30  31
ENDBRANCH  24  30
BRANCH  25  33
ATOM     33  O   UNL     1       0.854  -9.558  13.577  1.00  0.00    -0.388 OA
ATOM     34  H   UNL     1       1.226  -9.501  14.496  1.00  0.00     0.211 HD
ENDBRANCH  25  33
ENDBRANCH  11  20
BRANCH  10  35
ATOM     35  O   UNL     1      -2.860 -10.922  15.287  1.00  0.00    -0.507 OA
ATOM     36  H   UNL     1      -2.752 -11.929  15.332  1.00  0.00     0.293 HD
ENDBRANCH  10  35
TORSDOF 9
ENDMDL
MODEL 2
REMARK VINA RESULT:    -7.141      2.343      8.557
REMARK INTER + INTRA:         -10.639
REMARK INTER:                  -9.588
REMARK INTRA:                  -1.052
REMARK UNBOUND:                -0.993
REMARK SMILES O=c1c(-c2ccc(O)cc2)coc2c([C@H]3O[C@H](CO)[C@@H](O)[C@H](O)[C@H]3O)c(O)ccc12
REMARK SMILES IDX 3 1 11 2 12 3 13 4 30 5 2 6 1 7 29 8 28 9 26 10 14 11 4 12
REMARK SMILES IDX 5 13 6 14 7 15 10 16 9 17 8 18 15 20 24 21 16 22 22 23 17 24
REMARK SMILES IDX 20 25 25 26 23 28 18 30 19 31 21 33 27 35
REMARK H PARENT 8 19 25 27 23 29 19 32 21 34 27 36
REMARK Flexibility Score: inf
ROOT
ATOM      1  C   UNL     1      -0.903  -8.231  13.102  1.00  0.00     0.065 A 
ATOM      2  C   UNL     1      -2.200  -8.561  12.682  1.00  0.00     0.208 A 
ATOM      3  O   UNL     1      -3.262  -8.000  13.247  1.00  0.00    -0.463 OA
ATOM      4  C   UNL     1      -3.181  -7.107  14.230  1.00  0.00     0.147 A 
ATOM      5  C   UNL     1      -1.910  -6.724  14.721  1.00  0.00     0.066 A 
ATOM      6  C   UNL     1      -0.763  -7.302  14.147  1.00  0.00     0.200 A 
ATOM      7  O   UNL     1       0.385  -7.004  14.581  1.00  0.00    -0.288 OA
ATOM      8  C   UNL     1      -1.822  -5.797  15.770  1.00  0.00     0.020 A 
ATOM      9  C   UNL     1      -2.978  -5.262  16.333  1.00  0.00     0.047 A 
ATOM     10  C   UNL     1      -4.241  -5.633  15.857  1.00  0.00     0.125 A 
ATOM     11  C   UNL     1      -4.359  -6.545  14.783  1.00  0.00     0.069 A 
ENDROOT
BRANCH   1  12
ATOM     12  C   UNL     1       0.269  -8.865  12.449  1.00  0.00    -0.011 A 
ATOM     13  C   UNL     1       0.896  -9.983  13.029  1.00  0.00     0.013 A 
ATOM     14  C   UNL     1       2.005 -10.570  12.414  1.00  0.00     0.047 A 
ATOM     15  C   UNL     1       2.505 -10.047  11.215  1.00  0.00     0.115 A 
ATOM     16  C   UNL     1       0.783  -8.341  11.249  1.00  0.00     0.013 A 
ATOM     17  C   UNL     1       1.892  -8.932  10.636  1.00  0.00     0.047 A 
BRANCH  15  18
ATOM     18  O   UNL     1       3.610 -10.625  10.594  1.00  0.00    -0.508 OA
ATOM     19  H   UNL     1       4.156 -11.346  11.049  1.00  0.00     0.293 HD
ENDBRANCH  15  18
ENDBRANCH   1  12
BRANCH  11  20
ATOM     20  C   UNL     1      -5.746  -6.957  14.300  1.00  0.00     0.188 C 
ATOM     21  C   UNL     1      -6.216  -6.028  13.160  1.00  0.00     0.179 C 
ATOM     22  O   UNL     1      -6.666  -6.962  15.378  1.00  0.00    -0.362 OA
ATOM     23  C   UNL     1      -7.599  -6.468  12.641  1.00  0.00     0.177 C 
ATOM     24  C   UNL     1      -7.949  -7.456  15.017  1.00  0.00     0.176 C 
ATOM     25  C   UNL     1      -8.592  -6.730  13.799  1.00  0.00     0.177 C 
BRANCH  21  26
ATOM     26  O   UNL     1      -6.227  -4.674  13.548  1.00  0.00    -0.387 OA
ATOM     27  H   UNL     1      -5.318  -4.434  13.861  1.00  0.00     0.211 HD
ENDBRANCH  21  26
BRANCH  23  28
ATOM     28  O   UNL     1      -7.474  -7.626  11.858  1.00  0.00    -0.387 OA
ATOM     29  H   UNL     1      -7.095  -7.347  10.983  1.00  0.00     0.211 HD
ENDBRANCH  23  28
BRANCH  24  30
ATOM     30  C   UNL     1      -8.007  -8.999  14.968  1.00  0.00     0.191 C 
BRANCH  30  31
ATOM     31  O   UNL     1      -8.874  -9.466  13.975  1.00  0.00    -0.394 OA
ATOM     32  H   UNL     1      -8.356 -10.120  13.439  1.00  0.00     0.210 HD
ENDBRANCH  30  31
ENDBRANCH  24  30
BRANCH  25  33
ATOM     33  O   UNL     1      -9.137  -5.509  14.237  1.00  0.00    -0.388 OA
ATOM     34  H   UNL     1     -10.031  -5.420  13.816  1.00  0.00     0.211 HD
ENDBRANCH  25  33
ENDBRANCH  11  20
BRANCH  10  35
ATOM     35  O   UNL     1      -5.382  -5.099  16.457  1.00  0.00    -0.507 OA
ATOM     36  H   UNL     1      -6.253  -5.614  16.499  1.00  0.00     0.293 HD
ENDBRANCH  10  35
TORSDOF 9
ENDMDL
MODEL 3
REMARK VINA RESULT:    -7.118      1.737      2.514
REMARK INTER + INTRA:         -10.608
REMARK INTER:                  -9.510
REMARK INTRA:                  -1.098
REMARK UNBOUND:                -0.993
REMARK SMILES O=c1c(-c2ccc(O)cc2)coc2c([C@H]3O[C@H](CO)[C@@H](O)[C@H](O)[C@H]3O)c(O)ccc12
REMARK SMILES IDX 3 1 11 2 12 3 13 4 30 5 2 6 1 7 29 8 28 9 26 10 14 11 4 12
REMARK SMILES IDX 5 13 6 14 7 15 10 16 9 17 8 18 15 20 24 21 16 22 22 23 17 24
REMARK SMILES IDX 20 25 25 26 23 28 18 30 19 31 21 33 27 35
REMARK H PARENT 8 19 25 27 23 29 19 32 21 34 27 36
REMARK Flexibility Score: inf
ROOT
ATOM      1  C   UNL     1      -5.619  -7.650  13.528  1.00  0.00     0.065 A 
ATOM      2  C   UNL     1      -4.410  -6.942  13.472  1.00  0.00     0.208 A 
ATOM      3  O   UNL     1      -3.247  -7.581  13.455  1.00  0.00    -0.463 OA
ATOM      4  C   UNL     1      -3.142  -8.907  13.491  1.00  0.00     0.147 A 
ATOM      5  C   UNL     1      -4.313  -9.699  13.558  1.00  0.00     0.066 A 
ATOM      6  C   UNL     1      -5.563  -9.053  13.581  1.00  0.00     0.200 A 
ATOM      7  O   UNL     1      -6.627  -9.728  13.669  1.00  0.00    -0.288 OA
ATOM      8  C   UNL     1      -4.205 -11.097  13.615  1.00  0.00     0.020 A 
ATOM      9  C   UNL     1      -2.951 -11.703  13.615  1.00  0.00     0.047 A 
ATOM     10  C   UNL     1      -1.785 -10.932  13.550  1.00  0.00     0.125 A 
ATOM     11  C   UNL     1      -1.865  -9.523  13.464  1.00  0.00     0.069 A 
ENDROOT
BRANCH   1  12
ATOM     12  C   UNL     1      -6.907  -6.913  13.537  1.00  0.00    -0.011 A 
ATOM     13  C   UNL     1      -7.443  -6.419  14.740  1.00  0.00     0.013 A 
ATOM     14  C   UNL     1      -8.661  -5.733  14.745  1.00  0.00     0.047 A 
ATOM     15  C   UNL     1      -9.362  -5.535  13.548  1.00  0.00     0.115 A 
ATOM     16  C   UNL     1      -7.622  -6.716  12.342  1.00  0.00     0.013 A 
ATOM     17  C   UNL     1      -8.839  -6.029  12.349  1.00  0.00     0.047 A 
BRANCH  15  18
ATOM     18  O   UNL     1     -10.576  -4.853  13.540  1.00  0.00    -0.508 OA
ATOM     19  H   UNL     1     -11.461  -5.345  13.575  1.00  0.00     0.293 HD
ENDBRANCH  15  18
ENDBRANCH   1  12
BRANCH  11  20
ATOM     20  C   UNL     1      -0.580  -8.702  13.423  1.00  0.00     0.188 C 
ATOM     21  C   UNL     1      -0.071  -8.572  11.972  1.00  0.00     0.179 C 
ATOM     22  O   UNL     1       0.403  -9.275  14.268  1.00  0.00    -0.362 OA
ATOM     23  C   UNL     1       1.203  -7.706  11.922  1.00  0.00     0.177 C 
ATOM     24  C   UNL     1       1.582  -8.488  14.369  1.00  0.00     0.176 C 
ATOM     25  C   UNL     1       2.230  -8.131  12.999  1.00  0.00     0.177 C 
BRANCH  21  26
ATOM     26  O   UNL     1       0.143  -9.826  11.370  1.00  0.00    -0.387 OA
ATOM     27  H   UNL     1       0.580 -10.418  12.033  1.00  0.00     0.211 HD
ENDBRANCH  21  26
BRANCH  23  28
ATOM     28  O   UNL     1       0.874  -6.352  12.095  1.00  0.00    -0.387 OA
ATOM     29  H   UNL     1       1.579  -5.820  11.641  1.00  0.00     0.211 HD
ENDBRANCH  23  28
BRANCH  24  30
ATOM     30  C   UNL     1       1.434  -7.307  15.354  1.00  0.00     0.191 C 
BRANCH  30  31
ATOM     31  O   UNL     1       1.925  -6.109  14.824  1.00  0.00    -0.394 OA
ATOM     32  H   UNL     1       1.138  -5.616  14.476  1.00  0.00     0.210 HD
ENDBRANCH  30  31
ENDBRANCH  24  30
BRANCH  25  33
ATOM     33  O   UNL     1       2.959  -9.244  12.541  1.00  0.00    -0.388 OA
ATOM     34  H   UNL     1       2.869  -9.954  13.228  1.00  0.00     0.211 HD
ENDBRANCH  25  33
ENDBRANCH  11  20
BRANCH  10  35
ATOM     35  O   UNL     1      -0.543 -11.568  13.576  1.00  0.00    -0.507 OA
ATOM     36  H   UNL     1       0.323 -11.044  13.622  1.00  0.00     0.293 HD
ENDBRANCH  10  35
TORSDOF 9
ENDMDL
MODEL 4
REMARK VINA RESULT:    -7.065      1.462      1.804
REMARK INTER + INTRA:         -10.536
REMARK INTER:                  -9.948
REMARK INTRA:                  -0.588
REMARK UNBOUND:                -0.993
REMARK SMILES O=c1c(-c2ccc(O)cc2)coc2c([C@H]3O[C@H](CO)[C@@H](O)[C@H](O)[C@H]3O)c(O)ccc12
REMARK SMILES IDX 3 1 11 2 12 3 13 4 30 5 2 6 1 7 29 8 28 9 26 10 14 11 4 12
REMARK SMILES IDX 5 13 6 14 7 15 10 16 9 17 8 18 15 20 24 21 16 22 22 23 17 24
REMARK SMILES IDX 20 25 25 26 23 28 18 30 19 31 21 33 27 35
REMARK H PARENT 8 19 25 27 23 29 19 32 21 34 27 36
REMARK Flexibility Score: inf
ROOT
ATOM      1  C   UNL     1      -7.485  -8.599  14.250  1.00  0.00     0.065 A 
ATOM      2  C   UNL     1      -6.408  -7.814  13.815  1.00  0.00     0.208 A 
ATOM      3  O   UNL     1      -5.164  -8.272  13.874  1.00  0.00    -0.463 OA
ATOM      4  C   UNL     1      -4.851  -9.479  14.339  1.00  0.00     0.147 A 
ATOM      5  C   UNL     1      -5.877 -10.333  14.808  1.00  0.00     0.066 A 
ATOM      6  C   UNL     1      -7.207  -9.877  14.764  1.00  0.00     0.200 A 
ATOM      7  O   UNL     1      -8.144 -10.603  15.201  1.00  0.00    -0.288 OA
ATOM      8  C   UNL     1      -5.549 -11.599  15.317  1.00  0.00     0.020 A 
ATOM      9  C   UNL     1      -4.219 -12.010  15.370  1.00  0.00     0.047 A 
ATOM     10  C   UNL     1      -3.194 -11.174  14.910  1.00  0.00     0.125 A 
ATOM     11  C   UNL     1      -3.499  -9.905  14.367  1.00  0.00     0.069 A 
ENDROOT
BRANCH   1  12
ATOM     12  C   UNL     1      -8.868  -8.067  14.167  1.00  0.00    -0.011 A 
ATOM     13  C   UNL     1      -9.760  -8.213  15.245  1.00  0.00     0.013 A 
ATOM     14  C   UNL     1     -11.064  -7.719  15.157  1.00  0.00     0.047 A 
ATOM     15  C   UNL     1     -11.496  -7.075  13.990  1.00  0.00     0.115 A 
ATOM     16  C   UNL     1      -9.314  -7.428  12.995  1.00  0.00     0.013 A 
ATOM     17  C   UNL     1     -10.619  -6.933  12.911  1.00  0.00     0.047 A 
BRANCH  15  18
ATOM     18  O   UNL     1     -12.794  -6.579  13.893  1.00  0.00    -0.508 OA
ATOM     19  H   UNL     1     -13.476  -6.997  13.272  1.00  0.00     0.293 HD
ENDBRANCH  15  18
ENDBRANCH   1  12
BRANCH  11  20
ATOM     20  C   UNL     1      -2.364  -8.999  13.899  1.00  0.00     0.188 C 
ATOM     21  C   UNL     1      -1.878  -9.428  12.498  1.00  0.00     0.179 C 
ATOM     22  O   UNL     1      -1.304  -9.004  14.840  1.00  0.00    -0.362 OA
ATOM     23  C   UNL     1      -0.760  -8.489  12.004  1.00  0.00     0.177 C 
ATOM     24  C   UNL     1      -0.268  -8.085  14.521  1.00  0.00     0.176 C 
ATOM     25  C   UNL     1       0.318  -8.256  13.089  1.00  0.00     0.177 C 
BRANCH  21  26
ATOM     26  O   UNL     1      -1.461 -10.773  12.469  1.00  0.00    -0.387 OA
ATOM     27  H   UNL     1      -2.267 -11.347  12.427  1.00  0.00     0.211 HD
ENDBRANCH  21  26
BRANCH  23  28
ATOM     28  O   UNL     1      -1.305  -7.256  11.610  1.00  0.00    -0.387 OA
ATOM     29  H   UNL     1      -1.282  -7.231  10.617  1.00  0.00     0.211 HD
ENDBRANCH  23  28
BRANCH  24  30
ATOM     30  C   UNL     1      -0.610  -6.632  14.922  1.00  0.00     0.191 C 
BRANCH  30  31
ATOM     31  O   UNL     1      -0.092  -5.697  14.020  1.00  0.00    -0.394 OA
ATOM     32  H   UNL     1      -0.799  -5.012  13.895  1.00  0.00     0.210 HD
ENDBRANCH  30  31
ENDBRANCH  24  30
BRANCH  25  33
ATOM     33  O   UNL     1       1.219  -9.336  13.097  1.00  0.00    -0.388 OA
ATOM     34  H   UNL     1       1.952  -9.110  12.467  1.00  0.00     0.211 HD
ENDBRANCH  25  33
ENDBRANCH  11  20
BRANCH  10  35
ATOM     35  O   UNL     1      -1.870 -11.604  14.998  1.00  0.00    -0.507 OA
ATOM     36  H   UNL     1      -1.131 -11.170  14.458  1.00  0.00     0.293 HD
ENDBRANCH  10  35
TORSDOF 9
ENDMDL
MODEL 5
REMARK VINA RESULT:    -7.064      3.595      5.020
REMARK INTER + INTRA:         -10.535
REMARK INTER:                  -9.458
REMARK INTRA:                  -1.078
REMARK UNBOUND:                -0.993
REMARK SMILES O=c1c(-c2ccc(O)cc2)coc2c([C@H]3O[C@H](CO)[C@@H](O)[C@H](O)[C@H]3O)c(O)ccc12
REMARK SMILES IDX 3 1 11 2 12 3 13 4 30 5 2 6 1 7 29 8 28 9 26 10 14 11 4 12
REMARK SMILES IDX 5 13 6 14 7 15 10 16 9 17 8 18 15 20 24 21 16 22 22 23 17 24
REMARK SMILES IDX 20 25 25 26 23 28 18 30 19 31 21 33 27 35
REMARK H PARENT 8 19 25 27 23 29 19 32 21 34 27 36
REMARK Flexibility Score: inf
ROOT
ATOM      1  C   UNL     1      -4.030  -5.678  15.923  1.00  0.00     0.065 A 
ATOM      2  C   UNL     1      -2.631  -5.765  15.924  1.00  0.00     0.208 A 
ATOM      3  O   UNL     1      -2.000  -6.603  15.112  1.00  0.00    -0.463 OA
ATOM      4  C   UNL     1      -2.630  -7.405  14.257  1.00  0.00     0.147 A 
ATOM      5  C   UNL     1      -4.043  -7.389  14.197  1.00  0.00     0.066 A 
ATOM      6  C   UNL     1      -4.744  -6.515  15.048  1.00  0.00     0.200 A 
ATOM      7  O   UNL     1      -6.007  -6.495  15.040  1.00  0.00    -0.288 OA
ATOM      8  C   UNL     1      -4.711  -8.247  13.310  1.00  0.00     0.020 A 
ATOM      9  C   UNL     1      -3.988  -9.117  12.499  1.00  0.00     0.047 A 
ATOM     10  C   UNL     1      -2.589  -9.145  12.549  1.00  0.00     0.125 A 
ATOM     11  C   UNL     1      -1.889  -8.272  13.414  1.00  0.00     0.069 A 
ENDROOT
BRANCH   1  12
ATOM     12  C   UNL     1      -4.713  -4.727  16.835  1.00  0.00    -0.011 A 
ATOM     13  C   UNL     1      -5.194  -3.495  16.359  1.00  0.00     0.013 A 
ATOM     14  C   UNL     1      -5.827  -2.599  17.225  1.00  0.00     0.047 A 
ATOM     15  C   UNL     1      -5.987  -2.922  18.579  1.00  0.00     0.115 A 
ATOM     16  C   UNL     1      -4.870  -5.040  18.198  1.00  0.00     0.013 A 
ATOM     17  C   UNL     1      -5.505  -4.143  19.062  1.00  0.00     0.047 A 
BRANCH  15  18
ATOM     18  O   UNL     1      -6.617  -2.037  19.450  1.00  0.00    -0.508 OA
ATOM     19  H   UNL     1      -6.539  -1.034  19.336  1.00  0.00     0.293 HD
ENDBRANCH  15  18
ENDBRANCH   1  12
BRANCH  11  20
ATOM     20  C   UNL     1      -0.366  -8.339  13.473  1.00  0.00     0.188 C 
ATOM     21  C   UNL     1       0.254  -7.431  12.389  1.00  0.00     0.179 C 
ATOM     22  O   UNL     1       0.077  -9.679  13.343  1.00  0.00    -0.362 OA
ATOM     23  C   UNL     1       1.793  -7.464  12.474  1.00  0.00     0.177 C 
ATOM     24  C   UNL     1       1.481  -9.823  13.513  1.00  0.00     0.176 C 
ATOM     25  C   UNL     1       2.333  -8.910  12.583  1.00  0.00     0.177 C 
BRANCH  21  26
ATOM     26  O   UNL     1      -0.190  -7.768  11.096  1.00  0.00    -0.387 OA
ATOM     27  H   UNL     1      -1.175  -7.658  11.067  1.00  0.00     0.211 HD
ENDBRANCH  21  26
BRANCH  23  28
ATOM     28  O   UNL     1       2.231  -6.714  13.577  1.00  0.00    -0.387 OA
ATOM     29  H   UNL     1       2.591  -7.357  14.243  1.00  0.00     0.211 HD
ENDBRANCH  23  28
BRANCH  24  30
ATOM     30  C   UNL     1       1.909  -9.832  14.997  1.00  0.00     0.191 C 
BRANCH  30  31
ATOM     31  O   UNL     1       3.064  -9.075  15.221  1.00  0.00    -0.394 OA
ATOM     32  H   UNL     1       3.670  -9.648  15.758  1.00  0.00     0.210 HD
ENDBRANCH  30  31
ENDBRANCH  24  30
BRANCH  25  33
ATOM     33  O   UNL     1       2.384  -9.491  11.303  1.00  0.00    -0.388 OA
ATOM     34  H   UNL     1       2.082 -10.431  11.397  1.00  0.00     0.211 HD
ENDBRANCH  25  33
ENDBRANCH  11  20
BRANCH  10  35
ATOM     35  O   UNL     1      -1.893 -10.045  11.741  1.00  0.00    -0.507 OA
ATOM     36  H   UNL     1      -2.342 -10.860  11.341  1.00  0.00     0.293 HD
ENDBRANCH  10  35
TORSDOF 9
ENDMDL
MODEL 6
REMARK VINA RESULT:    -7.034      2.199      8.299
REMARK INTER + INTRA:         -10.494
REMARK INTER:                  -9.994
REMARK INTRA:                  -0.500
REMARK UNBOUND:                -0.993
REMARK SMILES O=c1c(-c2ccc(O)cc2)coc2c([C@H]3O[C@H](CO)[C@@H](O)[C@H](O)[C@H]3O)c(O)ccc12
REMARK SMILES IDX 3 1 11 2 12 3 13 4 30 5 2 6 1 7 29 8 28 9 26 10 14 11 4 12
REMARK SMILES IDX 5 13 6 14 7 15 10 16 9 17 8 18 15 20 24 21 16 22 22 23 17 24
REMARK SMILES IDX 20 25 25 26 23 28 18 30 19 31 21 33 27 35
REMARK H PARENT 8 19 25 27 23 29 19 32 21 34 27 36
REMARK Flexibility Score: inf
ROOT
ATOM      1  C   UNL     1      -4.257  -9.819  13.566  1.00  0.00     0.065 A 
ATOM      2  C   UNL     1      -4.833  -8.775  12.829  1.00  0.00     0.208 A 
ATOM      3  O   UNL     1      -6.087  -8.399  13.047  1.00  0.00    -0.463 OA
ATOM      4  C   UNL     1      -6.873  -8.968  13.957  1.00  0.00     0.147 A 
ATOM      5  C   UNL     1      -6.374 -10.036  14.739  1.00  0.00     0.066 A 
ATOM      6  C   UNL     1      -5.050 -10.464  14.531  1.00  0.00     0.200 A 
ATOM      7  O   UNL     1      -4.582 -11.433  15.193  1.00  0.00    -0.288 OA
ATOM      8  C   UNL     1      -7.206 -10.652  15.687  1.00  0.00     0.020 A 
ATOM      9  C   UNL     1      -8.520 -10.221  15.851  1.00  0.00     0.047 A 
ATOM     10  C   UNL     1      -9.027  -9.166  15.082  1.00  0.00     0.125 A 
ATOM     11  C   UNL     1      -8.202  -8.510  14.139  1.00  0.00     0.069 A 
ENDROOT
BRANCH   1  12
ATOM     12  C   UNL     1      -2.850 -10.217  13.309  1.00  0.00    -0.011 A 
ATOM     13  C   UNL     1      -1.801  -9.297  13.484  1.00  0.00     0.013 A 
ATOM     14  C   UNL     1      -0.479  -9.674  13.232  1.00  0.00     0.047 A 
ATOM     15  C   UNL     1      -0.188 -10.975  12.799  1.00  0.00     0.115 A 
ATOM     16  C   UNL     1      -2.550 -11.518  12.866  1.00  0.00     0.013 A 
ATOM     17  C   UNL     1      -1.227 -11.893  12.616  1.00  0.00     0.047 A 
BRANCH  15  18
ATOM     18  O   UNL     1       1.126 -11.362  12.545  1.00  0.00    -0.508 OA
ATOM     19  H   UNL     1       1.794 -11.491  13.295  1.00  0.00     0.293 HD
ENDBRANCH  15  18
ENDBRANCH   1  12
BRANCH  11  20
ATOM     20  C   UNL     1      -8.784  -7.382  13.293  1.00  0.00     0.188 C 
ATOM     21  C   UNL     1      -8.417  -6.011  13.900  1.00  0.00     0.179 C 
ATOM     22  O   UNL     1     -10.187  -7.532  13.162  1.00  0.00    -0.362 OA
ATOM     23  C   UNL     1      -8.967  -4.868  13.024  1.00  0.00     0.177 C 
ATOM     24  C   UNL     1     -10.773  -6.581  12.283  1.00  0.00     0.176 C 
ATOM     25  C   UNL     1     -10.447  -5.100  12.637  1.00  0.00     0.177 C 
BRANCH  21  26
ATOM     26  O   UNL     1      -8.855  -5.885  15.232  1.00  0.00    -0.387 OA
ATOM     27  H   UNL     1      -8.064  -5.933  15.825  1.00  0.00     0.211 HD
ENDBRANCH  21  26
BRANCH  23  28
ATOM     28  O   UNL     1      -8.192  -4.737  11.859  1.00  0.00    -0.387 OA
ATOM     29  H   UNL     1      -8.657  -5.243  11.142  1.00  0.00     0.211 HD
ENDBRANCH  23  28
BRANCH  24  30
ATOM     30  C   UNL     1     -10.600  -6.954  10.793  1.00  0.00     0.191 C 
BRANCH  30  31
ATOM     31  O   UNL     1     -10.732  -8.329  10.572  1.00  0.00    -0.394 OA
ATOM     32  H   UNL     1     -11.703  -8.526  10.626  1.00  0.00     0.210 HD
ENDBRANCH  30  31
ENDBRANCH  24  30
BRANCH  25  33
ATOM     33  O   UNL     1     -11.279  -4.697  13.698  1.00  0.00    -0.388 OA
ATOM     34  H   UNL     1     -11.849  -3.959  13.358  1.00  0.00     0.211 HD
ENDBRANCH  25  33
ENDBRANCH  11  20
BRANCH  10  35
ATOM     35  O   UNL     1     -10.355  -8.772  15.252  1.00  0.00    -0.507 OA
ATOM     36  H   UNL     1     -10.835  -8.886  16.137  1.00  0.00     0.293 HD
ENDBRANCH  10  35
TORSDOF 9
ENDMDL
MODEL 7
REMARK VINA RESULT:    -7.006      3.176      8.665
REMARK INTER + INTRA:         -10.456
REMARK INTER:                  -9.754
REMARK INTRA:                  -0.702
REMARK UNBOUND:                -0.993
REMARK SMILES O=c1c(-c2ccc(O)cc2)coc2c([C@H]3O[C@H](CO)[C@@H](O)[C@H](O)[C@H]3O)c(O)ccc12
REMARK SMILES IDX 3 1 11 2 12 3 13 4 30 5 2 6 1 7 29 8 28 9 26 10 14 11 4 12
REMARK SMILES IDX 5 13 6 14 7 15 10 16 9 17 8 18 15 20 24 21 16 22 22 23 17 24
REMARK SMILES IDX 20 25 25 26 23 28 18 30 19 31 21 33 27 35
REMARK H PARENT 8 19 25 27 23 29 19 32 21 34 27 36
REMARK Flexibility Score: inf
ROOT
ATOM      1  C   UNL     1       1.324  -8.433  12.760  1.00  0.00     0.065 A 
ATOM      2  C   UNL     1       0.131  -7.714  12.918  1.00  0.00     0.208 A 
ATOM      3  O   UNL     1      -0.993  -8.328  13.266  1.00  0.00    -0.463 OA
ATOM      4  C   UNL     1      -1.073  -9.638  13.485  1.00  0.00     0.147 A 
ATOM      5  C   UNL     1       0.082 -10.441  13.337  1.00  0.00     0.066 A 
ATOM      6  C   UNL     1       1.291  -9.824  12.965  1.00  0.00     0.200 A 
ATOM      7  O   UNL     1       2.334 -10.515  12.797  1.00  0.00    -0.288 OA
ATOM      8  C   UNL     1      -0.002 -11.826  13.549  1.00  0.00     0.020 A 
ATOM      9  C   UNL     1      -1.219 -12.409  13.892  1.00  0.00     0.047 A 
ATOM     10  C   UNL     1      -2.370 -11.626  14.040  1.00  0.00     0.125 A 
ATOM     11  C   UNL     1      -2.308 -10.225  13.860  1.00  0.00     0.069 A 
ENDROOT
BRANCH   1  12
ATOM     12  C   UNL     1       2.570  -7.724  12.377  1.00  0.00    -0.011 A 
ATOM     13  C   UNL     1       2.861  -7.460  11.027  1.00  0.00     0.013 A 
ATOM     14  C   UNL     1       4.040  -6.800  10.672  1.00  0.00     0.047 A 
ATOM     15  C   UNL     1       4.946  -6.396  11.661  1.00  0.00     0.115 A 
ATOM     16  C   UNL     1       3.490  -7.323  13.363  1.00  0.00     0.013 A 
ATOM     17  C   UNL     1       4.668  -6.661  13.006  1.00  0.00     0.047 A 
BRANCH  15  18
ATOM     18  O   UNL     1       6.124  -5.737  11.319  1.00  0.00    -0.508 OA
ATOM     19  H   UNL     1       6.860  -5.579  11.997  1.00  0.00     0.293 HD
ENDBRANCH  15  18
ENDBRANCH   1  12
BRANCH  11  20
ATOM     20  C   UNL     1      -3.580  -9.395  13.998  1.00  0.00     0.188 C 
ATOM     21  C   UNL     1      -4.298  -9.280  12.636  1.00  0.00     0.179 C 
ATOM     22  O   UNL     1      -3.284  -8.119  14.538  1.00  0.00    -0.362 OA
ATOM     23  C   UNL     1      -5.606  -8.478  12.781  1.00  0.00     0.177 C 
ATOM     24  C   UNL     1      -4.444  -7.342  14.806  1.00  0.00     0.176 C 
ATOM     25  C   UNL     1      -5.395  -7.173  13.585  1.00  0.00     0.177 C 
BRANCH  21  26
ATOM     26  O   UNL     1      -3.468  -8.723  11.644  1.00  0.00    -0.387 OA
ATOM     27  H   UNL     1      -3.792  -7.808  11.446  1.00  0.00     0.211 HD
ENDBRANCH  21  26
BRANCH  23  28
ATOM     28  O   UNL     1      -6.586  -9.264  13.409  1.00  0.00    -0.387 OA
ATOM     29  H   UNL     1      -6.111  -9.981  13.906  1.00  0.00     0.211 HD
ENDBRANCH  23  28
BRANCH  24  30
ATOM     30  C   UNL     1      -5.137  -7.734  16.130  1.00  0.00     0.191 C 
BRANCH  30  31
ATOM     31  O   UNL     1      -6.530  -7.747  16.016  1.00  0.00    -0.394 OA
ATOM     32  H   UNL     1      -6.807  -6.802  15.888  1.00  0.00     0.210 HD
ENDBRANCH  30  31
ENDBRANCH  24  30
BRANCH  25  33
ATOM     33  O   UNL     1      -4.871  -6.179  12.739  1.00  0.00    -0.388 OA
ATOM     34  H   UNL     1      -4.671  -6.612  11.868  1.00  0.00     0.211 HD
ENDBRANCH  25  33
ENDBRANCH  11  20
BRANCH  10  35
ATOM     35  O   UNL     1      -3.580 -12.243  14.361  1.00  0.00    -0.507 OA
ATOM     36  H   UNL     1      -4.442 -12.008  13.884  1.00  0.00     0.293 HD
ENDBRANCH  10  35
TORSDOF 9
ENDMDL
MODEL 8
REMARK VINA RESULT:    -6.927      3.146      4.512
REMARK INTER + INTRA:         -10.350
REMARK INTER:                  -9.291
REMARK INTRA:                  -1.059
REMARK UNBOUND:                -0.993
REMARK SMILES O=c1c(-c2ccc(O)cc2)coc2c([C@H]3O[C@H](CO)[C@@H](O)[C@H](O)[C@H]3O)c(O)ccc12
REMARK SMILES IDX 3 1 11 2 12 3 13 4 30 5 2 6 1 7 29 8 28 9 26 10 14 11 4 12
REMARK SMILES IDX 5 13 6 14 7 15 10 16 9 17 8 18 15 20 24 21 16 22 22 23 17 24
REMARK SMILES IDX 20 25 25 26 23 28 18 30 19 31 21 33 27 35
REMARK H PARENT 8 19 25 27 23 29 19 32 21 34 27 36
REMARK Flexibility Score: inf
ROOT
ATOM      1  C   UNL     1      -4.847  -9.965  14.879  1.00  0.00     0.065 A 
ATOM      2  C   UNL     1      -3.969  -8.901  15.127  1.00  0.00     0.208 A 
ATOM      3  O   UNL     1      -2.730  -8.916  14.653  1.00  0.00    -0.463 OA
ATOM      4  C   UNL     1      -2.238  -9.915  13.925  1.00  0.00     0.147 A 
ATOM      5  C   UNL     1      -3.053 -11.034  13.635  1.00  0.00     0.066 A 
ATOM      6  C   UNL     1      -4.372 -11.054  14.126  1.00  0.00     0.200 A 
ATOM      7  O   UNL     1      -5.118 -12.050  13.910  1.00  0.00    -0.288 OA
ATOM      8  C   UNL     1      -2.532 -12.099  12.884  1.00  0.00     0.020 A 
ATOM      9  C   UNL     1      -1.215 -12.060  12.434  1.00  0.00     0.047 A 
ATOM     10  C   UNL     1      -0.396 -10.959  12.715  1.00  0.00     0.125 A 
ATOM     11  C   UNL     1      -0.904  -9.861  13.446  1.00  0.00     0.069 A 
ENDROOT
BRANCH   1  12
ATOM     12  C   UNL     1      -6.231  -9.922  15.413  1.00  0.00    -0.011 A 
ATOM     13  C   UNL     1      -7.286  -9.415  14.634  1.00  0.00     0.013 A 
ATOM     14  C   UNL     1      -8.585  -9.368  15.146  1.00  0.00     0.047 A 
ATOM     15  C   UNL     1      -8.848  -9.825  16.445  1.00  0.00     0.115 A 
ATOM     16  C   UNL     1      -6.502 -10.371  16.719  1.00  0.00     0.013 A 
ATOM     17  C   UNL     1      -7.803 -10.324  17.228  1.00  0.00     0.047 A 
BRANCH  15  18
ATOM     18  O   UNL     1     -10.139  -9.783  16.965  1.00  0.00    -0.508 OA
ATOM     19  H   UNL     1     -10.760  -9.005  16.779  1.00  0.00     0.293 HD
ENDBRANCH  15  18
ENDBRANCH   1  12
BRANCH  11  20
ATOM     20  C   UNL     1       0.014  -8.685  13.765  1.00  0.00     0.188 C 
ATOM     21  C   UNL     1      -0.077  -7.616  12.655  1.00  0.00     0.179 C 
ATOM     22  O   UNL     1       1.347  -9.131  13.947  1.00  0.00    -0.362 OA
ATOM     23  C   UNL     1       0.817  -6.407  12.995  1.00  0.00     0.177 C 
ATOM     24  C   UNL     1       2.230  -8.100  14.367  1.00  0.00     0.176 C 
ATOM     25  C   UNL     1       2.232  -6.846  13.444  1.00  0.00     0.177 C 
BRANCH  21  26
ATOM     26  O   UNL     1       0.237  -8.139  11.386  1.00  0.00    -0.387 OA
ATOM     27  H   UNL     1       0.757  -7.457  10.889  1.00  0.00     0.211 HD
ENDBRANCH  21  26
BRANCH  23  28
ATOM     28  O   UNL     1       0.221  -5.636  14.007  1.00  0.00    -0.387 OA
ATOM     29  H   UNL     1      -0.299  -6.258  14.580  1.00  0.00     0.211 HD
ENDBRANCH  23  28
BRANCH  24  30
ATOM     30  C   UNL     1       2.129  -7.802  15.880  1.00  0.00     0.191 C 
BRANCH  30  31
ATOM     31  O   UNL     1       2.399  -6.462  16.176  1.00  0.00    -0.394 OA
ATOM     32  H   UNL     1       3.280  -6.451  16.633  1.00  0.00     0.210 HD
ENDBRANCH  30  31
ENDBRANCH  24  30
BRANCH  25  33
ATOM     33  O   UNL     1       3.020  -7.120  12.312  1.00  0.00    -0.388 OA
ATOM     34  H   UNL     1       2.435  -7.573  11.651  1.00  0.00     0.211 HD
ENDBRANCH  25  33
ENDBRANCH  11  20
BRANCH  10  35
ATOM     35  O   UNL     1       0.926 -10.960  12.271  1.00  0.00    -0.507 OA
ATOM     36  H   UNL     1       1.183 -10.598  11.360  1.00  0.00     0.293 HD
ENDBRANCH  10  35
TORSDOF 9
ENDMDL
MODEL 9
REMARK VINA RESULT:    -6.885      2.470      8.484
REMARK INTER + INTRA:         -10.293
REMARK INTER:                  -9.205
REMARK INTRA:                  -1.089
REMARK UNBOUND:                -0.993
REMARK SMILES O=c1c(-c2ccc(O)cc2)coc2c([C@H]3O[C@H](CO)[C@@H](O)[C@H](O)[C@H]3O)c(O)ccc12
REMARK SMILES IDX 3 1 11 2 12 3 13 4 30 5 2 6 1 7 29 8 28 9 26 10 14 11 4 12
REMARK SMILES IDX 5 13 6 14 7 15 10 16 9 17 8 18 15 20 24 21 16 22 22 23 17 24
REMARK SMILES IDX 20 25 25 26 23 28 18 30 19 31 21 33 27 35
REMARK H PARENT 8 19 25 27 23 29 19 32 21 34 27 36
REMARK Flexibility Score: inf
ROOT
ATOM      1  C   UNL     1      -4.244  -8.778  13.516  1.00  0.00     0.065 A 
ATOM      2  C   UNL     1      -5.529  -8.774  12.955  1.00  0.00     0.208 A 
ATOM      3  O   UNL     1      -6.367  -7.771  13.179  1.00  0.00    -0.463 OA
ATOM      4  C   UNL     1      -6.063  -6.719  13.935  1.00  0.00     0.147 A 
ATOM      5  C   UNL     1      -4.790  -6.646  14.549  1.00  0.00     0.066 A 
ATOM      6  C   UNL     1      -3.877  -7.695  14.335  1.00  0.00     0.200 A 
ATOM      7  O   UNL     1      -2.743  -7.676  14.890  1.00  0.00    -0.288 OA
ATOM      8  C   UNL     1      -4.472  -5.548  15.362  1.00  0.00     0.020 A 
ATOM      9  C   UNL     1      -5.407  -4.538  15.573  1.00  0.00     0.047 A 
ATOM     10  C   UNL     1      -6.671  -4.598  14.973  1.00  0.00     0.125 A 
ATOM     11  C   UNL     1      -7.008  -5.680  14.127  1.00  0.00     0.069 A 
ENDROOT
BRANCH   1  12
ATOM     12  C   UNL     1      -3.321  -9.907  13.244  1.00  0.00    -0.011 A 
ATOM     13  C   UNL     1      -2.412  -9.850  12.172  1.00  0.00     0.013 A 
ATOM     14  C   UNL     1      -1.552 -10.920  11.915  1.00  0.00     0.047 A 
ATOM     15  C   UNL     1      -1.590 -12.065  12.723  1.00  0.00     0.115 A 
ATOM     16  C   UNL     1      -3.359 -11.063  14.044  1.00  0.00     0.013 A 
ATOM     17  C   UNL     1      -2.496 -12.132  13.786  1.00  0.00     0.047 A 
BRANCH  15  18
ATOM     18  O   UNL     1      -0.737 -13.137  12.475  1.00  0.00    -0.508 OA
ATOM     19  H   UNL     1       0.221 -13.139  12.805  1.00  0.00     0.293 HD
ENDBRANCH  15  18
ENDBRANCH   1  12
BRANCH  11  20
ATOM     20  C   UNL     1      -8.401  -5.739  13.507  1.00  0.00     0.188 C 
ATOM     21  C   UNL     1      -8.456  -4.879  12.226  1.00  0.00     0.179 C 
ATOM     22  O   UNL     1      -9.380  -5.333  14.447  1.00  0.00    -0.362 OA
ATOM     23  C   UNL     1      -9.849  -4.971  11.574  1.00  0.00     0.177 C 
ATOM     24  C   UNL     1     -10.711  -5.483  13.969  1.00  0.00     0.176 C 
ATOM     25  C   UNL     1     -10.983  -4.777  12.609  1.00  0.00     0.177 C 
BRANCH  21  26
ATOM     26  O   UNL     1      -8.097  -3.540  12.470  1.00  0.00    -0.387 OA
ATOM     27  H   UNL     1      -8.594  -3.225  13.267  1.00  0.00     0.211 HD
ENDBRANCH  21  26
BRANCH  23  28
ATOM     28  O   UNL     1     -10.002  -6.213  10.936  1.00  0.00    -0.387 OA
ATOM     29  H   UNL     1      -9.322  -6.255  10.213  1.00  0.00     0.211 HD
ENDBRANCH  23  28
BRANCH  24  30
ATOM     30  C   UNL     1     -11.225  -6.936  14.071  1.00  0.00     0.191 C 
BRANCH  30  31
ATOM     31  O   UNL     1     -11.861  -7.356  12.898  1.00  0.00    -0.394 OA
ATOM     32  H   UNL     1     -11.864  -6.574  12.288  1.00  0.00     0.210 HD
ENDBRANCH  30  31
ENDBRANCH  24  30
BRANCH  25  33
ATOM     33  O   UNL     1     -11.175  -3.403  12.843  1.00  0.00    -0.388 OA
ATOM     34  H   UNL     1     -12.091  -3.294  13.209  1.00  0.00     0.211 HD
ENDBRANCH  25  33
ENDBRANCH  11  20
BRANCH  10  35
ATOM     35  O   UNL     1      -7.595  -3.583  15.223  1.00  0.00    -0.507 OA
ATOM     36  H   UNL     1      -8.238  -3.628  16.004  1.00  0.00     0.293 HD
ENDBRANCH  10  35
TORSDOF 9
ENDMDL
