MODEL 1
REMARK VINA RESULT:    -4.841      0.000      0.000
REMARK INTER + INTRA:          -5.521
REMARK INTER:                  -5.266
REMARK INTRA:                  -0.255
REMARK UNBOUND:                -0.255
REMARK SMILES O=C([O-])c1ccccc1O
REMARK SMILES IDX 4 1 9 2 5 3 8 4 6 5 7 6 2 7 1 8 3 9 10 10
REMARK H PARENT 10 11
REMARK Flexibility Score: inf
ROOT
ATOM      1  C   UNL     1     -21.599  -2.205  20.972  1.00  0.00     0.039 A 
ATOM      2  C   UNL     1     -21.000  -3.486  21.047  1.00  0.00     0.124 A 
ATOM      3  C   UNL     1     -21.752  -1.601  19.710  1.00  0.00     0.014 A 
ATOM      4  C   UNL     1     -20.573  -4.128  19.874  1.00  0.00     0.047 A 
ATOM      5  C   UNL     1     -21.324  -2.250  18.551  1.00  0.00     0.001 A 
ATOM      6  C   UNL     1     -20.735  -3.512  18.632  1.00  0.00     0.004 A 
ENDROOT
BRANCH   1   7
ATOM      7  C   UNL     1     -22.068  -1.484  22.184  1.00  0.00     0.075 C 
ATOM      8  O   UNL     1     -21.763  -0.278  22.381  1.00  0.00    -0.545 OA
ATOM      9  O   UNL     1     -22.856  -2.136  23.125  1.00  0.00    -0.545 OA
ENDBRANCH   1   7
BRANCH   2  10
ATOM     10  O   UNL     1     -20.828  -4.123  22.276  1.00  0.00    -0.507 OA
ATOM     11  H   UNL     1     -21.415  -3.908  23.074  1.00  0.00     0.293 HD
ENDBRANCH   2  10
TORSDOF 2
ENDMDL
MODEL 2
REMARK VINA RESULT:    -4.671      2.108      4.067
REMARK INTER + INTRA:          -5.335
REMARK INTER:                  -5.128
REMARK INTRA:                  -0.207
REMARK UNBOUND:                -0.255
REMARK SMILES O=C([O-])c1ccccc1O
REMARK SMILES IDX 4 1 9 2 5 3 8 4 6 5 7 6 2 7 1 8 3 9 10 10
REMARK H PARENT 10 11
REMARK Flexibility Score: inf
ROOT
ATOM      1  C   UNL     1     -21.051  -2.769  20.590  1.00  0.00     0.039 A 
ATOM      2  C   UNL     1     -21.595  -1.482  20.821  1.00  0.00     0.124 A 
ATOM      3  C   UNL     1     -21.030  -3.697  21.649  1.00  0.00     0.014 A 
ATOM      4  C   UNL     1     -22.101  -1.154  22.089  1.00  0.00     0.047 A 
ATOM      5  C   UNL     1     -21.538  -3.358  22.905  1.00  0.00     0.001 A 
ATOM      6  C   UNL     1     -22.072  -2.088  23.125  1.00  0.00     0.004 A 
ENDROOT
BRANCH   1   7
ATOM      7  C   UNL     1     -20.503  -3.165  19.267  1.00  0.00     0.075 C 
ATOM      8  O   UNL     1     -21.255  -3.290  18.264  1.00  0.00    -0.545 OA
ATOM      9  O   UNL     1     -19.143  -3.405  19.116  1.00  0.00    -0.545 OA
ENDBRANCH   1   7
BRANCH   2  10
ATOM     10  O   UNL     1     -21.636  -0.531  19.802  1.00  0.00    -0.507 OA
ATOM     11  H   UNL     1     -22.095  -0.718  18.917  1.00  0.00     0.293 HD
ENDBRANCH   2  10
TORSDOF 2
ENDMDL
MODEL 3
REMARK VINA RESULT:    -4.650      1.617      2.367
REMARK INTER + INTRA:          -5.312
REMARK INTER:                  -5.103
REMARK INTRA:                  -0.209
REMARK UNBOUND:                -0.255
REMARK SMILES O=C([O-])c1ccccc1O
REMARK SMILES IDX 4 1 9 2 5 3 8 4 6 5 7 6 2 7 1 8 3 9 10 10
REMARK H PARENT 10 11
REMARK Flexibility Score: inf
ROOT
ATOM      1  C   UNL     1     -20.972  -2.239  20.215  1.00  0.00     0.039 A 
ATOM      2  C   UNL     1     -21.495  -2.018  18.918  1.00  0.00     0.124 A 
ATOM      3  C   UNL     1     -19.786  -2.986  20.350  1.00  0.00     0.014 A 
ATOM      4  C   UNL     1     -20.831  -2.542  17.798  1.00  0.00     0.047 A 
ATOM      5  C   UNL     1     -19.135  -3.501  19.227  1.00  0.00     0.001 A 
ATOM      6  C   UNL     1     -19.656  -3.279  17.953  1.00  0.00     0.004 A 
ENDROOT
BRANCH   1   7
ATOM      7  C   UNL     1     -21.637  -1.706  21.432  1.00  0.00     0.075 C 
ATOM      8  O   UNL     1     -21.701  -0.467  21.647  1.00  0.00    -0.545 OA
ATOM      9  O   UNL     1     -22.202  -2.575  22.358  1.00  0.00    -0.545 OA
ENDBRANCH   1   7
BRANCH   2  10
ATOM     10  O   UNL     1     -22.667  -1.284  18.736  1.00  0.00    -0.507 OA
ATOM     11  H   UNL     1     -22.976  -0.597  19.415  1.00  0.00     0.293 HD
ENDBRANCH   2  10
TORSDOF 2
ENDMDL
MODEL 4
REMARK VINA RESULT:    -4.603     19.936     21.094
REMARK INTER + INTRA:          -5.262
REMARK INTER:                  -5.022
REMARK INTRA:                  -0.240
REMARK UNBOUND:                -0.255
REMARK SMILES O=C([O-])c1ccccc1O
REMARK SMILES IDX 4 1 9 2 5 3 8 4 6 5 7 6 2 7 1 8 3 9 10 10
REMARK H PARENT 10 11
REMARK Flexibility Score: inf
ROOT
ATOM      1  C   UNL     1     -11.613   4.488   4.181  1.00  0.00     0.039 A 
ATOM      2  C   UNL     1     -10.501   4.288   3.328  1.00  0.00     0.124 A 
ATOM      3  C   UNL     1     -11.950   5.802   4.559  1.00  0.00     0.014 A 
ATOM      4  C   UNL     1      -9.759   5.391   2.875  1.00  0.00     0.047 A 
ATOM      5  C   UNL     1     -11.204   6.890   4.101  1.00  0.00     0.001 A 
ATOM      6  C   UNL     1     -10.110   6.685   3.261  1.00  0.00     0.004 A 
ENDROOT
BRANCH   1   7
ATOM      7  C   UNL     1     -12.430   3.355   4.686  1.00  0.00     0.075 C 
ATOM      8  O   UNL     1     -12.673   2.355   3.961  1.00  0.00    -0.545 OA
ATOM      9  O   UNL     1     -12.942   3.383   5.978  1.00  0.00    -0.545 OA
ENDBRANCH   1   7
BRANCH   2  10
ATOM     10  O   UNL     1     -10.130   3.004   2.928  1.00  0.00    -0.507 OA
ATOM     11  H   UNL     1     -10.649   2.496   2.220  1.00  0.00     0.293 HD
ENDBRANCH   2  10
TORSDOF 2
ENDMDL
MODEL 5
REMARK VINA RESULT:    -4.437      2.660      3.992
REMARK INTER + INTRA:          -5.081
REMARK INTER:                  -4.837
REMARK INTRA:                  -0.244
REMARK UNBOUND:                -0.255
REMARK SMILES O=C([O-])c1ccccc1O
REMARK SMILES IDX 4 1 9 2 5 3 8 4 6 5 7 6 2 7 1 8 3 9 10 10
REMARK H PARENT 10 11
REMARK Flexibility Score: inf
ROOT
ATOM      1  C   UNL     1     -21.324  -2.477  19.246  1.00  0.00     0.039 A 
ATOM      2  C   UNL     1     -21.669  -1.472  20.183  1.00  0.00     0.124 A 
ATOM      3  C   UNL     1     -20.972  -3.754  19.721  1.00  0.00     0.014 A 
ATOM      4  C   UNL     1     -21.655  -1.761  21.556  1.00  0.00     0.047 A 
ATOM      5  C   UNL     1     -20.962  -4.029  21.090  1.00  0.00     0.001 A 
ATOM      6  C   UNL     1     -21.303  -3.034  22.007  1.00  0.00     0.004 A 
ENDROOT
BRANCH   1   7
ATOM      7  C   UNL     1     -21.324  -2.221  17.783  1.00  0.00     0.075 C 
ATOM      8  O   UNL     1     -20.294  -2.427  17.088  1.00  0.00    -0.545 OA
ATOM      9  O   UNL     1     -22.469  -1.747  17.155  1.00  0.00    -0.545 OA
ENDBRANCH   1   7
BRANCH   2  10
ATOM     10  O   UNL     1     -22.024  -0.192  19.757  1.00  0.00    -0.507 OA
ATOM     11  H   UNL     1     -21.797   0.633  20.302  1.00  0.00     0.293 HD
ENDBRANCH   2  10
TORSDOF 2
ENDMDL
MODEL 6
REMARK VINA RESULT:    -4.429      1.473      1.823
REMARK INTER + INTRA:          -5.072
REMARK INTER:                  -4.836
REMARK INTRA:                  -0.236
REMARK UNBOUND:                -0.255
REMARK SMILES O=C([O-])c1ccccc1O
REMARK SMILES IDX 4 1 9 2 5 3 8 4 6 5 7 6 2 7 1 8 3 9 10 10
REMARK H PARENT 10 11
REMARK Flexibility Score: inf
ROOT
ATOM      1  C   UNL     1     -20.884  -2.412  19.777  1.00  0.00     0.039 A 
ATOM      2  C   UNL     1     -19.607  -2.969  19.523  1.00  0.00     0.124 A 
ATOM      3  C   UNL     1     -21.716  -2.099  18.685  1.00  0.00     0.014 A 
ATOM      4  C   UNL     1     -19.194  -3.199  18.201  1.00  0.00     0.047 A 
ATOM      5  C   UNL     1     -21.293  -2.332  17.375  1.00  0.00     0.001 A 
ATOM      6  C   UNL     1     -20.034  -2.881  17.133  1.00  0.00     0.004 A 
ENDROOT
BRANCH   1   7
ATOM      7  C   UNL     1     -21.368  -2.151  21.157  1.00  0.00     0.075 C 
ATOM      8  O   UNL     1     -21.705  -0.993  21.518  1.00  0.00    -0.545 OA
ATOM      9  O   UNL     1     -21.456  -3.189  22.076  1.00  0.00    -0.545 OA
ENDBRANCH   1   7
BRANCH   2  10
ATOM     10  O   UNL     1     -18.749  -3.296  20.574  1.00  0.00    -0.507 OA
ATOM     11  H   UNL     1     -17.912  -2.757  20.765  1.00  0.00     0.293 HD
ENDBRANCH   2  10
TORSDOF 2
ENDMDL
MODEL 7
REMARK VINA RESULT:    -4.396      1.634      3.276
REMARK INTER + INTRA:          -5.036
REMARK INTER:                  -4.788
REMARK INTRA:                  -0.249
REMARK UNBOUND:                -0.255
REMARK SMILES O=C([O-])c1ccccc1O
REMARK SMILES IDX 4 1 9 2 5 3 8 4 6 5 7 6 2 7 1 8 3 9 10 10
REMARK H PARENT 10 11
REMARK Flexibility Score: inf
ROOT
ATOM      1  C   UNL     1     -21.086  -2.439  19.257  1.00  0.00     0.039 A 
ATOM      2  C   UNL     1     -21.756  -1.266  19.680  1.00  0.00     0.124 A 
ATOM      3  C   UNL     1     -21.335  -2.932  17.961  1.00  0.00     0.014 A 
ATOM      4  C   UNL     1     -22.648  -0.617  18.811  1.00  0.00     0.047 A 
ATOM      5  C   UNL     1     -22.224  -2.277  17.107  1.00  0.00     0.001 A 
ATOM      6  C   UNL     1     -22.880  -1.121  17.531  1.00  0.00     0.004 A 
ENDROOT
BRANCH   1   7
ATOM      7  C   UNL     1     -20.133  -3.162  20.137  1.00  0.00     0.075 C 
ATOM      8  O   UNL     1     -18.963  -3.423  19.751  1.00  0.00    -0.545 OA
ATOM      9  O   UNL     1     -20.522  -3.563  21.410  1.00  0.00    -0.545 OA
ENDBRANCH   1   7
BRANCH   2  10
ATOM     10  O   UNL     1     -21.541  -0.742  20.955  1.00  0.00    -0.507 OA
ATOM     11  H   UNL     1     -21.757   0.223  21.177  1.00  0.00     0.293 HD
ENDBRANCH   2  10
TORSDOF 2
ENDMDL
MODEL 8
REMARK VINA RESULT:    -4.333      2.705      3.681
REMARK INTER + INTRA:          -4.968
REMARK INTER:                  -4.721
REMARK INTRA:                  -0.246
REMARK UNBOUND:                -0.255
REMARK SMILES O=C([O-])c1ccccc1O
REMARK SMILES IDX 4 1 9 2 5 3 8 4 6 5 7 6 2 7 1 8 3 9 10 10
REMARK H PARENT 10 11
REMARK Flexibility Score: inf
ROOT
ATOM      1  C   UNL     1     -21.253  -2.607  19.303  1.00  0.00     0.039 A 
ATOM      2  C   UNL     1     -20.870  -3.747  20.051  1.00  0.00     0.124 A 
ATOM      3  C   UNL     1     -21.727  -1.474  19.990  1.00  0.00     0.014 A 
ATOM      4  C   UNL     1     -20.968  -3.730  21.452  1.00  0.00     0.047 A 
ATOM      5  C   UNL     1     -21.819  -1.470  21.383  1.00  0.00     0.001 A 
ATOM      6  C   UNL     1     -21.441  -2.596  22.114  1.00  0.00     0.004 A 
ENDROOT
BRANCH   1   7
ATOM      7  C   UNL     1     -21.167  -2.575  17.821  1.00  0.00     0.075 C 
ATOM      8  O   UNL     1     -22.173  -2.289  17.119  1.00  0.00    -0.545 OA
ATOM      9  O   UNL     1     -19.967  -2.862  17.182  1.00  0.00    -0.545 OA
ENDBRANCH   1   7
BRANCH   2  10
ATOM     10  O   UNL     1     -20.394  -4.893  19.413  1.00  0.00    -0.507 OA
ATOM     11  H   UNL     1     -19.474  -4.922  18.989  1.00  0.00     0.293 HD
ENDBRANCH   2  10
TORSDOF 2
ENDMDL
MODEL 9
REMARK VINA RESULT:    -4.291      2.542      3.315
REMARK INTER + INTRA:          -4.922
REMARK INTER:                  -4.676
REMARK INTRA:                  -0.246
REMARK UNBOUND:                -0.255
REMARK SMILES O=C([O-])c1ccccc1O
REMARK SMILES IDX 4 1 9 2 5 3 8 4 6 5 7 6 2 7 1 8 3 9 10 10
REMARK H PARENT 10 11
REMARK Flexibility Score: inf
ROOT
ATOM      1  C   UNL     1     -21.353  -2.121  18.501  1.00  0.00     0.039 A 
ATOM      2  C   UNL     1     -21.015  -2.237  19.871  1.00  0.00     0.124 A 
ATOM      3  C   UNL     1     -20.518  -2.726  17.542  1.00  0.00     0.014 A 
ATOM      4  C   UNL     1     -19.864  -2.947  20.249  1.00  0.00     0.047 A 
ATOM      5  C   UNL     1     -19.377  -3.429  17.933  1.00  0.00     0.001 A 
ATOM      6  C   UNL     1     -19.050  -3.540  19.284  1.00  0.00     0.004 A 
ENDROOT
BRANCH   1   7
ATOM      7  C   UNL     1     -22.560  -1.381  18.048  1.00  0.00     0.075 C 
ATOM      8  O   UNL     1     -23.253  -1.799  17.084  1.00  0.00    -0.545 OA
ATOM      9  O   UNL     1     -22.943  -0.209  18.689  1.00  0.00    -0.545 OA
ENDBRANCH   1   7
BRANCH   2  10
ATOM     10  O   UNL     1     -21.813  -1.654  20.855  1.00  0.00    -0.507 OA
ATOM     11  H   UNL     1     -21.426  -1.034  21.557  1.00  0.00     0.293 HD
ENDBRANCH   2  10
TORSDOF 2
ENDMDL
