MODEL 1
REMARK VINA RESULT:    -4.793      0.000      0.000
REMARK INTER + INTRA:          -8.139
REMARK INTER:                  -7.034
REMARK INTRA:                  -1.105
REMARK UNBOUND:                -1.105
REMARK SMILES CCCOC(=O)c1ccccc1C(=O)OCCC
REMARK SMILES IDX 7 1 8 2 9 3 10 4 11 5 12 6 5 7 6 8 4 9 3 10 2 11 1 12 13 13
REMARK SMILES IDX 14 14 15 15 16 16 17 17 18 18
REMARK H PARENT
REMARK Flexibility Score: inf
ROOT
ATOM      1  C   UNL     1     -30.131  28.718   5.489  1.00  0.00     0.074 A 
ATOM      2  C   UNL     1     -29.580  29.816   6.175  1.00  0.00     0.016 A 
ATOM      3  C   UNL     1     -29.393  31.039   5.531  1.00  0.00     0.001 A 
ATOM      4  C   UNL     1     -29.755  31.187   4.194  1.00  0.00     0.001 A 
ATOM      5  C   UNL     1     -30.284  30.106   3.489  1.00  0.00     0.016 A 
ATOM      6  C   UNL     1     -30.460  28.857   4.111  1.00  0.00     0.074 A 
ENDROOT
BRANCH   1   7
ATOM      7  C   UNL     1     -30.412  27.485   6.259  1.00  0.00     0.339 C 
ATOM      8  O   UNL     1     -31.588  27.247   6.653  1.00  0.00    -0.246 OA
BRANCH   7   9
ATOM      9  O   UNL     1     -29.387  26.564   6.506  1.00  0.00    -0.462 OA
BRANCH   9  10
ATOM     10  C   UNL     1     -28.894  26.263   7.809  1.00  0.00     0.233 C 
BRANCH  10  11
ATOM     11  C   UNL     1     -27.880  27.320   8.254  1.00  0.00     0.038 C 
ATOM     12  C   UNL     1     -26.774  26.701   9.103  1.00  0.00     0.007 C 
ENDBRANCH  10  11
ENDBRANCH   9  10
ENDBRANCH   7   9
ENDBRANCH   1   7
BRANCH   6  13
ATOM     13  C   UNL     1     -30.921  27.725   3.275  1.00  0.00     0.339 C 
ATOM     14  O   UNL     1     -30.130  26.787   2.982  1.00  0.00    -0.246 OA
BRANCH  13  15
ATOM     15  O   UNL     1     -32.223  27.737   2.758  1.00  0.00    -0.462 OA
BRANCH  15  16
ATOM     16  C   UNL     1     -33.375  27.320   3.492  1.00  0.00     0.233 C 
BRANCH  16  17
ATOM     17  C   UNL     1     -34.346  28.486   3.703  1.00  0.00     0.038 C 
ATOM     18  C   UNL     1     -34.103  29.223   5.017  1.00  0.00     0.007 C 
ENDBRANCH  16  17
ENDBRANCH  15  16
ENDBRANCH  13  15
ENDBRANCH   6  13
TORSDOF 8
ENDMDL
MODEL 2
REMARK VINA RESULT:    -4.744      0.387      5.316
REMARK INTER + INTRA:          -8.069
REMARK INTER:                  -7.105
REMARK INTRA:                  -0.964
REMARK UNBOUND:                -1.105
REMARK SMILES CCCOC(=O)c1ccccc1C(=O)OCCC
REMARK SMILES IDX 7 1 8 2 9 3 10 4 11 5 12 6 5 7 6 8 4 9 3 10 2 11 1 12 13 13
REMARK SMILES IDX 14 14 15 15 16 16 17 17 18 18
REMARK H PARENT
REMARK Flexibility Score: inf
ROOT
ATOM      1  C   UNL     1     -30.486  28.816   4.203  1.00  0.00     0.074 A 
ATOM      2  C   UNL     1     -30.371  30.051   3.538  1.00  0.00     0.016 A 
ATOM      3  C   UNL     1     -29.795  31.153   4.171  1.00  0.00     0.001 A 
ATOM      4  C   UNL     1     -29.324  31.039   5.478  1.00  0.00     0.001 A 
ATOM      5  C   UNL     1     -29.447  29.831   6.163  1.00  0.00     0.016 A 
ATOM      6  C   UNL     1     -30.044  28.714   5.552  1.00  0.00     0.074 A 
ENDROOT
BRANCH   1   7
ATOM      7  C   UNL     1     -30.997  27.657   3.438  1.00  0.00     0.339 C 
ATOM      8  O   UNL     1     -30.191  26.914   2.813  1.00  0.00    -0.246 OA
BRANCH   7   9
ATOM      9  O   UNL     1     -32.366  27.360   3.448  1.00  0.00    -0.462 OA
BRANCH   9  10
ATOM     10  C   UNL     1     -33.338  28.095   2.710  1.00  0.00     0.233 C 
BRANCH  10  11
ATOM     11  C   UNL     1     -34.537  28.439   3.598  1.00  0.00     0.038 C 
ATOM     12  C   UNL     1     -34.093  29.126   4.885  1.00  0.00     0.007 C 
ENDBRANCH  10  11
ENDBRANCH   9  10
ENDBRANCH   7   9
ENDBRANCH   1   7
BRANCH   6  13
ATOM     13  C   UNL     1     -30.242  27.498   6.375  1.00  0.00     0.339 C 
ATOM     14  O   UNL     1     -31.383  27.224   6.838  1.00  0.00    -0.246 OA
BRANCH  13  15
ATOM     15  O   UNL     1     -29.140  26.692   6.687  1.00  0.00    -0.462 OA
BRANCH  15  16
ATOM     16  C   UNL     1     -28.798  26.291   8.015  1.00  0.00     0.233 C 
BRANCH  16  17
ATOM     17  C   UNL     1     -27.704  27.191   8.598  1.00  0.00     0.038 C 
ATOM     18  C   UNL     1     -26.504  26.400   9.111  1.00  0.00     0.007 C 
ENDBRANCH  16  17
ENDBRANCH  15  16
ENDBRANCH  13  15
ENDBRANCH   6  13
TORSDOF 8
ENDMDL
MODEL 3
REMARK VINA RESULT:    -4.740      1.299      2.434
REMARK INTER + INTRA:          -8.062
REMARK INTER:                  -7.230
REMARK INTRA:                  -0.832
REMARK UNBOUND:                -1.105
REMARK SMILES CCCOC(=O)c1ccccc1C(=O)OCCC
REMARK SMILES IDX 7 1 8 2 9 3 10 4 11 5 12 6 5 7 6 8 4 9 3 10 2 11 1 12 13 13
REMARK SMILES IDX 14 14 15 15 16 16 17 17 18 18
REMARK H PARENT
REMARK Flexibility Score: inf
ROOT
ATOM      1  C   UNL     1     -30.109  28.725   5.574  1.00  0.00     0.074 A 
ATOM      2  C   UNL     1     -29.427  29.771   6.222  1.00  0.00     0.016 A 
ATOM      3  C   UNL     1     -29.250  31.005   5.595  1.00  0.00     0.001 A 
ATOM      4  C   UNL     1     -29.753  31.215   4.313  1.00  0.00     0.001 A 
ATOM      5  C   UNL     1     -30.414  30.186   3.643  1.00  0.00     0.016 A 
ATOM      6  C   UNL     1     -30.585  28.927   4.247  1.00  0.00     0.074 A 
ENDROOT
BRANCH   1   7
ATOM      7  C   UNL     1     -30.366  27.483   6.336  1.00  0.00     0.339 C 
ATOM      8  O   UNL     1     -31.546  27.188   6.674  1.00  0.00    -0.246 OA
BRANCH   7   9
ATOM      9  O   UNL     1     -29.309  26.615   6.638  1.00  0.00    -0.462 OA
BRANCH   9  10
ATOM     10  C   UNL     1     -28.914  26.287   7.968  1.00  0.00     0.233 C 
BRANCH  10  11
ATOM     11  C   UNL     1     -27.836  27.256   8.460  1.00  0.00     0.038 C 
ATOM     12  C   UNL     1     -26.658  26.507   9.073  1.00  0.00     0.007 C 
ENDBRANCH  10  11
ENDBRANCH   9  10
ENDBRANCH   7   9
ENDBRANCH   1   7
BRANCH   6  13
ATOM     13  C   UNL     1     -31.197  27.848   3.438  1.00  0.00     0.339 C 
ATOM     14  O   UNL     1     -32.452  27.769   3.330  1.00  0.00    -0.246 OA
BRANCH  13  15
ATOM     15  O   UNL     1     -30.376  26.880   2.847  1.00  0.00    -0.462 OA
BRANCH  15  16
ATOM     16  C   UNL     1     -30.802  25.551   2.544  1.00  0.00     0.233 C 
BRANCH  16  17
ATOM     17  C   UNL     1     -30.000  24.518   3.343  1.00  0.00     0.038 C 
ATOM     18  C   UNL     1     -28.588  24.995   3.668  1.00  0.00     0.007 C 
ENDBRANCH  16  17
ENDBRANCH  15  16
ENDBRANCH  13  15
ENDBRANCH   6  13
TORSDOF 8
ENDMDL
MODEL 4
REMARK VINA RESULT:    -4.734      1.954      3.990
REMARK INTER + INTRA:          -8.054
REMARK INTER:                  -7.169
REMARK INTRA:                  -0.885
REMARK UNBOUND:                -1.105
REMARK SMILES CCCOC(=O)c1ccccc1C(=O)OCCC
REMARK SMILES IDX 7 1 8 2 9 3 10 4 11 5 12 6 5 7 6 8 4 9 3 10 2 11 1 12 13 13
REMARK SMILES IDX 14 14 15 15 16 16 17 17 18 18
REMARK H PARENT
REMARK Flexibility Score: inf
ROOT
ATOM      1  C   UNL     1     -30.338  29.007   4.341  1.00  0.00     0.074 A 
ATOM      2  C   UNL     1     -30.343  30.243   3.669  1.00  0.00     0.016 A 
ATOM      3  C   UNL     1     -29.810  31.384   4.269  1.00  0.00     0.001 A 
ATOM      4  C   UNL     1     -29.263  31.310   5.549  1.00  0.00     0.001 A 
ATOM      5  C   UNL     1     -29.266  30.099   6.241  1.00  0.00     0.016 A 
ATOM      6  C   UNL     1     -29.818  28.941   5.665  1.00  0.00     0.074 A 
ENDROOT
BRANCH   1   7
ATOM      7  C   UNL     1     -30.810  27.812   3.606  1.00  0.00     0.339 C 
ATOM      8  O   UNL     1     -32.023  27.723   3.267  1.00  0.00    -0.246 OA
BRANCH   7   9
ATOM      9  O   UNL     1     -29.903  26.807   3.246  1.00  0.00    -0.462 OA
BRANCH   9  10
ATOM     10  C   UNL     1     -30.213  25.754   2.338  1.00  0.00     0.233 C 
BRANCH  10  11
ATOM     11  C   UNL     1     -29.450  24.481   2.714  1.00  0.00     0.038 C 
ATOM     12  C   UNL     1     -28.580  24.702   3.948  1.00  0.00     0.007 C 
ENDBRANCH  10  11
ENDBRANCH   9  10
ENDBRANCH   7   9
ENDBRANCH   1   7
BRANCH   6  13
ATOM     13  C   UNL     1     -29.889  27.719   6.498  1.00  0.00     0.339 C 
ATOM     14  O   UNL     1     -28.857  27.286   7.080  1.00  0.00    -0.246 OA
BRANCH  13  15
ATOM     15  O   UNL     1     -31.095  27.012   6.582  1.00  0.00    -0.462 OA
BRANCH  15  16
ATOM     16  C   UNL     1     -31.178  25.594   6.731  1.00  0.00     0.233 C 
BRANCH  16  17
ATOM     17  C   UNL     1     -31.947  24.961   5.566  1.00  0.00     0.038 C 
ATOM     18  C   UNL     1     -31.794  23.443   5.517  1.00  0.00     0.007 C 
ENDBRANCH  16  17
ENDBRANCH  15  16
ENDBRANCH  13  15
ENDBRANCH   6  13
TORSDOF 8
ENDMDL
MODEL 5
REMARK VINA RESULT:    -4.696      1.333      4.883
REMARK INTER + INTRA:          -7.998
REMARK INTER:                  -7.102
REMARK INTRA:                  -0.896
REMARK UNBOUND:                -1.105
REMARK SMILES CCCOC(=O)c1ccccc1C(=O)OCCC
REMARK SMILES IDX 7 1 8 2 9 3 10 4 11 5 12 6 5 7 6 8 4 9 3 10 2 11 1 12 13 13
REMARK SMILES IDX 14 14 15 15 16 16 17 17 18 18
REMARK H PARENT
REMARK Flexibility Score: inf
ROOT
ATOM      1  C   UNL     1     -30.517  28.879   4.338  1.00  0.00     0.074 A 
ATOM      2  C   UNL     1     -30.414  30.125   3.693  1.00  0.00     0.016 A 
ATOM      3  C   UNL     1     -29.769  31.198   4.310  1.00  0.00     0.001 A 
ATOM      4  C   UNL     1     -29.216  31.043   5.579  1.00  0.00     0.001 A 
ATOM      5  C   UNL     1     -29.325  29.822   6.246  1.00  0.00     0.016 A 
ATOM      6  C   UNL     1     -29.990  28.734   5.652  1.00  0.00     0.074 A 
ENDROOT
BRANCH   1   7
ATOM      7  C   UNL     1     -31.108  27.751   3.584  1.00  0.00     0.339 C 
ATOM      8  O   UNL     1     -32.352  27.544   3.638  1.00  0.00    -0.246 OA
BRANCH   7   9
ATOM      9  O   UNL     1     -30.294  26.945   2.776  1.00  0.00    -0.462 OA
BRANCH   9  10
ATOM     10  C   UNL     1     -29.439  25.926   3.287  1.00  0.00     0.233 C 
BRANCH  10  11
ATOM     11  C   UNL     1     -30.266  24.777   3.871  1.00  0.00     0.038 C 
ATOM     12  C   UNL     1     -31.150  24.136   2.808  1.00  0.00     0.007 C 
ENDBRANCH  10  11
ENDBRANCH   9  10
ENDBRANCH   7   9
ENDBRANCH   1   7
BRANCH   6  13
ATOM     13  C   UNL     1     -30.164  27.505   6.460  1.00  0.00     0.339 C 
ATOM     14  O   UNL     1     -31.301  27.202   6.916  1.00  0.00    -0.246 OA
BRANCH  13  15
ATOM     15  O   UNL     1     -29.047  26.718   6.766  1.00  0.00    -0.462 OA
BRANCH  15  16
ATOM     16  C   UNL     1     -28.701  26.308   8.089  1.00  0.00     0.233 C 
BRANCH  16  17
ATOM     17  C   UNL     1     -27.590  27.191   8.668  1.00  0.00     0.038 C 
ATOM     18  C   UNL     1     -26.405  26.380   9.186  1.00  0.00     0.007 C 
ENDBRANCH  16  17
ENDBRANCH  15  16
ENDBRANCH  13  15
ENDBRANCH   6  13
TORSDOF 8
ENDMDL
MODEL 6
REMARK VINA RESULT:    -4.673      2.004      3.523
REMARK INTER + INTRA:          -7.964
REMARK INTER:                  -7.080
REMARK INTRA:                  -0.884
REMARK UNBOUND:                -1.105
REMARK SMILES CCCOC(=O)c1ccccc1C(=O)OCCC
REMARK SMILES IDX 7 1 8 2 9 3 10 4 11 5 12 6 5 7 6 8 4 9 3 10 2 11 1 12 13 13
REMARK SMILES IDX 14 14 15 15 16 16 17 17 18 18
REMARK H PARENT
REMARK Flexibility Score: inf
ROOT
ATOM      1  C   UNL     1     -29.901  28.874   5.619  1.00  0.00     0.074 A 
ATOM      2  C   UNL     1     -29.353  30.006   6.250  1.00  0.00     0.016 A 
ATOM      3  C   UNL     1     -29.292  31.233   5.589  1.00  0.00     0.001 A 
ATOM      4  C   UNL     1     -29.780  31.351   4.289  1.00  0.00     0.001 A 
ATOM      5  C   UNL     1     -30.308  30.237   3.637  1.00  0.00     0.016 A 
ATOM      6  C   UNL     1     -30.359  28.985   4.276  1.00  0.00     0.074 A 
ENDROOT
BRANCH   1   7
ATOM      7  C   UNL     1     -30.044  27.633   6.413  1.00  0.00     0.339 C 
ATOM      8  O   UNL     1     -29.102  27.261   7.168  1.00  0.00    -0.246 OA
BRANCH   7   9
ATOM      9  O   UNL     1     -31.238  26.903   6.363  1.00  0.00    -0.462 OA
BRANCH   9  10
ATOM     10  C   UNL     1     -31.299  25.484   6.486  1.00  0.00     0.233 C 
BRANCH  10  11
ATOM     11  C   UNL     1     -32.245  24.897   5.436  1.00  0.00     0.038 C 
ATOM     12  C   UNL     1     -32.036  23.394   5.283  1.00  0.00     0.007 C 
ENDBRANCH  10  11
ENDBRANCH   9  10
ENDBRANCH   7   9
ENDBRANCH   1   7
BRANCH   6  13
ATOM     13  C   UNL     1     -30.830  27.823   3.486  1.00  0.00     0.339 C 
ATOM     14  O   UNL     1     -32.058  27.680   3.239  1.00  0.00    -0.246 OA
BRANCH  13  15
ATOM     15  O   UNL     1     -29.908  26.853   3.073  1.00  0.00    -0.462 OA
BRANCH  15  16
ATOM     16  C   UNL     1     -30.271  25.641   2.411  1.00  0.00     0.233 C 
BRANCH  16  17
ATOM     17  C   UNL     1     -29.265  24.525   2.713  1.00  0.00     0.038 C 
ATOM     18  C   UNL     1     -28.625  24.668   4.091  1.00  0.00     0.007 C 
ENDBRANCH  16  17
ENDBRANCH  15  16
ENDBRANCH  13  15
ENDBRANCH   6  13
TORSDOF 8
ENDMDL
MODEL 7
REMARK VINA RESULT:    -4.621      1.667      2.593
REMARK INTER + INTRA:          -7.887
REMARK INTER:                  -7.079
REMARK INTRA:                  -0.808
REMARK UNBOUND:                -1.105
REMARK SMILES CCCOC(=O)c1ccccc1C(=O)OCCC
REMARK SMILES IDX 7 1 8 2 9 3 10 4 11 5 12 6 5 7 6 8 4 9 3 10 2 11 1 12 13 13
REMARK SMILES IDX 14 14 15 15 16 16 17 17 18 18
REMARK H PARENT
REMARK Flexibility Score: inf
ROOT
ATOM      1  C   UNL     1     -29.830  29.017   5.702  1.00  0.00     0.074 A 
ATOM      2  C   UNL     1     -29.261  30.213   6.178  1.00  0.00     0.016 A 
ATOM      3  C   UNL     1     -29.280  31.372   5.402  1.00  0.00     0.001 A 
ATOM      4  C   UNL     1     -29.869  31.357   4.139  1.00  0.00     0.001 A 
ATOM      5  C   UNL     1     -30.419  30.177   3.638  1.00  0.00     0.016 A 
ATOM      6  C   UNL     1     -30.392  28.991   4.394  1.00  0.00     0.074 A 
ENDROOT
BRANCH   1   7
ATOM      7  C   UNL     1     -29.882  27.857   6.618  1.00  0.00     0.339 C 
ATOM      8  O   UNL     1     -28.833  27.477   7.210  1.00  0.00    -0.246 OA
BRANCH   7   9
ATOM      9  O   UNL     1     -31.101  27.212   6.864  1.00  0.00    -0.462 OA
BRANCH   9  10
ATOM     10  C   UNL     1     -31.210  25.831   7.198  1.00  0.00     0.233 C 
BRANCH  10  11
ATOM     11  C   UNL     1     -30.969  24.961   5.961  1.00  0.00     0.038 C 
ATOM     12  C   UNL     1     -32.283  24.455   5.376  1.00  0.00     0.007 C 
ENDBRANCH  10  11
ENDBRANCH   9  10
ENDBRANCH   7   9
ENDBRANCH   1   7
BRANCH   6  13
ATOM     13  C   UNL     1     -30.894  27.752   3.757  1.00  0.00     0.339 C 
ATOM     14  O   UNL     1     -30.103  26.991   3.136  1.00  0.00    -0.246 OA
BRANCH  13  15
ATOM     15  O   UNL     1     -32.265  27.466   3.795  1.00  0.00    -0.462 OA
BRANCH  15  16
ATOM     16  C   UNL     1     -33.054  27.196   2.636  1.00  0.00     0.233 C 
BRANCH  16  17
ATOM     17  C   UNL     1     -33.040  28.386   1.671  1.00  0.00     0.038 C 
ATOM     18  C   UNL     1     -33.478  28.003   0.260  1.00  0.00     0.007 C 
ENDBRANCH  16  17
ENDBRANCH  15  16
ENDBRANCH  13  15
ENDBRANCH   6  13
TORSDOF 8
ENDMDL
MODEL 8
REMARK VINA RESULT:    -4.587      2.364      4.115
REMARK INTER + INTRA:          -7.838
REMARK INTER:                  -6.584
REMARK INTRA:                  -1.254
REMARK UNBOUND:                -1.105
REMARK SMILES CCCOC(=O)c1ccccc1C(=O)OCCC
REMARK SMILES IDX 7 1 8 2 9 3 10 4 11 5 12 6 5 7 6 8 4 9 3 10 2 11 1 12 13 13
REMARK SMILES IDX 14 14 15 15 16 16 17 17 18 18
REMARK H PARENT
REMARK Flexibility Score: inf
ROOT
ATOM      1  C   UNL     1     -30.699  26.289   4.838  1.00  0.00     0.074 A 
ATOM      2  C   UNL     1     -29.399  25.771   4.983  1.00  0.00     0.016 A 
ATOM      3  C   UNL     1     -28.742  25.176   3.906  1.00  0.00     0.001 A 
ATOM      4  C   UNL     1     -29.372  25.089   2.666  1.00  0.00     0.001 A 
ATOM      5  C   UNL     1     -30.669  25.577   2.505  1.00  0.00     0.016 A 
ATOM      6  C   UNL     1     -31.358  26.161   3.583  1.00  0.00     0.074 A 
ENDROOT
BRANCH   1   7
ATOM      7  C   UNL     1     -31.294  27.011   5.984  1.00  0.00     0.339 C 
ATOM      8  O   UNL     1     -31.615  26.376   7.027  1.00  0.00    -0.246 OA
BRANCH   7   9
ATOM      9  O   UNL     1     -31.455  28.402   5.929  1.00  0.00    -0.462 OA
BRANCH   9  10
ATOM     10  C   UNL     1     -30.538  29.276   5.276  1.00  0.00     0.233 C 
BRANCH  10  11
ATOM     11  C   UNL     1     -29.397  29.658   6.222  1.00  0.00     0.038 C 
ATOM     12  C   UNL     1     -29.022  31.128   6.071  1.00  0.00     0.007 C 
ENDBRANCH  10  11
ENDBRANCH   9  10
ENDBRANCH   7   9
ENDBRANCH   1   7
BRANCH   6  13
ATOM     13  C   UNL     1     -32.769  26.556   3.370  1.00  0.00     0.339 C 
ATOM     14  O   UNL     1     -33.060  27.754   3.104  1.00  0.00    -0.246 OA
BRANCH  13  15
ATOM     15  O   UNL     1     -33.783  25.602   3.528  1.00  0.00    -0.462 OA
BRANCH  15  16
ATOM     16  C   UNL     1     -33.935  24.789   4.693  1.00  0.00     0.233 C 
BRANCH  16  17
ATOM     17  C   UNL     1     -33.356  23.388   4.467  1.00  0.00     0.038 C 
ATOM     18  C   UNL     1     -32.222  23.059   5.434  1.00  0.00     0.007 C 
ENDBRANCH  16  17
ENDBRANCH  15  16
ENDBRANCH  13  15
ENDBRANCH   6  13
TORSDOF 8
ENDMDL
MODEL 9
REMARK VINA RESULT:    -4.535      2.396      5.166
REMARK INTER + INTRA:          -7.762
REMARK INTER:                  -6.755
REMARK INTRA:                  -1.007
REMARK UNBOUND:                -1.105
REMARK SMILES CCCOC(=O)c1ccccc1C(=O)OCCC
REMARK SMILES IDX 7 1 8 2 9 3 10 4 11 5 12 6 5 7 6 8 4 9 3 10 2 11 1 12 13 13
REMARK SMILES IDX 14 14 15 15 16 16 17 17 18 18
REMARK H PARENT
REMARK Flexibility Score: inf
ROOT
ATOM      1  C   UNL     1     -30.465  25.997   3.497  1.00  0.00     0.074 A 
ATOM      2  C   UNL     1     -29.395  25.507   2.725  1.00  0.00     0.016 A 
ATOM      3  C   UNL     1     -29.025  24.163   2.790  1.00  0.00     0.001 A 
ATOM      4  C   UNL     1     -29.717  23.287   3.623  1.00  0.00     0.001 A 
ATOM      5  C   UNL     1     -30.767  23.756   4.413  1.00  0.00     0.016 A 
ATOM      6  C   UNL     1     -31.144  25.111   4.380  1.00  0.00     0.074 A 
ENDROOT
BRANCH   1   7
ATOM      7  C   UNL     1     -30.883  27.402   3.296  1.00  0.00     0.339 C 
ATOM      8  O   UNL     1     -31.920  27.657   2.622  1.00  0.00    -0.246 OA
BRANCH   7   9
ATOM      9  O   UNL     1     -30.156  28.441   3.891  1.00  0.00    -0.462 OA
BRANCH   9  10
ATOM     10  C   UNL     1     -30.752  29.469   4.679  1.00  0.00     0.233 C 
BRANCH  10  11
ATOM     11  C   UNL     1     -29.782  30.641   4.851  1.00  0.00     0.038 C 
ATOM     12  C   UNL     1     -29.014  30.535   6.164  1.00  0.00     0.007 C 
ENDBRANCH  10  11
ENDBRANCH   9  10
ENDBRANCH   7   9
ENDBRANCH   1   7
BRANCH   6  13
ATOM     13  C   UNL     1     -32.192  25.561   5.325  1.00  0.00     0.339 C 
ATOM     14  O   UNL     1     -33.402  25.270   5.117  1.00  0.00    -0.246 OA
BRANCH  13  15
ATOM     15  O   UNL     1     -31.837  26.366   6.415  1.00  0.00    -0.462 OA
BRANCH  15  16
ATOM     16  C   UNL     1     -30.771  26.061   7.315  1.00  0.00     0.233 C 
BRANCH  16  17
ATOM     17  C   UNL     1     -29.546  26.938   7.036  1.00  0.00     0.038 C 
ATOM     18  C   UNL     1     -28.462  26.790   8.100  1.00  0.00     0.007 C 
ENDBRANCH  16  17
ENDBRANCH  15  16
ENDBRANCH  13  15
ENDBRANCH   6  13
TORSDOF 8
ENDMDL
