MODEL 1
REMARK VINA RESULT:     1.334      0.000      0.000
REMARK INTER + INTRA:           1.758
REMARK INTER:                   2.504
REMARK INTRA:                  -0.745
REMARK UNBOUND:                -0.745
REMARK SMILES O=C([O-])CCCCCCCCCCCCCCC(=O)[O-]
REMARK SMILES IDX 10 1 9 2 8 3 7 4 6 5 5 6 4 7 2 8 1 9 3 10 11 11 12 12 13 13
REMARK SMILES IDX 14 14 15 15 16 16 17 17 18 18 19 19 20 20
REMARK H PARENT
REMARK Flexibility Score: inf
ROOT
ATOM      1  C   UNL     1      20.227  11.962 -15.568  1.00  0.00     0.000 C 
ENDROOT
BRANCH   1   2
ATOM      2  C   UNL     1      19.183  10.871 -15.859  1.00  0.00     0.000 C 
BRANCH   2   3
ATOM      3  C   UNL     1      19.692   9.457 -15.527  1.00  0.00     0.000 C 
BRANCH   3   4
ATOM      4  C   UNL     1      18.656   8.532 -14.854  1.00  0.00     0.000 C 
BRANCH   4   5
ATOM      5  C   UNL     1      17.645   7.877 -15.812  1.00  0.00     0.000 C 
BRANCH   5   6
ATOM      6  C   UNL     1      16.189   8.263 -15.501  1.00  0.00     0.006 C 
BRANCH   6   7
ATOM      7  C   UNL     1      15.944   8.428 -13.995  1.00  0.00     0.053 C 
BRANCH   7   8
ATOM      8  C   UNL     1      15.623   9.848 -13.639  1.00  0.00     0.041 C 
ATOM      9  O   UNL     1      14.439  10.178 -13.361  1.00  0.00    -0.550 OA
ATOM     10  O   UNL     1      16.635  10.797 -13.578  1.00  0.00    -0.550 OA
ENDBRANCH   7   8
ENDBRANCH   6   7
ENDBRANCH   5   6
ENDBRANCH   4   5
ENDBRANCH   3   4
ENDBRANCH   2   3
ENDBRANCH   1   2
BRANCH   1  11
ATOM     11  C   UNL     1      20.108  12.522 -14.141  1.00  0.00     0.000 C 
BRANCH  11  12
ATOM     12  C   UNL     1      20.702  13.936 -14.013  1.00  0.00     0.000 C 
BRANCH  12  13
ATOM     13  C   UNL     1      21.194  14.493 -15.359  1.00  0.00     0.000 C 
BRANCH  13  14
ATOM     14  C   UNL     1      22.124  15.704 -15.192  1.00  0.00     0.000 C 
BRANCH  14  15
ATOM     15  C   UNL     1      21.709  16.848 -16.125  1.00  0.00     0.000 C 
BRANCH  15  16
ATOM     16  C   UNL     1      20.405  17.503 -15.645  1.00  0.00     0.006 C 
BRANCH  16  17
ATOM     17  C   UNL     1      20.342  18.995 -15.997  1.00  0.00     0.053 C 
BRANCH  17  18
ATOM     18  C   UNL     1      21.390  19.783 -15.272  1.00  0.00     0.041 C 
ATOM     19  O   UNL     1      21.919  20.787 -15.818  1.00  0.00    -0.550 OA
ATOM     20  O   UNL     1      21.761  19.426 -13.982  1.00  0.00    -0.550 OA
ENDBRANCH  17  18
ENDBRANCH  16  17
ENDBRANCH  15  16
ENDBRANCH  14  15
ENDBRANCH  13  14
ENDBRANCH  12  13
ENDBRANCH  11  12
ENDBRANCH   1  11
TORSDOF 15
ENDMDL
MODEL 2
REMARK VINA RESULT:     2.072      1.613      2.008
REMARK INTER + INTRA:           3.144
REMARK INTER:                   2.781
REMARK INTRA:                   0.363
REMARK UNBOUND:                -0.745
REMARK SMILES O=C([O-])CCCCCCCCCCCCCCC(=O)[O-]
REMARK SMILES IDX 10 1 9 2 8 3 7 4 6 5 5 6 4 7 2 8 1 9 3 10 11 11 12 12 13 13
REMARK SMILES IDX 14 14 15 15 16 16 17 17 18 18 19 19 20 20
REMARK H PARENT
REMARK Flexibility Score: inf
ROOT
ATOM      1  C   UNL     1      20.130  11.047 -15.564  1.00  0.00     0.000 C 
ENDROOT
BRANCH   1   2
ATOM      2  C   UNL     1      19.371   9.751 -15.897  1.00  0.00     0.000 C 
BRANCH   2   3
ATOM      3  C   UNL     1      17.957   9.717 -15.292  1.00  0.00     0.000 C 
BRANCH   3   4
ATOM      4  C   UNL     1      17.904   9.800 -13.752  1.00  0.00     0.000 C 
BRANCH   4   5
ATOM      5  C   UNL     1      17.062   8.708 -13.067  1.00  0.00     0.000 C 
BRANCH   5   6
ATOM      6  C   UNL     1      16.011   8.088 -14.004  1.00  0.00     0.006 C 
BRANCH   6   7
ATOM      7  C   UNL     1      14.638   8.756 -13.854  1.00  0.00     0.053 C 
BRANCH   7   8
ATOM      8  C   UNL     1      13.641   8.193 -14.821  1.00  0.00     0.041 C 
ATOM      9  O   UNL     1      12.441   8.036 -14.473  1.00  0.00    -0.550 OA
ATOM     10  O   UNL     1      14.029   7.875 -16.117  1.00  0.00    -0.550 OA
ENDBRANCH   7   8
ENDBRANCH   6   7
ENDBRANCH   5   6
ENDBRANCH   4   5
ENDBRANCH   3   4
ENDBRANCH   2   3
ENDBRANCH   1   2
BRANCH   1  11
ATOM     11  C   UNL     1      19.645  11.691 -14.255  1.00  0.00     0.000 C 
BRANCH  11  12
ATOM     12  C   UNL     1      20.274  13.075 -14.012  1.00  0.00     0.000 C 
BRANCH  12  13
ATOM     13  C   UNL     1      20.933  13.653 -15.275  1.00  0.00     0.000 C 
BRANCH  13  14
ATOM     14  C   UNL     1      22.121  14.571 -14.953  1.00  0.00     0.000 C 
BRANCH  14  15
ATOM     15  C   UNL     1      22.121  15.807 -15.861  1.00  0.00     0.000 C 
BRANCH  15  16
ATOM     16  C   UNL     1      21.574  17.036 -15.119  1.00  0.00     0.006 C 
BRANCH  16  17
ATOM     17  C   UNL     1      21.557  18.289 -16.004  1.00  0.00     0.053 C 
BRANCH  17  18
ATOM     18  C   UNL     1      21.642  19.545 -15.192  1.00  0.00     0.041 C 
ATOM     19  O   UNL     1      21.909  19.488 -13.963  1.00  0.00    -0.550 OA
ATOM     20  O   UNL     1      21.458  20.780 -15.799  1.00  0.00    -0.550 OA
ENDBRANCH  17  18
ENDBRANCH  16  17
ENDBRANCH  15  16
ENDBRANCH  14  15
ENDBRANCH  13  14
ENDBRANCH  12  13
ENDBRANCH  11  12
ENDBRANCH   1  11
TORSDOF 15
ENDMDL
MODEL 3
REMARK VINA RESULT:     2.583      2.045      3.041
REMARK INTER + INTRA:           4.103
REMARK INTER:                   1.086
REMARK INTRA:                   3.017
REMARK UNBOUND:                -0.745
REMARK SMILES O=C([O-])CCCCCCCCCCCCCCC(=O)[O-]
REMARK SMILES IDX 10 1 9 2 8 3 7 4 6 5 5 6 4 7 2 8 1 9 3 10 11 11 12 12 13 13
REMARK SMILES IDX 14 14 15 15 16 16 17 17 18 18 19 19 20 20
REMARK H PARENT
REMARK Flexibility Score: inf
ROOT
ATOM      1  C   UNL     1      19.187  11.854 -14.352  1.00  0.00     0.000 C 
ENDROOT
BRANCH   1   2
ATOM      2  C   UNL     1      17.922  12.028 -13.493  1.00  0.00     0.000 C 
BRANCH   2   3
ATOM      3  C   UNL     1      17.722  10.881 -12.487  1.00  0.00     0.000 C 
BRANCH   3   4
ATOM      4  C   UNL     1      17.859   9.463 -13.080  1.00  0.00     0.000 C 
BRANCH   4   5
ATOM      5  C   UNL     1      17.519   9.345 -14.577  1.00  0.00     0.000 C 
BRANCH   5   6
ATOM      6  C   UNL     1      16.653   8.115 -14.898  1.00  0.00     0.006 C 
BRANCH   6   7
ATOM      7  C   UNL     1      15.388   8.057 -14.032  1.00  0.00     0.053 C 
BRANCH   7   8
ATOM      8  C   UNL     1      14.148   7.967 -14.868  1.00  0.00     0.041 C 
ATOM      9  O   UNL     1      14.235   7.905 -16.124  1.00  0.00    -0.550 OA
ATOM     10  O   UNL     1      12.900   7.916 -14.261  1.00  0.00    -0.550 OA
ENDBRANCH   7   8
ENDBRANCH   6   7
ENDBRANCH   5   6
ENDBRANCH   4   5
ENDBRANCH   3   4
ENDBRANCH   2   3
ENDBRANCH   1   2
BRANCH   1  11
ATOM     11  C   UNL     1      19.859  10.488 -14.135  1.00  0.00     0.000 C 
BRANCH  11  12
ATOM     12  C   UNL     1      21.396  10.580 -14.159  1.00  0.00     0.000 C 
BRANCH  12  13
ATOM     13  C   UNL     1      21.933  11.145 -15.483  1.00  0.00     0.000 C 
BRANCH  13  14
ATOM     14  C   UNL     1      21.077  12.300 -16.023  1.00  0.00     0.000 C 
BRANCH  14  15
ATOM     15  C   UNL     1      21.874  13.610 -16.047  1.00  0.00     0.000 C 
BRANCH  15  16
ATOM     16  C   UNL     1      21.398  14.565 -14.942  1.00  0.00     0.006 C 
BRANCH  16  17
ATOM     17  C   UNL     1      22.071  15.941 -15.034  1.00  0.00     0.053 C 
BRANCH  17  18
ATOM     18  C   UNL     1      21.191  16.948 -15.709  1.00  0.00     0.041 C 
ATOM     19  O   UNL     1      21.615  18.112 -15.930  1.00  0.00    -0.550 OA
ATOM     20  O   UNL     1      19.915  16.590 -16.122  1.00  0.00    -0.550 OA
ENDBRANCH  17  18
ENDBRANCH  16  17
ENDBRANCH  15  16
ENDBRANCH  14  15
ENDBRANCH  13  14
ENDBRANCH  12  13
ENDBRANCH  11  12
ENDBRANCH   1  11
TORSDOF 15
ENDMDL
MODEL 4
REMARK VINA RESULT:     2.699      3.386      5.027
REMARK INTER + INTRA:           4.320
REMARK INTER:                   5.313
REMARK INTRA:                  -0.993
REMARK UNBOUND:                -0.745
REMARK SMILES O=C([O-])CCCCCCCCCCCCCCC(=O)[O-]
REMARK SMILES IDX 10 1 9 2 8 3 7 4 6 5 5 6 4 7 2 8 1 9 3 10 11 11 12 12 13 13
REMARK SMILES IDX 14 14 15 15 16 16 17 17 18 18 19 19 20 20
REMARK H PARENT
REMARK Flexibility Score: inf
ROOT
ATOM      1  C   UNL     1      18.394   9.352 -14.693  1.00  0.00     0.000 C 
ENDROOT
BRANCH   1   2
ATOM      2  C   UNL     1      17.361   8.460 -13.983  1.00  0.00     0.000 C 
BRANCH   2   3
ATOM      3  C   UNL     1      16.201   8.043 -14.904  1.00  0.00     0.000 C 
BRANCH   3   4
ATOM      4  C   UNL     1      14.796   8.149 -14.274  1.00  0.00     0.000 C 
BRANCH   4   5
ATOM      5  C   UNL     1      14.304   9.584 -14.014  1.00  0.00     0.000 C 
BRANCH   5   6
ATOM      6  C   UNL     1      15.097  10.296 -12.904  1.00  0.00     0.006 C 
BRANCH   6   7
ATOM      7  C   UNL     1      15.823  11.544 -13.424  1.00  0.00     0.053 C 
BRANCH   7   8
ATOM      8  C   UNL     1      16.829  12.050 -12.434  1.00  0.00     0.041 C 
ATOM      9  O   UNL     1      16.468  12.815 -11.500  1.00  0.00    -0.550 OA
ATOM     10  O   UNL     1      18.155  11.648 -12.522  1.00  0.00    -0.550 OA
ENDBRANCH   7   8
ENDBRANCH   6   7
ENDBRANCH   5   6
ENDBRANCH   4   5
ENDBRANCH   3   4
ENDBRANCH   2   3
ENDBRANCH   1   2
BRANCH   1  11
ATOM     11  C   UNL     1      18.788   8.806 -16.074  1.00  0.00     0.000 C 
BRANCH  11  12
ATOM     12  C   UNL     1      20.123   8.039 -16.044  1.00  0.00     0.000 C 
BRANCH  12  13
ATOM     13  C   UNL     1      21.195   8.753 -15.205  1.00  0.00     0.000 C 
BRANCH  13  14
ATOM     14  C   UNL     1      22.103   9.656 -16.052  1.00  0.00     0.000 C 
BRANCH  14  15
ATOM     15  C   UNL     1      21.546  11.082 -16.125  1.00  0.00     0.000 C 
BRANCH  15  16
ATOM     16  C   UNL     1      21.965  11.902 -14.895  1.00  0.00     0.006 C 
BRANCH  16  17
ATOM     17  C   UNL     1      20.766  12.556 -14.196  1.00  0.00     0.053 C 
BRANCH  17  18
ATOM     18  C   UNL     1      19.916  13.329 -15.157  1.00  0.00     0.041 C 
ATOM     19  O   UNL     1      18.784  12.892 -15.495  1.00  0.00    -0.550 OA
ATOM     20  O   UNL     1      20.359  14.547 -15.655  1.00  0.00    -0.550 OA
ENDBRANCH  17  18
ENDBRANCH  16  17
ENDBRANCH  15  16
ENDBRANCH  14  15
ENDBRANCH  13  14
ENDBRANCH  12  13
ENDBRANCH  11  12
ENDBRANCH   1  11
TORSDOF 15
ENDMDL
MODEL 5
REMARK VINA RESULT:     3.011      2.509      4.431
REMARK INTER + INTRA:           4.906
REMARK INTER:                   5.549
REMARK INTRA:                  -0.643
REMARK UNBOUND:                -0.745
REMARK SMILES O=C([O-])CCCCCCCCCCCCCCC(=O)[O-]
REMARK SMILES IDX 10 1 9 2 8 3 7 4 6 5 5 6 4 7 2 8 1 9 3 10 11 11 12 12 13 13
REMARK SMILES IDX 14 14 15 15 16 16 17 17 18 18 19 19 20 20
REMARK H PARENT
REMARK Flexibility Score: inf
ROOT
ATOM      1  C   UNL     1      17.588   9.153 -14.677  1.00  0.00     0.000 C 
ENDROOT
BRANCH   1   2
ATOM      2  C   UNL     1      16.651   7.959 -14.429  1.00  0.00     0.000 C 
BRANCH   2   3
ATOM      3  C   UNL     1      15.205   8.234 -14.877  1.00  0.00     0.000 C 
BRANCH   3   4
ATOM      4  C   UNL     1      14.284   8.823 -13.788  1.00  0.00     0.000 C 
BRANCH   4   5
ATOM      5  C   UNL     1      13.963  10.320 -13.945  1.00  0.00     0.000 C 
BRANCH   5   6
ATOM      6  C   UNL     1      14.708  11.202 -12.928  1.00  0.00     0.006 C 
BRANCH   6   7
ATOM      7  C   UNL     1      16.055  11.698 -13.472  1.00  0.00     0.053 C 
BRANCH   7   8
ATOM      8  C   UNL     1      16.980  12.107 -12.366  1.00  0.00     0.041 C 
ATOM      9  O   UNL     1      18.213  11.859 -12.449  1.00  0.00    -0.550 OA
ATOM     10  O   UNL     1      16.488  12.793 -11.263  1.00  0.00    -0.550 OA
ENDBRANCH   7   8
ENDBRANCH   6   7
ENDBRANCH   5   6
ENDBRANCH   4   5
ENDBRANCH   3   4
ENDBRANCH   2   3
ENDBRANCH   1   2
BRANCH   1  11
ATOM     11  C   UNL     1      18.582   8.891 -15.820  1.00  0.00     0.000 C 
BRANCH  11  12
ATOM     12  C   UNL     1      20.047   9.011 -15.364  1.00  0.00     0.000 C 
BRANCH  12  13
ATOM     13  C   UNL     1      20.532  10.469 -15.314  1.00  0.00     0.000 C 
BRANCH  13  14
ATOM     14  C   UNL     1      19.614  11.423 -16.092  1.00  0.00     0.000 C 
BRANCH  14  15
ATOM     15  C   UNL     1      19.112  12.558 -15.192  1.00  0.00     0.000 C 
BRANCH  15  16
ATOM     16  C   UNL     1      19.462  13.930 -15.789  1.00  0.00     0.006 C 
BRANCH  16  17
ATOM     17  C   UNL     1      20.954  14.055 -16.124  1.00  0.00     0.053 C 
BRANCH  17  18
ATOM     18  C   UNL     1      21.672  14.935 -15.148  1.00  0.00     0.041 C 
ATOM     19  O   UNL     1      21.989  14.494 -14.011  1.00  0.00    -0.550 OA
ATOM     20  O   UNL     1      22.021  16.231 -15.505  1.00  0.00    -0.550 OA
ENDBRANCH  17  18
ENDBRANCH  16  17
ENDBRANCH  15  16
ENDBRANCH  14  15
ENDBRANCH  13  14
ENDBRANCH  12  13
ENDBRANCH  11  12
ENDBRANCH   1  11
TORSDOF 15
ENDMDL
MODEL 6
REMARK VINA RESULT:     3.066      4.495      6.688
REMARK INTER + INTRA:           5.010
REMARK INTER:                   4.875
REMARK INTRA:                   0.135
REMARK UNBOUND:                -0.745
REMARK SMILES O=C([O-])CCCCCCCCCCCCCCC(=O)[O-]
REMARK SMILES IDX 10 1 9 2 8 3 7 4 6 5 5 6 4 7 2 8 1 9 3 10 11 11 12 12 13 13
REMARK SMILES IDX 14 14 15 15 16 16 17 17 18 18 19 19 20 20
REMARK H PARENT
REMARK Flexibility Score: inf
ROOT
ATOM      1  C   UNL     1      19.944  14.456 -15.469  1.00  0.00     0.000 C 
ENDROOT
BRANCH   1   2
ATOM      2  C   UNL     1      19.084  13.362 -16.125  1.00  0.00     0.000 C 
BRANCH   2   3
ATOM      3  C   UNL     1      18.191  12.621 -15.115  1.00  0.00     0.000 C 
BRANCH   3   4
ATOM      4  C   UNL     1      18.936  12.017 -13.905  1.00  0.00     0.000 C 
BRANCH   4   5
ATOM      5  C   UNL     1      18.031  11.457 -12.794  1.00  0.00     0.000 C 
BRANCH   5   6
ATOM      6  C   UNL     1      16.715  10.870 -13.333  1.00  0.00     0.006 C 
BRANCH   6   7
ATOM      7  C   UNL     1      15.514  11.775 -13.033  1.00  0.00     0.053 C 
BRANCH   7   8
ATOM      8  C   UNL     1      14.214  11.064 -13.261  1.00  0.00     0.041 C 
ATOM      9  O   UNL     1      13.123  11.676 -13.114  1.00  0.00    -0.550 OA
ATOM     10  O   UNL     1      14.210   9.737 -13.672  1.00  0.00    -0.550 OA
ENDBRANCH   7   8
ENDBRANCH   6   7
ENDBRANCH   5   6
ENDBRANCH   4   5
ENDBRANCH   3   4
ENDBRANCH   2   3
ENDBRANCH   1   2
BRANCH   1  11
ATOM     11  C   UNL     1      21.427  14.061 -15.378  1.00  0.00     0.000 C 
BRANCH  11  12
ATOM     12  C   UNL     1      21.672  12.599 -15.795  1.00  0.00     0.000 C 
BRANCH  12  13
ATOM     13  C   UNL     1      21.692  11.639 -14.595  1.00  0.00     0.000 C 
BRANCH  13  14
ATOM     14  C   UNL     1      21.735  10.164 -15.020  1.00  0.00     0.000 C 
BRANCH  14  15
ATOM     15  C   UNL     1      20.500   9.794 -15.849  1.00  0.00     0.000 C 
BRANCH  15  16
ATOM     16  C   UNL     1      20.019   8.374 -15.518  1.00  0.00     0.006 C 
BRANCH  16  17
ATOM     17  C   UNL     1      18.635   8.076 -16.110  1.00  0.00     0.053 C 
BRANCH  17  18
ATOM     18  C   UNL     1      17.558   8.154 -15.071  1.00  0.00     0.041 C 
ATOM     19  O   UNL     1      17.857   8.301 -13.857  1.00  0.00    -0.550 OA
ATOM     20  O   UNL     1      16.222   8.096 -15.448  1.00  0.00    -0.550 OA
ENDBRANCH  17  18
ENDBRANCH  16  17
ENDBRANCH  15  16
ENDBRANCH  14  15
ENDBRANCH  13  14
ENDBRANCH  12  13
ENDBRANCH  11  12
ENDBRANCH   1  11
TORSDOF 15
ENDMDL
MODEL 7
REMARK VINA RESULT:     3.961      4.961      6.670
REMARK INTER + INTRA:           6.689
REMARK INTER:                   7.678
REMARK INTRA:                  -0.989
REMARK UNBOUND:                -0.745
REMARK SMILES O=C([O-])CCCCCCCCCCCCCCC(=O)[O-]
REMARK SMILES IDX 10 1 9 2 8 3 7 4 6 5 5 6 4 7 2 8 1 9 3 10 11 11 12 12 13 13
REMARK SMILES IDX 14 14 15 15 16 16 17 17 18 18 19 19 20 20
REMARK H PARENT
REMARK Flexibility Score: inf
ROOT
ATOM      1  C   UNL     1      16.907  11.968 -12.202  1.00  0.00     0.000 C 
ENDROOT
BRANCH   1   2
ATOM      2  C   UNL     1      17.504  12.149 -10.796  1.00  0.00     0.000 C 
BRANCH   2   3
ATOM      3  C   UNL     1      16.475  11.909  -9.677  1.00  0.00     0.000 C 
BRANCH   3   4
ATOM      4  C   UNL     1      16.928  10.932  -8.572  1.00  0.00     0.000 C 
BRANCH   4   5
ATOM      5  C   UNL     1      18.342  10.351  -8.754  1.00  0.00     0.000 C 
BRANCH   5   6
ATOM      6  C   UNL     1      19.013   9.982  -7.420  1.00  0.00     0.006 C 
BRANCH   6   7
ATOM      7  C   UNL     1      19.953   8.777  -7.561  1.00  0.00     0.053 C 
BRANCH   7   8
ATOM      8  C   UNL     1      21.327   9.086  -7.048  1.00  0.00     0.041 C 
ATOM      9  O   UNL     1      22.125   9.768  -7.746  1.00  0.00    -0.550 OA
ATOM     10  O   UNL     1      21.714   8.653  -5.786  1.00  0.00    -0.550 OA
ENDBRANCH   7   8
ENDBRANCH   6   7
ENDBRANCH   5   6
ENDBRANCH   4   5
ENDBRANCH   3   4
ENDBRANCH   2   3
ENDBRANCH   1   2
BRANCH   1  11
ATOM     11  C   UNL     1      17.985  11.934 -13.298  1.00  0.00     0.000 C 
BRANCH  11  12
ATOM     12  C   UNL     1      18.318  10.500 -13.749  1.00  0.00     0.000 C 
BRANCH  12  13
ATOM     13  C   UNL     1      18.776  10.435 -15.215  1.00  0.00     0.000 C 
BRANCH  13  14
ATOM     14  C   UNL     1      20.230   9.963 -15.359  1.00  0.00     0.000 C 
BRANCH  14  15
ATOM     15  C   UNL     1      21.170  10.811 -14.495  1.00  0.00     0.000 C 
BRANCH  15  16
ATOM     16  C   UNL     1      21.801  11.946 -15.316  1.00  0.00     0.006 C 
BRANCH  16  17
ATOM     17  C   UNL     1      21.712  13.300 -14.600  1.00  0.00     0.053 C 
BRANCH  17  18
ATOM     18  C   UNL     1      20.810  14.253 -15.323  1.00  0.00     0.041 C 
ATOM     19  O   UNL     1      21.224  15.399 -15.642  1.00  0.00    -0.550 OA
ATOM     20  O   UNL     1      19.523  13.865 -15.672  1.00  0.00    -0.550 OA
ENDBRANCH  17  18
ENDBRANCH  16  17
ENDBRANCH  15  16
ENDBRANCH  14  15
ENDBRANCH  13  14
ENDBRANCH  12  13
ENDBRANCH  11  12
ENDBRANCH   1  11
TORSDOF 15
ENDMDL
MODEL 8
REMARK VINA RESULT:     4.027      2.165      3.926
REMARK INTER + INTRA:           6.812
REMARK INTER:                   6.248
REMARK INTRA:                   0.564
REMARK UNBOUND:                -0.745
REMARK SMILES O=C([O-])CCCCCCCCCCCCCCC(=O)[O-]
REMARK SMILES IDX 10 1 9 2 8 3 7 4 6 5 5 6 4 7 2 8 1 9 3 10 11 11 12 12 13 13
REMARK SMILES IDX 14 14 15 15 16 16 17 17 18 18 19 19 20 20
REMARK H PARENT
REMARK Flexibility Score: inf
ROOT
ATOM      1  C   UNL     1      18.771   9.994 -15.239  1.00  0.00     0.000 C 
ENDROOT
BRANCH   1   2
ATOM      2  C   UNL     1      18.816  10.055 -13.702  1.00  0.00     0.000 C 
BRANCH   2   3
ATOM      3  C   UNL     1      17.418  10.186 -13.071  1.00  0.00     0.000 C 
BRANCH   3   4
ATOM      4  C   UNL     1      16.732  11.551 -13.283  1.00  0.00     0.000 C 
BRANCH   4   5
ATOM      5  C   UNL     1      15.235  11.592 -12.925  1.00  0.00     0.000 C 
BRANCH   5   6
ATOM      6  C   UNL     1      14.577  10.202 -12.945  1.00  0.00     0.006 C 
BRANCH   6   7
ATOM      7  C   UNL     1      14.395   9.670 -14.372  1.00  0.00     0.053 C 
BRANCH   7   8
ATOM      8  C   UNL     1      15.197   8.425 -14.605  1.00  0.00     0.041 C 
ATOM      9  O   UNL     1      15.198   7.875 -15.738  1.00  0.00    -0.550 OA
ATOM     10  O   UNL     1      15.972   7.894 -13.581  1.00  0.00    -0.550 OA
ENDBRANCH   7   8
ENDBRANCH   6   7
ENDBRANCH   5   6
ENDBRANCH   4   5
ENDBRANCH   3   4
ENDBRANCH   2   3
ENDBRANCH   1   2
BRANCH   1  11
ATOM     11  C   UNL     1      19.449   8.731 -15.795  1.00  0.00     0.000 C 
BRANCH  11  12
ATOM     12  C   UNL     1      20.959   8.927 -16.024  1.00  0.00     0.000 C 
BRANCH  12  13
ATOM     13  C   UNL     1      21.556  10.017 -15.120  1.00  0.00     0.000 C 
BRANCH  13  14
ATOM     14  C   UNL     1      21.686  11.371 -15.834  1.00  0.00     0.000 C 
BRANCH  14  15
ATOM     15  C   UNL     1      21.030  12.489 -15.015  1.00  0.00     0.000 C 
BRANCH  15  16
ATOM     16  C   UNL     1      21.999  13.663 -14.811  1.00  0.00     0.006 C 
BRANCH  16  17
ATOM     17  C   UNL     1      22.122  14.540 -16.064  1.00  0.00     0.053 C 
BRANCH  17  18
ATOM     18  C   UNL     1      21.299  15.787 -15.953  1.00  0.00     0.041 C 
ATOM     19  O   UNL     1      21.855  16.895 -15.733  1.00  0.00    -0.550 OA
ATOM     20  O   UNL     1      19.922  15.730 -16.125  1.00  0.00    -0.550 OA
ENDBRANCH  17  18
ENDBRANCH  16  17
ENDBRANCH  15  16
ENDBRANCH  14  15
ENDBRANCH  13  14
ENDBRANCH  12  13
ENDBRANCH  11  12
ENDBRANCH   1  11
TORSDOF 15
ENDMDL
