MODEL 1
REMARK VINA RESULT:    18.709      0.000      0.000
REMARK INTER + INTRA:          27.937
REMARK INTER:                  25.818
REMARK INTRA:                   2.119
REMARK UNBOUND:                 2.119
REMARK SMILES C=C(CC[C@H](C(=O)[O-])[C@H]1CC[C@]2(C)C3=C(CC[C@@]12C)[C@]1(C)CC[C@H](O)C(C)(C)[C@@H]1CC3)C(C)C
REMARK SMILES IDX 4 1 5 2 6 3 7 4 8 5 9 6 10 7 18 8 11 9 12 10 17 11 19 12
REMARK SMILES IDX 13 13 14 14 16 15 15 16 31 17 20 18 30 19 29 20 22 21 21 22
REMARK SMILES IDX 26 23 23 24 24 25 27 26 28 27 25 28 3 30 2 31 1 32 32 33
REMARK SMILES IDX 33 34 34 35
REMARK H PARENT 25 29
REMARK Flexibility Score: inf
ROOT
ATOM      1  C   UNL     1      20.939  25.275  24.893  1.00  0.00     0.014 C 
ENDROOT
BRANCH   1   2
ATOM      2  C   UNL     1      19.745  25.652  25.787  1.00  0.00     0.039 C 
BRANCH   2   3
ATOM      3  C   UNL     1      18.895  26.839  25.415  1.00  0.00     0.045 C 
ATOM      4  O   UNL     1      19.295  27.543  24.409  1.00  0.00    -0.550 OA
ATOM      5  O   UNL     1      17.568  26.767  25.549  1.00  0.00    -0.550 OA
ENDBRANCH   2   3
BRANCH   2   6
ATOM      6  C   UNL     1      20.136  25.315  27.285  1.00  0.00     0.004 C 
ATOM      7  C   UNL     1      20.496  23.876  27.715  1.00  0.00     0.006 C 
ATOM      8  C   UNL     1      21.378  26.153  27.778  1.00  0.00    -0.020 C 
ATOM      9  C   UNL     1      21.963  23.912  28.247  1.00  0.00     0.012 C 
ATOM     10  C   UNL     1      22.536  25.155  27.563  1.00  0.00    -0.006 C 
ATOM     11  C   UNL     1      21.803  27.483  27.093  1.00  0.00     0.012 C 
ATOM     12  C   UNL     1      21.132  26.493  29.326  1.00  0.00     0.012 C 
ATOM     13  C   UNL     1      22.846  24.695  26.074  1.00  0.00     0.017 C 
ATOM     14  C   UNL     1      23.835  25.732  28.075  1.00  0.00    -0.064 C 
ATOM     15  C   UNL     1      23.054  28.069  27.740  1.00  0.00     0.032 C 
ATOM     16  C   UNL     1      24.177  27.062  27.902  1.00  0.00    -0.064 C 
ATOM     17  C   UNL     1      24.791  24.687  28.514  1.00  0.00     0.032 C 
ATOM     18  C   UNL     1      25.664  27.568  27.951  1.00  0.00    -0.008 C 
ATOM     19  C   UNL     1      26.220  25.107  28.249  1.00  0.00     0.009 C 
ATOM     20  C   UNL     1      26.615  26.556  28.719  1.00  0.00     0.007 C 
ATOM     21  C   UNL     1      26.160  27.668  26.472  1.00  0.00     0.014 C 
ATOM     22  C   UNL     1      25.659  28.986  28.597  1.00  0.00     0.016 C 
ATOM     23  C   UNL     1      28.212  26.778  28.575  1.00  0.00    -0.006 C 
ATOM     24  C   UNL     1      27.601  28.204  26.463  1.00  0.00     0.033 C 
ATOM     25  C   UNL     1      28.583  27.148  27.054  1.00  0.00     0.120 C 
ATOM     26  C   UNL     1      29.047  25.495  29.047  1.00  0.00     0.014 C 
ATOM     27  C   UNL     1      28.634  27.961  29.509  1.00  0.00     0.014 C 
BRANCH  25  28
ATOM     28  O   UNL     1      28.672  26.010  26.225  1.00  0.00    -0.393 OA
ATOM     29  H   UNL     1      28.830  25.192  26.759  1.00  0.00     0.210 HD
ENDBRANCH  25  28
ENDBRANCH   2   6
ENDBRANCH   1   2
BRANCH   1  30
ATOM     30  C   UNL     1      20.740  24.137  23.839  1.00  0.00     0.031 C 
BRANCH  30  31
ATOM     31  C   UNL     1      19.359  24.144  23.179  1.00  0.00    -0.075 C 
ATOM     32  C   UNL     1      18.211  23.879  23.879  1.00  0.00     0.008 C 
BRANCH  31  33
ATOM     33  C   UNL     1      19.227  24.244  21.622  1.00  0.00     0.008 C 
ATOM     34  C   UNL     1      17.834  23.875  21.162  1.00  0.00     0.012 C 
ATOM     35  C   UNL     1      19.612  25.644  21.046  1.00  0.00     0.012 C 
ENDBRANCH  31  33
ENDBRANCH  30  31
ENDBRANCH   1  30
TORSDOF 7
ENDMDL
MODEL 2
REMARK VINA RESULT:    20.592     12.629     15.974
REMARK INTER + INTRA:          30.536
REMARK INTER:                  29.090
REMARK INTRA:                   1.446
REMARK UNBOUND:                 2.119
REMARK SMILES C=C(CC[C@H](C(=O)[O-])[C@H]1CC[C@]2(C)C3=C(CC[C@@]12C)[C@]1(C)CC[C@H](O)C(C)(C)[C@@H]1CC3)C(C)C
REMARK SMILES IDX 4 1 5 2 6 3 7 4 8 5 9 6 10 7 18 8 11 9 12 10 17 11 19 12
REMARK SMILES IDX 13 13 14 14 16 15 15 16 31 17 20 18 30 19 29 20 22 21 21 22
REMARK SMILES IDX 26 23 23 24 24 25 27 26 28 27 25 28 3 30 2 31 1 32 32 33
REMARK SMILES IDX 33 34 34 35
REMARK H PARENT 25 29
REMARK Flexibility Score: inf
ROOT
ATOM      1  C   UNL     1      26.291  41.697  20.725  1.00  0.00     0.014 C 
ENDROOT
BRANCH   1   2
ATOM      2  C   UNL     1      27.385  41.982  19.679  1.00  0.00     0.039 C 
BRANCH   2   3
ATOM      3  C   UNL     1      27.568  43.389  19.173  1.00  0.00     0.045 C 
ATOM      4  O   UNL     1      26.497  44.098  19.035  1.00  0.00    -0.550 OA
ATOM      5  O   UNL     1      28.650  44.084  19.535  1.00  0.00    -0.550 OA
ENDBRANCH   2   3
BRANCH   2   6
ATOM      6  C   UNL     1      27.498  40.713  18.739  1.00  0.00     0.004 C 
ATOM      7  C   UNL     1      28.865  40.229  18.206  1.00  0.00     0.006 C 
ATOM      8  C   UNL     1      26.903  39.417  19.414  1.00  0.00    -0.020 C 
ATOM      9  C   UNL     1      29.077  38.779  18.744  1.00  0.00     0.012 C 
ATOM     10  C   UNL     1      28.172  38.744  19.978  1.00  0.00    -0.006 C 
ATOM     11  C   UNL     1      25.880  39.490  20.583  1.00  0.00     0.012 C 
ATOM     12  C   UNL     1      26.209  38.556  18.252  1.00  0.00     0.012 C 
ATOM     13  C   UNL     1      28.983  39.523  21.100  1.00  0.00     0.017 C 
ATOM     14  C   UNL     1      27.835  37.407  20.593  1.00  0.00    -0.064 C 
ATOM     15  C   UNL     1      25.495  38.097  21.075  1.00  0.00     0.032 C 
ATOM     16  C   UNL     1      26.689  37.201  21.343  1.00  0.00    -0.064 C 
ATOM     17  C   UNL     1      28.969  36.453  20.546  1.00  0.00     0.032 C 
ATOM     18  C   UNL     1      26.557  36.034  22.386  1.00  0.00    -0.008 C 
ATOM     19  C   UNL     1      28.969  35.542  21.754  1.00  0.00     0.009 C 
ATOM     20  C   UNL     1      27.593  34.864  22.110  1.00  0.00     0.007 C 
ATOM     21  C   UNL     1      26.879  36.640  23.791  1.00  0.00     0.014 C 
ATOM     22  C   UNL     1      25.080  35.540  22.358  1.00  0.00     0.016 C 
ATOM     23  C   UNL     1      27.796  33.756  23.273  1.00  0.00    -0.006 C 
ATOM     24  C   UNL     1      26.720  35.545  24.858  1.00  0.00     0.033 C 
ATOM     25  C   UNL     1      27.840  34.471  24.714  1.00  0.00     0.120 C 
ATOM     26  C   UNL     1      29.121  32.883  23.053  1.00  0.00     0.014 C 
ATOM     27  C   UNL     1      26.587  32.764  23.228  1.00  0.00     0.014 C 
BRANCH  25  28
ATOM     28  O   UNL     1      29.108  35.011  25.013  1.00  0.00    -0.393 OA
ATOM     29  H   UNL     1      29.832  34.390  24.746  1.00  0.00     0.210 HD
ENDBRANCH  25  28
ENDBRANCH   2   6
ENDBRANCH   1   2
BRANCH   1  30
ATOM     30  C   UNL     1      26.156  42.678  21.936  1.00  0.00     0.031 C 
BRANCH  30  31
ATOM     31  C   UNL     1      27.445  42.836  22.746  1.00  0.00    -0.075 C 
ATOM     32  C   UNL     1      28.475  41.934  22.669  1.00  0.00     0.008 C 
BRANCH  31  33
ATOM     33  C   UNL     1      27.548  43.928  23.864  1.00  0.00     0.008 C 
ATOM     34  C   UNL     1      26.301  43.959  24.719  1.00  0.00     0.012 C 
ATOM     35  C   UNL     1      28.804  43.776  24.779  1.00  0.00     0.012 C 
ENDBRANCH  31  33
ENDBRANCH  30  31
ENDBRANCH   1  30
TORSDOF 7
ENDMDL
