MODEL 1
REMARK VINA RESULT:    -4.436      0.000      0.000
REMARK INTER + INTRA:          -6.936
REMARK INTER:                  -5.992
REMARK INTRA:                  -0.944
REMARK UNBOUND:                -0.944
REMARK SMILES O=c1c(-c2ccc(O)cc2)coc2c([C@H]3O[C@@H](CO)[C@H](O)[C@H](O)[C@@H]3O)c(O)ccc12
REMARK SMILES IDX 3 1 11 2 12 3 13 4 30 5 2 6 1 7 29 8 28 9 26 10 14 11 4 12
REMARK SMILES IDX 5 13 6 14 7 15 10 16 9 17 8 18 15 20 24 21 16 22 22 23 17 24
REMARK SMILES IDX 20 25 25 26 23 28 18 30 19 31 21 33 27 35
REMARK H PARENT 8 19 25 27 23 29 19 32 21 34 27 36
REMARK Flexibility Score: inf
ROOT
ATOM      1  C   UNL     1      11.158   4.557   1.184  1.00  0.00     0.065 A 
ATOM      2  C   UNL     1      11.138   4.277   2.558  1.00  0.00     0.208 A 
ATOM      3  O   UNL     1      10.731   5.187   3.433  1.00  0.00    -0.463 OA
ATOM      4  C   UNL     1      10.323   6.404   3.082  1.00  0.00     0.147 A 
ATOM      5  C   UNL     1      10.320   6.774   1.717  1.00  0.00     0.066 A 
ATOM      6  C   UNL     1      10.748   5.834   0.762  1.00  0.00     0.200 A 
ATOM      7  O   UNL     1      10.783   6.141  -0.462  1.00  0.00    -0.288 OA
ATOM      8  C   UNL     1       9.906   8.065   1.351  1.00  0.00     0.020 A 
ATOM      9  C   UNL     1       9.513   8.979   2.326  1.00  0.00     0.047 A 
ATOM     10  C   UNL     1       9.516   8.623   3.680  1.00  0.00     0.125 A 
ATOM     11  C   UNL     1       9.900   7.321   4.073  1.00  0.00     0.069 A 
ENDROOT
BRANCH   1  12
ATOM     12  C   UNL     1      11.613   3.520   0.224  1.00  0.00    -0.011 A 
ATOM     13  C   UNL     1      12.893   3.601  -0.353  1.00  0.00     0.013 A 
ATOM     14  C   UNL     1      13.327   2.621  -1.252  1.00  0.00     0.047 A 
ATOM     15  C   UNL     1      12.494   1.549  -1.580  1.00  0.00     0.115 A 
ATOM     16  C   UNL     1      10.783   2.434  -0.106  1.00  0.00     0.013 A 
ATOM     17  C   UNL     1      11.221   1.456  -1.005  1.00  0.00     0.047 A 
BRANCH  15  18
ATOM     18  O   UNL     1      12.941   0.580  -2.477  1.00  0.00    -0.508 OA
ATOM     19  H   UNL     1      13.771   0.028  -2.291  1.00  0.00     0.293 HD
ENDBRANCH  15  18
ENDBRANCH   1  12
BRANCH  11  20
ATOM     20  C   UNL     1       9.932   6.940   5.547  1.00  0.00     0.188 C 
ATOM     21  C   UNL     1       8.480   6.775   6.104  1.00  0.00     0.179 C 
ATOM     22  O   UNL     1      10.676   7.916   6.264  1.00  0.00    -0.362 OA
ATOM     23  C   UNL     1       8.188   7.782   7.238  1.00  0.00     0.177 C 
ATOM     24  C   UNL     1      10.712   7.597   7.643  1.00  0.00     0.176 C 
ATOM     25  C   UNL     1       9.320   7.821   8.295  1.00  0.00     0.177 C 
BRANCH  21  26
ATOM     26  O   UNL     1       8.248   5.453   6.528  1.00  0.00    -0.387 OA
ATOM     27  H   UNL     1       8.978   5.196   7.149  1.00  0.00     0.211 HD
ENDBRANCH  21  26
BRANCH  23  28
ATOM     28  O   UNL     1       6.948   7.488   7.829  1.00  0.00    -0.387 OA
ATOM     29  H   UNL     1       6.313   8.188   7.526  1.00  0.00     0.211 HD
ENDBRANCH  23  28
BRANCH  24  30
ATOM     30  C   UNL     1      11.793   8.458   8.314  1.00  0.00     0.191 C 
BRANCH  30  31
ATOM     31  O   UNL     1      12.102   7.969   9.592  1.00  0.00    -0.394 OA
ATOM     32  H   UNL     1      11.299   8.116  10.155  1.00  0.00     0.210 HD
ENDBRANCH  30  31
ENDBRANCH  24  30
BRANCH  25  33
ATOM     33  O   UNL     1       9.112   6.840   9.282  1.00  0.00    -0.388 OA
ATOM     34  H   UNL     1       8.333   7.129   9.824  1.00  0.00     0.211 HD
ENDBRANCH  25  33
ENDBRANCH  11  20
BRANCH  10  35
ATOM     35  O   UNL     1       9.142   9.568   4.637  1.00  0.00    -0.507 OA
ATOM     36  H   UNL     1       8.179   9.861   4.748  1.00  0.00     0.293 HD
ENDBRANCH  10  35
TORSDOF 9
ENDMDL
MODEL 2
REMARK VINA RESULT:    -4.321      1.760      2.065
REMARK INTER + INTRA:          -6.781
REMARK INTER:                  -6.414
REMARK INTRA:                  -0.367
REMARK UNBOUND:                -0.944
REMARK SMILES O=c1c(-c2ccc(O)cc2)coc2c([C@H]3O[C@@H](CO)[C@H](O)[C@H](O)[C@@H]3O)c(O)ccc12
REMARK SMILES IDX 3 1 11 2 12 3 13 4 30 5 2 6 1 7 29 8 28 9 26 10 14 11 4 12
REMARK SMILES IDX 5 13 6 14 7 15 10 16 9 17 8 18 15 20 24 21 16 22 22 23 17 24
REMARK SMILES IDX 20 25 25 26 23 28 18 30 19 31 21 33 27 35
REMARK H PARENT 8 19 25 27 23 29 19 32 21 34 27 36
REMARK Flexibility Score: inf
ROOT
ATOM      1  C   UNL     1      11.449   4.176   0.880  1.00  0.00     0.065 A 
ATOM      2  C   UNL     1      11.005   4.017   2.200  1.00  0.00     0.208 A 
ATOM      3  O   UNL     1      11.259   4.938   3.121  1.00  0.00    -0.463 OA
ATOM      4  C   UNL     1      11.936   6.054   2.867  1.00  0.00     0.147 A 
ATOM      5  C   UNL     1      12.429   6.293   1.563  1.00  0.00     0.066 A 
ATOM      6  C   UNL     1      12.181   5.335   0.563  1.00  0.00     0.200 A 
ATOM      7  O   UNL     1      12.630   5.503  -0.605  1.00  0.00    -0.288 OA
ATOM      8  C   UNL     1      13.160   7.462   1.302  1.00  0.00     0.020 A 
ATOM      9  C   UNL     1      13.408   8.377   2.323  1.00  0.00     0.047 A 
ATOM     10  C   UNL     1      12.928   8.148   3.618  1.00  0.00     0.125 A 
ATOM     11  C   UNL     1      12.165   6.993   3.901  1.00  0.00     0.069 A 
ENDROOT
BRANCH   1  12
ATOM     12  C   UNL     1      11.149   3.134  -0.134  1.00  0.00    -0.011 A 
ATOM     13  C   UNL     1      11.566   1.807   0.070  1.00  0.00     0.013 A 
ATOM     14  C   UNL     1      11.278   0.820  -0.879  1.00  0.00     0.047 A 
ATOM     15  C   UNL     1      10.565   1.145  -2.036  1.00  0.00     0.115 A 
ATOM     16  C   UNL     1      10.426   3.451  -1.297  1.00  0.00     0.013 A 
ATOM     17  C   UNL     1      10.139   2.463  -2.244  1.00  0.00     0.047 A 
BRANCH  15  18
ATOM     18  O   UNL     1      10.286   0.152  -2.973  1.00  0.00    -0.508 OA
ATOM     19  H   UNL     1      10.829   0.060  -3.825  1.00  0.00     0.293 HD
ENDBRANCH  15  18
ENDBRANCH   1  12
BRANCH  11  20
ATOM     20  C   UNL     1      11.666   6.727   5.315  1.00  0.00     0.188 C 
ATOM     21  C   UNL     1      10.103   6.713   5.352  1.00  0.00     0.179 C 
ATOM     22  O   UNL     1      12.216   7.699   6.193  1.00  0.00    -0.362 OA
ATOM     23  C   UNL     1       9.545   7.823   6.269  1.00  0.00     0.177 C 
ATOM     24  C   UNL     1      11.758   7.486   7.516  1.00  0.00     0.176 C 
ATOM     25  C   UNL     1      10.257   7.862   7.645  1.00  0.00     0.177 C 
BRANCH  21  26
ATOM     26  O   UNL     1       9.617   5.448   5.735  1.00  0.00    -0.387 OA
ATOM     27  H   UNL     1       9.416   5.477   6.706  1.00  0.00     0.211 HD
ENDBRANCH  21  26
BRANCH  23  28
ATOM     28  O   UNL     1       8.157   7.668   6.416  1.00  0.00    -0.387 OA
ATOM     29  H   UNL     1       8.019   6.940   7.077  1.00  0.00     0.211 HD
ENDBRANCH  23  28
BRANCH  24  30
ATOM     30  C   UNL     1      12.629   8.316   8.472  1.00  0.00     0.191 C 
BRANCH  30  31
ATOM     31  O   UNL     1      12.423   7.927   9.804  1.00  0.00    -0.394 OA
ATOM     32  H   UNL     1      11.460   7.705   9.890  1.00  0.00     0.210 HD
ENDBRANCH  30  31
ENDBRANCH  24  30
BRANCH  25  33
ATOM     33  O   UNL     1       9.638   6.979   8.548  1.00  0.00    -0.388 OA
ATOM     34  H   UNL     1      10.346   6.385   8.909  1.00  0.00     0.211 HD
ENDBRANCH  25  33
ENDBRANCH  11  20
BRANCH  10  35
ATOM     35  O   UNL     1      13.215   9.070   4.627  1.00  0.00    -0.507 OA
ATOM     36  H   UNL     1      12.583   9.829   4.851  1.00  0.00     0.293 HD
ENDBRANCH  10  35
TORSDOF 9
ENDMDL
MODEL 3
REMARK VINA RESULT:    -4.207      3.322      5.881
REMARK INTER + INTRA:          -6.627
REMARK INTER:                  -5.466
REMARK INTRA:                  -1.161
REMARK UNBOUND:                -0.944
REMARK SMILES O=c1c(-c2ccc(O)cc2)coc2c([C@H]3O[C@@H](CO)[C@H](O)[C@H](O)[C@@H]3O)c(O)ccc12
REMARK SMILES IDX 3 1 11 2 12 3 13 4 30 5 2 6 1 7 29 8 28 9 26 10 14 11 4 12
REMARK SMILES IDX 5 13 6 14 7 15 10 16 9 17 8 18 15 20 24 21 16 22 22 23 17 24
REMARK SMILES IDX 20 25 25 26 23 28 18 30 19 31 21 33 27 35
REMARK H PARENT 8 19 25 27 23 29 19 32 21 34 27 36
REMARK Flexibility Score: inf
ROOT
ATOM      1  C   UNL     1      11.972   6.401   4.054  1.00  0.00     0.065 A 
ATOM      2  C   UNL     1      13.328   6.397   4.408  1.00  0.00     0.208 A 
ATOM      3  O   UNL     1      13.719   6.786   5.614  1.00  0.00    -0.463 OA
ATOM      4  C   UNL     1      12.875   7.200   6.555  1.00  0.00     0.147 A 
ATOM      5  C   UNL     1      11.489   7.246   6.281  1.00  0.00     0.066 A 
ATOM      6  C   UNL     1      11.039   6.843   5.010  1.00  0.00     0.200 A 
ATOM      7  O   UNL     1       9.811   6.897   4.723  1.00  0.00    -0.288 OA
ATOM      8  C   UNL     1      10.602   7.701   7.269  1.00  0.00     0.020 A 
ATOM      9  C   UNL     1      11.084   8.117   8.508  1.00  0.00     0.047 A 
ATOM     10  C   UNL     1      12.456   8.080   8.788  1.00  0.00     0.125 A 
ATOM     11  C   UNL     1      13.366   7.598   7.821  1.00  0.00     0.069 A 
ENDROOT
BRANCH   1  12
ATOM     12  C   UNL     1      11.558   5.956   2.699  1.00  0.00    -0.011 A 
ATOM     13  C   UNL     1      11.545   6.867   1.627  1.00  0.00     0.013 A 
ATOM     14  C   UNL     1      11.164   6.449   0.348  1.00  0.00     0.047 A 
ATOM     15  C   UNL     1      10.798   5.119   0.123  1.00  0.00     0.115 A 
ATOM     16  C   UNL     1      11.196   4.618   2.463  1.00  0.00     0.013 A 
ATOM     17  C   UNL     1      10.816   4.204   1.182  1.00  0.00     0.047 A 
BRANCH  15  18
ATOM     18  O   UNL     1      10.421   4.717  -1.157  1.00  0.00    -0.508 OA
ATOM     19  H   UNL     1      10.928   3.995  -1.657  1.00  0.00     0.293 HD
ENDBRANCH  15  18
ENDBRANCH   1  12
BRANCH  11  20
ATOM     20  C   UNL     1      14.861   7.583   8.112  1.00  0.00     0.188 C 
ATOM     21  C   UNL     1      15.232   6.365   9.020  1.00  0.00     0.179 C 
ATOM     22  O   UNL     1      15.234   8.823   8.698  1.00  0.00    -0.362 OA
ATOM     23  C   UNL     1      15.829   6.820  10.368  1.00  0.00     0.177 C 
ATOM     24  C   UNL     1      16.619   8.835   8.994  1.00  0.00     0.176 C 
ATOM     25  C   UNL     1      16.932   7.894  10.191  1.00  0.00     0.177 C 
BRANCH  21  26
ATOM     26  O   UNL     1      16.103   5.483   8.351  1.00  0.00    -0.387 OA
ATOM     27  H   UNL     1      16.635   4.999   9.035  1.00  0.00     0.211 HD
ENDBRANCH  21  26
BRANCH  23  28
ATOM     28  O   UNL     1      16.311   5.707  11.077  1.00  0.00    -0.387 OA
ATOM     29  H   UNL     1      15.821   4.915  10.733  1.00  0.00     0.211 HD
ENDBRANCH  23  28
BRANCH  24  30
ATOM     30  C   UNL     1      17.040  10.282   9.292  1.00  0.00     0.191 C 
BRANCH  30  31
ATOM     31  O   UNL     1      18.238  10.315  10.022  1.00  0.00    -0.394 OA
ATOM     32  H   UNL     1      18.575   9.383  10.058  1.00  0.00     0.210 HD
ENDBRANCH  30  31
ENDBRANCH  24  30
BRANCH  25  33
ATOM     33  O   UNL     1      18.185   7.290   9.982  1.00  0.00    -0.388 OA
ATOM     34  H   UNL     1      18.042   6.308   9.988  1.00  0.00     0.211 HD
ENDBRANCH  25  33
ENDBRANCH  11  20
BRANCH  10  35
ATOM     35  O   UNL     1      12.913   8.527  10.029  1.00  0.00    -0.507 OA
ATOM     36  H   UNL     1      12.273   8.782  10.772  1.00  0.00     0.293 HD
ENDBRANCH  10  35
TORSDOF 9
ENDMDL
MODEL 4
REMARK VINA RESULT:    -4.132      3.607      9.416
REMARK INTER + INTRA:          -6.525
REMARK INTER:                  -5.391
REMARK INTRA:                  -1.134
REMARK UNBOUND:                -0.944
REMARK SMILES O=c1c(-c2ccc(O)cc2)coc2c([C@H]3O[C@@H](CO)[C@H](O)[C@H](O)[C@@H]3O)c(O)ccc12
REMARK SMILES IDX 3 1 11 2 12 3 13 4 30 5 2 6 1 7 29 8 28 9 26 10 14 11 4 12
REMARK SMILES IDX 5 13 6 14 7 15 10 16 9 17 8 18 15 20 24 21 16 22 22 23 17 24
REMARK SMILES IDX 20 25 25 26 23 28 18 30 19 31 21 33 27 35
REMARK H PARENT 8 19 25 27 23 29 19 32 21 34 27 36
REMARK Flexibility Score: inf
ROOT
ATOM      1  C   UNL     1      14.123   8.062   9.492  1.00  0.00     0.065 A 
ATOM      2  C   UNL     1      12.827   7.956   8.969  1.00  0.00     0.208 A 
ATOM      3  O   UNL     1      12.630   7.685   7.685  1.00  0.00    -0.463 OA
ATOM      4  C   UNL     1      13.623   7.499   6.819  1.00  0.00     0.147 A 
ATOM      5  C   UNL     1      14.964   7.597   7.260  1.00  0.00     0.066 A 
ATOM      6  C   UNL     1      15.209   7.886   8.615  1.00  0.00     0.200 A 
ATOM      7  O   UNL     1      16.393   8.008   9.036  1.00  0.00    -0.288 OA
ATOM      8  C   UNL     1      16.009   7.419   6.341  1.00  0.00     0.020 A 
ATOM      9  C   UNL     1      15.730   7.159   5.001  1.00  0.00     0.047 A 
ATOM     10  C   UNL     1      14.406   7.064   4.554  1.00  0.00     0.125 A 
ATOM     11  C   UNL     1      13.336   7.210   5.465  1.00  0.00     0.069 A 
ENDROOT
BRANCH   1  12
ATOM     12  C   UNL     1      14.318   8.361  10.934  1.00  0.00    -0.011 A 
ATOM     13  C   UNL     1      14.442   7.314  11.864  1.00  0.00     0.013 A 
ATOM     14  C   UNL     1      14.634   7.593  13.221  1.00  0.00     0.047 A 
ATOM     15  C   UNL     1      14.711   8.916  13.664  1.00  0.00     0.115 A 
ATOM     16  C   UNL     1      14.404   9.690  11.386  1.00  0.00     0.013 A 
ATOM     17  C   UNL     1      14.596   9.965  12.743  1.00  0.00     0.047 A 
BRANCH  15  18
ATOM     18  O   UNL     1      14.902   9.178  15.019  1.00  0.00    -0.508 OA
ATOM     19  H   UNL     1      14.723   8.472  15.725  1.00  0.00     0.293 HD
ENDBRANCH  15  18
ENDBRANCH   1  12
BRANCH  11  20
ATOM     20  C   UNL     1      11.895   7.136   4.976  1.00  0.00     0.188 C 
ATOM     21  C   UNL     1      11.482   5.651   4.706  1.00  0.00     0.179 C 
ATOM     22  O   UNL     1      11.752   7.952   3.823  1.00  0.00    -0.362 OA
ATOM     23  C   UNL     1      11.108   5.425   3.226  1.00  0.00     0.177 C 
ATOM     24  C   UNL     1      10.423   7.893   3.335  1.00  0.00     0.176 C 
ATOM     25  C   UNL     1      10.136   6.508   2.693  1.00  0.00     0.177 C 
BRANCH  21  26
ATOM     26  O   UNL     1      10.436   5.254   5.560  1.00  0.00    -0.387 OA
ATOM     27  H   UNL     1      10.647   4.348   5.904  1.00  0.00     0.211 HD
ENDBRANCH  21  26
BRANCH  23  28
ATOM     28  O   UNL     1      10.576   4.136   3.059  1.00  0.00    -0.387 OA
ATOM     29  H   UNL     1      10.380   3.788   3.968  1.00  0.00     0.211 HD
ENDBRANCH  23  28
BRANCH  24  30
ATOM     30  C   UNL     1      10.224   9.033   2.326  1.00  0.00     0.191 C 
BRANCH  30  31
ATOM     31  O   UNL     1       9.207   8.720   1.411  1.00  0.00    -0.394 OA
ATOM     32  H   UNL     1       9.600   8.092   0.752  1.00  0.00     0.210 HD
ENDBRANCH  30  31
ENDBRANCH  24  30
BRANCH  25  33
ATOM     33  O   UNL     1       8.801   6.148   2.955  1.00  0.00    -0.388 OA
ATOM     34  H   UNL     1       8.235   6.609   2.283  1.00  0.00     0.211 HD
ENDBRANCH  25  33
ENDBRANCH  11  20
BRANCH  10  35
ATOM     35  O   UNL     1      14.156   6.829   3.201  1.00  0.00    -0.507 OA
ATOM     36  H   UNL     1      13.495   6.125   2.896  1.00  0.00     0.293 HD
ENDBRANCH  10  35
TORSDOF 9
ENDMDL
MODEL 5
REMARK VINA RESULT:    -4.125      4.414      6.647
REMARK INTER + INTRA:          -6.516
REMARK INTER:                  -5.942
REMARK INTRA:                  -0.574
REMARK UNBOUND:                -0.944
REMARK SMILES O=c1c(-c2ccc(O)cc2)coc2c([C@H]3O[C@@H](CO)[C@H](O)[C@H](O)[C@@H]3O)c(O)ccc12
REMARK SMILES IDX 3 1 11 2 12 3 13 4 30 5 2 6 1 7 29 8 28 9 26 10 14 11 4 12
REMARK SMILES IDX 5 13 6 14 7 15 10 16 9 17 8 18 15 20 24 21 16 22 22 23 17 24
REMARK SMILES IDX 20 25 25 26 23 28 18 30 19 31 21 33 27 35
REMARK H PARENT 8 19 25 27 23 29 19 32 21 34 27 36
REMARK Flexibility Score: inf
ROOT
ATOM      1  C   UNL     1       5.488   6.500   3.906  1.00  0.00     0.065 A 
ATOM      2  C   UNL     1       6.762   7.015   3.627  1.00  0.00     0.208 A 
ATOM      3  O   UNL     1       7.678   7.119   4.580  1.00  0.00    -0.463 OA
ATOM      4  C   UNL     1       7.464   6.753   5.841  1.00  0.00     0.147 A 
ATOM      5  C   UNL     1       6.203   6.231   6.213  1.00  0.00     0.066 A 
ATOM      6  C   UNL     1       5.206   6.109   5.227  1.00  0.00     0.200 A 
ATOM      7  O   UNL     1       4.061   5.673   5.531  1.00  0.00    -0.288 OA
ATOM      8  C   UNL     1       5.973   5.863   7.548  1.00  0.00     0.020 A 
ATOM      9  C   UNL     1       6.975   6.021   8.503  1.00  0.00     0.047 A 
ATOM     10  C   UNL     1       8.225   6.540   8.145  1.00  0.00     0.125 A 
ATOM     11  C   UNL     1       8.492   6.891   6.803  1.00  0.00     0.069 A 
ENDROOT
BRANCH   1  12
ATOM     12  C   UNL     1       4.480   6.388   2.821  1.00  0.00    -0.011 A 
ATOM     13  C   UNL     1       3.620   7.465   2.540  1.00  0.00     0.013 A 
ATOM     14  C   UNL     1       2.675   7.366   1.513  1.00  0.00     0.047 A 
ATOM     15  C   UNL     1       2.582   6.197   0.753  1.00  0.00     0.115 A 
ATOM     16  C   UNL     1       4.385   5.218   2.048  1.00  0.00     0.013 A 
ATOM     17  C   UNL     1       3.440   5.123   1.022  1.00  0.00     0.047 A 
BRANCH  15  18
ATOM     18  O   UNL     1       1.635   6.113  -0.266  1.00  0.00    -0.508 OA
ATOM     19  H   UNL     1       1.887   5.802  -1.198  1.00  0.00     0.293 HD
ENDBRANCH  15  18
ENDBRANCH   1  12
BRANCH  11  20
ATOM     20  C   UNL     1       9.841   7.483   6.416  1.00  0.00     0.188 C 
ATOM     21  C   UNL     1      10.537   6.602   5.327  1.00  0.00     0.179 C 
ATOM     22  O   UNL     1      10.639   7.626   7.583  1.00  0.00    -0.362 OA
ATOM     23  C   UNL     1      11.880   6.030   5.831  1.00  0.00     0.177 C 
ATOM     24  C   UNL     1      11.908   8.162   7.254  1.00  0.00     0.176 C 
ATOM     25  C   UNL     1      12.767   7.113   6.496  1.00  0.00     0.177 C 
BRANCH  21  26
ATOM     26  O   UNL     1      10.708   7.320   4.129  1.00  0.00    -0.387 OA
ATOM     27  H   UNL     1      11.379   8.033   4.291  1.00  0.00     0.211 HD
ENDBRANCH  21  26
BRANCH  23  28
ATOM     28  O   UNL     1      12.554   5.397   4.774  1.00  0.00    -0.387 OA
ATOM     29  H   UNL     1      12.479   5.996   3.986  1.00  0.00     0.211 HD
ENDBRANCH  23  28
BRANCH  24  30
ATOM     30  C   UNL     1      12.594   8.620   8.550  1.00  0.00     0.191 C 
BRANCH  30  31
ATOM     31  O   UNL     1      12.082   7.928   9.659  1.00  0.00    -0.394 OA
ATOM     32  H   UNL     1      11.281   8.429   9.961  1.00  0.00     0.210 HD
ENDBRANCH  30  31
ENDBRANCH  24  30
BRANCH  25  33
ATOM     33  O   UNL     1      13.551   7.773   5.532  1.00  0.00    -0.388 OA
ATOM     34  H   UNL     1      13.010   8.524   5.177  1.00  0.00     0.211 HD
ENDBRANCH  25  33
ENDBRANCH  11  20
BRANCH  10  35
ATOM     35  O   UNL     1       9.201   6.712   9.128  1.00  0.00    -0.507 OA
ATOM     36  H   UNL     1       8.962   6.986  10.074  1.00  0.00     0.293 HD
ENDBRANCH  10  35
TORSDOF 9
ENDMDL
MODEL 6
REMARK VINA RESULT:    -4.023      3.911      6.503
REMARK INTER + INTRA:          -6.378
REMARK INTER:                  -5.273
REMARK INTRA:                  -1.105
REMARK UNBOUND:                -0.944
REMARK SMILES O=c1c(-c2ccc(O)cc2)coc2c([C@H]3O[C@@H](CO)[C@H](O)[C@H](O)[C@@H]3O)c(O)ccc12
REMARK SMILES IDX 3 1 11 2 12 3 13 4 30 5 2 6 1 7 29 8 28 9 26 10 14 11 4 12
REMARK SMILES IDX 5 13 6 14 7 15 10 16 9 17 8 18 15 20 24 21 16 22 22 23 17 24
REMARK SMILES IDX 20 25 25 26 23 28 18 30 19 31 21 33 27 35
REMARK H PARENT 8 19 25 27 23 29 19 32 21 34 27 36
REMARK Flexibility Score: inf
ROOT
ATOM      1  C   UNL     1      12.786   6.775   4.482  1.00  0.00     0.065 A 
ATOM      2  C   UNL     1      12.310   6.592   5.788  1.00  0.00     0.208 A 
ATOM      3  O   UNL     1      13.127   6.680   6.830  1.00  0.00    -0.463 OA
ATOM      4  C   UNL     1      14.427   6.942   6.716  1.00  0.00     0.147 A 
ATOM      5  C   UNL     1      14.993   7.131   5.434  1.00  0.00     0.066 A 
ATOM      6  C   UNL     1      14.155   7.042   4.307  1.00  0.00     0.200 A 
ATOM      7  O   UNL     1      14.634   7.179   3.147  1.00  0.00    -0.288 OA
ATOM      8  C   UNL     1      16.368   7.389   5.316  1.00  0.00     0.020 A 
ATOM      9  C   UNL     1      17.172   7.445   6.452  1.00  0.00     0.047 A 
ATOM     10  C   UNL     1      16.621   7.255   7.725  1.00  0.00     0.125 A 
ATOM     11  C   UNL     1      15.236   7.024   7.874  1.00  0.00     0.069 A 
ENDROOT
BRANCH   1  12
ATOM     12  C   UNL     1      11.851   6.676   3.333  1.00  0.00    -0.011 A 
ATOM     13  C   UNL     1      11.461   5.417   2.843  1.00  0.00     0.013 A 
ATOM     14  C   UNL     1      10.574   5.320   1.765  1.00  0.00     0.047 A 
ATOM     15  C   UNL     1      10.062   6.476   1.170  1.00  0.00     0.115 A 
ATOM     16  C   UNL     1      11.326   7.834   2.733  1.00  0.00     0.013 A 
ATOM     17  C   UNL     1      10.439   7.734   1.657  1.00  0.00     0.047 A 
BRANCH  15  18
ATOM     18  O   UNL     1       9.180   6.364   0.098  1.00  0.00    -0.508 OA
ATOM     19  H   UNL     1       8.490   5.622   0.055  1.00  0.00     0.293 HD
ENDBRANCH  15  18
ENDBRANCH   1  12
BRANCH  11  20
ATOM     20  C   UNL     1      14.639   6.787   9.255  1.00  0.00     0.188 C 
ATOM     21  C   UNL     1      14.280   8.148   9.938  1.00  0.00     0.179 C 
ATOM     22  O   UNL     1      15.549   6.020  10.031  1.00  0.00    -0.362 OA
ATOM     23  C   UNL     1      15.076   8.357  11.244  1.00  0.00     0.177 C 
ATOM     24  C   UNL     1      15.028   5.796  11.328  1.00  0.00     0.176 C 
ATOM     25  C   UNL     1      15.042   7.108  12.160  1.00  0.00     0.177 C 
BRANCH  21  26
ATOM     26  O   UNL     1      12.894   8.248  10.168  1.00  0.00    -0.387 OA
ATOM     27  H   UNL     1      12.710   7.913  11.083  1.00  0.00     0.211 HD
ENDBRANCH  21  26
BRANCH  23  28
ATOM     28  O   UNL     1      14.601   9.495  11.916  1.00  0.00    -0.387 OA
ATOM     29  H   UNL     1      14.012   9.978  11.279  1.00  0.00     0.211 HD
ENDBRANCH  23  28
BRANCH  24  30
ATOM     30  C   UNL     1      15.859   4.693  12.002  1.00  0.00     0.191 C 
BRANCH  30  31
ATOM     31  O   UNL     1      16.086   4.993  13.354  1.00  0.00    -0.394 OA
ATOM     32  H   UNL     1      16.677   4.280  13.709  1.00  0.00     0.210 HD
ENDBRANCH  30  31
ENDBRANCH  24  30
BRANCH  25  33
ATOM     33  O   UNL     1      13.909   7.134  12.994  1.00  0.00    -0.388 OA
ATOM     34  H   UNL     1      13.334   6.370  12.732  1.00  0.00     0.211 HD
ENDBRANCH  25  33
ENDBRANCH  11  20
BRANCH  10  35
ATOM     35  O   UNL     1      17.456   7.291   8.843  1.00  0.00    -0.507 OA
ATOM     36  H   UNL     1      17.478   6.535   9.517  1.00  0.00     0.293 HD
ENDBRANCH  10  35
TORSDOF 9
ENDMDL
MODEL 7
REMARK VINA RESULT:    -3.993      3.120      4.090
REMARK INTER + INTRA:          -6.338
REMARK INTER:                  -5.450
REMARK INTRA:                  -0.888
REMARK UNBOUND:                -0.944
REMARK SMILES O=c1c(-c2ccc(O)cc2)coc2c([C@H]3O[C@@H](CO)[C@H](O)[C@H](O)[C@@H]3O)c(O)ccc12
REMARK SMILES IDX 3 1 11 2 12 3 13 4 30 5 2 6 1 7 29 8 28 9 26 10 14 11 4 12
REMARK SMILES IDX 5 13 6 14 7 15 10 16 9 17 8 18 15 20 24 21 16 22 22 23 17 24
REMARK SMILES IDX 20 25 25 26 23 28 18 30 19 31 21 33 27 35
REMARK H PARENT 8 19 25 27 23 29 19 32 21 34 27 36
REMARK Flexibility Score: inf
ROOT
ATOM      1  C   UNL     1      12.121   5.742   1.745  1.00  0.00     0.065 A 
ATOM      2  C   UNL     1      11.770   5.510   3.082  1.00  0.00     0.208 A 
ATOM      3  O   UNL     1      12.396   6.135   4.070  1.00  0.00    -0.463 OA
ATOM      4  C   UNL     1      13.380   7.009   3.872  1.00  0.00     0.147 A 
ATOM      5  C   UNL     1      13.805   7.297   2.555  1.00  0.00     0.066 A 
ATOM      6  C   UNL     1      13.164   6.648   1.483  1.00  0.00     0.200 A 
ATOM      7  O   UNL     1      13.538   6.862   0.296  1.00  0.00    -0.288 OA
ATOM      8  C   UNL     1      14.855   8.204   2.349  1.00  0.00     0.020 A 
ATOM      9  C   UNL     1      15.484   8.809   3.436  1.00  0.00     0.047 A 
ATOM     10  C   UNL     1      15.073   8.527   4.744  1.00  0.00     0.125 A 
ATOM     11  C   UNL     1      13.998   7.640   4.977  1.00  0.00     0.069 A 
ENDROOT
BRANCH   1  12
ATOM     12  C   UNL     1      11.403   5.033   0.656  1.00  0.00    -0.011 A 
ATOM     13  C   UNL     1      10.516   5.734  -0.181  1.00  0.00     0.013 A 
ATOM     14  C   UNL     1       9.844   5.071  -1.213  1.00  0.00     0.047 A 
ATOM     15  C   UNL     1      10.054   3.705  -1.425  1.00  0.00     0.115 A 
ATOM     16  C   UNL     1      11.613   3.661   0.432  1.00  0.00     0.013 A 
ATOM     17  C   UNL     1      10.940   3.002  -0.601  1.00  0.00     0.047 A 
BRANCH  15  18
ATOM     18  O   UNL     1       9.376   3.058  -2.457  1.00  0.00    -0.508 OA
ATOM     19  H   UNL     1       9.398   3.412  -3.407  1.00  0.00     0.293 HD
ENDBRANCH  15  18
ENDBRANCH   1  12
BRANCH  11  20
ATOM     20  C   UNL     1      13.568   7.310   6.400  1.00  0.00     0.188 C 
ATOM     21  C   UNL     1      12.654   8.441   6.974  1.00  0.00     0.179 C 
ATOM     22  O   UNL     1      14.724   7.095   7.198  1.00  0.00    -0.362 OA
ATOM     23  C   UNL     1      13.283   9.106   8.217  1.00  0.00     0.177 C 
ATOM     24  C   UNL     1      14.356   6.800   8.534  1.00  0.00     0.176 C 
ATOM     25  C   UNL     1      13.800   8.065   9.243  1.00  0.00     0.177 C 
BRANCH  21  26
ATOM     26  O   UNL     1      11.364   7.953   7.258  1.00  0.00    -0.387 OA
ATOM     27  H   UNL     1      10.788   8.130   6.470  1.00  0.00     0.211 HD
ENDBRANCH  21  26
BRANCH  23  28
ATOM     28  O   UNL     1      12.361   9.987   8.806  1.00  0.00    -0.387 OA
ATOM     29  H   UNL     1      11.985   9.521   9.598  1.00  0.00     0.211 HD
ENDBRANCH  23  28
BRANCH  24  30
ATOM     30  C   UNL     1      15.586   6.241   9.264  1.00  0.00     0.191 C 
BRANCH  30  31
ATOM     31  O   UNL     1      16.274   5.322   8.457  1.00  0.00    -0.394 OA
ATOM     32  H   UNL     1      15.602   4.668   8.134  1.00  0.00     0.210 HD
ENDBRANCH  30  31
ENDBRANCH  24  30
BRANCH  25  33
ATOM     33  O   UNL     1      12.771   7.682  10.123  1.00  0.00    -0.388 OA
ATOM     34  H   UNL     1      12.392   8.513  10.511  1.00  0.00     0.211 HD
ENDBRANCH  25  33
ENDBRANCH  11  20
BRANCH  10  35
ATOM     35  O   UNL     1      15.739   9.128   5.814  1.00  0.00    -0.507 OA
ATOM     36  H   UNL     1      16.653   9.551   5.703  1.00  0.00     0.293 HD
ENDBRANCH  10  35
TORSDOF 9
ENDMDL
MODEL 8
REMARK VINA RESULT:    -3.884      8.813     10.870
REMARK INTER + INTRA:          -6.191
REMARK INTER:                  -5.075
REMARK INTRA:                  -1.116
REMARK UNBOUND:                -0.944
REMARK SMILES O=c1c(-c2ccc(O)cc2)coc2c([C@H]3O[C@@H](CO)[C@H](O)[C@H](O)[C@@H]3O)c(O)ccc12
REMARK SMILES IDX 3 1 11 2 12 3 13 4 30 5 2 6 1 7 29 8 28 9 26 10 14 11 4 12
REMARK SMILES IDX 5 13 6 14 7 15 10 16 9 17 8 18 15 20 24 21 16 22 22 23 17 24
REMARK SMILES IDX 20 25 25 26 23 28 18 30 19 31 21 33 27 35
REMARK H PARENT 8 19 25 27 23 29 19 32 21 34 27 36
REMARK Flexibility Score: inf
ROOT
ATOM      1  C   UNL     1      14.358  -2.531   4.533  1.00  0.00     0.065 A 
ATOM      2  C   UNL     1      13.233  -2.263   3.741  1.00  0.00     0.208 A 
ATOM      3  O   UNL     1      12.016  -2.602   4.147  1.00  0.00    -0.463 OA
ATOM      4  C   UNL     1      11.778  -3.208   5.308  1.00  0.00     0.147 A 
ATOM      5  C   UNL     1      12.857  -3.524   6.166  1.00  0.00     0.066 A 
ATOM      6  C   UNL     1      14.161  -3.181   5.764  1.00  0.00     0.200 A 
ATOM      7  O   UNL     1      15.149  -3.474   6.494  1.00  0.00    -0.288 OA
ATOM      8  C   UNL     1      12.605  -4.180   7.381  1.00  0.00     0.020 A 
ATOM      9  C   UNL     1      11.303  -4.528   7.735  1.00  0.00     0.047 A 
ATOM     10  C   UNL     1      10.229  -4.222   6.890  1.00  0.00     0.125 A 
ATOM     11  C   UNL     1      10.452  -3.537   5.675  1.00  0.00     0.069 A 
ENDROOT
BRANCH   1  12
ATOM     12  C   UNL     1      15.709  -2.137   4.059  1.00  0.00    -0.011 A 
ATOM     13  C   UNL     1      16.417  -2.965   3.170  1.00  0.00     0.013 A 
ATOM     14  C   UNL     1      17.686  -2.593   2.715  1.00  0.00     0.047 A 
ATOM     15  C   UNL     1      18.259  -1.390   3.135  1.00  0.00     0.115 A 
ATOM     16  C   UNL     1      16.289  -0.924   4.472  1.00  0.00     0.013 A 
ATOM     17  C   UNL     1      17.557  -0.555   4.014  1.00  0.00     0.047 A 
BRANCH  15  18
ATOM     18  O   UNL     1      19.524  -1.033   2.674  1.00  0.00    -0.508 OA
ATOM     19  H   UNL     1      20.365  -1.305   3.170  1.00  0.00     0.293 HD
ENDBRANCH  15  18
ENDBRANCH   1  12
BRANCH  11  20
ATOM     20  C   UNL     1       9.289  -3.229   4.741  1.00  0.00     0.188 C 
ATOM     21  C   UNL     1       8.627  -1.863   5.119  1.00  0.00     0.179 C 
ATOM     22  O   UNL     1       8.363  -4.305   4.781  1.00  0.00    -0.362 OA
ATOM     23  C   UNL     1       7.150  -2.042   5.531  1.00  0.00     0.177 C 
ATOM     24  C   UNL     1       7.260  -4.041   3.931  1.00  0.00     0.176 C 
ATOM     25  C   UNL     1       6.363  -2.923   4.528  1.00  0.00     0.177 C 
BRANCH  21  26
ATOM     26  O   UNL     1       8.753  -0.932   4.071  1.00  0.00    -0.387 OA
ATOM     27  H   UNL     1       9.657  -1.034   3.676  1.00  0.00     0.211 HD
ENDBRANCH  21  26
BRANCH  23  28
ATOM     28  O   UNL     1       6.544  -0.785   5.690  1.00  0.00    -0.387 OA
ATOM     29  H   UNL     1       5.620  -0.951   6.013  1.00  0.00     0.211 HD
ENDBRANCH  23  28
BRANCH  24  30
ATOM     30  C   UNL     1       6.475  -5.347   3.734  1.00  0.00     0.191 C 
BRANCH  30  31
ATOM     31  O   UNL     1       5.102  -5.090   3.599  1.00  0.00    -0.394 OA
ATOM     32  H   UNL     1       4.628  -5.865   3.996  1.00  0.00     0.210 HD
ENDBRANCH  30  31
ENDBRANCH  24  30
BRANCH  25  33
ATOM     33  O   UNL     1       5.846  -2.140   3.479  1.00  0.00    -0.388 OA
ATOM     34  H   UNL     1       6.512  -1.431   3.286  1.00  0.00     0.211 HD
ENDBRANCH  25  33
ENDBRANCH  11  20
BRANCH  10  35
ATOM     35  O   UNL     1       8.939  -4.606   7.259  1.00  0.00    -0.507 OA
ATOM     36  H   UNL     1       8.309  -3.971   7.734  1.00  0.00     0.293 HD
ENDBRANCH  10  35
TORSDOF 9
ENDMDL
MODEL 9
REMARK VINA RESULT:    -3.862      4.208      7.318
REMARK INTER + INTRA:          -6.161
REMARK INTER:                  -5.202
REMARK INTRA:                  -0.960
REMARK UNBOUND:                -0.944
REMARK SMILES O=c1c(-c2ccc(O)cc2)coc2c([C@H]3O[C@@H](CO)[C@H](O)[C@H](O)[C@@H]3O)c(O)ccc12
REMARK SMILES IDX 3 1 11 2 12 3 13 4 30 5 2 6 1 7 29 8 28 9 26 10 14 11 4 12
REMARK SMILES IDX 5 13 6 14 7 15 10 16 9 17 8 18 15 20 24 21 16 22 22 23 17 24
REMARK SMILES IDX 20 25 25 26 23 28 18 30 19 31 21 33 27 35
REMARK H PARENT 8 19 25 27 23 29 19 32 21 34 27 36
REMARK Flexibility Score: inf
ROOT
ATOM      1  C   UNL     1       8.632   7.171   6.268  1.00  0.00     0.065 A 
ATOM      2  C   UNL     1       9.299   7.282   7.496  1.00  0.00     0.208 A 
ATOM      3  O   UNL     1      10.623   7.350   7.549  1.00  0.00    -0.463 OA
ATOM      4  C   UNL     1      11.398   7.319   6.469  1.00  0.00     0.147 A 
ATOM      5  C   UNL     1      10.809   7.200   5.188  1.00  0.00     0.066 A 
ATOM      6  C   UNL     1       9.407   7.122   5.095  1.00  0.00     0.200 A 
ATOM      7  O   UNL     1       8.851   6.987   3.970  1.00  0.00    -0.288 OA
ATOM      8  C   UNL     1      11.630   7.149   4.051  1.00  0.00     0.020 A 
ATOM      9  C   UNL     1      13.016   7.203   4.182  1.00  0.00     0.047 A 
ATOM     10  C   UNL     1      13.609   7.317   5.446  1.00  0.00     0.125 A 
ATOM     11  C   UNL     1      12.804   7.400   6.604  1.00  0.00     0.069 A 
ENDROOT
BRANCH   1  12
ATOM     12  C   UNL     1       7.149   7.101   6.233  1.00  0.00    -0.011 A 
ATOM     13  C   UNL     1       6.495   5.863   6.367  1.00  0.00     0.013 A 
ATOM     14  C   UNL     1       5.099   5.795   6.343  1.00  0.00     0.047 A 
ATOM     15  C   UNL     1       4.340   6.959   6.193  1.00  0.00     0.115 A 
ATOM     16  C   UNL     1       6.379   8.268   6.089  1.00  0.00     0.013 A 
ATOM     17  C   UNL     1       4.983   8.196   6.067  1.00  0.00     0.047 A 
BRANCH  15  18
ATOM     18  O   UNL     1       2.949   6.875   6.170  1.00  0.00    -0.508 OA
ATOM     19  H   UNL     1       2.372   7.695   6.020  1.00  0.00     0.293 HD
ENDBRANCH  15  18
ENDBRANCH   1  12
BRANCH  11  20
ATOM     20  C   UNL     1      13.446   7.495   7.982  1.00  0.00     0.188 C 
ATOM     21  C   UNL     1      13.743   8.986   8.348  1.00  0.00     0.179 C 
ATOM     22  O   UNL     1      14.618   6.692   8.006  1.00  0.00    -0.362 OA
ATOM     23  C   UNL     1      15.253   9.232   8.556  1.00  0.00     0.177 C 
ATOM     24  C   UNL     1      15.247   6.771   9.272  1.00  0.00     0.176 C 
ATOM     25  C   UNL     1      15.901   8.166   9.474  1.00  0.00     0.177 C 
BRANCH  21  26
ATOM     26  O   UNL     1      13.004   9.386   9.478  1.00  0.00    -0.387 OA
ATOM     27  H   UNL     1      13.208   8.756  10.217  1.00  0.00     0.211 HD
ENDBRANCH  21  26
BRANCH  23  28
ATOM     28  O   UNL     1      15.461  10.529   9.053  1.00  0.00    -0.387 OA
ATOM     29  H   UNL     1      14.691  10.735   9.646  1.00  0.00     0.211 HD
ENDBRANCH  23  28
BRANCH  24  30
ATOM     30  C   UNL     1      16.286   5.644   9.371  1.00  0.00     0.191 C 
BRANCH  30  31
ATOM     31  O   UNL     1      16.651   5.187   8.095  1.00  0.00    -0.394 OA
ATOM     32  H   UNL     1      17.541   4.759   8.190  1.00  0.00     0.210 HD
ENDBRANCH  30  31
ENDBRANCH  24  30
BRANCH  25  33
ATOM     33  O   UNL     1      15.782   8.537  10.826  1.00  0.00    -0.388 OA
ATOM     34  H   UNL     1      15.428   7.751  11.316  1.00  0.00     0.211 HD
ENDBRANCH  25  33
ENDBRANCH  11  20
BRANCH  10  35
ATOM     35  O   UNL     1      15.001   7.342   5.549  1.00  0.00    -0.507 OA
ATOM     36  H   UNL     1      15.509   8.209   5.681  1.00  0.00     0.293 HD
ENDBRANCH  10  35
TORSDOF 9
ENDMDL
