MODEL 1
REMARK VINA RESULT:     3.218      0.000      0.000
REMARK INTER + INTRA:           4.901
REMARK INTER:                   5.475
REMARK INTRA:                  -0.574
REMARK UNBOUND:                -0.574
REMARK SMILES CCCCCCCCCCCCCC(=O)[O-]
REMARK SMILES IDX 8 1 9 2 10 3 11 4 12 5 13 6 14 7 15 8 16 9 7 10 6 11 5 12
REMARK SMILES IDX 4 13 3 14 2 15 1 16
REMARK H PARENT
REMARK Flexibility Score: inf
ROOT
ATOM      1  C   UNL     1       8.033  39.463  14.804  1.00  0.00     0.000 C 
ENDROOT
BRANCH   1   2
ATOM      2  C   UNL     1       6.524  39.691  15.005  1.00  0.00     0.000 C 
BRANCH   2   3
ATOM      3  C   UNL     1       5.633  38.466  14.720  1.00  0.00     0.000 C 
BRANCH   3   4
ATOM      4  C   UNL     1       4.848  37.928  15.933  1.00  0.00     0.000 C 
BRANCH   4   5
ATOM      5  C   UNL     1       3.446  38.542  16.125  1.00  0.00     0.006 C 
BRANCH   5   6
ATOM      6  C   UNL     1       2.870  39.213  14.868  1.00  0.00     0.053 C 
BRANCH   6   7
ATOM      7  C   UNL     1       1.862  38.344  14.181  1.00  0.00     0.041 C 
ATOM      8  O   UNL     1       0.872  37.896  14.818  1.00  0.00    -0.550 OA
ATOM      9  O   UNL     1       1.996  38.058  12.828  1.00  0.00    -0.550 OA
ENDBRANCH   6   7
ENDBRANCH   5   6
ENDBRANCH   4   5
ENDBRANCH   3   4
ENDBRANCH   2   3
ENDBRANCH   1   2
BRANCH   1  10
ATOM     10  C   UNL     1       8.547  38.202  15.520  1.00  0.00     0.000 C 
BRANCH  10  11
ATOM     11  C   UNL     1       9.994  38.353  16.014  1.00  0.00    -0.000 C 
BRANCH  11  12
ATOM     12  C   UNL     1      10.986  38.632  14.868  1.00  0.00    -0.000 C 
BRANCH  12  13
ATOM     13  C   UNL     1      12.382  39.029  15.378  1.00  0.00    -0.000 C 
BRANCH  13  14
ATOM     14  C   UNL     1      13.085  37.883  16.124  1.00  0.00    -0.000 C 
BRANCH  14  15
ATOM     15  C   UNL     1      14.612  37.921  15.956  1.00  0.00    -0.003 C 
ATOM     16  C   UNL     1      15.043  38.295  14.538  1.00  0.00     0.004 C 
ENDBRANCH  14  15
ENDBRANCH  13  14
ENDBRANCH  12  13
ENDBRANCH  11  12
ENDBRANCH  10  11
ENDBRANCH   1  10
TORSDOF 12
ENDMDL
MODEL 2
REMARK VINA RESULT:     3.270      1.645      2.408
REMARK INTER + INTRA:           4.989
REMARK INTER:                   5.031
REMARK INTRA:                  -0.042
REMARK UNBOUND:                -0.574
REMARK SMILES CCCCCCCCCCCCCC(=O)[O-]
REMARK SMILES IDX 8 1 9 2 10 3 11 4 12 5 13 6 14 7 15 8 16 9 7 10 6 11 5 12
REMARK SMILES IDX 4 13 3 14 2 15 1 16
REMARK H PARENT
REMARK Flexibility Score: inf
ROOT
ATOM      1  C   UNL     1       7.337  41.018  14.039  1.00  0.00     0.000 C 
ENDROOT
BRANCH   1   2
ATOM      2  C   UNL     1       6.329  39.946  14.489  1.00  0.00     0.000 C 
BRANCH   2   3
ATOM      3  C   UNL     1       5.014  40.491  15.082  1.00  0.00     0.000 C 
BRANCH   3   4
ATOM      4  C   UNL     1       4.308  39.555  16.083  1.00  0.00     0.000 C 
BRANCH   4   5
ATOM      5  C   UNL     1       4.212  38.081  15.639  1.00  0.00     0.006 C 
BRANCH   5   6
ATOM      6  C   UNL     1       3.576  37.876  14.256  1.00  0.00     0.053 C 
BRANCH   6   7
ATOM      7  C   UNL     1       2.147  38.325  14.223  1.00  0.00     0.041 C 
ATOM      8  O   UNL     1       1.694  38.920  13.210  1.00  0.00    -0.550 OA
ATOM      9  O   UNL     1       1.307  38.056  15.298  1.00  0.00    -0.550 OA
ENDBRANCH   6   7
ENDBRANCH   5   6
ENDBRANCH   4   5
ENDBRANCH   3   4
ENDBRANCH   2   3
ENDBRANCH   1   2
BRANCH   1  10
ATOM     10  C   UNL     1       8.711  40.867  14.715  1.00  0.00     0.000 C 
BRANCH  10  11
ATOM     11  C   UNL     1       8.611  40.261  16.124  1.00  0.00    -0.000 C 
BRANCH  11  12
ATOM     12  C   UNL     1       8.399  38.736  16.099  1.00  0.00    -0.000 C 
BRANCH  12  13
ATOM     13  C   UNL     1       9.724  37.955  16.074  1.00  0.00    -0.000 C 
BRANCH  13  14
ATOM     14  C   UNL     1      10.950  38.876  15.969  1.00  0.00    -0.000 C 
BRANCH  14  15
ATOM     15  C   UNL     1      11.555  38.893  14.557  1.00  0.00    -0.003 C 
ATOM     16  C   UNL     1      10.845  37.939  13.597  1.00  0.00     0.004 C 
ENDBRANCH  14  15
ENDBRANCH  13  14
ENDBRANCH  12  13
ENDBRANCH  11  12
ENDBRANCH  10  11
ENDBRANCH   1  10
TORSDOF 12
ENDMDL
MODEL 3
REMARK VINA RESULT:     5.743      3.973      8.472
REMARK INTER + INTRA:           9.198
REMARK INTER:                   6.076
REMARK INTRA:                   3.122
REMARK UNBOUND:                -0.574
REMARK SMILES CCCCCCCCCCCCCC(=O)[O-]
REMARK SMILES IDX 8 1 9 2 10 3 11 4 12 5 13 6 14 7 15 8 16 9 7 10 6 11 5 12
REMARK SMILES IDX 4 13 3 14 2 15 1 16
REMARK H PARENT
REMARK Flexibility Score: inf
ROOT
ATOM      1  C   UNL     1       6.783  39.885  13.859  1.00  0.00     0.000 C 
ENDROOT
BRANCH   1   2
ATOM      2  C   UNL     1       7.498  40.916  14.750  1.00  0.00     0.000 C 
BRANCH   2   3
ATOM      3  C   UNL     1       8.076  40.355  16.065  1.00  0.00     0.000 C 
BRANCH   3   4
ATOM      4  C   UNL     1       8.205  38.820  16.124  1.00  0.00     0.000 C 
BRANCH   4   5
ATOM      5  C   UNL     1       9.355  38.231  15.282  1.00  0.00     0.006 C 
BRANCH   5   6
ATOM      6  C   UNL     1      10.619  37.890  16.086  1.00  0.00     0.053 C 
BRANCH   6   7
ATOM      7  C   UNL     1      11.840  38.544  15.515  1.00  0.00     0.041 C 
ATOM      8  O   UNL     1      11.729  39.565  14.786  1.00  0.00    -0.550 OA
ATOM      9  O   UNL     1      13.102  38.045  15.815  1.00  0.00    -0.550 OA
ENDBRANCH   6   7
ENDBRANCH   5   6
ENDBRANCH   4   5
ENDBRANCH   3   4
ENDBRANCH   2   3
ENDBRANCH   1   2
BRANCH   1  10
ATOM     10  C   UNL     1       6.196  38.709  14.658  1.00  0.00     0.000 C 
BRANCH  10  11
ATOM     11  C   UNL     1       5.333  39.173  15.841  1.00  0.00    -0.000 C 
BRANCH  11  12
ATOM     12  C   UNL     1       3.870  38.705  15.728  1.00  0.00    -0.000 C 
BRANCH  12  13
ATOM     13  C   UNL     1       3.096  39.444  14.623  1.00  0.00    -0.000 C 
BRANCH  13  14
ATOM     14  C   UNL     1       2.209  38.501  13.792  1.00  0.00    -0.000 C 
BRANCH  14  15
ATOM     15  C   UNL     1       1.078  37.875  14.622  1.00  0.00    -0.003 C 
ATOM     16  C   UNL     1       1.348  37.923  16.125  1.00  0.00     0.004 C 
ENDBRANCH  14  15
ENDBRANCH  13  14
ENDBRANCH  12  13
ENDBRANCH  11  12
ENDBRANCH  10  11
ENDBRANCH   1  10
TORSDOF 12
ENDMDL
