MODEL 1
REMARK VINA RESULT:    -4.636      0.000      0.000
REMARK INTER + INTRA:          -6.971
REMARK INTER:                  -7.211
REMARK INTRA:                   0.240
REMARK UNBOUND:                 0.240
REMARK SMILES C=C(C)[C@@H]1CC=C2C(=CC[C@@]3(C)[C@H]([C@H](CCC=C(C)C)C(=O)[O-])[C@H](O)C[C@@]23C)[C@@]1(C)CCC(=O)[O-]
REMARK SMILES IDX 29 1 8 2 4 3 30 4 7 5 9 6 5 7 27 8 6 9 10 10 11 11 26 12
REMARK SMILES IDX 28 13 13 14 12 15 24 16 31 17 32 18 33 19 34 20 35 21 2 22
REMARK SMILES IDX 1 23 3 24 14 25 21 26 22 27 23 28 15 29 16 30 17 31 18 32
REMARK SMILES IDX 19 33 20 34 25 35
REMARK H PARENT 25 36
REMARK Flexibility Score: inf
ROOT
ATOM      1  C   UNL     1      99.633 112.995 114.878  1.00  0.00    -0.000 C 
ATOM      2  C   UNL     1     100.057 113.356 116.325  1.00  0.00    -0.042 C 
ATOM      3  C   UNL     1     100.732 113.528 113.860  1.00  0.00     0.028 C 
ATOM      4  C   UNL     1      99.509 111.452 114.738  1.00  0.00     0.017 C 
ATOM      5  C   UNL     1     101.200 114.279 116.575  1.00  0.00    -0.042 C 
ATOM      6  C   UNL     1      99.455 112.842 117.409  1.00  0.00    -0.022 C 
ATOM      7  C   UNL     1     102.151 113.467 114.457  1.00  0.00     0.036 C 
ATOM      8  C   UNL     1     101.132 115.241 117.769  1.00  0.00     0.001 C 
ATOM      9  C   UNL     1     102.191 114.341 115.670  1.00  0.00    -0.022 C 
ATOM     10  C   UNL     1      99.975 113.153 118.779  1.00  0.00     0.035 C 
ATOM     11  C   UNL     1     100.225 114.682 118.962  1.00  0.00    -0.014 C 
ATOM     12  C   UNL     1     102.517 115.440 118.416  1.00  0.00     0.044 C 
ATOM     13  C   UNL     1     100.656 116.605 117.186  1.00  0.00     0.017 C 
ATOM     14  C   UNL     1     101.083 114.889 120.279  1.00  0.00     0.034 C 
ATOM     15  C   UNL     1      98.833 115.380 119.017  1.00  0.00     0.013 C 
ATOM     16  C   UNL     1     102.258 115.789 119.871  1.00  0.00     0.119 C 
ENDROOT
BRANCH   1  17
ATOM     17  C   UNL     1      98.283 113.708 114.500  1.00  0.00     0.018 C 
BRANCH  17  18
ATOM     18  C   UNL     1      97.137 112.888 113.873  1.00  0.00     0.053 C 
BRANCH  18  19
ATOM     19  C   UNL     1      96.689 113.409 112.542  1.00  0.00     0.041 C 
ATOM     20  O   UNL     1      96.765 112.679 111.518  1.00  0.00    -0.550 OA
ATOM     21  O   UNL     1      96.141 114.681 112.436  1.00  0.00    -0.550 OA
ENDBRANCH  18  19
ENDBRANCH  17  18
ENDBRANCH   1  17
BRANCH   3  22
ATOM     22  C   UNL     1     100.678 112.916 112.452  1.00  0.00    -0.076 C 
ATOM     23  C   UNL     1     101.372 113.480 111.450  1.00  0.00     0.008 C 
ATOM     24  C   UNL     1      99.877 111.672 112.142  1.00  0.00     0.039 C 
ENDBRANCH   3  22
BRANCH  14  25
ATOM     25  C   UNL     1     100.346 115.345 121.586  1.00  0.00     0.042 C 
BRANCH  25  26
ATOM     26  C   UNL     1      99.790 114.157 122.332  1.00  0.00     0.045 C 
ATOM     27  O   UNL     1      98.550 113.944 122.351  1.00  0.00    -0.550 OA
ATOM     28  O   UNL     1     100.634 113.335 123.072  1.00  0.00    -0.550 OA
ENDBRANCH  25  26
BRANCH  25  29
ATOM     29  C   UNL     1     101.287 116.128 122.545  1.00  0.00     0.014 C 
BRANCH  29  30
ATOM     30  C   UNL     1     100.696 116.366 123.949  1.00  0.00     0.028 C 
BRANCH  30  31
ATOM     31  C   UNL     1      99.575 117.381 123.939  1.00  0.00    -0.028 C 
ATOM     32  C   UNL     1      99.745 118.717 124.041  1.00  0.00    -0.080 C 
ATOM     33  C   UNL     1     101.093 119.339 124.308  1.00  0.00     0.039 C 
ATOM     34  C   UNL     1      98.545 119.625 123.995  1.00  0.00     0.039 C 
ENDBRANCH  30  31
ENDBRANCH  29  30
ENDBRANCH  25  29
ENDBRANCH  14  25
BRANCH  16  35
ATOM     35  O   UNL     1     101.913 117.149 119.981  1.00  0.00    -0.393 OA
ATOM     36  H   UNL     1     101.484 117.277 120.869  1.00  0.00     0.210 HD
ENDBRANCH  16  35
TORSDOF 10
ENDMDL
MODEL 2
REMARK VINA RESULT:    -4.226      2.735      4.577
REMARK INTER + INTRA:          -6.332
REMARK INTER:                  -5.920
REMARK INTRA:                  -0.413
REMARK UNBOUND:                 0.240
REMARK SMILES C=C(C)[C@@H]1CC=C2C(=CC[C@@]3(C)[C@H]([C@H](CCC=C(C)C)C(=O)[O-])[C@H](O)C[C@@]23C)[C@@]1(C)CCC(=O)[O-]
REMARK SMILES IDX 29 1 8 2 4 3 30 4 7 5 9 6 5 7 27 8 6 9 10 10 11 11 26 12
REMARK SMILES IDX 28 13 13 14 12 15 24 16 31 17 32 18 33 19 34 20 35 21 2 22
REMARK SMILES IDX 1 23 3 24 14 25 21 26 22 27 23 28 15 29 16 30 17 31 18 32
REMARK SMILES IDX 19 33 20 34 25 35
REMARK H PARENT 25 36
REMARK Flexibility Score: inf
ROOT
ATOM      1  C   UNL     1     100.486 114.530 116.393  1.00  0.00    -0.000 C 
ATOM      2  C   UNL     1     100.000 114.935 117.809  1.00  0.00    -0.042 C 
ATOM      3  C   UNL     1     100.275 112.967 116.192  1.00  0.00     0.028 C 
ATOM      4  C   UNL     1      99.668 115.300 115.319  1.00  0.00     0.017 C 
ATOM      5  C   UNL     1      99.651 113.896 118.819  1.00  0.00    -0.042 C 
ATOM      6  C   UNL     1      99.835 116.213 118.184  1.00  0.00    -0.022 C 
ATOM      7  C   UNL     1      99.024 112.452 116.929  1.00  0.00     0.036 C 
ATOM      8  C   UNL     1      99.968 114.160 120.297  1.00  0.00     0.001 C 
ATOM      9  C   UNL     1      99.201 112.704 118.393  1.00  0.00    -0.022 C 
ATOM     10  C   UNL     1      99.268 116.536 119.532  1.00  0.00     0.035 C 
ATOM     11  C   UNL     1      99.972 115.718 120.660  1.00  0.00    -0.014 C 
ATOM     12  C   UNL     1      98.888 113.566 121.223  1.00  0.00     0.044 C 
ATOM     13  C   UNL     1     101.316 113.432 120.578  1.00  0.00     0.017 C 
ATOM     14  C   UNL     1      99.105 115.849 121.980  1.00  0.00     0.034 C 
ATOM     15  C   UNL     1     101.417 116.281 120.813  1.00  0.00     0.013 C 
ATOM     16  C   UNL     1      98.898 114.413 122.483  1.00  0.00     0.119 C 
ENDROOT
BRANCH   1  17
ATOM     17  C   UNL     1     102.027 114.802 116.236  1.00  0.00     0.018 C 
BRANCH  17  18
ATOM     18  C   UNL     1     102.921 114.869 117.491  1.00  0.00     0.053 C 
BRANCH  18  19
ATOM     19  C   UNL     1     103.970 115.937 117.420  1.00  0.00     0.041 C 
ATOM     20  O   UNL     1     104.912 115.956 118.257  1.00  0.00    -0.550 OA
ATOM     21  O   UNL     1     103.939 116.881 116.402  1.00  0.00    -0.550 OA
ENDBRANCH  18  19
ENDBRANCH  17  18
ENDBRANCH   1  17
BRANCH   3  22
ATOM     22  C   UNL     1     100.323 112.477 114.737  1.00  0.00    -0.076 C 
ATOM     23  C   UNL     1      99.522 111.474 114.342  1.00  0.00     0.008 C 
ATOM     24  C   UNL     1     101.235 113.100 113.705  1.00  0.00     0.039 C 
ENDBRANCH   3  22
BRANCH  14  25
ATOM     25  C   UNL     1      99.576 116.857 123.086  1.00  0.00     0.042 C 
BRANCH  25  26
ATOM     26  C   UNL     1      98.556 117.952 123.283  1.00  0.00     0.045 C 
ATOM     27  O   UNL     1      97.908 118.398 122.301  1.00  0.00    -0.550 OA
ATOM     28  O   UNL     1      98.384 118.533 124.535  1.00  0.00    -0.550 OA
ENDBRANCH  25  26
BRANCH  25  29
ATOM     29  C   UNL     1      99.812 116.156 124.454  1.00  0.00     0.014 C 
BRANCH  29  30
ATOM     30  C   UNL     1     101.212 116.400 125.052  1.00  0.00     0.028 C 
BRANCH  30  31
ATOM     31  C   UNL     1     102.209 116.867 124.015  1.00  0.00    -0.028 C 
ATOM     32  C   UNL     1     102.528 118.158 123.780  1.00  0.00    -0.080 C 
ATOM     33  C   UNL     1     101.812 119.300 124.456  1.00  0.00     0.039 C 
ATOM     34  C   UNL     1     103.557 118.490 122.732  1.00  0.00     0.039 C 
ENDBRANCH  30  31
ENDBRANCH  29  30
ENDBRANCH  25  29
ENDBRANCH  14  25
BRANCH  16  35
ATOM     35  O   UNL     1      99.958 114.014 123.318  1.00  0.00    -0.393 OA
ATOM     36  H   UNL     1     100.296 114.825 123.782  1.00  0.00     0.210 HD
ENDBRANCH  16  35
TORSDOF 10
ENDMDL
MODEL 3
REMARK VINA RESULT:    -2.842      2.530      9.092
REMARK INTER + INTRA:          -4.180
REMARK INTER:                  -4.116
REMARK INTRA:                  -0.064
REMARK UNBOUND:                 0.240
REMARK SMILES C=C(C)[C@@H]1CC=C2C(=CC[C@@]3(C)[C@H]([C@H](CCC=C(C)C)C(=O)[O-])[C@H](O)C[C@@]23C)[C@@]1(C)CCC(=O)[O-]
REMARK SMILES IDX 29 1 8 2 4 3 30 4 7 5 9 6 5 7 27 8 6 9 10 10 11 11 26 12
REMARK SMILES IDX 28 13 13 14 12 15 24 16 31 17 32 18 33 19 34 20 35 21 2 22
REMARK SMILES IDX 1 23 3 24 14 25 21 26 22 27 23 28 15 29 16 30 17 31 18 32
REMARK SMILES IDX 19 33 20 34 25 35
REMARK H PARENT 25 36
REMARK Flexibility Score: inf
ROOT
ATOM      1  C   UNL     1      99.219 116.778 123.617  1.00  0.00    -0.000 C 
ATOM      2  C   UNL     1      99.216 115.907 122.334  1.00  0.00    -0.042 C 
ATOM      3  C   UNL     1      98.825 118.272 123.239  1.00  0.00     0.028 C 
ATOM      4  C   UNL     1      98.187 116.216 124.633  1.00  0.00     0.017 C 
ATOM      5  C   UNL     1      99.098 116.536 120.988  1.00  0.00    -0.042 C 
ATOM      6  C   UNL     1      99.281 114.567 122.364  1.00  0.00    -0.022 C 
ATOM      7  C   UNL     1      97.813 118.327 122.079  1.00  0.00     0.036 C 
ATOM      8  C   UNL     1      99.865 115.920 119.810  1.00  0.00     0.001 C 
ATOM      9  C   UNL     1      98.441 117.702 120.874  1.00  0.00    -0.022 C 
ATOM     10  C   UNL     1      99.174 113.778 121.096  1.00  0.00     0.035 C 
ATOM     11  C   UNL     1     100.110 114.349 119.986  1.00  0.00    -0.014 C 
ATOM     12  C   UNL     1      99.064 116.025 118.496  1.00  0.00     0.044 C 
ATOM     13  C   UNL     1     101.167 116.761 119.665  1.00  0.00     0.017 C 
ATOM     14  C   UNL     1      99.693 113.697 118.603  1.00  0.00     0.034 C 
ATOM     15  C   UNL     1     101.577 114.028 120.401  1.00  0.00     0.013 C 
ATOM     16  C   UNL     1      99.524 114.869 117.626  1.00  0.00     0.119 C 
ENDROOT
BRANCH   1  17
ATOM     17  C   UNL     1     100.659 116.836 124.245  1.00  0.00     0.018 C 
BRANCH  17  18
ATOM     18  C   UNL     1     101.893 116.870 123.320  1.00  0.00     0.053 C 
BRANCH  18  19
ATOM     19  C   UNL     1     102.653 118.160 123.387  1.00  0.00     0.041 C 
ATOM     20  O   UNL     1     103.666 118.337 122.658  1.00  0.00    -0.550 OA
ATOM     21  O   UNL     1     102.217 119.188 124.215  1.00  0.00    -0.550 OA
ENDBRANCH  18  19
ENDBRANCH  17  18
ENDBRANCH   1  17
BRANCH   3  22
ATOM     22  C   UNL     1      98.392 119.157 124.417  1.00  0.00    -0.076 C 
ATOM     23  C   UNL     1      98.979 120.350 124.609  1.00  0.00     0.008 C 
ATOM     24  C   UNL     1      97.301 118.746 125.379  1.00  0.00     0.039 C 
ENDBRANCH   3  22
BRANCH  14  25
ATOM     25  C   UNL     1     100.558 112.513 118.045  1.00  0.00     0.042 C 
BRANCH  25  26
ATOM     26  C   UNL     1      99.945 111.182 118.408  1.00  0.00     0.045 C 
ATOM     27  O   UNL     1      98.707 110.999 118.277  1.00  0.00    -0.550 OA
ATOM     28  O   UNL     1     100.728 110.178 118.968  1.00  0.00    -0.550 OA
ENDBRANCH  25  26
BRANCH  25  29
ATOM     29  C   UNL     1     100.706 112.576 116.498  1.00  0.00     0.014 C 
BRANCH  29  30
ATOM     30  C   UNL     1      99.768 111.617 115.738  1.00  0.00     0.028 C 
BRANCH  30  31
ATOM     31  C   UNL     1      98.640 112.343 115.041  1.00  0.00    -0.028 C 
ATOM     32  C   UNL     1      98.791 113.154 113.971  1.00  0.00    -0.080 C 
ATOM     33  C   UNL     1     100.149 113.525 113.428  1.00  0.00     0.039 C 
ATOM     34  C   UNL     1      97.581 113.802 113.353  1.00  0.00     0.039 C 
ENDBRANCH  30  31
ENDBRANCH  29  30
ENDBRANCH  25  29
ENDBRANCH  14  25
BRANCH  16  35
ATOM     35  O   UNL     1     100.747 115.192 117.010  1.00  0.00    -0.393 OA
ATOM     36  H   UNL     1     100.546 115.486 116.082  1.00  0.00     0.210 HD
ENDBRANCH  16  35
TORSDOF 10
ENDMDL
MODEL 4
REMARK VINA RESULT:    -2.519      2.186      9.391
REMARK INTER + INTRA:          -3.678
REMARK INTER:                  -3.994
REMARK INTRA:                   0.316
REMARK UNBOUND:                 0.240
REMARK SMILES C=C(C)[C@@H]1CC=C2C(=CC[C@@]3(C)[C@H]([C@H](CCC=C(C)C)C(=O)[O-])[C@H](O)C[C@@]23C)[C@@]1(C)CCC(=O)[O-]
REMARK SMILES IDX 29 1 8 2 4 3 30 4 7 5 9 6 5 7 27 8 6 9 10 10 11 11 26 12
REMARK SMILES IDX 28 13 13 14 12 15 24 16 31 17 32 18 33 19 34 20 35 21 2 22
REMARK SMILES IDX 1 23 3 24 14 25 21 26 22 27 23 28 15 29 16 30 17 31 18 32
REMARK SMILES IDX 19 33 20 34 25 35
REMARK H PARENT 25 36
REMARK Flexibility Score: inf
ROOT
ATOM      1  C   UNL     1      99.855 115.227 121.904  1.00  0.00    -0.000 C 
ATOM      2  C   UNL     1      99.669 114.840 120.413  1.00  0.00    -0.042 C 
ATOM      3  C   UNL     1      99.409 116.740 122.113  1.00  0.00     0.028 C 
ATOM      4  C   UNL     1      98.978 114.306 122.796  1.00  0.00     0.017 C 
ATOM      5  C   UNL     1      99.360 115.880 119.390  1.00  0.00    -0.042 C 
ATOM      6  C   UNL     1      99.739 113.573 119.976  1.00  0.00    -0.022 C 
ATOM      7  C   UNL     1      98.242 117.133 121.187  1.00  0.00     0.036 C 
ATOM      8  C   UNL     1      99.952 115.735 117.981  1.00  0.00     0.001 C 
ATOM      9  C   UNL     1      98.693 116.982 119.769  1.00  0.00    -0.022 C 
ATOM     10  C   UNL     1      99.453 113.254 118.541  1.00  0.00     0.035 C 
ATOM     11  C   UNL     1     100.221 114.211 117.578  1.00  0.00    -0.014 C 
ATOM     12  C   UNL     1      98.973 116.237 116.902  1.00  0.00     0.044 C 
ATOM     13  C   UNL     1     101.220 116.639 117.960  1.00  0.00     0.017 C 
ATOM     14  C   UNL     1      99.612 114.043 116.124  1.00  0.00     0.034 C 
ATOM     15  C   UNL     1     101.733 113.842 117.659  1.00  0.00     0.013 C 
ATOM     16  C   UNL     1      99.305 115.466 115.637  1.00  0.00     0.119 C 
ENDROOT
BRANCH   1  17
ATOM     17  C   UNL     1     101.370 115.141 122.316  1.00  0.00     0.018 C 
BRANCH  17  18
ATOM     18  C   UNL     1     102.333 116.278 121.918  1.00  0.00     0.053 C 
BRANCH  18  19
ATOM     19  C   UNL     1     102.614 117.239 123.033  1.00  0.00     0.041 C 
ATOM     20  O   UNL     1     102.297 116.945 124.217  1.00  0.00    -0.550 OA
ATOM     21  O   UNL     1     103.271 118.436 122.778  1.00  0.00    -0.550 OA
ENDBRANCH  18  19
ENDBRANCH  17  18
ENDBRANCH   1  17
BRANCH   3  22
ATOM     22  C   UNL     1      99.148 117.154 123.569  1.00  0.00    -0.076 C 
ATOM     23  C   UNL     1      99.108 118.455 123.898  1.00  0.00     0.008 C 
ATOM     24  C   UNL     1      98.911 116.142 124.666  1.00  0.00     0.039 C 
ENDBRANCH   3  22
BRANCH  14  25
ATOM     25  C   UNL     1     100.390 113.161 115.086  1.00  0.00     0.042 C 
BRANCH  25  26
ATOM     26  C   UNL     1      99.845 111.753 115.063  1.00  0.00     0.045 C 
ATOM     27  O   UNL     1     100.106 110.958 116.002  1.00  0.00    -0.550 OA
ATOM     28  O   UNL     1      99.121 111.299 113.966  1.00  0.00    -0.550 OA
ENDBRANCH  25  26
BRANCH  25  29
ATOM     29  C   UNL     1     100.305 113.741 113.646  1.00  0.00     0.014 C 
BRANCH  29  30
ATOM     30  C   UNL     1     101.381 113.197 112.685  1.00  0.00     0.028 C 
BRANCH  30  31
ATOM     31  C   UNL     1     101.387 113.919 111.356  1.00  0.00    -0.028 C 
ATOM     32  C   UNL     1     101.414 113.311 110.150  1.00  0.00    -0.080 C 
ATOM     33  C   UNL     1     101.572 111.818 110.004  1.00  0.00     0.039 C 
ATOM     34  C   UNL     1     101.394 114.146 108.897  1.00  0.00     0.039 C 
ENDBRANCH  30  31
ENDBRANCH  29  30
ENDBRANCH  25  29
ENDBRANCH  14  25
BRANCH  16  35
ATOM     35  O   UNL     1     100.428 116.038 115.010  1.00  0.00    -0.393 OA
ATOM     36  H   UNL     1     100.106 116.799 114.457  1.00  0.00     0.210 HD
ENDBRANCH  16  35
TORSDOF 10
ENDMDL
MODEL 5
REMARK VINA RESULT:    -2.259      3.172      9.764
REMARK INTER + INTRA:          -3.274
REMARK INTER:                  -2.921
REMARK INTRA:                  -0.352
REMARK UNBOUND:                 0.240
REMARK SMILES C=C(C)[C@@H]1CC=C2C(=CC[C@@]3(C)[C@H]([C@H](CCC=C(C)C)C(=O)[O-])[C@H](O)C[C@@]23C)[C@@]1(C)CCC(=O)[O-]
REMARK SMILES IDX 29 1 8 2 4 3 30 4 7 5 9 6 5 7 27 8 6 9 10 10 11 11 26 12
REMARK SMILES IDX 28 13 13 14 12 15 24 16 31 17 32 18 33 19 34 20 35 21 2 22
REMARK SMILES IDX 1 23 3 24 14 25 21 26 22 27 23 28 15 29 16 30 17 31 18 32
REMARK SMILES IDX 19 33 20 34 25 35
REMARK H PARENT 25 36
REMARK Flexibility Score: inf
ROOT
ATOM      1  C   UNL     1     101.667 114.717 117.184  1.00  0.00    -0.000 C 
ATOM      2  C   UNL     1     101.205 113.947 115.919  1.00  0.00    -0.042 C 
ATOM      3  C   UNL     1     100.530 114.634 118.293  1.00  0.00     0.028 C 
ATOM      4  C   UNL     1     102.971 114.077 117.737  1.00  0.00     0.017 C 
ATOM      5  C   UNL     1      99.798 113.470 115.790  1.00  0.00    -0.042 C 
ATOM      6  C   UNL     1     102.034 113.644 114.908  1.00  0.00    -0.022 C 
ATOM      7  C   UNL     1      99.769 113.296 118.244  1.00  0.00     0.036 C 
ATOM      8  C   UNL     1      99.132 113.484 114.408  1.00  0.00     0.001 C 
ATOM      9  C   UNL     1      99.111 113.176 116.906  1.00  0.00    -0.022 C 
ATOM     10  C   UNL     1     101.550 112.813 113.760  1.00  0.00     0.035 C 
ATOM     11  C   UNL     1     100.185 113.332 113.213  1.00  0.00    -0.014 C 
ATOM     12  C   UNL     1      98.185 112.281 114.223  1.00  0.00     0.044 C 
ATOM     13  C   UNL     1      98.288 114.791 114.358  1.00  0.00     0.017 C 
ATOM     14  C   UNL     1      99.582 112.224 112.254  1.00  0.00     0.034 C 
ATOM     15  C   UNL     1     100.454 114.688 112.494  1.00  0.00     0.013 C 
ATOM     16  C   UNL     1      98.139 112.004 112.731  1.00  0.00     0.119 C 
ENDROOT
BRANCH   1  17
ATOM     17  C   UNL     1     101.875 116.241 116.861  1.00  0.00     0.018 C 
BRANCH  17  18
ATOM     18  C   UNL     1     103.290 116.768 116.546  1.00  0.00     0.053 C 
BRANCH  18  19
ATOM     19  C   UNL     1     103.337 118.247 116.309  1.00  0.00     0.041 C 
ATOM     20  O   UNL     1     102.268 118.906 116.206  1.00  0.00    -0.550 OA
ATOM     21  O   UNL     1     104.558 118.908 116.252  1.00  0.00    -0.550 OA
ENDBRANCH  18  19
ENDBRANCH  17  18
ENDBRANCH   1  17
BRANCH   3  22
ATOM     22  C   UNL     1     100.976 114.986 119.720  1.00  0.00    -0.076 C 
ATOM     23  C   UNL     1     101.777 116.043 119.930  1.00  0.00     0.008 C 
ATOM     24  C   UNL     1     100.531 114.189 120.925  1.00  0.00     0.039 C 
ENDBRANCH   3  22
BRANCH  14  25
ATOM     25  C   UNL     1      99.724 112.419 110.704  1.00  0.00     0.042 C 
BRANCH  25  26
ATOM     26  C   UNL     1     101.147 112.177 110.262  1.00  0.00     0.045 C 
ATOM     27  O   UNL     1     101.979 113.121 110.259  1.00  0.00    -0.550 OA
ATOM     28  O   UNL     1     101.529 110.931 109.776  1.00  0.00    -0.550 OA
ENDBRANCH  25  26
BRANCH  25  29
ATOM     29  C   UNL     1      98.795 111.461 109.907  1.00  0.00     0.014 C 
BRANCH  29  30
ATOM     30  C   UNL     1      97.896 112.172 108.876  1.00  0.00     0.028 C 
BRANCH  30  31
ATOM     31  C   UNL     1      96.467 111.678 108.917  1.00  0.00    -0.028 C 
ATOM     32  C   UNL     1      95.384 112.466 109.093  1.00  0.00    -0.080 C 
ATOM     33  C   UNL     1      95.501 113.938 109.399  1.00  0.00     0.039 C 
ATOM     34  C   UNL     1      94.010 111.851 109.092  1.00  0.00     0.039 C 
ENDBRANCH  30  31
ENDBRANCH  29  30
ENDBRANCH  25  29
ENDBRANCH  14  25
BRANCH  16  35
ATOM     35  O   UNL     1      97.258 112.905 112.106  1.00  0.00    -0.393 OA
ATOM     36  H   UNL     1      97.440 113.809 112.478  1.00  0.00     0.210 HD
ENDBRANCH  16  35
TORSDOF 10
ENDMDL
MODEL 6
REMARK VINA RESULT:    -2.192      1.681      2.079
REMARK INTER + INTRA:          -3.169
REMARK INTER:                  -3.540
REMARK INTRA:                   0.371
REMARK UNBOUND:                 0.240
REMARK SMILES C=C(C)[C@@H]1CC=C2C(=CC[C@@]3(C)[C@H]([C@H](CCC=C(C)C)C(=O)[O-])[C@H](O)C[C@@]23C)[C@@]1(C)CCC(=O)[O-]
REMARK SMILES IDX 29 1 8 2 4 3 30 4 7 5 9 6 5 7 27 8 6 9 10 10 11 11 26 12
REMARK SMILES IDX 28 13 13 14 12 15 24 16 31 17 32 18 33 19 34 20 35 21 2 22
REMARK SMILES IDX 1 23 3 24 14 25 21 26 22 27 23 28 15 29 16 30 17 31 18 32
REMARK SMILES IDX 19 33 20 34 25 35
REMARK H PARENT 25 36
REMARK Flexibility Score: inf
ROOT
ATOM      1  C   UNL     1      99.620 113.678 115.222  1.00  0.00    -0.000 C 
ATOM      2  C   UNL     1     100.086 113.964 116.674  1.00  0.00    -0.042 C 
ATOM      3  C   UNL     1     100.848 113.869 114.230  1.00  0.00     0.028 C 
ATOM      4  C   UNL     1      99.099 112.218 115.119  1.00  0.00     0.017 C 
ATOM      5  C   UNL     1     101.425 114.562 116.939  1.00  0.00    -0.042 C 
ATOM      6  C   UNL     1      99.342 113.663 117.749  1.00  0.00    -0.022 C 
ATOM      7  C   UNL     1     102.185 113.458 114.876  1.00  0.00     0.036 C 
ATOM      8  C   UNL     1     101.581 115.549 118.104  1.00  0.00     0.001 C 
ATOM      9  C   UNL     1     102.421 114.331 116.067  1.00  0.00    -0.022 C 
ATOM     10  C   UNL     1      99.889 113.873 119.127  1.00  0.00     0.035 C 
ATOM     11  C   UNL     1     100.528 115.289 119.279  1.00  0.00    -0.014 C 
ATOM     12  C   UNL     1     102.952 115.399 118.793  1.00  0.00     0.044 C 
ATOM     13  C   UNL     1     101.498 116.969 117.470  1.00  0.00     0.017 C 
ATOM     14  C   UNL     1     101.375 115.308 120.619  1.00  0.00     0.034 C 
ATOM     15  C   UNL     1      99.369 116.329 119.269  1.00  0.00     0.013 C 
ATOM     16  C   UNL     1     102.756 115.853 120.229  1.00  0.00     0.119 C 
ENDROOT
BRANCH   1  17
ATOM     17  C   UNL     1      98.517 114.707 114.780  1.00  0.00     0.018 C 
BRANCH  17  18
ATOM     18  C   UNL     1      98.938 116.084 114.225  1.00  0.00     0.053 C 
BRANCH  18  19
ATOM     19  C   UNL     1      98.701 117.211 115.185  1.00  0.00     0.041 C 
ATOM     20  O   UNL     1      99.583 117.516 116.032  1.00  0.00    -0.550 OA
ATOM     21  O   UNL     1      97.532 117.957 115.114  1.00  0.00    -0.550 OA
ENDBRANCH  18  19
ENDBRANCH  17  18
ENDBRANCH   1  17
BRANCH   3  22
ATOM     22  C   UNL     1     100.672 113.245 112.837  1.00  0.00    -0.076 C 
ATOM     23  C   UNL     1     101.495 113.597 111.836  1.00  0.00     0.008 C 
ATOM     24  C   UNL     1      99.603 112.217 112.541  1.00  0.00     0.039 C 
ENDBRANCH   3  22
BRANCH  14  25
ATOM     25  C   UNL     1     100.750 115.986 121.888  1.00  0.00     0.042 C 
BRANCH  25  26
ATOM     26  C   UNL     1      99.756 115.066 122.554  1.00  0.00     0.045 C 
ATOM     27  O   UNL     1     100.109 113.916 122.926  1.00  0.00    -0.550 OA
ATOM     28  O   UNL     1      98.426 115.448 122.688  1.00  0.00    -0.550 OA
ENDBRANCH  25  26
BRANCH  25  29
ATOM     29  C   UNL     1     101.831 116.377 122.934  1.00  0.00     0.014 C 
BRANCH  29  30
ATOM     30  C   UNL     1     101.261 117.000 124.224  1.00  0.00     0.028 C 
BRANCH  30  31
ATOM     31  C   UNL     1     101.145 118.505 124.137  1.00  0.00    -0.028 C 
ATOM     32  C   UNL     1      99.982 119.191 124.164  1.00  0.00    -0.080 C 
ATOM     33  C   UNL     1      98.640 118.501 124.158  1.00  0.00     0.039 C 
ATOM     34  C   UNL     1     100.004 120.694 124.091  1.00  0.00     0.039 C 
ENDBRANCH  30  31
ENDBRANCH  29  30
ENDBRANCH  25  29
ENDBRANCH  14  25
BRANCH  16  35
ATOM     35  O   UNL     1     102.779 117.259 120.292  1.00  0.00    -0.393 OA
ATOM     36  H   UNL     1     103.693 117.555 120.037  1.00  0.00     0.210 HD
ENDBRANCH  16  35
TORSDOF 10
ENDMDL
