MODEL 1
REMARK VINA RESULT:    -4.765      0.000      0.000
REMARK INTER + INTRA:          -7.273
REMARK INTER:                  -7.272
REMARK INTRA:                  -0.001
REMARK UNBOUND:                -0.001
REMARK SMILES CC1=CCC[C@H](C)C(=O)C[C@@H](C(C)C)C(=O)C1
REMARK SMILES IDX 8 1 9 2 6 3 7 4 5 5 4 6 3 7 2 8 1 9 10 11 11 12 15 13 16 14
REMARK SMILES IDX 17 15 12 17 13 18 14 19
REMARK H PARENT
REMARK Flexibility Score: 70.00
ROOT
ATOM      1  C   UNL     1      -2.550 -13.350  31.371  1.00  0.00     0.136 C 
ATOM      2  O   UNL     1      -2.502 -14.111  32.327  1.00  0.00    -0.299 OA
ENDROOT
BRANCH   1   3
ATOM      3  C   UNL     1      -1.234 -12.856  30.780  1.00  0.00     0.053 C 
ATOM      4  C   UNL     1      -0.305 -12.140  31.779  1.00  0.00     0.016 C 
BRANCH   3   5
ATOM      5  C   UNL     1      -0.482 -13.976  30.017  1.00  0.00     0.015 C 
BRANCH   5   6
ATOM      6  C   UNL     1      -0.960 -14.204  28.567  1.00  0.00     0.028 C 
BRANCH   6   7
ATOM      7  C   UNL     1      -1.498 -12.929  27.956  1.00  0.00    -0.028 C 
ATOM      8  C   UNL     1      -2.731 -12.755  27.424  1.00  0.00    -0.070 CG0
ATOM      9  C   UNL     1      -3.066 -11.402  26.846  1.00  0.00     0.039 C 
ATOM     10  G   UNL     1      -3.802 -13.825  27.423  1.00  0.00     0.000 G0
ENDBRANCH   6   7
ENDBRANCH   5   6
ENDBRANCH   3   5
ENDBRANCH   1   3
BRANCH   1  11
ATOM     11  C   UNL     1      -3.916 -12.986  30.820  1.00  0.00     0.087 C 
BRANCH  11  12
ATOM     12  C   UNL     1      -4.538 -14.101  29.940  1.00  0.00     0.066 C 
BRANCH  12  13
ATOM     13  C   UNL     1      -4.781 -13.578  28.536  1.00  0.00     0.140 C 
ATOM     14  O   UNL     1      -5.808 -12.959  28.292  1.00  0.00    -0.299 OA
BRANCH  13  15
ATOM     15  C   UNL     1      -3.798 -13.830  27.425  1.00  0.00     0.106 CG0
ATOM     16  G   UNL     1      -2.722 -12.765  27.417  1.00  0.00     0.000 G0
ENDBRANCH  13  15
ENDBRANCH  12  13
BRANCH  12  17
ATOM     17  C   UNL     1      -5.864 -14.661  30.545  1.00  0.00    -0.006 C 
ATOM     18  C   UNL     1      -6.428 -15.808  29.685  1.00  0.00     0.008 C 
ATOM     19  C   UNL     1      -5.676 -15.170  31.987  1.00  0.00     0.008 C 
ENDBRANCH  12  17
ENDBRANCH  11  12
ENDBRANCH   1  11
TORSDOF 1
ENDMDL
MODEL 2
REMARK VINA RESULT:    -4.568      1.517      4.056
REMARK INTER + INTRA:          -6.973
REMARK INTER:                  -7.033
REMARK INTRA:                   0.060
REMARK UNBOUND:                -0.001
REMARK SMILES CC1=CCC[C@H](C)C(=O)C[C@@H](C(C)C)C(=O)C1
REMARK SMILES IDX 8 1 9 2 6 3 7 4 5 5 4 6 3 7 2 8 1 9 10 11 11 12 15 13 16 14
REMARK SMILES IDX 17 15 12 17 13 18 14 19
REMARK H PARENT
REMARK Flexibility Score: 70.00
ROOT
ATOM      1  C   UNL     1      -3.780 -13.637  31.651  1.00  0.00     0.136 C 
ATOM      2  O   UNL     1      -4.176 -12.645  32.246  1.00  0.00    -0.299 OA
ENDROOT
BRANCH   1   3
ATOM      3  C   UNL     1      -4.800 -14.709  31.283  1.00  0.00     0.053 C 
ATOM      4  C   UNL     1      -5.611 -15.265  32.469  1.00  0.00     0.016 C 
BRANCH   3   5
ATOM      5  C   UNL     1      -5.730 -14.256  30.130  1.00  0.00     0.015 C 
BRANCH   5   6
ATOM      6  C   UNL     1      -5.311 -14.749  28.728  1.00  0.00     0.028 C 
BRANCH   6   7
ATOM      7  C   UNL     1      -4.766 -13.617  27.885  1.00  0.00    -0.028 C 
ATOM      8  C   UNL     1      -3.465 -13.404  27.576  1.00  0.00    -0.070 CG0
ATOM      9  C   UNL     1      -3.127 -12.200  26.732  1.00  0.00     0.039 C 
ATOM     10  G   UNL     1      -2.343 -14.333  27.989  1.00  0.00     0.000 G0
ENDBRANCH   6   7
ENDBRANCH   5   6
ENDBRANCH   3   5
ENDBRANCH   1   3
BRANCH   1  11
ATOM     11  C   UNL     1      -2.308 -13.707  31.289  1.00  0.00     0.087 C 
BRANCH  11  12
ATOM     12  C   UNL     1      -1.927 -12.793  30.096  1.00  0.00     0.066 C 
BRANCH  12  13
ATOM     13  C   UNL     1      -1.396 -13.632  28.949  1.00  0.00     0.140 C 
ATOM     14  O   UNL     1      -0.188 -13.732  28.782  1.00  0.00    -0.299 OA
BRANCH  13  15
ATOM     15  C   UNL     1      -2.326 -14.324  27.988  1.00  0.00     0.106 CG0
ATOM     16  G   UNL     1      -3.459 -13.402  27.590  1.00  0.00     0.000 G0
ENDBRANCH  13  15
ENDBRANCH  12  13
BRANCH  12  17
ATOM     17  C   UNL     1      -0.883 -11.702  30.496  1.00  0.00    -0.006 C 
ATOM     18  C   UNL     1      -1.571 -10.358  30.801  1.00  0.00     0.008 C 
ATOM     19  C   UNL     1      -0.046 -12.119  31.719  1.00  0.00     0.008 C 
ENDBRANCH  12  17
ENDBRANCH  11  12
ENDBRANCH   1  11
TORSDOF 1
ENDMDL
MODEL 3
REMARK VINA RESULT:    -4.564      1.780      3.868
REMARK INTER + INTRA:          -6.966
REMARK INTER:                  -7.157
REMARK INTRA:                   0.191
REMARK UNBOUND:                -0.001
REMARK SMILES CC1=CCC[C@H](C)C(=O)C[C@@H](C(C)C)C(=O)C1
REMARK SMILES IDX 8 1 9 2 6 3 7 4 5 5 4 6 3 7 2 8 1 9 10 11 11 12 15 13 16 14
REMARK SMILES IDX 17 15 12 17 13 18 14 19
REMARK H PARENT
REMARK Flexibility Score: 70.00
ROOT
ATOM      1  C   UNL     1      -4.565 -13.525  28.813  1.00  0.00     0.136 C 
ATOM      2  O   UNL     1      -5.209 -12.488  28.751  1.00  0.00    -0.299 OA
ENDROOT
BRANCH   1   3
ATOM      3  C   UNL     1      -3.753 -13.941  27.591  1.00  0.00     0.053 C 
ATOM      4  C   UNL     1      -4.433 -13.661  26.238  1.00  0.00     0.016 C 
BRANCH   3   5
ATOM      5  C   UNL     1      -2.314 -13.367  27.626  1.00  0.00     0.015 C 
BRANCH   5   6
ATOM      6  C   UNL     1      -1.267 -14.286  28.292  1.00  0.00     0.028 C 
BRANCH   6   7
ATOM      7  C   UNL     1      -0.361 -13.508  29.221  1.00  0.00    -0.028 C 
ATOM      8  C   UNL     1      -0.567 -13.288  30.540  1.00  0.00    -0.070 CG0
ATOM      9  C   UNL     1       0.455 -12.467  31.288  1.00  0.00     0.039 C 
ATOM     10  G   UNL     1      -1.736 -13.861  31.313  1.00  0.00     0.000 G0
ENDBRANCH   6   7
ENDBRANCH   5   6
ENDBRANCH   3   5
ENDBRANCH   1   3
BRANCH   1  11
ATOM     11  C   UNL     1      -4.591 -14.300  30.118  1.00  0.00     0.087 C 
BRANCH  11  12
ATOM     12  C   UNL     1      -4.331 -13.412  31.363  1.00  0.00     0.066 C 
BRANCH  12  13
ATOM     13  C   UNL     1      -2.903 -12.900  31.344  1.00  0.00     0.140 C 
ATOM     14  O   UNL     1      -2.694 -11.695  31.307  1.00  0.00    -0.299 OA
BRANCH  13  15
ATOM     15  C   UNL     1      -1.732 -13.846  31.340  1.00  0.00     0.106 CG0
ATOM     16  G   UNL     1      -0.580 -13.260  30.550  1.00  0.00     0.000 G0
ENDBRANCH  13  15
ENDBRANCH  12  13
BRANCH  12  17
ATOM     17  C   UNL     1      -4.617 -14.168  32.698  1.00  0.00    -0.006 C 
ATOM     18  C   UNL     1      -5.258 -13.233  33.742  1.00  0.00     0.008 C 
ATOM     19  C   UNL     1      -5.538 -15.385  32.492  1.00  0.00     0.008 C 
ENDBRANCH  12  17
ENDBRANCH  11  12
ENDBRANCH   1  11
TORSDOF 1
ENDMDL
MODEL 4
REMARK VINA RESULT:    -4.411      1.846      3.919
REMARK INTER + INTRA:          -6.733
REMARK INTER:                  -7.537
REMARK INTRA:                   0.805
REMARK UNBOUND:                -0.001
REMARK SMILES CC1=CCC[C@H](C)C(=O)C[C@@H](C(C)C)C(=O)C1
REMARK SMILES IDX 8 1 9 2 6 3 7 4 5 5 4 6 3 7 2 8 1 9 10 11 11 12 15 13 16 14
REMARK SMILES IDX 17 15 12 17 13 18 14 19
REMARK H PARENT
REMARK Flexibility Score: 70.00
ROOT
ATOM      1  C   UNL     1      -5.263 -14.714  30.125  1.00  0.00     0.136 C 
ATOM      2  O   UNL     1      -5.705 -15.004  31.227  1.00  0.00    -0.299 OA
ENDROOT
BRANCH   1   3
ATOM      3  C   UNL     1      -6.011 -15.218  28.895  1.00  0.00     0.053 C 
ATOM      4  C   UNL     1      -7.514 -15.477  29.113  1.00  0.00     0.016 C 
BRANCH   3   5
ATOM      5  C   UNL     1      -5.770 -14.318  27.658  1.00  0.00     0.015 C 
BRANCH   5   6
ATOM      6  C   UNL     1      -4.397 -14.507  26.977  1.00  0.00     0.028 C 
BRANCH   6   7
ATOM      7  C   UNL     1      -3.996 -13.278  26.191  1.00  0.00    -0.028 C 
ATOM      8  C   UNL     1      -3.331 -12.202  26.674  1.00  0.00    -0.070 CG0
ATOM      9  C   UNL     1      -3.041 -11.066  25.725  1.00  0.00     0.039 C 
ATOM     10  G   UNL     1      -2.821 -12.101  28.096  1.00  0.00     0.000 G0
ENDBRANCH   6   7
ENDBRANCH   5   6
ENDBRANCH   3   5
ENDBRANCH   1   3
BRANCH   1  11
ATOM     11  C   UNL     1      -4.025 -13.838  30.064  1.00  0.00     0.087 C 
BRANCH  11  12
ATOM     12  C   UNL     1      -4.333 -12.329  30.246  1.00  0.00     0.066 C 
BRANCH  12  13
ATOM     13  C   UNL     1      -3.888 -11.557  29.019  1.00  0.00     0.140 C 
ATOM     14  O   UNL     1      -4.424 -10.491  28.748  1.00  0.00    -0.299 OA
BRANCH  13  15
ATOM     15  C   UNL     1      -2.817 -12.089  28.104  1.00  0.00     0.106 CG0
ATOM     16  G   UNL     1      -3.330 -12.177  26.682  1.00  0.00     0.000 G0
ENDBRANCH  13  15
ENDBRANCH  12  13
BRANCH  12  17
ATOM     17  C   UNL     1      -3.663 -11.740  31.528  1.00  0.00    -0.006 C 
ATOM     18  C   UNL     1      -2.128 -11.857  31.458  1.00  0.00     0.008 C 
ATOM     19  C   UNL     1      -4.037 -10.263  31.754  1.00  0.00     0.008 C 
ENDBRANCH  12  17
ENDBRANCH  11  12
ENDBRANCH   1  11
TORSDOF 1
ENDMDL
MODEL 5
REMARK VINA RESULT:    -4.376      1.981      3.307
REMARK INTER + INTRA:          -6.680
REMARK INTER:                  -7.059
REMARK INTRA:                   0.379
REMARK UNBOUND:                -0.001
REMARK SMILES CC1=CCC[C@H](C)C(=O)C[C@@H](C(C)C)C(=O)C1
REMARK SMILES IDX 8 1 9 2 6 3 7 4 5 5 4 6 3 7 2 8 1 9 10 11 11 12 15 13 16 14
REMARK SMILES IDX 17 15 12 17 13 18 14 19
REMARK H PARENT
REMARK Flexibility Score: 70.00
ROOT
ATOM      1  C   UNL     1      -4.061 -10.596  29.202  1.00  0.00     0.136 C 
ATOM      2  O   UNL     1      -3.731  -9.876  28.271  1.00  0.00    -0.299 OA
ENDROOT
BRANCH   1   3
ATOM      3  C   UNL     1      -3.618 -10.203  30.607  1.00  0.00     0.053 C 
ATOM      4  C   UNL     1      -4.767  -9.882  31.581  1.00  0.00     0.016 C 
BRANCH   3   5
ATOM      5  C   UNL     1      -2.637 -11.236  31.217  1.00  0.00     0.015 C 
BRANCH   5   6
ATOM      6  C   UNL     1      -1.205 -11.186  30.641  1.00  0.00     0.028 C 
BRANCH   6   7
ATOM      7  C   UNL     1      -0.712 -12.568  30.270  1.00  0.00    -0.028 C 
ATOM      8  C   UNL     1      -0.991 -13.236  29.126  1.00  0.00    -0.070 CG0
ATOM      9  C   UNL     1      -0.411 -14.619  28.957  1.00  0.00     0.039 C 
ATOM     10  G   UNL     1      -1.808 -12.653  27.993  1.00  0.00     0.000 G0
ENDBRANCH   6   7
ENDBRANCH   5   6
ENDBRANCH   3   5
ENDBRANCH   1   3
BRANCH   1  11
ATOM     11  C   UNL     1      -4.923 -11.807  28.892  1.00  0.00     0.087 C 
BRANCH  11  12
ATOM     12  C   UNL     1      -4.164 -13.151  29.038  1.00  0.00     0.066 C 
BRANCH  12  13
ATOM     13  C   UNL     1      -3.157 -13.302  27.913  1.00  0.00     0.140 C 
ATOM     14  O   UNL     1      -3.440 -13.980  26.935  1.00  0.00    -0.299 OA
BRANCH  13  15
ATOM     15  C   UNL     1      -1.798 -12.657  27.986  1.00  0.00     0.106 CG0
ATOM     16  G   UNL     1      -0.989 -13.254  29.119  1.00  0.00     0.000 G0
ENDBRANCH  13  15
ENDBRANCH  12  13
BRANCH  12  17
ATOM     17  C   UNL     1      -5.131 -14.376  29.065  1.00  0.00    -0.006 C 
ATOM     18  C   UNL     1      -5.577 -14.702  30.502  1.00  0.00     0.008 C 
ATOM     19  C   UNL     1      -6.383 -14.149  28.197  1.00  0.00     0.008 C 
ENDBRANCH  12  17
ENDBRANCH  11  12
ENDBRANCH   1  11
TORSDOF 1
ENDMDL
MODEL 6
REMARK VINA RESULT:    -4.312      1.778      3.987
REMARK INTER + INTRA:          -6.583
REMARK INTER:                  -7.022
REMARK INTRA:                   0.439
REMARK UNBOUND:                -0.001
REMARK SMILES CC1=CCC[C@H](C)C(=O)C[C@@H](C(C)C)C(=O)C1
REMARK SMILES IDX 8 1 9 2 6 3 7 4 5 5 4 6 3 7 2 8 1 9 10 11 11 12 15 13 16 14
REMARK SMILES IDX 17 15 12 17 13 18 14 19
REMARK H PARENT
REMARK Flexibility Score: 70.00
ROOT
ATOM      1  C   UNL     1      -4.877 -14.286  30.845  1.00  0.00     0.136 C 
ATOM      2  O   UNL     1      -5.744 -14.750  31.570  1.00  0.00    -0.299 OA
ENDROOT
BRANCH   1   3
ATOM      3  C   UNL     1      -5.051 -14.425  29.336  1.00  0.00     0.053 C 
ATOM      4  C   UNL     1      -6.347 -15.134  28.898  1.00  0.00     0.016 C 
BRANCH   3   5
ATOM      5  C   UNL     1      -4.876 -13.071  28.603  1.00  0.00     0.015 C 
BRANCH   5   6
ATOM      6  C   UNL     1      -3.885 -13.101  27.418  1.00  0.00     0.028 C 
BRANCH   6   7
ATOM      7  C   UNL     1      -2.629 -13.869  27.768  1.00  0.00    -0.028 C 
ATOM      8  C   UNL     1      -1.576 -13.399  28.477  1.00  0.00    -0.070 CG0
ATOM      9  C   UNL     1      -0.407 -14.325  28.703  1.00  0.00     0.039 C 
ATOM     10  G   UNL     1      -1.532 -12.018  29.096  1.00  0.00     0.000 G0
ENDBRANCH   6   7
ENDBRANCH   5   6
ENDBRANCH   3   5
ENDBRANCH   1   3
BRANCH   1  11
ATOM     11  C   UNL     1      -3.710 -13.569  31.501  1.00  0.00     0.087 C 
BRANCH  11  12
ATOM     12  C   UNL     1      -3.429 -12.171  30.890  1.00  0.00     0.066 C 
BRANCH  12  13
ATOM     13  C   UNL     1      -1.960 -12.048  30.533  1.00  0.00     0.140 C 
ATOM     14  O   UNL     1      -1.129 -11.945  31.425  1.00  0.00    -0.299 OA
BRANCH  13  15
ATOM     15  C   UNL     1      -1.501 -12.018  29.100  1.00  0.00     0.106 CG0
ATOM     16  G   UNL     1      -1.589 -13.400  28.487  1.00  0.00     0.000 G0
ENDBRANCH  13  15
ENDBRANCH  12  13
BRANCH  12  17
ATOM     17  C   UNL     1      -3.853 -11.012  31.847  1.00  0.00    -0.006 C 
ATOM     18  C   UNL     1      -4.584  -9.895  31.078  1.00  0.00     0.008 C 
ATOM     19  C   UNL     1      -4.761 -11.503  32.989  1.00  0.00     0.008 C 
ENDBRANCH  12  17
ENDBRANCH  11  12
ENDBRANCH   1  11
TORSDOF 1
ENDMDL
MODEL 7
REMARK VINA RESULT:    -4.223      2.030      5.068
REMARK INTER + INTRA:          -6.446
REMARK INTER:                  -6.817
REMARK INTRA:                   0.371
REMARK UNBOUND:                -0.001
REMARK SMILES CC1=CCC[C@H](C)C(=O)C[C@@H](C(C)C)C(=O)C1
REMARK SMILES IDX 8 1 9 2 6 3 7 4 5 5 4 6 3 7 2 8 1 9 10 11 11 12 15 13 16 14
REMARK SMILES IDX 17 15 12 17 13 18 14 19
REMARK H PARENT
REMARK Flexibility Score: 70.00
ROOT
ATOM      1  C   UNL     1      -3.903 -11.942  27.876  1.00  0.00     0.136 C 
ATOM      2  O   UNL     1      -4.600 -10.971  28.132  1.00  0.00    -0.299 OA
ENDROOT
BRANCH   1   3
ATOM      3  C   UNL     1      -4.557 -13.136  27.190  1.00  0.00     0.053 C 
ATOM      4  C   UNL     1      -3.874 -13.585  25.884  1.00  0.00     0.016 C 
BRANCH   3   5
ATOM      5  C   UNL     1      -4.752 -14.329  28.159  1.00  0.00     0.015 C 
BRANCH   5   6
ATOM      6  C   UNL     1      -5.571 -14.004  29.428  1.00  0.00     0.028 C 
BRANCH   6   7
ATOM      7  C   UNL     1      -4.833 -14.418  30.682  1.00  0.00    -0.028 C 
ATOM      8  C   UNL     1      -4.126 -13.603  31.500  1.00  0.00    -0.070 CG0
ATOM      9  C   UNL     1      -3.446 -14.221  32.697  1.00  0.00     0.039 C 
ATOM     10  G   UNL     1      -4.024 -12.105  31.306  1.00  0.00     0.000 G0
ENDBRANCH   6   7
ENDBRANCH   5   6
ENDBRANCH   3   5
ENDBRANCH   1   3
BRANCH   1  11
ATOM     11  C   UNL     1      -2.427 -11.868  28.226  1.00  0.00     0.087 C 
BRANCH  11  12
ATOM     12  C   UNL     1      -2.088 -12.524  29.589  1.00  0.00     0.066 C 
BRANCH  12  13
ATOM     13  C   UNL     1      -2.700 -11.718  30.719  1.00  0.00     0.140 C 
ATOM     14  O   UNL     1      -2.098 -10.751  31.166  1.00  0.00    -0.299 OA
BRANCH  13  15
ATOM     15  C   UNL     1      -4.023 -12.099  31.326  1.00  0.00     0.106 CG0
ATOM     16  G   UNL     1      -4.117 -13.601  31.494  1.00  0.00     0.000 G0
ENDBRANCH  13  15
ENDBRANCH  12  13
BRANCH  12  17
ATOM     17  C   UNL     1      -0.549 -12.676  29.805  1.00  0.00    -0.006 C 
ATOM     18  C   UNL     1      -0.237 -13.266  31.193  1.00  0.00     0.008 C 
ATOM     19  C   UNL     1       0.105 -13.564  28.730  1.00  0.00     0.008 C 
ENDBRANCH  12  17
ENDBRANCH  11  12
ENDBRANCH   1  11
TORSDOF 1
ENDMDL
MODEL 8
REMARK VINA RESULT:    -4.181      1.895      4.923
REMARK INTER + INTRA:          -6.382
REMARK INTER:                  -6.719
REMARK INTRA:                   0.337
REMARK UNBOUND:                -0.001
REMARK SMILES CC1=CCC[C@H](C)C(=O)C[C@@H](C(C)C)C(=O)C1
REMARK SMILES IDX 8 1 9 2 6 3 7 4 5 5 4 6 3 7 2 8 1 9 10 11 11 12 15 13 16 14
REMARK SMILES IDX 17 15 12 17 13 18 14 19
REMARK H PARENT
REMARK Flexibility Score: 70.00
ROOT
ATOM      1  C   UNL     1      -5.045 -14.150  28.621  1.00  0.00     0.136 C 
ATOM      2  O   UNL     1      -4.817 -14.932  27.710  1.00  0.00    -0.299 OA
ENDROOT
BRANCH   1   3
ATOM      3  C   UNL     1      -5.937 -14.619  29.766  1.00  0.00     0.053 C 
ATOM      4  C   UNL     1      -6.796 -15.858  29.450  1.00  0.00     0.016 C 
BRANCH   3   5
ATOM      5  C   UNL     1      -5.142 -14.808  31.083  1.00  0.00     0.015 C 
BRANCH   5   6
ATOM      6  C   UNL     1      -4.585 -13.505  31.695  1.00  0.00     0.028 C 
BRANCH   6   7
ATOM      7  C   UNL     1      -3.106 -13.624  31.995  1.00  0.00    -0.028 C 
ATOM      8  C   UNL     1      -2.109 -12.947  31.379  1.00  0.00    -0.070 CG0
ATOM      9  C   UNL     1      -0.692 -13.225  31.816  1.00  0.00     0.039 C 
ATOM     10  G   UNL     1      -2.341 -11.894  30.316  1.00  0.00     0.000 G0
ENDBRANCH   6   7
ENDBRANCH   5   6
ENDBRANCH   3   5
ENDBRANCH   1   3
BRANCH   1  11
ATOM     11  C   UNL     1      -4.389 -12.782  28.564  1.00  0.00     0.087 C 
BRANCH  11  12
ATOM     12  C   UNL     1      -2.978 -12.807  27.922  1.00  0.00     0.066 C 
BRANCH  12  13
ATOM     13  C   UNL     1      -1.933 -12.424  28.953  1.00  0.00     0.140 C 
ATOM     14  O   UNL     1      -0.746 -12.575  28.695  1.00  0.00    -0.299 OA
BRANCH  13  15
ATOM     15  C   UNL     1      -2.324 -11.889  30.304  1.00  0.00     0.106 CG0
ATOM     16  G   UNL     1      -2.116 -12.942  31.372  1.00  0.00     0.000 G0
ENDBRANCH  13  15
ENDBRANCH  12  13
BRANCH  12  17
ATOM     17  C   UNL     1      -2.878 -11.869  26.677  1.00  0.00    -0.006 C 
ATOM     18  C   UNL     1      -3.943 -12.227  25.623  1.00  0.00     0.008 C 
ATOM     19  C   UNL     1      -3.034 -10.384  27.054  1.00  0.00     0.008 C 
ENDBRANCH  12  17
ENDBRANCH  11  12
ENDBRANCH   1  11
TORSDOF 1
ENDMDL
MODEL 9
REMARK VINA RESULT:    -4.146      1.822      4.055
REMARK INTER + INTRA:          -6.329
REMARK INTER:                  -6.367
REMARK INTRA:                   0.039
REMARK UNBOUND:                -0.001
REMARK SMILES CC1=CCC[C@H](C)C(=O)C[C@@H](C(C)C)C(=O)C1
REMARK SMILES IDX 8 1 9 2 6 3 7 4 5 5 4 6 3 7 2 8 1 9 10 11 11 12 15 13 16 14
REMARK SMILES IDX 17 15 12 17 13 18 14 19
REMARK H PARENT
REMARK Flexibility Score: 70.00
ROOT
ATOM      1  C   UNL     1      -4.727 -13.701  28.549  1.00  0.00     0.136 C 
ATOM      2  O   UNL     1      -5.934 -13.511  28.561  1.00  0.00    -0.299 OA
ENDROOT
BRANCH   1   3
ATOM      3  C   UNL     1      -3.934 -13.211  27.342  1.00  0.00     0.053 C 
ATOM      4  C   UNL     1      -4.132 -14.040  26.059  1.00  0.00     0.016 C 
BRANCH   3   5
ATOM      5  C   UNL     1      -4.156 -11.701  27.074  1.00  0.00     0.015 C 
BRANCH   5   6
ATOM      6  C   UNL     1      -2.961 -10.796  27.443  1.00  0.00     0.028 C 
BRANCH   6   7
ATOM      7  C   UNL     1      -3.111 -10.224  28.836  1.00  0.00    -0.028 C 
ATOM      8  C   UNL     1      -2.616 -10.758  29.977  1.00  0.00    -0.070 CG0
ATOM      9  C   UNL     1      -2.894 -10.037  31.273  1.00  0.00     0.039 C 
ATOM     10  G   UNL     1      -1.760 -12.006  30.017  1.00  0.00     0.000 G0
ENDBRANCH   6   7
ENDBRANCH   5   6
ENDBRANCH   3   5
ENDBRANCH   1   3
BRANCH   1  11
ATOM     11  C   UNL     1      -4.101 -14.374  29.757  1.00  0.00     0.087 C 
BRANCH  11  12
ATOM     12  C   UNL     1      -3.812 -13.393  30.923  1.00  0.00     0.066 C 
BRANCH  12  13
ATOM     13  C   UNL     1      -2.336 -13.043  30.951  1.00  0.00     0.140 C 
ATOM     14  O   UNL     1      -1.601 -13.590  31.762  1.00  0.00    -0.299 OA
BRANCH  13  15
ATOM     15  C   UNL     1      -1.758 -12.011  30.021  1.00  0.00     0.106 CG0
ATOM     16  G   UNL     1      -2.626 -10.771  29.998  1.00  0.00     0.000 G0
ENDBRANCH  13  15
ENDBRANCH  12  13
BRANCH  12  17
ATOM     17  C   UNL     1      -4.258 -13.969  32.304  1.00  0.00    -0.006 C 
ATOM     18  C   UNL     1      -4.870 -12.870  33.194  1.00  0.00     0.008 C 
ATOM     19  C   UNL     1      -5.278 -15.113  32.156  1.00  0.00     0.008 C 
ENDBRANCH  12  17
ENDBRANCH  11  12
ENDBRANCH   1  11
TORSDOF 1
ENDMDL
