MODEL 1
REMARK VINA RESULT:    -4.352      0.000      0.000
REMARK INTER + INTRA:          -4.623
REMARK INTER:                  -4.606
REMARK INTRA:                  -0.017
REMARK UNBOUND:                -0.017
REMARK SMILES O=C([O-])c1cccnc1
REMARK SMILES IDX 4 1 5 2 9 3 6 4 8 5 7 6 2 7 1 8 3 9
REMARK H PARENT
REMARK Flexibility Score: inf
ROOT
ATOM      1  C   UNL     1     -18.399 -30.104  23.601  1.00  0.00     0.016 A 
ATOM      2  C   UNL     1     -17.423 -31.114  23.586  1.00  0.00     0.013 A 
ATOM      3  C   UNL     1     -18.171 -28.942  22.843  1.00  0.00     0.120 A 
ATOM      4  C   UNL     1     -16.259 -30.953  22.831  1.00  0.00     0.021 A 
ATOM      5  N   UNL     1     -17.029 -28.810  22.117  1.00  0.00    -0.264 NA
ATOM      6  C   UNL     1     -16.078 -29.781  22.095  1.00  0.00     0.111 A 
ENDROOT
BRANCH   1   7
ATOM      7  C   UNL     1     -19.635 -30.264  24.398  1.00  0.00     0.073 C 
ATOM      8  O   UNL     1     -20.542 -31.054  24.020  1.00  0.00    -0.545 OA
ATOM      9  O   UNL     1     -19.812 -29.546  25.575  1.00  0.00    -0.545 OA
ENDBRANCH   1   7
TORSDOF 1
ENDMDL
MODEL 2
REMARK VINA RESULT:    -4.297      2.761      3.988
REMARK INTER + INTRA:          -4.565
REMARK INTER:                  -4.548
REMARK INTRA:                  -0.016
REMARK UNBOUND:                -0.017
REMARK SMILES O=C([O-])c1cccnc1
REMARK SMILES IDX 4 1 5 2 9 3 6 4 8 5 7 6 2 7 1 8 3 9
REMARK H PARENT
REMARK Flexibility Score: inf
ROOT
ATOM      1  C   UNL     1     -18.803 -30.467  23.953  1.00  0.00     0.016 A 
ATOM      2  C   UNL     1     -19.176 -29.560  24.959  1.00  0.00     0.013 A 
ATOM      3  C   UNL     1     -19.794 -31.300  23.404  1.00  0.00     0.120 A 
ATOM      4  C   UNL     1     -20.502 -29.499  25.391  1.00  0.00     0.021 A 
ATOM      5  N   UNL     1     -21.079 -31.220  23.842  1.00  0.00    -0.264 NA
ATOM      6  C   UNL     1     -21.449 -30.346  24.815  1.00  0.00     0.111 A 
ENDROOT
BRANCH   1   7
ATOM      7  C   UNL     1     -17.401 -30.541  23.487  1.00  0.00     0.073 C 
ATOM      8  O   UNL     1     -16.654 -31.487  23.855  1.00  0.00    -0.545 OA
ATOM      9  O   UNL     1     -16.890 -29.568  22.637  1.00  0.00    -0.545 OA
ENDBRANCH   1   7
TORSDOF 1
ENDMDL
MODEL 3
REMARK VINA RESULT:    -4.127      9.582     10.211
REMARK INTER + INTRA:          -4.385
REMARK INTER:                  -4.362
REMARK INTRA:                  -0.024
REMARK UNBOUND:                -0.017
REMARK SMILES O=C([O-])c1cccnc1
REMARK SMILES IDX 4 1 5 2 9 3 6 4 8 5 7 6 2 7 1 8 3 9
REMARK H PARENT
REMARK Flexibility Score: inf
ROOT
ATOM      1  C   UNL     1     -27.608 -32.151  24.487  1.00  0.00     0.016 A 
ATOM      2  C   UNL     1     -27.542 -33.262  23.631  1.00  0.00     0.013 A 
ATOM      3  C   UNL     1     -28.398 -31.054  24.099  1.00  0.00     0.120 A 
ATOM      4  C   UNL     1     -28.250 -33.263  22.427  1.00  0.00     0.021 A 
ATOM      5  N   UNL     1     -29.077 -31.080  22.922  1.00  0.00    -0.264 NA
ATOM      6  C   UNL     1     -29.020 -32.151  22.086  1.00  0.00     0.111 A 
ENDROOT
BRANCH   1   7
ATOM      7  C   UNL     1     -26.862 -32.139  25.764  1.00  0.00     0.073 C 
ATOM      8  O   UNL     1     -26.999 -31.184  26.576  1.00  0.00    -0.545 OA
ATOM      9  O   UNL     1     -26.001 -33.180  26.087  1.00  0.00    -0.545 OA
ENDBRANCH   1   7
TORSDOF 1
ENDMDL
MODEL 4
REMARK VINA RESULT:    -4.119      2.402      3.187
REMARK INTER + INTRA:          -4.377
REMARK INTER:                  -4.355
REMARK INTRA:                  -0.021
REMARK UNBOUND:                -0.017
REMARK SMILES O=C([O-])c1cccnc1
REMARK SMILES IDX 4 1 5 2 9 3 6 4 8 5 7 6 2 7 1 8 3 9
REMARK H PARENT
REMARK Flexibility Score: inf
ROOT
ATOM      1  C   UNL     1     -20.862 -30.997  23.931  1.00  0.00     0.016 A 
ATOM      2  C   UNL     1     -20.351 -29.941  24.704  1.00  0.00     0.013 A 
ATOM      3  C   UNL     1     -19.955 -31.807  23.225  1.00  0.00     0.120 A 
ATOM      4  C   UNL     1     -18.975 -29.715  24.760  1.00  0.00     0.021 A 
ATOM      5  N   UNL     1     -18.619 -31.565  23.297  1.00  0.00    -0.264 NA
ATOM      6  C   UNL     1     -18.115 -30.546  24.041  1.00  0.00     0.111 A 
ENDROOT
BRANCH   1   7
ATOM      7  C   UNL     1     -22.318 -31.245  23.864  1.00  0.00     0.073 C 
ATOM      8  O   UNL     1     -22.842 -31.701  22.812  1.00  0.00    -0.545 OA
ATOM      9  O   UNL     1     -23.129 -30.981  24.961  1.00  0.00    -0.545 OA
ENDBRANCH   1   7
TORSDOF 1
ENDMDL
MODEL 5
REMARK VINA RESULT:    -4.077      9.787     10.417
REMARK INTER + INTRA:          -4.332
REMARK INTER:                  -4.308
REMARK INTRA:                  -0.024
REMARK UNBOUND:                -0.017
REMARK SMILES O=C([O-])c1cccnc1
REMARK SMILES IDX 4 1 5 2 9 3 6 4 8 5 7 6 2 7 1 8 3 9
REMARK H PARENT
REMARK Flexibility Score: inf
ROOT
ATOM      1  C   UNL     1     -28.086 -32.077  23.870  1.00  0.00     0.016 A 
ATOM      2  C   UNL     1     -27.060 -32.927  24.313  1.00  0.00     0.013 A 
ATOM      3  C   UNL     1     -28.516 -31.046  24.725  1.00  0.00     0.120 A 
ATOM      4  C   UNL     1     -26.490 -32.740  25.574  1.00  0.00     0.021 A 
ATOM      5  N   UNL     1     -27.944 -30.886  25.948  1.00  0.00    -0.264 NA
ATOM      6  C   UNL     1     -26.950 -31.703  26.386  1.00  0.00     0.111 A 
ENDROOT
BRANCH   1   7
ATOM      7  C   UNL     1     -28.698 -32.266  22.537  1.00  0.00     0.073 C 
ATOM      8  O   UNL     1     -28.275 -33.165  21.761  1.00  0.00    -0.545 OA
ATOM      9  O   UNL     1     -29.748 -31.456  22.122  1.00  0.00    -0.545 OA
ENDBRANCH   1   7
TORSDOF 1
ENDMDL
MODEL 6
REMARK VINA RESULT:    -4.066      6.780      7.814
REMARK INTER + INTRA:          -4.321
REMARK INTER:                  -4.297
REMARK INTRA:                  -0.023
REMARK UNBOUND:                -0.017
REMARK SMILES O=C([O-])c1cccnc1
REMARK SMILES IDX 4 1 5 2 9 3 6 4 8 5 7 6 2 7 1 8 3 9
REMARK H PARENT
REMARK Flexibility Score: inf
ROOT
ATOM      1  C   UNL     1     -25.676 -32.363  24.872  1.00  0.00     0.016 A 
ATOM      2  C   UNL     1     -24.375 -32.098  25.329  1.00  0.00     0.013 A 
ATOM      3  C   UNL     1     -25.949 -32.200  23.502  1.00  0.00     0.120 A 
ATOM      4  C   UNL     1     -23.388 -31.682  24.433  1.00  0.00     0.021 A 
ATOM      5  N   UNL     1     -24.970 -31.794  22.651  1.00  0.00    -0.264 NA
ATOM      6  C   UNL     1     -23.708 -31.534  23.084  1.00  0.00     0.111 A 
ENDROOT
BRANCH   1   7
ATOM      7  C   UNL     1     -26.730 -32.803  25.812  1.00  0.00     0.073 C 
ATOM      8  O   UNL     1     -27.931 -32.873  25.439  1.00  0.00    -0.545 OA
ATOM      9  O   UNL     1     -26.408 -33.148  27.120  1.00  0.00    -0.545 OA
ENDBRANCH   1   7
TORSDOF 1
ENDMDL
MODEL 7
REMARK VINA RESULT:    -4.037      7.625      8.706
REMARK INTER + INTRA:          -4.289
REMARK INTER:                  -4.268
REMARK INTRA:                  -0.022
REMARK UNBOUND:                -0.017
REMARK SMILES O=C([O-])c1cccnc1
REMARK SMILES IDX 4 1 5 2 9 3 6 4 8 5 7 6 2 7 1 8 3 9
REMARK H PARENT
REMARK Flexibility Score: inf
ROOT
ATOM      1  C   UNL     1     -26.466 -32.571  23.574  1.00  0.00     0.016 A 
ATOM      2  C   UNL     1     -26.317 -32.914  24.928  1.00  0.00     0.013 A 
ATOM      3  C   UNL     1     -25.442 -31.831  22.956  1.00  0.00     0.120 A 
ATOM      4  C   UNL     1     -25.176 -32.522  25.629  1.00  0.00     0.021 A 
ATOM      5  N   UNL     1     -24.341 -31.462  23.661  1.00  0.00    -0.264 NA
ATOM      6  C   UNL     1     -24.187 -31.788  24.972  1.00  0.00     0.111 A 
ENDROOT
BRANCH   1   7
ATOM      7  C   UNL     1     -27.672 -32.981  22.821  1.00  0.00     0.073 C 
ATOM      8  O   UNL     1     -28.249 -34.070  23.082  1.00  0.00    -0.545 OA
ATOM      9  O   UNL     1     -28.185 -32.168  21.817  1.00  0.00    -0.545 OA
ENDBRANCH   1   7
TORSDOF 1
ENDMDL
MODEL 8
REMARK VINA RESULT:    -4.026      6.062      7.739
REMARK INTER + INTRA:          -4.278
REMARK INTER:                  -4.260
REMARK INTRA:                  -0.018
REMARK UNBOUND:                -0.017
REMARK SMILES O=C([O-])c1cccnc1
REMARK SMILES IDX 4 1 5 2 9 3 6 4 8 5 7 6 2 7 1 8 3 9
REMARK H PARENT
REMARK Flexibility Score: inf
ROOT
ATOM      1  C   UNL     1     -24.326 -31.646  25.149  1.00  0.00     0.016 A 
ATOM      2  C   UNL     1     -24.532 -32.880  25.788  1.00  0.00     0.013 A 
ATOM      3  C   UNL     1     -25.373 -30.708  25.155  1.00  0.00     0.120 A 
ATOM      4  C   UNL     1     -25.752 -33.153  26.409  1.00  0.00     0.021 A 
ATOM      5  N   UNL     1     -26.552 -30.999  25.768  1.00  0.00    -0.264 NA
ATOM      6  C   UNL     1     -26.761 -32.190  26.388  1.00  0.00     0.111 A 
ENDROOT
BRANCH   1   7
ATOM      7  C   UNL     1     -23.038 -31.346  24.487  1.00  0.00     0.073 C 
ATOM      8  O   UNL     1     -22.592 -32.102  23.583  1.00  0.00    -0.545 OA
ATOM      9  O   UNL     1     -22.303 -30.225  24.852  1.00  0.00    -0.545 OA
ENDBRANCH   1   7
TORSDOF 1
ENDMDL
MODEL 9
REMARK VINA RESULT:    -4.015      8.009      9.053
REMARK INTER + INTRA:          -4.266
REMARK INTER:                  -4.248
REMARK INTRA:                  -0.019
REMARK UNBOUND:                -0.017
REMARK SMILES O=C([O-])c1cccnc1
REMARK SMILES IDX 4 1 5 2 9 3 6 4 8 5 7 6 2 7 1 8 3 9
REMARK H PARENT
REMARK Flexibility Score: inf
ROOT
ATOM      1  C   UNL     1     -26.360 -32.611  24.644  1.00  0.00     0.016 A 
ATOM      2  C   UNL     1     -27.440 -33.294  24.064  1.00  0.00     0.013 A 
ATOM      3  C   UNL     1     -25.769 -31.558  23.922  1.00  0.00     0.120 A 
ATOM      4  C   UNL     1     -27.907 -32.926  22.800  1.00  0.00     0.021 A 
ATOM      5  N   UNL     1     -26.242 -31.220  22.693  1.00  0.00    -0.264 NA
ATOM      6  C   UNL     1     -27.288 -31.875  22.123  1.00  0.00     0.111 A 
ENDROOT
BRANCH   1   7
ATOM      7  C   UNL     1     -25.857 -32.993  25.982  1.00  0.00     0.073 C 
ATOM      8  O   UNL     1     -26.639 -33.041  26.969  1.00  0.00    -0.545 OA
ATOM      9  O   UNL     1     -24.516 -33.305  26.168  1.00  0.00    -0.545 OA
ENDBRANCH   1   7
TORSDOF 1
ENDMDL
