MODEL 1
REMARK VINA RESULT:    -6.696      0.000      0.000
REMARK INTER + INTRA:          -8.172
REMARK INTER:                  -8.066
REMARK INTRA:                  -0.105
REMARK UNBOUND:                -0.105
REMARK SMILES Oc1cc(O)c2c(c1)O[C@@H](c1ccc(O)c(O)c1)[C@H](O)C2
REMARK SMILES IDX 21 1 19 2 10 3 9 4 7 5 8 6 2 7 3 8 4 9 6 10 20 11 11 13
REMARK SMILES IDX 18 14 12 15 16 16 13 17 14 18 17 19 15 21 5 23 1 25
REMARK H PARENT 20 12 17 20 15 22 5 24 1 26
REMARK Flexibility Score: inf
ROOT
ATOM      1  C   UNL     1      31.915  12.116  25.595  1.00  0.00     0.079 C 
ATOM      2  C   UNL     1      32.296  12.198  27.085  1.00  0.00     0.164 C 
ATOM      3  C   UNL     1      31.105  11.761  27.954  1.00  0.00     0.232 C 
ATOM      4  O   UNL     1      30.692  10.446  27.583  1.00  0.00    -0.482 OA
ATOM      5  C   UNL     1      30.672  10.017  26.253  1.00  0.00     0.131 A 
ATOM      6  C   UNL     1      30.080   8.789  25.944  1.00  0.00     0.093 A 
ATOM      7  C   UNL     1      30.032   8.342  24.620  1.00  0.00     0.122 A 
ATOM      8  C   UNL     1      30.570   9.131  23.601  1.00  0.00     0.092 A 
ATOM      9  C   UNL     1      31.166  10.364  23.890  1.00  0.00     0.126 A 
ATOM     10  C   UNL     1      31.257  10.801  25.234  1.00  0.00     0.039 A 
ENDROOT
BRANCH   2  11
ATOM     11  O   UNL     1      32.664  13.513  27.410  1.00  0.00    -0.389 OA
ATOM     12  H   UNL     1      32.450  13.641  28.371  1.00  0.00     0.211 HD
ENDBRANCH   2  11
BRANCH   3  13
ATOM     13  C   UNL     1      31.462  11.786  29.422  1.00  0.00    -0.001 A 
ATOM     14  C   UNL     1      30.469  12.019  30.388  1.00  0.00     0.057 A 
ATOM     15  C   UNL     1      32.796  11.625  29.835  1.00  0.00     0.012 A 
ATOM     16  C   UNL     1      30.798  12.071  31.750  1.00  0.00     0.157 A 
ATOM     17  C   UNL     1      33.125  11.677  31.192  1.00  0.00     0.050 A 
ATOM     18  C   UNL     1      32.133  11.897  32.153  1.00  0.00     0.157 A 
BRANCH  16  19
ATOM     19  O   UNL     1      29.806  12.298  32.702  1.00  0.00    -0.504 OA
ATOM     20  H   UNL     1      29.700  11.699  33.512  1.00  0.00     0.293 HD
ENDBRANCH  16  19
BRANCH  18  21
ATOM     21  O   UNL     1      32.493  11.943  33.500  1.00  0.00    -0.504 OA
ATOM     22  H   UNL     1      32.385  12.783  34.057  1.00  0.00     0.293 HD
ENDBRANCH  18  21
ENDBRANCH   3  13
BRANCH   9  23
ATOM     23  O   UNL     1      31.645  11.128  22.824  1.00  0.00    -0.507 OA
ATOM     24  H   UNL     1      31.976  12.078  22.927  1.00  0.00     0.293 HD
ENDBRANCH   9  23
BRANCH   7  25
ATOM     25  O   UNL     1      29.445   7.118  24.305  1.00  0.00    -0.508 OA
ATOM     26  H   UNL     1      28.443   7.025  24.188  1.00  0.00     0.293 HD
ENDBRANCH   7  25
TORSDOF 6
ENDMDL
MODEL 2
REMARK VINA RESULT:    -6.663      2.454      6.485
REMARK INTER + INTRA:          -8.132
REMARK INTER:                  -7.774
REMARK INTRA:                  -0.358
REMARK UNBOUND:                -0.105
REMARK SMILES Oc1cc(O)c2c(c1)O[C@@H](c1ccc(O)c(O)c1)[C@H](O)C2
REMARK SMILES IDX 21 1 19 2 10 3 9 4 7 5 8 6 2 7 3 8 4 9 6 10 20 11 11 13
REMARK SMILES IDX 18 14 12 15 16 16 13 17 14 18 17 19 15 21 5 23 1 25
REMARK H PARENT 20 12 17 20 15 22 5 24 1 26
REMARK Flexibility Score: inf
ROOT
ATOM      1  C   UNL     1      32.691  11.702  30.697  1.00  0.00     0.079 C 
ATOM      2  C   UNL     1      32.040  12.309  29.440  1.00  0.00     0.164 C 
ATOM      3  C   UNL     1      31.985  11.258  28.320  1.00  0.00     0.232 C 
ATOM      4  O   UNL     1      31.283  10.101  28.775  1.00  0.00    -0.482 OA
ATOM      5  C   UNL     1      31.423   9.607  30.076  1.00  0.00     0.131 A 
ATOM      6  C   UNL     1      30.857   8.369  30.395  1.00  0.00     0.093 A 
ATOM      7  C   UNL     1      30.994   7.843  31.685  1.00  0.00     0.122 A 
ATOM      8  C   UNL     1      31.707   8.554  32.652  1.00  0.00     0.092 A 
ATOM      9  C   UNL     1      32.281   9.795  32.350  1.00  0.00     0.126 A 
ATOM     10  C   UNL     1      32.108  10.353  31.060  1.00  0.00     0.039 A 
ENDROOT
BRANCH   2  11
ATOM     11  O   UNL     1      32.781  13.422  29.011  1.00  0.00    -0.389 OA
ATOM     12  H   UNL     1      33.219  13.163  28.159  1.00  0.00     0.211 HD
ENDBRANCH   2  11
BRANCH   3  13
ATOM     13  C   UNL     1      31.310  11.809  27.086  1.00  0.00    -0.001 A 
ATOM     14  C   UNL     1      31.989  11.831  25.857  1.00  0.00     0.057 A 
ATOM     15  C   UNL     1      30.014  12.349  27.162  1.00  0.00     0.012 A 
ATOM     16  C   UNL     1      31.377  12.367  24.714  1.00  0.00     0.157 A 
ATOM     17  C   UNL     1      29.404  12.882  26.025  1.00  0.00     0.050 A 
ATOM     18  C   UNL     1      30.077  12.893  24.800  1.00  0.00     0.157 A 
BRANCH  16  19
ATOM     19  O   UNL     1      32.057  12.381  23.497  1.00  0.00    -0.504 OA
ATOM     20  H   UNL     1      32.908  12.915  23.370  1.00  0.00     0.293 HD
ENDBRANCH  16  19
BRANCH  18  21
ATOM     21  O   UNL     1      29.441  13.432  23.681  1.00  0.00    -0.504 OA
ATOM     22  H   UNL     1      29.959  13.753  22.871  1.00  0.00     0.293 HD
ENDBRANCH  18  21
ENDBRANCH   3  13
BRANCH   9  23
ATOM     23  O   UNL     1      33.021  10.436  33.345  1.00  0.00    -0.507 OA
ATOM     24  H   UNL     1      33.556   9.940  34.046  1.00  0.00     0.293 HD
ENDBRANCH   9  23
BRANCH   7  25
ATOM     25  O   UNL     1      30.431   6.612  32.012  1.00  0.00    -0.508 OA
ATOM     26  H   UNL     1      30.861   5.997  32.693  1.00  0.00     0.293 HD
ENDBRANCH   7  25
TORSDOF 6
ENDMDL
MODEL 3
REMARK VINA RESULT:    -6.636      3.942      8.687
REMARK INTER + INTRA:          -8.099
REMARK INTER:                  -8.290
REMARK INTRA:                   0.191
REMARK UNBOUND:                -0.105
REMARK SMILES Oc1cc(O)c2c(c1)O[C@@H](c1ccc(O)c(O)c1)[C@H](O)C2
REMARK SMILES IDX 21 1 19 2 10 3 9 4 7 5 8 6 2 7 3 8 4 9 6 10 20 11 11 13
REMARK SMILES IDX 18 14 12 15 16 16 13 17 14 18 17 19 15 21 5 23 1 25
REMARK H PARENT 20 12 17 20 15 22 5 24 1 26
REMARK Flexibility Score: inf
ROOT
ATOM      1  C   UNL     1      31.101   7.322  33.901  1.00  0.00     0.079 C 
ATOM      2  C   UNL     1      31.599   7.892  32.559  1.00  0.00     0.164 C 
ATOM      3  C   UNL     1      30.955   9.264  32.303  1.00  0.00     0.232 C 
ATOM      4  O   UNL     1      31.240  10.143  33.391  1.00  0.00    -0.482 OA
ATOM      5  C   UNL     1      31.250   9.707  34.720  1.00  0.00     0.131 A 
ATOM      6  C   UNL     1      31.348  10.654  35.744  1.00  0.00     0.093 A 
ATOM      7  C   UNL     1      31.345  10.248  37.083  1.00  0.00     0.122 A 
ATOM      8  C   UNL     1      31.234   8.891  37.396  1.00  0.00     0.092 A 
ATOM      9  C   UNL     1      31.134   7.929  36.384  1.00  0.00     0.126 A 
ATOM     10  C   UNL     1      31.181   8.331  35.027  1.00  0.00     0.039 A 
ENDROOT
BRANCH   2  11
ATOM     11  O   UNL     1      31.270   7.011  31.517  1.00  0.00    -0.389 OA
ATOM     12  H   UNL     1      31.908   6.253  31.570  1.00  0.00     0.211 HD
ENDBRANCH   2  11
BRANCH   3  13
ATOM     13  C   UNL     1      31.459   9.872  31.015  1.00  0.00    -0.001 A 
ATOM     14  C   UNL     1      32.070  11.137  31.020  1.00  0.00     0.057 A 
ATOM     15  C   UNL     1      31.279   9.203  29.792  1.00  0.00     0.012 A 
ATOM     16  C   UNL     1      32.515  11.719  29.823  1.00  0.00     0.157 A 
ATOM     17  C   UNL     1      31.721   9.782  28.599  1.00  0.00     0.050 A 
ATOM     18  C   UNL     1      32.339  11.035  28.608  1.00  0.00     0.157 A 
BRANCH  16  19
ATOM     19  O   UNL     1      33.125  12.972  29.838  1.00  0.00    -0.504 OA
ATOM     20  H   UNL     1      32.981  13.623  30.600  1.00  0.00     0.293 HD
ENDBRANCH  16  19
BRANCH  18  21
ATOM     21  O   UNL     1      32.771  11.586  27.401  1.00  0.00    -0.504 OA
ATOM     22  H   UNL     1      32.877  12.586  27.275  1.00  0.00     0.293 HD
ENDBRANCH  18  21
ENDBRANCH   3  13
BRANCH   9  23
ATOM     23  O   UNL     1      30.979   6.593  36.761  1.00  0.00    -0.507 OA
ATOM     24  H   UNL     1      31.756   5.982  36.972  1.00  0.00     0.293 HD
ENDBRANCH   9  23
BRANCH   7  25
ATOM     25  O   UNL     1      31.445  11.185  38.109  1.00  0.00    -0.508 OA
ATOM     26  H   UNL     1      31.447  10.905  39.082  1.00  0.00     0.293 HD
ENDBRANCH   7  25
TORSDOF 6
ENDMDL
MODEL 4
REMARK VINA RESULT:    -6.580      2.954      4.552
REMARK INTER + INTRA:          -8.032
REMARK INTER:                  -7.889
REMARK INTRA:                  -0.143
REMARK UNBOUND:                -0.105
REMARK SMILES Oc1cc(O)c2c(c1)O[C@@H](c1ccc(O)c(O)c1)[C@H](O)C2
REMARK SMILES IDX 21 1 19 2 10 3 9 4 7 5 8 6 2 7 3 8 4 9 6 10 20 11 11 13
REMARK SMILES IDX 18 14 12 15 16 16 13 17 14 18 17 19 15 21 5 23 1 25
REMARK H PARENT 20 12 17 20 15 22 5 24 1 26
REMARK Flexibility Score: inf
ROOT
ATOM      1  C   UNL     1      32.218  12.574  30.634  1.00  0.00     0.079 C 
ATOM      2  C   UNL     1      32.286  11.575  31.806  1.00  0.00     0.164 C 
ATOM      3  C   UNL     1      31.161  10.537  31.673  1.00  0.00     0.232 C 
ATOM      4  O   UNL     1      31.255   9.879  30.410  1.00  0.00    -0.482 OA
ATOM      5  C   UNL     1      31.605  10.558  29.239  1.00  0.00     0.131 A 
ATOM      6  C   UNL     1      31.494   9.897  28.012  1.00  0.00     0.093 A 
ATOM      7  C   UNL     1      31.823  10.557  26.823  1.00  0.00     0.122 A 
ATOM      8  C   UNL     1      32.255  11.885  26.863  1.00  0.00     0.092 A 
ATOM      9  C   UNL     1      32.372  12.563  28.082  1.00  0.00     0.126 A 
ATOM     10  C   UNL     1      32.082  11.886  29.292  1.00  0.00     0.039 A 
ENDROOT
BRANCH   2  11
ATOM     11  O   UNL     1      32.157  12.262  33.023  1.00  0.00    -0.389 OA
ATOM     12  H   UNL     1      31.231  12.106  33.344  1.00  0.00     0.211 HD
ENDBRANCH   2  11
BRANCH   3  13
ATOM     13  C   UNL     1      31.227   9.514  32.784  1.00  0.00    -0.001 A 
ATOM     14  C   UNL     1      30.609   9.769  34.019  1.00  0.00     0.057 A 
ATOM     15  C   UNL     1      31.948   8.320  32.612  1.00  0.00     0.012 A 
ATOM     16  C   UNL     1      30.690   8.836  35.063  1.00  0.00     0.157 A 
ATOM     17  C   UNL     1      32.030   7.390  33.651  1.00  0.00     0.050 A 
ATOM     18  C   UNL     1      31.404   7.640  34.875  1.00  0.00     0.157 A 
BRANCH  16  19
ATOM     19  O   UNL     1      30.070   9.095  36.284  1.00  0.00    -0.504 OA
ATOM     20  H   UNL     1      30.378   8.652  37.141  1.00  0.00     0.293 HD
ENDBRANCH  16  19
BRANCH  18  21
ATOM     21  O   UNL     1      31.503   6.691  35.894  1.00  0.00    -0.504 OA
ATOM     22  H   UNL     1      31.809   6.936  36.828  1.00  0.00     0.293 HD
ENDBRANCH  18  21
ENDBRANCH   3  13
BRANCH   9  23
ATOM     23  O   UNL     1      32.764  13.903  28.054  1.00  0.00    -0.507 OA
ATOM     24  H   UNL     1      33.521  14.272  28.613  1.00  0.00     0.293 HD
ENDBRANCH   9  23
BRANCH   7  25
ATOM     25  O   UNL     1      31.717   9.905  25.597  1.00  0.00    -0.508 OA
ATOM     26  H   UNL     1      31.220   9.027  25.505  1.00  0.00     0.293 HD
ENDBRANCH   7  25
TORSDOF 6
ENDMDL
MODEL 5
REMARK VINA RESULT:    -6.514      2.412      6.461
REMARK INTER + INTRA:          -7.953
REMARK INTER:                  -7.618
REMARK INTRA:                  -0.335
REMARK UNBOUND:                -0.105
REMARK SMILES Oc1cc(O)c2c(c1)O[C@@H](c1ccc(O)c(O)c1)[C@H](O)C2
REMARK SMILES IDX 21 1 19 2 10 3 9 4 7 5 8 6 2 7 3 8 4 9 6 10 20 11 11 13
REMARK SMILES IDX 18 14 12 15 16 16 13 17 14 18 17 19 15 21 5 23 1 25
REMARK H PARENT 20 12 17 20 15 22 5 24 1 26
REMARK Flexibility Score: inf
ROOT
ATOM      1  C   UNL     1      32.716  11.852  31.036  1.00  0.00     0.079 C 
ATOM      2  C   UNL     1      32.094  12.288  29.695  1.00  0.00     0.164 C 
ATOM      3  C   UNL     1      32.175  11.135  28.682  1.00  0.00     0.232 C 
ATOM      4  O   UNL     1      31.531   9.977  29.213  1.00  0.00    -0.482 OA
ATOM      5  C   UNL     1      31.633   9.619  30.561  1.00  0.00     0.131 A 
ATOM      6  C   UNL     1      31.138   8.378  30.973  1.00  0.00     0.093 A 
ATOM      7  C   UNL     1      31.240   7.987  32.312  1.00  0.00     0.122 A 
ATOM      8  C   UNL     1      31.847   8.837  33.239  1.00  0.00     0.092 A 
ATOM      9  C   UNL     1      32.349  10.084  32.845  1.00  0.00     0.126 A 
ATOM     10  C   UNL     1      32.209  10.503  31.500  1.00  0.00     0.039 A 
ENDROOT
BRANCH   2  11
ATOM     11  O   UNL     1      32.778  13.408  29.196  1.00  0.00    -0.389 OA
ATOM     12  H   UNL     1      32.318  14.209  29.558  1.00  0.00     0.211 HD
ENDBRANCH   2  11
BRANCH   3  13
ATOM     13  C   UNL     1      31.532  11.515  27.368  1.00  0.00    -0.001 A 
ATOM     14  C   UNL     1      30.133  11.527  27.242  1.00  0.00     0.057 A 
ATOM     15  C   UNL     1      32.324  11.813  26.246  1.00  0.00     0.012 A 
ATOM     16  C   UNL     1      29.531  11.852  26.018  1.00  0.00     0.157 A 
ATOM     17  C   UNL     1      31.725  12.136  25.026  1.00  0.00     0.050 A 
ATOM     18  C   UNL     1      30.332  12.159  24.906  1.00  0.00     0.157 A 
BRANCH  16  19
ATOM     19  O   UNL     1      28.142  11.866  25.903  1.00  0.00    -0.504 OA
ATOM     20  H   UNL     1      27.587  12.633  26.263  1.00  0.00     0.293 HD
ENDBRANCH  16  19
BRANCH  18  21
ATOM     21  O   UNL     1      29.764  12.487  23.674  1.00  0.00    -0.504 OA
ATOM     22  H   UNL     1      28.975  13.119  23.598  1.00  0.00     0.293 HD
ENDBRANCH  18  21
ENDBRANCH   3  13
BRANCH   9  23
ATOM     23  O   UNL     1      32.986  10.869  33.808  1.00  0.00    -0.507 OA
ATOM     24  H   UNL     1      33.591  10.489  34.524  1.00  0.00     0.293 HD
ENDBRANCH   9  23
BRANCH   7  25
ATOM     25  O   UNL     1      30.748   6.753  32.731  1.00  0.00    -0.508 OA
ATOM     26  H   UNL     1      30.202   6.164  32.114  1.00  0.00     0.293 HD
ENDBRANCH   7  25
TORSDOF 6
ENDMDL
MODEL 6
REMARK VINA RESULT:    -6.497      2.006      7.386
REMARK INTER + INTRA:          -7.932
REMARK INTER:                  -7.561
REMARK INTRA:                  -0.371
REMARK UNBOUND:                -0.105
REMARK SMILES Oc1cc(O)c2c(c1)O[C@@H](c1ccc(O)c(O)c1)[C@H](O)C2
REMARK SMILES IDX 21 1 19 2 10 3 9 4 7 5 8 6 2 7 3 8 4 9 6 10 20 11 11 13
REMARK SMILES IDX 18 14 12 15 16 16 13 17 14 18 17 19 15 21 5 23 1 25
REMARK H PARENT 20 12 17 20 15 22 5 24 1 26
REMARK Flexibility Score: inf
ROOT
ATOM      1  C   UNL     1      30.681   8.463  29.154  1.00  0.00     0.079 C 
ATOM      2  C   UNL     1      30.531   8.359  27.624  1.00  0.00     0.164 C 
ATOM      3  C   UNL     1      29.912   9.653  27.071  1.00  0.00     0.232 C 
ATOM      4  O   UNL     1      30.711  10.773  27.450  1.00  0.00    -0.482 OA
ATOM      5  C   UNL     1      31.312  10.869  28.710  1.00  0.00     0.131 A 
ATOM      6  C   UNL     1      31.919  12.072  29.081  1.00  0.00     0.093 A 
ATOM      7  C   UNL     1      32.514  12.201  30.341  1.00  0.00     0.122 A 
ATOM      8  C   UNL     1      32.493  11.127  31.233  1.00  0.00     0.092 A 
ATOM      9  C   UNL     1      31.889   9.915  30.878  1.00  0.00     0.126 A 
ATOM     10  C   UNL     1      31.324   9.763  29.588  1.00  0.00     0.039 A 
ENDROOT
BRANCH   2  11
ATOM     11  O   UNL     1      29.714   7.265  27.300  1.00  0.00    -0.389 OA
ATOM     12  H   UNL     1      30.319   6.518  27.052  1.00  0.00     0.211 HD
ENDBRANCH   2  11
BRANCH   3  13
ATOM     13  C   UNL     1      29.793   9.601  25.565  1.00  0.00    -0.001 A 
ATOM     14  C   UNL     1      30.946   9.612  24.763  1.00  0.00     0.057 A 
ATOM     15  C   UNL     1      28.530   9.592  24.949  1.00  0.00     0.012 A 
ATOM     16  C   UNL     1      30.841   9.592  23.364  1.00  0.00     0.157 A 
ATOM     17  C   UNL     1      28.424   9.572  23.557  1.00  0.00     0.050 A 
ATOM     18  C   UNL     1      29.573   9.571  22.760  1.00  0.00     0.157 A 
BRANCH  16  19
ATOM     19  O   UNL     1      31.991   9.598  22.576  1.00  0.00    -0.504 OA
ATOM     20  H   UNL     1      32.916   9.541  22.985  1.00  0.00     0.293 HD
ENDBRANCH  16  19
BRANCH  18  21
ATOM     21  O   UNL     1      29.435   9.550  21.372  1.00  0.00    -0.504 OA
ATOM     22  H   UNL     1      28.534   9.652  20.920  1.00  0.00     0.293 HD
ENDBRANCH  18  21
ENDBRANCH   3  13
BRANCH   9  23
ATOM     23  O   UNL     1      31.858   8.893  31.829  1.00  0.00    -0.507 OA
ATOM     24  H   UNL     1      32.652   8.300  32.032  1.00  0.00     0.293 HD
ENDBRANCH   9  23
BRANCH   7  25
ATOM     25  O   UNL     1      33.124  13.396  30.718  1.00  0.00    -0.508 OA
ATOM     26  H   UNL     1      33.772  13.437  31.495  1.00  0.00     0.293 HD
ENDBRANCH   7  25
TORSDOF 6
ENDMDL
MODEL 7
REMARK VINA RESULT:    -6.441      3.539      8.200
REMARK INTER + INTRA:          -7.864
REMARK INTER:                  -7.575
REMARK INTRA:                  -0.289
REMARK UNBOUND:                -0.105
REMARK SMILES Oc1cc(O)c2c(c1)O[C@@H](c1ccc(O)c(O)c1)[C@H](O)C2
REMARK SMILES IDX 21 1 19 2 10 3 9 4 7 5 8 6 2 7 3 8 4 9 6 10 20 11 11 13
REMARK SMILES IDX 18 14 12 15 16 16 13 17 14 18 17 19 15 21 5 23 1 25
REMARK H PARENT 20 12 17 20 15 22 5 24 1 26
REMARK Flexibility Score: inf
ROOT
ATOM      1  C   UNL     1      31.946  11.138  34.501  1.00  0.00     0.079 C 
ATOM      2  C   UNL     1      31.531  11.353  33.033  1.00  0.00     0.164 C 
ATOM      3  C   UNL     1      32.017  10.174  32.175  1.00  0.00     0.232 C 
ATOM      4  O   UNL     1      31.501   8.949  32.697  1.00  0.00    -0.482 OA
ATOM      5  C   UNL     1      31.399   8.709  34.071  1.00  0.00     0.131 A 
ATOM      6  C   UNL     1      31.066   7.425  34.512  1.00  0.00     0.093 A 
ATOM      7  C   UNL     1      30.972   7.151  35.881  1.00  0.00     0.122 A 
ATOM      8  C   UNL     1      31.221   8.164  36.810  1.00  0.00     0.092 A 
ATOM      9  C   UNL     1      31.557   9.456  36.387  1.00  0.00     0.126 A 
ATOM     10  C   UNL     1      31.611   9.749  35.002  1.00  0.00     0.039 A 
ENDROOT
BRANCH   2  11
ATOM     11  O   UNL     1      32.086  12.550  32.553  1.00  0.00    -0.389 OA
ATOM     12  H   UNL     1      32.263  13.122  33.345  1.00  0.00     0.211 HD
ENDBRANCH   2  11
BRANCH   3  13
ATOM     13  C   UNL     1      31.586  10.332  30.735  1.00  0.00    -0.001 A 
ATOM     14  C   UNL     1      32.489  10.818  29.775  1.00  0.00     0.057 A 
ATOM     15  C   UNL     1      30.267  10.041  30.349  1.00  0.00     0.012 A 
ATOM     16  C   UNL     1      32.087  10.993  28.443  1.00  0.00     0.157 A 
ATOM     17  C   UNL     1      29.865  10.215  29.022  1.00  0.00     0.050 A 
ATOM     18  C   UNL     1      30.768  10.688  28.066  1.00  0.00     0.157 A 
BRANCH  16  19
ATOM     19  O   UNL     1      32.991  11.472  27.496  1.00  0.00    -0.504 OA
ATOM     20  H   UNL     1      33.243  10.928  26.680  1.00  0.00     0.293 HD
ENDBRANCH  16  19
BRANCH  18  21
ATOM     21  O   UNL     1      30.337  10.850  26.749  1.00  0.00    -0.504 OA
ATOM     22  H   UNL     1      29.355  10.848  26.501  1.00  0.00     0.293 HD
ENDBRANCH  18  21
ENDBRANCH   3  13
BRANCH   9  23
ATOM     23  O   UNL     1      31.840  10.414  37.363  1.00  0.00    -0.507 OA
ATOM     24  H   UNL     1      32.747  10.850  37.466  1.00  0.00     0.293 HD
ENDBRANCH   9  23
BRANCH   7  25
ATOM     25  O   UNL     1      30.638   5.875  36.328  1.00  0.00    -0.508 OA
ATOM     26  H   UNL     1      29.934   5.732  37.042  1.00  0.00     0.293 HD
ENDBRANCH   7  25
TORSDOF 6
ENDMDL
MODEL 8
REMARK VINA RESULT:    -6.415      4.604      7.004
REMARK INTER + INTRA:          -7.833
REMARK INTER:                  -7.472
REMARK INTRA:                  -0.361
REMARK UNBOUND:                -0.105
REMARK SMILES Oc1cc(O)c2c(c1)O[C@@H](c1ccc(O)c(O)c1)[C@H](O)C2
REMARK SMILES IDX 21 1 19 2 10 3 9 4 7 5 8 6 2 7 3 8 4 9 6 10 20 11 11 13
REMARK SMILES IDX 18 14 12 15 16 16 13 17 14 18 17 19 15 21 5 23 1 25
REMARK H PARENT 20 12 17 20 15 22 5 24 1 26
REMARK Flexibility Score: inf
ROOT
ATOM      1  C   UNL     1      30.888   8.104  30.983  1.00  0.00     0.079 C 
ATOM      2  C   UNL     1      30.377   7.765  32.397  1.00  0.00     0.164 C 
ATOM      3  C   UNL     1      31.450   8.119  33.439  1.00  0.00     0.232 C 
ATOM      4  O   UNL     1      31.806   9.496  33.320  1.00  0.00    -0.482 OA
ATOM      5  C   UNL     1      31.921  10.133  32.080  1.00  0.00     0.131 A 
ATOM      6  C   UNL     1      32.455  11.423  32.027  1.00  0.00     0.093 A 
ATOM      7  C   UNL     1      32.595  12.078  30.799  1.00  0.00     0.122 A 
ATOM      8  C   UNL     1      32.209  11.436  29.621  1.00  0.00     0.092 A 
ATOM      9  C   UNL     1      31.672  10.143  29.655  1.00  0.00     0.126 A 
ATOM     10  C   UNL     1      31.486   9.492  30.899  1.00  0.00     0.039 A 
ENDROOT
BRANCH   2  11
ATOM     11  O   UNL     1      30.069   6.398  32.476  1.00  0.00    -0.389 OA
ATOM     12  H   UNL     1      29.319   6.309  33.120  1.00  0.00     0.211 HD
ENDBRANCH   2  11
BRANCH   3  13
ATOM     13  C   UNL     1      30.961   7.841  34.842  1.00  0.00    -0.001 A 
ATOM     14  C   UNL     1      29.980   8.659  35.425  1.00  0.00     0.057 A 
ATOM     15  C   UNL     1      31.516   6.793  35.596  1.00  0.00     0.012 A 
ATOM     16  C   UNL     1      29.543   8.423  36.737  1.00  0.00     0.157 A 
ATOM     17  C   UNL     1      31.082   6.556  36.903  1.00  0.00     0.050 A 
ATOM     18  C   UNL     1      30.096   7.365  37.477  1.00  0.00     0.157 A 
BRANCH  16  19
ATOM     19  O   UNL     1      28.565   9.237  37.307  1.00  0.00    -0.504 OA
ATOM     20  H   UNL     1      27.919   8.884  38.002  1.00  0.00     0.293 HD
ENDBRANCH  16  19
BRANCH  18  21
ATOM     21  O   UNL     1      29.682   7.103  38.784  1.00  0.00    -0.504 OA
ATOM     22  H   UNL     1      28.979   7.667  39.247  1.00  0.00     0.293 HD
ENDBRANCH  18  21
ENDBRANCH   3  13
BRANCH   9  23
ATOM     23  O   UNL     1      31.347   9.535  28.441  1.00  0.00    -0.507 OA
ATOM     24  H   UNL     1      30.455   9.656  27.980  1.00  0.00     0.293 HD
ENDBRANCH   9  23
BRANCH   7  25
ATOM     25  O   UNL     1      33.125  13.366  30.738  1.00  0.00    -0.508 OA
ATOM     26  H   UNL     1      33.569  13.716  29.898  1.00  0.00     0.293 HD
ENDBRANCH   7  25
TORSDOF 6
ENDMDL
MODEL 9
REMARK VINA RESULT:    -6.330      2.098      7.057
REMARK INTER + INTRA:          -7.731
REMARK INTER:                  -7.368
REMARK INTRA:                  -0.363
REMARK UNBOUND:                -0.105
REMARK SMILES Oc1cc(O)c2c(c1)O[C@@H](c1ccc(O)c(O)c1)[C@H](O)C2
REMARK SMILES IDX 21 1 19 2 10 3 9 4 7 5 8 6 2 7 3 8 4 9 6 10 20 11 11 13
REMARK SMILES IDX 18 14 12 15 16 16 13 17 14 18 17 19 15 21 5 23 1 25
REMARK H PARENT 20 12 17 20 15 22 5 24 1 26
REMARK Flexibility Score: inf
ROOT
ATOM      1  C   UNL     1      31.884  12.037  30.588  1.00  0.00     0.079 C 
ATOM      2  C   UNL     1      31.157  11.743  29.262  1.00  0.00     0.164 C 
ATOM      3  C   UNL     1      31.610  10.383  28.708  1.00  0.00     0.232 C 
ATOM      4  O   UNL     1      31.377   9.362  29.679  1.00  0.00    -0.482 OA
ATOM      5  C   UNL     1      31.587   9.570  31.046  1.00  0.00     0.131 A 
ATOM      6  C   UNL     1      31.521   8.478  31.916  1.00  0.00     0.093 A 
ATOM      7  C   UNL     1      31.742   8.654  33.286  1.00  0.00     0.122 A 
ATOM      8  C   UNL     1      32.039   9.924  33.784  1.00  0.00     0.092 A 
ATOM      9  C   UNL     1      32.109  11.030  32.927  1.00  0.00     0.126 A 
ATOM     10  C   UNL     1      31.843  10.865  31.546  1.00  0.00     0.039 A 
ENDROOT
BRANCH   2  11
ATOM     11  O   UNL     1      31.441  12.754  28.330  1.00  0.00    -0.389 OA
ATOM     12  H   UNL     1      30.817  12.626  27.569  1.00  0.00     0.211 HD
ENDBRANCH   2  11
BRANCH   3  13
ATOM     13  C   UNL     1      30.881  10.043  27.429  1.00  0.00    -0.001 A 
ATOM     14  C   UNL     1      31.581   9.966  26.214  1.00  0.00     0.057 A 
ATOM     15  C   UNL     1      29.489   9.848  27.432  1.00  0.00     0.012 A 
ATOM     16  C   UNL     1      30.904   9.678  25.019  1.00  0.00     0.157 A 
ATOM     17  C   UNL     1      28.814   9.562  26.243  1.00  0.00     0.050 A 
ATOM     18  C   UNL     1      29.514   9.474  25.036  1.00  0.00     0.157 A 
BRANCH  16  19
ATOM     19  O   UNL     1      31.607   9.599  23.818  1.00  0.00    -0.504 OA
ATOM     20  H   UNL     1      31.173   9.256  22.970  1.00  0.00     0.293 HD
ENDBRANCH  16  19
BRANCH  18  21
ATOM     21  O   UNL     1      28.813   9.186  23.865  1.00  0.00    -0.504 OA
ATOM     22  H   UNL     1      28.108   8.458  23.826  1.00  0.00     0.293 HD
ENDBRANCH  18  21
ENDBRANCH   3  13
BRANCH   9  23
ATOM     23  O   UNL     1      32.455  12.266  33.477  1.00  0.00    -0.507 OA
ATOM     24  H   UNL     1      31.955  13.122  33.278  1.00  0.00     0.293 HD
ENDBRANCH   9  23
BRANCH   7  25
ATOM     25  O   UNL     1      31.677   7.571  34.160  1.00  0.00    -0.508 OA
ATOM     26  H   UNL     1      30.804   7.093  34.346  1.00  0.00     0.293 HD
ENDBRANCH   7  25
TORSDOF 6
ENDMDL
