MODEL 1
REMARK VINA RESULT:     7.274      0.000      0.000
REMARK INTER + INTRA:           7.669
REMARK INTER:                   7.912
REMARK INTRA:                  -0.242
REMARK UNBOUND:                -0.242
REMARK SMILES CC1=C2C[C@H](C(C)(C)O)CC[C@@]2(C)CCC1
REMARK SMILES IDX 6 1 7 2 8 3 5 4 1 5 2 6 3 7 16 8 4 9 12 10 15 11 11 12 14 13
REMARK SMILES IDX 13 14 10 15 9 16
REMARK H PARENT 9 17
REMARK Flexibility Score: inf
ROOT
ATOM      1  C   UNL     1     -37.217  20.005   7.903  1.00  0.00     0.062 C 
ATOM      2  C   UNL     1     -38.095  20.385   9.114  1.00  0.00     0.042 C 
ATOM      3  C   UNL     1     -35.750  19.953   8.403  1.00  0.00     0.042 C 
ENDROOT
BRANCH   1   4
ATOM      4  C   UNL     1     -37.402  21.060   6.744  1.00  0.00     0.024 C 
ATOM      5  C   UNL     1     -37.935  24.987   7.368  1.00  0.00     0.039 C 
ATOM      6  C   UNL     1     -37.538  24.497   5.994  1.00  0.00    -0.074 C 
ATOM      7  C   UNL     1     -36.841  23.331   5.809  1.00  0.00    -0.065 C 
ATOM      8  C   UNL     1     -37.911  25.384   4.827  1.00  0.00     0.031 C 
ATOM      9  C   UNL     1     -36.585  22.361   6.957  1.00  0.00     0.038 C 
ATOM     10  C   UNL     1     -36.482  22.799   4.408  1.00  0.00    -0.011 C 
ATOM     11  C   UNL     1     -38.125  24.575   3.557  1.00  0.00     0.005 C 
ATOM     12  C   UNL     1     -37.255  21.467   4.203  1.00  0.00     0.011 C 
ATOM     13  C   UNL     1     -36.857  23.786   3.260  1.00  0.00     0.011 C 
ATOM     14  C   UNL     1     -34.957  22.550   4.305  1.00  0.00     0.016 C 
ATOM     15  C   UNL     1     -37.071  20.456   5.352  1.00  0.00     0.008 C 
ENDBRANCH   1   4
BRANCH   1  16
ATOM     16  O   UNL     1     -37.620  18.723   7.479  1.00  0.00    -0.390 OA
ATOM     17  H   UNL     1     -38.550  18.782   7.139  1.00  0.00     0.211 HD
ENDBRANCH   1  16
TORSDOF 2
ENDMDL
