MODEL 1
REMARK VINA RESULT:    -6.535      0.000      0.000
REMARK INTER + INTRA:          -7.152
REMARK INTER:                  -7.108
REMARK INTRA:                  -0.044
REMARK UNBOUND:                -0.044
REMARK SMILES CC1(C)[C@@H]2CC=C(CO)[C@H]1C2
REMARK SMILES IDX 8 1 7 2 1 3 2 4 4 5 3 6 10 7 5 8 11 9 6 10 9 11
REMARK H PARENT 9 12
REMARK Flexibility Score: inf
ROOT
ATOM      1  C   UNL     1     -17.086   2.036  -9.350  1.00  0.00     0.187 C 
ENDROOT
BRANCH   1   2
ATOM      2  C   UNL     1     -16.373   1.605  -8.102  1.00  0.00    -0.045 C 
ATOM      3  C   UNL     1     -16.895   2.824  -5.459  1.00  0.00     0.012 C 
ATOM      4  C   UNL     1     -16.813   1.283  -5.644  1.00  0.00    -0.026 C 
ATOM      5  C   UNL     1     -15.413   0.614  -5.721  1.00  0.00    -0.000 C 
ATOM      6  C   UNL     1     -17.720   0.617  -4.577  1.00  0.00     0.012 C 
ATOM      7  C   UNL     1     -17.045   0.696  -7.062  1.00  0.00     0.023 C 
ATOM      8  C   UNL     1     -14.422   1.518  -6.534  1.00  0.00     0.031 C 
ATOM      9  C   UNL     1     -15.997  -0.387  -6.739  1.00  0.00     0.013 C 
ATOM     10  C   UNL     1     -15.084   1.979  -7.848  1.00  0.00    -0.025 C 
ENDBRANCH   1   2
BRANCH   1  11
ATOM     11  O   UNL     1     -17.874   0.981  -9.826  1.00  0.00    -0.392 OA
ATOM     12  H   UNL     1     -18.706   1.394 -10.173  1.00  0.00     0.211 HD
ENDBRANCH   1  11
TORSDOF 2
ENDMDL
MODEL 2
REMARK VINA RESULT:    -6.426      1.175      2.078
REMARK INTER + INTRA:          -7.034
REMARK INTER:                  -7.007
REMARK INTRA:                  -0.027
REMARK UNBOUND:                -0.044
REMARK SMILES CC1(C)[C@@H]2CC=C(CO)[C@H]1C2
REMARK SMILES IDX 8 1 7 2 1 3 2 4 4 5 3 6 10 7 5 8 11 9 6 10 9 11
REMARK H PARENT 9 12
REMARK Flexibility Score: inf
ROOT
ATOM      1  C   UNL     1     -16.134   0.424  -9.868  1.00  0.00     0.187 C 
ENDROOT
BRANCH   1   2
ATOM      2  C   UNL     1     -16.064   1.068  -8.515  1.00  0.00    -0.045 C 
ATOM      3  C   UNL     1     -17.329  -0.106  -6.114  1.00  0.00     0.012 C 
ATOM      4  C   UNL     1     -15.872   0.436  -6.085  1.00  0.00    -0.026 C 
ATOM      5  C   UNL     1     -15.649   1.967  -5.947  1.00  0.00    -0.000 C 
ATOM      6  C   UNL     1     -15.077  -0.369  -5.026  1.00  0.00     0.012 C 
ATOM      7  C   UNL     1     -15.104   0.560  -7.428  1.00  0.00     0.023 C 
ATOM      8  C   UNL     1     -16.722   2.751  -6.780  1.00  0.00     0.031 C 
ATOM      9  C   UNL     1     -14.422   1.825  -6.872  1.00  0.00     0.013 C 
ATOM     10  C   UNL     1     -16.829   2.154  -8.198  1.00  0.00    -0.025 C 
ENDBRANCH   1   2
BRANCH   1  11
ATOM     11  O   UNL     1     -17.455   0.455 -10.333  1.00  0.00    -0.392 OA
ATOM     12  H   UNL     1     -17.617  -0.425 -10.760  1.00  0.00     0.211 HD
ENDBRANCH   1  11
TORSDOF 2
ENDMDL
MODEL 3
REMARK VINA RESULT:    -6.219      0.962      1.994
REMARK INTER + INTRA:          -6.808
REMARK INTER:                  -6.784
REMARK INTRA:                  -0.024
REMARK UNBOUND:                -0.044
REMARK SMILES CC1(C)[C@@H]2CC=C(CO)[C@H]1C2
REMARK SMILES IDX 8 1 7 2 1 3 2 4 4 5 3 6 10 7 5 8 11 9 6 10 9 11
REMARK H PARENT 9 12
REMARK Flexibility Score: inf
ROOT
ATOM      1  C   UNL     1     -17.007   2.092  -9.183  1.00  0.00     0.187 C 
ENDROOT
BRANCH   1   2
ATOM      2  C   UNL     1     -16.499   1.405  -7.950  1.00  0.00    -0.045 C 
ATOM      3  C   UNL     1     -13.870   2.020  -6.743  1.00  0.00     0.012 C 
ATOM      4  C   UNL     1     -15.157   1.905  -5.879  1.00  0.00    -0.026 C 
ATOM      5  C   UNL     1     -15.671   0.492  -5.490  1.00  0.00    -0.000 C 
ATOM      6  C   UNL     1     -14.995   2.828  -4.644  1.00  0.00     0.012 C 
ATOM      7  C   UNL     1     -16.532   2.088  -6.574  1.00  0.00     0.023 C 
ATOM      8  C   UNL     1     -15.483  -0.504  -6.687  1.00  0.00     0.031 C 
ATOM      9  C   UNL     1     -17.111   1.030  -5.615  1.00  0.00     0.013 C 
ATOM     10  C   UNL     1     -16.010   0.131  -7.990  1.00  0.00    -0.025 C 
ENDBRANCH   1   2
BRANCH   1  11
ATOM     11  O   UNL     1     -17.904   1.250  -9.852  1.00  0.00    -0.392 OA
ATOM     12  H   UNL     1     -17.992   0.439  -9.287  1.00  0.00     0.211 HD
ENDBRANCH   1  11
TORSDOF 2
ENDMDL
MODEL 4
REMARK VINA RESULT:    -6.171      1.622      2.450
REMARK INTER + INTRA:          -6.756
REMARK INTER:                  -6.712
REMARK INTRA:                  -0.045
REMARK UNBOUND:                -0.044
REMARK SMILES CC1(C)[C@@H]2CC=C(CO)[C@H]1C2
REMARK SMILES IDX 8 1 7 2 1 3 2 4 4 5 3 6 10 7 5 8 11 9 6 10 9 11
REMARK H PARENT 9 12
REMARK Flexibility Score: inf
ROOT
ATOM      1  C   UNL     1     -15.361   1.184  -9.716  1.00  0.00     0.187 C 
ENDROOT
BRANCH   1   2
ATOM      2  C   UNL     1     -15.634   1.554  -8.289  1.00  0.00    -0.045 C 
ATOM      3  C   UNL     1     -17.103  -0.215  -6.429  1.00  0.00     0.012 C 
ATOM      4  C   UNL     1     -15.779   0.486  -6.013  1.00  0.00    -0.026 C 
ATOM      5  C   UNL     1     -15.829   1.976  -5.576  1.00  0.00    -0.000 C 
ATOM      6  C   UNL     1     -15.067  -0.407  -4.965  1.00  0.00     0.012 C 
ATOM      7  C   UNL     1     -14.815   0.965  -7.131  1.00  0.00     0.023 C 
ATOM      8  C   UNL     1     -16.848   2.770  -6.466  1.00  0.00     0.031 C 
ATOM      9  C   UNL     1     -14.451   2.170  -6.242  1.00  0.00     0.013 C 
ATOM     10  C   UNL     1     -16.606   2.454  -7.956  1.00  0.00    -0.025 C 
ENDBRANCH   1   2
BRANCH   1  11
ATOM     11  O   UNL     1     -13.994   0.922  -9.879  1.00  0.00    -0.392 OA
ATOM     12  H   UNL     1     -13.927   0.259 -10.613  1.00  0.00     0.211 HD
ENDBRANCH   1  11
TORSDOF 2
ENDMDL
MODEL 5
REMARK VINA RESULT:    -6.141      1.137      1.173
REMARK INTER + INTRA:          -6.723
REMARK INTER:                  -6.698
REMARK INTRA:                  -0.025
REMARK UNBOUND:                -0.044
REMARK SMILES CC1(C)[C@@H]2CC=C(CO)[C@H]1C2
REMARK SMILES IDX 8 1 7 2 1 3 2 4 4 5 3 6 10 7 5 8 11 9 6 10 9 11
REMARK H PARENT 9 12
REMARK Flexibility Score: inf
ROOT
ATOM      1  C   UNL     1     -15.966   1.673  -9.050  1.00  0.00     0.187 C 
ENDROOT
BRANCH   1   2
ATOM      2  C   UNL     1     -15.614   1.402  -7.617  1.00  0.00    -0.045 C 
ATOM      3  C   UNL     1     -16.950   2.760  -5.356  1.00  0.00     0.012 C 
ATOM      4  C   UNL     1     -16.717   1.223  -5.361  1.00  0.00    -0.026 C 
ATOM      5  C   UNL     1     -15.313   0.681  -4.979  1.00  0.00    -0.000 C 
ATOM      6  C   UNL     1     -17.846   0.559  -4.532  1.00  0.00     0.012 C 
ATOM      7  C   UNL     1     -16.494   0.515  -6.724  1.00  0.00     0.023 C 
ATOM      8  C   UNL     1     -14.193   1.608  -5.566  1.00  0.00     0.031 C 
ATOM      9  C   UNL     1     -15.514  -0.442  -6.018  1.00  0.00     0.013 C 
ATOM     10  C   UNL     1     -14.480   1.909  -7.051  1.00  0.00    -0.025 C 
ENDBRANCH   1   2
BRANCH   1  11
ATOM     11  O   UNL     1     -14.906   1.278  -9.876  1.00  0.00    -0.392 OA
ATOM     12  H   UNL     1     -14.116   1.185  -9.283  1.00  0.00     0.211 HD
ENDBRANCH   1  11
TORSDOF 2
ENDMDL
MODEL 6
REMARK VINA RESULT:    -6.127      2.140      3.121
REMARK INTER + INTRA:          -6.708
REMARK INTER:                  -6.644
REMARK INTRA:                  -0.064
REMARK UNBOUND:                -0.044
REMARK SMILES CC1(C)[C@@H]2CC=C(CO)[C@H]1C2
REMARK SMILES IDX 8 1 7 2 1 3 2 4 4 5 3 6 10 7 5 8 11 9 6 10 9 11
REMARK H PARENT 9 12
REMARK Flexibility Score: inf
ROOT
ATOM      1  C   UNL     1     -14.200   1.253  -8.165  1.00  0.00     0.187 C 
ENDROOT
BRANCH   1   2
ATOM      2  C   UNL     1     -15.106   1.229  -6.969  1.00  0.00    -0.045 C 
ATOM      3  C   UNL     1     -14.092   1.197  -4.192  1.00  0.00     0.012 C 
ATOM      4  C   UNL     1     -15.237   2.152  -4.631  1.00  0.00    -0.026 C 
ATOM      5  C   UNL     1     -16.680   1.586  -4.740  1.00  0.00    -0.000 C 
ATOM      6  C   UNL     1     -15.174   3.423  -3.745  1.00  0.00     0.012 C 
ATOM      7  C   UNL     1     -15.379   2.492  -6.138  1.00  0.00     0.023 C 
ATOM      8  C   UNL     1     -16.651   0.134  -5.331  1.00  0.00     0.031 C 
ATOM      9  C   UNL     1     -16.907   2.523  -5.944  1.00  0.00     0.013 C 
ATOM     10  C   UNL     1     -15.753   0.090  -6.583  1.00  0.00    -0.025 C 
ENDBRANCH   1   2
BRANCH   1  11
ATOM     11  O   UNL     1     -13.050   1.993  -7.865  1.00  0.00    -0.392 OA
ATOM     12  H   UNL     1     -13.006   2.718  -8.541  1.00  0.00     0.211 HD
ENDBRANCH   1  11
TORSDOF 2
ENDMDL
MODEL 7
REMARK VINA RESULT:    -6.072      2.644      3.761
REMARK INTER + INTRA:          -6.649
REMARK INTER:                  -6.622
REMARK INTRA:                  -0.027
REMARK UNBOUND:                -0.044
REMARK SMILES CC1(C)[C@@H]2CC=C(CO)[C@H]1C2
REMARK SMILES IDX 8 1 7 2 1 3 2 4 4 5 3 6 10 7 5 8 11 9 6 10 9 11
REMARK H PARENT 9 12
REMARK Flexibility Score: inf
ROOT
ATOM      1  C   UNL     1     -13.235   2.555  -4.321  1.00  0.00     0.187 C 
ENDROOT
BRANCH   1   2
ATOM      2  C   UNL     1     -14.337   2.195  -5.273  1.00  0.00    -0.045 C 
ATOM      3  C   UNL     1     -15.506  -0.518  -5.417  1.00  0.00     0.012 C 
ATOM      4  C   UNL     1     -16.399   0.754  -5.380  1.00  0.00    -0.026 C 
ATOM      5  C   UNL     1     -16.607   1.558  -6.692  1.00  0.00    -0.000 C 
ATOM      6  C   UNL     1     -17.744   0.382  -4.703  1.00  0.00     0.012 C 
ATOM      7  C   UNL     1     -15.795   2.064  -4.808  1.00  0.00     0.023 C 
ATOM      8  C   UNL     1     -15.275   1.604  -7.519  1.00  0.00     0.031 C 
ATOM      9  C   UNL     1     -16.620   2.848  -5.847  1.00  0.00     0.013 C 
ATOM     10  C   UNL     1     -14.098   1.994  -6.602  1.00  0.00    -0.025 C 
ENDBRANCH   1   2
BRANCH   1  11
ATOM     11  O   UNL     1     -12.726   3.817  -4.651  1.00  0.00    -0.392 OA
ATOM     12  H   UNL     1     -12.558   4.279  -3.789  1.00  0.00     0.211 HD
ENDBRANCH   1  11
TORSDOF 2
ENDMDL
MODEL 8
REMARK VINA RESULT:    -6.025      2.534      3.747
REMARK INTER + INTRA:          -6.597
REMARK INTER:                  -6.574
REMARK INTRA:                  -0.023
REMARK UNBOUND:                -0.044
REMARK SMILES CC1(C)[C@@H]2CC=C(CO)[C@H]1C2
REMARK SMILES IDX 8 1 7 2 1 3 2 4 4 5 3 6 10 7 5 8 11 9 6 10 9 11
REMARK H PARENT 9 12
REMARK Flexibility Score: inf
ROOT
ATOM      1  C   UNL     1     -13.240   2.548  -5.363  1.00  0.00     0.187 C 
ENDROOT
BRANCH   1   2
ATOM      2  C   UNL     1     -14.360   1.701  -5.891  1.00  0.00    -0.045 C 
ATOM      3  C   UNL     1     -17.018   2.803  -6.572  1.00  0.00     0.012 C 
ATOM      4  C   UNL     1     -16.270   1.829  -7.525  1.00  0.00    -0.026 C 
ATOM      5  C   UNL     1     -16.321   0.306  -7.225  1.00  0.00    -0.000 C 
ATOM      6  C   UNL     1     -16.697   2.152  -8.980  1.00  0.00     0.012 C 
ATOM      7  C   UNL     1     -14.732   1.690  -7.381  1.00  0.00     0.023 C 
ATOM      8  C   UNL     1     -16.234   0.053  -5.680  1.00  0.00     0.031 C 
ATOM      9  C   UNL     1     -14.874   0.201  -7.749  1.00  0.00     0.013 C 
ATOM     10  C   UNL     1     -15.081   0.878  -5.073  1.00  0.00    -0.025 C 
ENDBRANCH   1   2
BRANCH   1  11
ATOM     11  O   UNL     1     -12.619   1.891  -4.294  1.00  0.00    -0.392 OA
ATOM     12  H   UNL     1     -13.135   1.056  -4.148  1.00  0.00     0.211 HD
ENDBRANCH   1  11
TORSDOF 2
ENDMDL
MODEL 9
REMARK VINA RESULT:    -5.901      2.278      3.857
REMARK INTER + INTRA:          -6.463
REMARK INTER:                  -6.427
REMARK INTRA:                  -0.035
REMARK UNBOUND:                -0.044
REMARK SMILES CC1(C)[C@@H]2CC=C(CO)[C@H]1C2
REMARK SMILES IDX 8 1 7 2 1 3 2 4 4 5 3 6 10 7 5 8 11 9 6 10 9 11
REMARK H PARENT 9 12
REMARK Flexibility Score: inf
ROOT
ATOM      1  C   UNL     1     -16.640   3.819  -3.813  1.00  0.00     0.187 C 
ENDROOT
BRANCH   1   2
ATOM      2  C   UNL     1     -16.395   2.523  -4.529  1.00  0.00    -0.045 C 
ATOM      3  C   UNL     1     -16.608   2.253  -7.466  1.00  0.00     0.012 C 
ATOM      4  C   UNL     1     -15.403   1.666  -6.679  1.00  0.00    -0.026 C 
ATOM      5  C   UNL     1     -15.581   0.309  -5.945  1.00  0.00    -0.000 C 
ATOM      6  C   UNL     1     -14.167   1.667  -7.614  1.00  0.00     0.012 C 
ATOM      7  C   UNL     1     -15.081   2.250  -5.278  1.00  0.00     0.023 C 
ATOM      8  C   UNL     1     -17.009   0.221  -5.301  1.00  0.00     0.031 C 
ATOM      9  C   UNL     1     -14.652   0.839  -4.834  1.00  0.00     0.013 C 
ATOM     10  C   UNL     1     -17.318   1.517  -4.524  1.00  0.00    -0.025 C 
ENDBRANCH   1   2
BRANCH   1  11
ATOM     11  O   UNL     1     -17.857   4.366  -4.239  1.00  0.00    -0.392 OA
ATOM     12  H   UNL     1     -17.676   5.323  -4.427  1.00  0.00     0.211 HD
ENDBRANCH   1  11
TORSDOF 2
ENDMDL
