MODEL 1
REMARK VINA RESULT:     1.346      0.000      0.000
REMARK INTER + INTRA:           1.752
REMARK INTER:                   1.660
REMARK INTRA:                   0.092
REMARK UNBOUND:                 0.092
REMARK SMILES Oc1cc(O)c2cc(O)c(-c3cc(O)c(O)c(O)c3)[o+]c2c1
REMARK SMILES IDX 10 1 20 2 21 3 22 4 2 5 3 6 4 7 6 8 7 9 8 10 11 11 12 12
REMARK SMILES IDX 13 13 19 14 15 15 17 16 14 17 16 19 18 21 9 23 1 25 5 27
REMARK H PARENT 14 18 16 20 18 22 9 24 1 26 5 28
REMARK Flexibility Score: inf
ROOT
ATOM      1  C   UNL     1     -28.427 -30.870 -15.857  1.00  0.00     0.402 A 
ATOM      2  O   UNL     1     -28.530 -31.907 -15.029  1.00  0.00    -0.202 OA
ATOM      3  C   UNL     1     -28.719 -31.776 -13.719  1.00  0.00     0.368 A 
ATOM      4  C   UNL     1     -28.812 -32.916 -12.916  1.00  0.00     0.162 A 
ATOM      5  C   UNL     1     -29.008 -32.791 -11.534  1.00  0.00     0.128 A 
ATOM      6  C   UNL     1     -29.110 -31.521 -10.957  1.00  0.00     0.093 A 
ATOM      7  C   UNL     1     -29.020 -30.368 -11.750  1.00  0.00     0.136 A 
ATOM      8  C   UNL     1     -28.823 -30.494 -13.138  1.00  0.00     0.125 A 
ATOM      9  C   UNL     1     -28.733 -29.379 -13.979  1.00  0.00     0.078 A 
ATOM     10  C   UNL     1     -28.543 -29.558 -15.353  1.00  0.00     0.223 A 
ENDROOT
BRANCH   1  11
ATOM     11  C   UNL     1     -28.207 -31.143 -17.296  1.00  0.00     0.091 A 
ATOM     12  C   UNL     1     -28.763 -32.295 -17.873  1.00  0.00     0.068 A 
ATOM     13  C   UNL     1     -28.554 -32.588 -19.227  1.00  0.00     0.162 A 
ATOM     14  C   UNL     1     -27.407 -30.301 -18.087  1.00  0.00     0.068 A 
ATOM     15  C   UNL     1     -27.770 -31.731 -20.017  1.00  0.00     0.200 A 
ATOM     16  C   UNL     1     -27.191 -30.588 -19.440  1.00  0.00     0.162 A 
BRANCH  13  17
ATOM     17  O   UNL     1     -29.125 -33.729 -19.790  1.00  0.00    -0.504 OA
ATOM     18  H   UNL     1     -29.105 -34.623 -19.315  1.00  0.00     0.293 HD
ENDBRANCH  13  17
BRANCH  15  19
ATOM     19  O   UNL     1     -27.554 -32.005 -21.368  1.00  0.00    -0.502 OA
ATOM     20  H   UNL     1     -26.754 -32.536 -21.690  1.00  0.00     0.293 HD
ENDBRANCH  15  19
BRANCH  16  21
ATOM     21  O   UNL     1     -26.395 -29.725 -20.193  1.00  0.00    -0.504 OA
ATOM     22  H   UNL     1     -26.774 -28.909 -20.658  1.00  0.00     0.293 HD
ENDBRANCH  16  21
ENDBRANCH   1  11
BRANCH  10  23
ATOM     23  O   UNL     1     -28.503 -28.454 -16.204  1.00  0.00    -0.500 OA
ATOM     24  H   UNL     1     -29.349 -27.992 -16.514  1.00  0.00     0.294 HD
ENDBRANCH  10  23
BRANCH   5  25
ATOM     25  O   UNL     1     -29.103 -33.922 -10.726  1.00  0.00    -0.507 OA
ATOM     26  H   UNL     1     -28.423 -34.112  -9.998  1.00  0.00     0.293 HD
ENDBRANCH   5  25
BRANCH   7  27
ATOM     27  O   UNL     1     -29.125 -29.107 -11.161  1.00  0.00    -0.507 OA
ATOM     28  H   UNL     1     -30.021 -28.651 -11.040  1.00  0.00     0.293 HD
ENDBRANCH   7  27
TORSDOF 7
ENDMDL
MODEL 2
REMARK VINA RESULT:     2.178     14.704     16.793
REMARK INTER + INTRA:           2.779
REMARK INTER:                   3.164
REMARK INTRA:                  -0.385
REMARK UNBOUND:                 0.092
REMARK SMILES Oc1cc(O)c2cc(O)c(-c3cc(O)c(O)c(O)c3)[o+]c2c1
REMARK SMILES IDX 10 1 20 2 21 3 22 4 2 5 3 6 4 7 6 8 7 9 8 10 11 11 12 12
REMARK SMILES IDX 13 13 19 14 15 15 17 16 14 17 16 19 18 21 9 23 1 25 5 27
REMARK H PARENT 14 18 16 20 18 22 9 24 1 26 5 28
REMARK Flexibility Score: inf
ROOT
ATOM      1  C   UNL     1     -21.902 -16.311 -14.157  1.00  0.00     0.402 A 
ATOM      2  O   UNL     1     -22.513 -17.252 -13.440  1.00  0.00    -0.202 OA
ATOM      3  C   UNL     1     -23.801 -17.553 -13.580  1.00  0.00     0.368 A 
ATOM      4  C   UNL     1     -24.369 -18.552 -12.785  1.00  0.00     0.162 A 
ATOM      5  C   UNL     1     -25.725 -18.876 -12.921  1.00  0.00     0.128 A 
ATOM      6  C   UNL     1     -26.513 -18.198 -13.857  1.00  0.00     0.093 A 
ATOM      7  C   UNL     1     -25.957 -17.194 -14.664  1.00  0.00     0.136 A 
ATOM      8  C   UNL     1     -24.594 -16.868 -14.526  1.00  0.00     0.125 A 
ATOM      9  C   UNL     1     -23.984 -15.882 -15.309  1.00  0.00     0.078 A 
ATOM     10  C   UNL     1     -22.625 -15.600 -15.137  1.00  0.00     0.223 A 
ENDROOT
BRANCH   1  11
ATOM     11  C   UNL     1     -20.465 -16.059 -13.903  1.00  0.00     0.091 A 
ATOM     12  C   UNL     1     -19.502 -16.857 -14.540  1.00  0.00     0.068 A 
ATOM     13  C   UNL     1     -18.136 -16.654 -14.302  1.00  0.00     0.162 A 
ATOM     14  C   UNL     1     -20.044 -15.074 -12.994  1.00  0.00     0.068 A 
ATOM     15  C   UNL     1     -17.722 -15.653 -13.408  1.00  0.00     0.200 A 
ATOM     16  C   UNL     1     -18.682 -14.866 -12.749  1.00  0.00     0.162 A 
BRANCH  13  17
ATOM     17  O   UNL     1     -17.189 -17.444 -14.953  1.00  0.00    -0.504 OA
ATOM     18  H   UNL     1     -16.949 -17.294 -15.925  1.00  0.00     0.293 HD
ENDBRANCH  13  17
BRANCH  15  19
ATOM     19  O   UNL     1     -16.365 -15.434 -13.162  1.00  0.00    -0.502 OA
ATOM     20  H   UNL     1     -15.884 -14.605 -13.490  1.00  0.00     0.293 HD
ENDBRANCH  15  19
BRANCH  16  21
ATOM     21  O   UNL     1     -18.304 -13.875 -11.844  1.00  0.00    -0.504 OA
ATOM     22  H   UNL     1     -18.345 -14.016 -10.842  1.00  0.00     0.293 HD
ENDBRANCH  16  21
ENDBRANCH   1  11
BRANCH  10  23
ATOM     23  O   UNL     1     -21.999 -14.655 -15.948  1.00  0.00    -0.500 OA
ATOM     24  H   UNL     1     -21.379 -13.952 -15.563  1.00  0.00     0.294 HD
ENDBRANCH  10  23
BRANCH   5  25
ATOM     25  O   UNL     1     -26.300 -19.870 -12.133  1.00  0.00    -0.507 OA
ATOM     26  H   UNL     1     -27.287 -20.093 -12.196  1.00  0.00     0.293 HD
ENDBRANCH   5  25
BRANCH   7  27
ATOM     27  O   UNL     1     -26.754 -16.526 -15.594  1.00  0.00    -0.507 OA
ATOM     28  H   UNL     1     -26.387 -16.225 -16.489  1.00  0.00     0.293 HD
ENDBRANCH   7  27
TORSDOF 7
ENDMDL
MODEL 3
REMARK VINA RESULT:     4.070     14.537     16.724
REMARK INTER + INTRA:           5.113
REMARK INTER:                   5.296
REMARK INTRA:                  -0.183
REMARK UNBOUND:                 0.092
REMARK SMILES Oc1cc(O)c2cc(O)c(-c3cc(O)c(O)c(O)c3)[o+]c2c1
REMARK SMILES IDX 10 1 20 2 21 3 22 4 2 5 3 6 4 7 6 8 7 9 8 10 11 11 12 12
REMARK SMILES IDX 13 13 19 14 15 15 17 16 14 17 16 19 18 21 9 23 1 25 5 27
REMARK H PARENT 14 18 16 20 18 22 9 24 1 26 5 28
REMARK Flexibility Score: inf
ROOT
ATOM      1  C   UNL     1     -22.467 -16.324 -13.945  1.00  0.00     0.402 A 
ATOM      2  O   UNL     1     -21.472 -17.190 -14.127  1.00  0.00    -0.202 OA
ATOM      3  C   UNL     1     -20.189 -16.855 -14.036  1.00  0.00     0.368 A 
ATOM      4  C   UNL     1     -19.203 -17.823 -14.246  1.00  0.00     0.162 A 
ATOM      5  C   UNL     1     -17.847 -17.481 -14.155  1.00  0.00     0.128 A 
ATOM      6  C   UNL     1     -17.479 -16.166 -13.853  1.00  0.00     0.093 A 
ATOM      7  C   UNL     1     -18.456 -15.184 -13.638  1.00  0.00     0.136 A 
ATOM      8  C   UNL     1     -19.819 -15.528 -13.729  1.00  0.00     0.125 A 
ATOM      9  C   UNL     1     -20.837 -14.591 -13.517  1.00  0.00     0.078 A 
ATOM     10  C   UNL     1     -22.175 -14.985 -13.614  1.00  0.00     0.223 A 
ENDROOT
BRANCH   1  11
ATOM     11  C   UNL     1     -23.857 -16.815 -14.084  1.00  0.00     0.091 A 
ATOM     12  C   UNL     1     -24.278 -17.917 -13.325  1.00  0.00     0.068 A 
ATOM     13  C   UNL     1     -25.582 -18.415 -13.451  1.00  0.00     0.162 A 
ATOM     14  C   UNL     1     -24.750 -16.235 -15.000  1.00  0.00     0.068 A 
ATOM     15  C   UNL     1     -26.476 -17.818 -14.354  1.00  0.00     0.200 A 
ATOM     16  C   UNL     1     -26.053 -16.728 -15.134  1.00  0.00     0.162 A 
BRANCH  13  17
ATOM     17  O   UNL     1     -25.991 -19.503 -12.680  1.00  0.00    -0.504 OA
ATOM     18  H   UNL     1     -25.483 -20.379 -12.685  1.00  0.00     0.293 HD
ENDBRANCH  13  17
BRANCH  15  19
ATOM     19  O   UNL     1     -27.779 -18.298 -14.490  1.00  0.00    -0.502 OA
ATOM     20  H   UNL     1     -28.474 -17.820 -15.052  1.00  0.00     0.293 HD
ENDBRANCH  15  19
BRANCH  16  21
ATOM     21  O   UNL     1     -26.912 -16.122 -16.051  1.00  0.00    -0.504 OA
ATOM     22  H   UNL     1     -26.618 -15.348 -16.635  1.00  0.00     0.293 HD
ENDBRANCH  16  21
ENDBRANCH   1  11
BRANCH  10  23
ATOM     23  O   UNL     1     -23.194 -14.070 -13.354  1.00  0.00    -0.500 OA
ATOM     24  H   UNL     1     -23.875 -14.227 -12.621  1.00  0.00     0.294 HD
ENDBRANCH  10  23
BRANCH   5  25
ATOM     25  O   UNL     1     -16.859 -18.440 -14.363  1.00  0.00    -0.507 OA
ATOM     26  H   UNL     1     -16.244 -18.403 -15.168  1.00  0.00     0.293 HD
ENDBRANCH   5  25
BRANCH   7  27
ATOM     27  O   UNL     1     -18.075 -13.876 -13.335  1.00  0.00    -0.507 OA
ATOM     28  H   UNL     1     -18.183 -13.493 -12.404  1.00  0.00     0.293 HD
ENDBRANCH   7  27
TORSDOF 7
ENDMDL
MODEL 4
REMARK VINA RESULT:     4.102     14.507     16.753
REMARK INTER + INTRA:           5.152
REMARK INTER:                   5.270
REMARK INTRA:                  -0.117
REMARK UNBOUND:                 0.092
REMARK SMILES Oc1cc(O)c2cc(O)c(-c3cc(O)c(O)c(O)c3)[o+]c2c1
REMARK SMILES IDX 10 1 20 2 21 3 22 4 2 5 3 6 4 7 6 8 7 9 8 10 11 11 12 12
REMARK SMILES IDX 13 13 19 14 15 15 17 16 14 17 16 19 18 21 9 23 1 25 5 27
REMARK H PARENT 14 18 16 20 18 22 9 24 1 26 5 28
REMARK Flexibility Score: inf
ROOT
ATOM      1  C   UNL     1     -22.471 -16.398 -13.961  1.00  0.00     0.402 A 
ATOM      2  O   UNL     1     -21.465 -17.250 -14.142  1.00  0.00    -0.202 OA
ATOM      3  C   UNL     1     -20.186 -16.893 -14.061  1.00  0.00     0.368 A 
ATOM      4  C   UNL     1     -19.187 -17.848 -14.268  1.00  0.00     0.162 A 
ATOM      5  C   UNL     1     -17.836 -17.483 -14.188  1.00  0.00     0.128 A 
ATOM      6  C   UNL     1     -17.487 -16.160 -13.899  1.00  0.00     0.093 A 
ATOM      7  C   UNL     1     -18.478 -15.192 -13.687  1.00  0.00     0.136 A 
ATOM      8  C   UNL     1     -19.835 -15.558 -13.768  1.00  0.00     0.125 A 
ATOM      9  C   UNL     1     -20.867 -14.635 -13.557  1.00  0.00     0.078 A 
ATOM     10  C   UNL     1     -22.199 -15.051 -13.643  1.00  0.00     0.223 A 
ENDROOT
BRANCH   1  11
ATOM     11  C   UNL     1     -23.855 -16.911 -14.088  1.00  0.00     0.091 A 
ATOM     12  C   UNL     1     -24.746 -16.282 -14.971  1.00  0.00     0.068 A 
ATOM     13  C   UNL     1     -26.066 -16.735 -15.096  1.00  0.00     0.162 A 
ATOM     14  C   UNL     1     -24.314 -17.982 -13.302  1.00  0.00     0.068 A 
ATOM     15  C   UNL     1     -26.512 -17.819 -14.322  1.00  0.00     0.200 A 
ATOM     16  C   UNL     1     -25.631 -18.438 -13.419  1.00  0.00     0.162 A 
BRANCH  13  17
ATOM     17  O   UNL     1     -26.937 -16.109 -15.988  1.00  0.00    -0.504 OA
ATOM     18  H   UNL     1     -26.977 -16.373 -16.965  1.00  0.00     0.293 HD
ENDBRANCH  13  17
BRANCH  15  19
ATOM     19  O   UNL     1     -27.823 -18.285 -14.435  1.00  0.00    -0.502 OA
ATOM     20  H   UNL     1     -28.121 -19.161 -14.023  1.00  0.00     0.293 HD
ENDBRANCH  15  19
BRANCH  16  21
ATOM     21  O   UNL     1     -26.047 -19.507 -12.625  1.00  0.00    -0.504 OA
ATOM     22  H   UNL     1     -26.786 -20.136 -12.912  1.00  0.00     0.293 HD
ENDBRANCH  16  21
ENDBRANCH   1  11
BRANCH  10  23
ATOM     23  O   UNL     1     -23.231 -14.150 -13.385  1.00  0.00    -0.500 OA
ATOM     24  H   UNL     1     -23.773 -13.735 -14.134  1.00  0.00     0.294 HD
ENDBRANCH  10  23
BRANCH   5  25
ATOM     25  O   UNL     1     -16.833 -18.428 -14.393  1.00  0.00    -0.507 OA
ATOM     26  H   UNL     1     -15.916 -18.328 -13.973  1.00  0.00     0.293 HD
ENDBRANCH   5  25
BRANCH   7  27
ATOM     27  O   UNL     1     -18.116 -13.875 -13.398  1.00  0.00    -0.507 OA
ATOM     28  H   UNL     1     -18.700 -13.093 -13.667  1.00  0.00     0.293 HD
ENDBRANCH   7  27
TORSDOF 7
ENDMDL
MODEL 5
REMARK VINA RESULT:     4.280     15.015     17.343
REMARK INTER + INTRA:           5.372
REMARK INTER:                   5.411
REMARK INTRA:                  -0.039
REMARK UNBOUND:                 0.092
REMARK SMILES Oc1cc(O)c2cc(O)c(-c3cc(O)c(O)c(O)c3)[o+]c2c1
REMARK SMILES IDX 10 1 20 2 21 3 22 4 2 5 3 6 4 7 6 8 7 9 8 10 11 11 12 12
REMARK SMILES IDX 13 13 19 14 15 15 17 16 14 17 16 19 18 21 9 23 1 25 5 27
REMARK H PARENT 14 18 16 20 18 22 9 24 1 26 5 28
REMARK Flexibility Score: inf
ROOT
ATOM      1  C   UNL     1     -21.614 -16.700 -14.102  1.00  0.00     0.402 A 
ATOM      2  O   UNL     1     -22.470 -15.700 -14.305  1.00  0.00    -0.202 OA
ATOM      3  C   UNL     1     -23.769 -15.887 -14.521  1.00  0.00     0.368 A 
ATOM      4  C   UNL     1     -24.601 -14.784 -14.731  1.00  0.00     0.162 A 
ATOM      5  C   UNL     1     -25.971 -14.969 -14.963  1.00  0.00     0.128 A 
ATOM      6  C   UNL     1     -26.507 -16.260 -14.985  1.00  0.00     0.093 A 
ATOM      7  C   UNL     1     -25.684 -17.377 -14.775  1.00  0.00     0.136 A 
ATOM      8  C   UNL     1     -24.308 -17.191 -14.542  1.00  0.00     0.125 A 
ATOM      9  C   UNL     1     -23.442 -18.267 -14.318  1.00  0.00     0.078 A 
ATOM     10  C   UNL     1     -22.084 -18.030 -14.086  1.00  0.00     0.223 A 
ENDROOT
BRANCH   1  11
ATOM     11  C   UNL     1     -20.188 -16.367 -13.881  1.00  0.00     0.091 A 
ATOM     12  C   UNL     1     -19.853 -15.291 -13.046  1.00  0.00     0.068 A 
ATOM     13  C   UNL     1     -18.512 -14.940 -12.835  1.00  0.00     0.162 A 
ATOM     14  C   UNL     1     -19.162 -17.070 -14.535  1.00  0.00     0.068 A 
ATOM     15  C   UNL     1     -17.491 -15.661 -13.476  1.00  0.00     0.200 A 
ATOM     16  C   UNL     1     -17.822 -16.725 -14.333  1.00  0.00     0.162 A 
BRANCH  13  17
ATOM     17  O   UNL     1     -18.192 -13.878 -11.991  1.00  0.00    -0.504 OA
ATOM     18  H   UNL     1     -18.408 -13.901 -11.002  1.00  0.00     0.293 HD
ENDBRANCH  13  17
BRANCH  15  19
ATOM     19  O   UNL     1     -16.150 -15.329 -13.276  1.00  0.00    -0.502 OA
ATOM     20  H   UNL     1     -15.724 -15.337 -12.357  1.00  0.00     0.293 HD
ENDBRANCH  15  19
BRANCH  16  21
ATOM     21  O   UNL     1     -16.832 -17.450 -14.996  1.00  0.00    -0.504 OA
ATOM     22  H   UNL     1     -15.848 -17.231 -14.901  1.00  0.00     0.293 HD
ENDBRANCH  16  21
ENDBRANCH   1  11
BRANCH  10  23
ATOM     23  O   UNL     1     -21.224 -19.092 -13.812  1.00  0.00    -0.500 OA
ATOM     24  H   UNL     1     -21.504 -19.862 -13.216  1.00  0.00     0.294 HD
ENDBRANCH  10  23
BRANCH   5  25
ATOM     25  O   UNL     1     -26.808 -13.875 -15.173  1.00  0.00    -0.507 OA
ATOM     26  H   UNL     1     -26.462 -13.012 -15.579  1.00  0.00     0.293 HD
ENDBRANCH   5  25
BRANCH   7  27
ATOM     27  O   UNL     1     -26.232 -18.660 -14.798  1.00  0.00    -0.507 OA
ATOM     28  H   UNL     1     -25.727 -19.459 -14.435  1.00  0.00     0.293 HD
ENDBRANCH   7  27
TORSDOF 7
ENDMDL
