MODEL 1
REMARK VINA RESULT:    -3.267      0.000      0.000
REMARK INTER + INTRA:          -7.201
REMARK INTER:                  -5.655
REMARK INTRA:                  -1.546
REMARK UNBOUND:                -1.546
REMARK SMILES CCCCCCCCCCCCCCO
REMARK SMILES IDX 8 1 7 2 6 3 5 4 4 5 3 6 2 7 1 8 9 9 10 10 11 11 12 12 13 13
REMARK SMILES IDX 14 14 15 15
REMARK H PARENT 15 16
REMARK Flexibility Score: inf
ROOT
ATOM      1  C   UNL     1     141.854 139.120 142.584  1.00  0.00     0.000 C 
ENDROOT
BRANCH   1   2
ATOM      2  C   UNL     1     142.234 139.326 141.109  1.00  0.00    -0.000 C 
BRANCH   2   3
ATOM      3  C   UNL     1     143.193 140.509 140.902  1.00  0.00    -0.000 C 
BRANCH   3   4
ATOM      4  C   UNL     1     142.423 141.771 140.481  1.00  0.00    -0.000 C 
BRANCH   4   5
ATOM      5  C   UNL     1     141.994 142.633 141.679  1.00  0.00    -0.000 C 
BRANCH   5   6
ATOM      6  C   UNL     1     141.600 144.063 141.269  1.00  0.00    -0.000 C 
BRANCH   6   7
ATOM      7  C   UNL     1     141.894 144.352 139.788  1.00  0.00    -0.003 C 
ATOM      8  C   UNL     1     141.935 145.848 139.472  1.00  0.00     0.004 C 
ENDBRANCH   6   7
ENDBRANCH   5   6
ENDBRANCH   4   5
ENDBRANCH   3   4
ENDBRANCH   2   3
ENDBRANCH   1   2
BRANCH   1   9
ATOM      9  C   UNL     1     140.368 138.764 142.769  1.00  0.00     0.000 C 
BRANCH   9  10
ATOM     10  C   UNL     1     139.438 139.704 141.986  1.00  0.00     0.000 C 
BRANCH  10  11
ATOM     11  C   UNL     1     138.884 140.847 142.853  1.00  0.00     0.000 C 
BRANCH  11  12
ATOM     12  C   UNL     1     138.364 142.028 142.002  1.00  0.00     0.002 C 
BRANCH  12  13
ATOM     13  C   UNL     1     138.412 141.761 140.486  1.00  0.00     0.028 C 
BRANCH  13  14
ATOM     14  C   UNL     1     137.038 141.804 139.808  1.00  0.00     0.156 C 
BRANCH  14  15
ATOM     15  O   UNL     1     136.098 142.444 140.629  1.00  0.00    -0.396 OA
ATOM     16  H   UNL     1     136.594 142.809 141.407  1.00  0.00     0.210 HD
ENDBRANCH  14  15
ENDBRANCH  13  14
ENDBRANCH  12  13
ENDBRANCH  11  12
ENDBRANCH  10  11
ENDBRANCH   9  10
ENDBRANCH   1   9
TORSDOF 13
ENDMDL
MODEL 2
REMARK VINA RESULT:    -3.208      3.471      5.524
REMARK INTER + INTRA:          -7.098
REMARK INTER:                  -5.354
REMARK INTRA:                  -1.744
REMARK UNBOUND:                -1.546
REMARK SMILES CCCCCCCCCCCCCCO
REMARK SMILES IDX 8 1 7 2 6 3 5 4 4 5 3 6 2 7 1 8 9 9 10 10 11 11 12 12 13 13
REMARK SMILES IDX 14 14 15 15
REMARK H PARENT 15 16
REMARK Flexibility Score: inf
ROOT
ATOM      1  C   UNL     1     142.558 139.475 143.114  1.00  0.00     0.000 C 
ENDROOT
BRANCH   1   2
ATOM      2  C   UNL     1     141.164 139.008 142.665  1.00  0.00    -0.000 C 
BRANCH   2   3
ATOM      3  C   UNL     1     140.059 140.018 143.012  1.00  0.00    -0.000 C 
BRANCH   3   4
ATOM      4  C   UNL     1     139.443 140.617 141.738  1.00  0.00    -0.000 C 
BRANCH   4   5
ATOM      5  C   UNL     1     139.639 142.138 141.642  1.00  0.00    -0.000 C 
BRANCH   5   6
ATOM      6  C   UNL     1     140.615 142.677 142.703  1.00  0.00    -0.000 C 
BRANCH   6   7
ATOM      7  C   UNL     1     141.953 143.130 142.097  1.00  0.00    -0.003 C 
ATOM      8  C   UNL     1     141.896 143.276 140.576  1.00  0.00     0.004 C 
ENDBRANCH   6   7
ENDBRANCH   5   6
ENDBRANCH   4   5
ENDBRANCH   3   4
ENDBRANCH   2   3
ENDBRANCH   1   2
BRANCH   1   9
ATOM      9  C   UNL     1     143.519 139.693 141.932  1.00  0.00     0.000 C 
BRANCH   9  10
ATOM     10  C   UNL     1     142.810 139.589 140.572  1.00  0.00     0.000 C 
BRANCH  10  11
ATOM     11  C   UNL     1     143.647 140.173 139.421  1.00  0.00     0.000 C 
BRANCH  11  12
ATOM     12  C   UNL     1     144.177 139.078 138.469  1.00  0.00     0.002 C 
BRANCH  12  13
ATOM     13  C   UNL     1     145.699 139.141 138.245  1.00  0.00     0.028 C 
BRANCH  13  14
ATOM     14  C   UNL     1     146.483 139.635 139.466  1.00  0.00     0.156 C 
BRANCH  14  15
ATOM     15  O   UNL     1     146.718 138.584 140.363  1.00  0.00    -0.396 OA
ATOM     16  H   UNL     1     146.720 137.745 139.834  1.00  0.00     0.210 HD
ENDBRANCH  14  15
ENDBRANCH  13  14
ENDBRANCH  12  13
ENDBRANCH  11  12
ENDBRANCH  10  11
ENDBRANCH   9  10
ENDBRANCH   1   9
TORSDOF 13
ENDMDL
MODEL 3
REMARK VINA RESULT:    -3.083      2.662      3.898
REMARK INTER + INTRA:          -6.881
REMARK INTER:                  -4.875
REMARK INTRA:                  -2.006
REMARK UNBOUND:                -1.546
REMARK SMILES CCCCCCCCCCCCCCO
REMARK SMILES IDX 8 1 7 2 6 3 5 4 4 5 3 6 2 7 1 8 9 9 10 10 11 11 12 12 13 13
REMARK SMILES IDX 14 14 15 15
REMARK H PARENT 15 16
REMARK Flexibility Score: inf
ROOT
ATOM      1  C   UNL     1     143.724 139.580 140.168  1.00  0.00     0.000 C 
ENDROOT
BRANCH   1   2
ATOM      2  C   UNL     1     143.887 139.977 141.644  1.00  0.00    -0.000 C 
BRANCH   2   3
ATOM      3  C   UNL     1     142.786 139.390 142.542  1.00  0.00    -0.000 C 
BRANCH   3   4
ATOM      4  C   UNL     1     141.867 140.499 143.078  1.00  0.00    -0.000 C 
BRANCH   4   5
ATOM      5  C   UNL     1     142.529 141.886 143.043  1.00  0.00    -0.000 C 
BRANCH   5   6
ATOM      6  C   UNL     1     141.727 142.905 142.214  1.00  0.00    -0.000 C 
BRANCH   6   7
ATOM      7  C   UNL     1     140.256 142.493 142.039  1.00  0.00    -0.003 C 
ATOM      8  C   UNL     1     139.787 142.570 140.585  1.00  0.00     0.004 C 
ENDBRANCH   6   7
ENDBRANCH   5   6
ENDBRANCH   4   5
ENDBRANCH   3   4
ENDBRANCH   2   3
ENDBRANCH   1   2
BRANCH   1   9
ATOM      9  C   UNL     1     143.166 140.725 139.305  1.00  0.00     0.000 C 
BRANCH   9  10
ATOM     10  C   UNL     1     141.792 140.389 138.701  1.00  0.00     0.000 C 
BRANCH  10  11
ATOM     11  C   UNL     1     141.392 138.920 138.921  1.00  0.00     0.000 C 
BRANCH  11  12
ATOM     12  C   UNL     1     139.880 138.761 139.197  1.00  0.00     0.002 C 
BRANCH  12  13
ATOM     13  C   UNL     1     139.505 138.922 140.682  1.00  0.00     0.028 C 
BRANCH  13  14
ATOM     14  C   UNL     1     139.748 137.662 141.520  1.00  0.00     0.156 C 
BRANCH  14  15
ATOM     15  O   UNL     1     139.368 136.513 140.812  1.00  0.00    -0.396 OA
ATOM     16  H   UNL     1     139.485 136.714 139.848  1.00  0.00     0.210 HD
ENDBRANCH  14  15
ENDBRANCH  13  14
ENDBRANCH  12  13
ENDBRANCH  11  12
ENDBRANCH  10  11
ENDBRANCH   9  10
ENDBRANCH   1   9
TORSDOF 13
ENDMDL
MODEL 4
REMARK VINA RESULT:    -3.062      2.427      3.899
REMARK INTER + INTRA:          -6.845
REMARK INTER:                  -4.747
REMARK INTRA:                  -2.098
REMARK UNBOUND:                -1.546
REMARK SMILES CCCCCCCCCCCCCCO
REMARK SMILES IDX 8 1 7 2 6 3 5 4 4 5 3 6 2 7 1 8 9 9 10 10 11 11 12 12 13 13
REMARK SMILES IDX 14 14 15 15
REMARK H PARENT 15 16
REMARK Flexibility Score: inf
ROOT
ATOM      1  C   UNL     1     144.133 139.723 140.640  1.00  0.00     0.000 C 
ENDROOT
BRANCH   1   2
ATOM      2  C   UNL     1     143.243 140.571 139.717  1.00  0.00    -0.000 C 
BRANCH   2   3
ATOM      3  C   UNL     1     142.227 139.726 138.931  1.00  0.00    -0.000 C 
BRANCH   3   4
ATOM      4  C   UNL     1     140.840 140.387 138.944  1.00  0.00    -0.000 C 
BRANCH   4   5
ATOM      5  C   UNL     1     140.881 141.845 139.428  1.00  0.00    -0.000 C 
BRANCH   5   6
ATOM      6  C   UNL     1     139.481 142.404 139.744  1.00  0.00    -0.000 C 
BRANCH   6   7
ATOM      7  C   UNL     1     138.500 141.311 140.197  1.00  0.00    -0.003 C 
ATOM      8  C   UNL     1     137.898 141.588 141.575  1.00  0.00     0.004 C 
ENDBRANCH   6   7
ENDBRANCH   5   6
ENDBRANCH   4   5
ENDBRANCH   3   4
ENDBRANCH   2   3
ENDBRANCH   1   2
BRANCH   1   9
ATOM      9  C   UNL     1     143.574 139.619 142.070  1.00  0.00     0.000 C 
BRANCH   9  10
ATOM     10  C   UNL     1     142.636 140.785 142.420  1.00  0.00     0.000 C 
BRANCH  10  11
ATOM     11  C   UNL     1     141.213 140.317 142.767  1.00  0.00     0.000 C 
BRANCH  11  12
ATOM     12  C   UNL     1     141.042 138.791 142.602  1.00  0.00     0.002 C 
BRANCH  12  13
ATOM     13  C   UNL     1     139.735 138.391 141.892  1.00  0.00     0.028 C 
BRANCH  13  14
ATOM     14  C   UNL     1     139.914 137.286 140.846  1.00  0.00     0.156 C 
BRANCH  14  15
ATOM     15  O   UNL     1     139.066 137.498 139.749  1.00  0.00    -0.396 OA
ATOM     16  H   UNL     1     139.597 137.314 138.932  1.00  0.00     0.210 HD
ENDBRANCH  14  15
ENDBRANCH  13  14
ENDBRANCH  12  13
ENDBRANCH  11  12
ENDBRANCH  10  11
ENDBRANCH   9  10
ENDBRANCH   1   9
TORSDOF 13
ENDMDL
MODEL 5
REMARK VINA RESULT:    -3.056      1.724      2.512
REMARK INTER + INTRA:          -6.835
REMARK INTER:                  -4.830
REMARK INTRA:                  -2.004
REMARK UNBOUND:                -1.546
REMARK SMILES CCCCCCCCCCCCCCO
REMARK SMILES IDX 8 1 7 2 6 3 5 4 4 5 3 6 2 7 1 8 9 9 10 10 11 11 12 12 13 13
REMARK SMILES IDX 14 14 15 15
REMARK H PARENT 15 16
REMARK Flexibility Score: inf
ROOT
ATOM      1  C   UNL     1     143.559 140.032 140.054  1.00  0.00     0.000 C 
ENDROOT
BRANCH   1   2
ATOM      2  C   UNL     1     143.150 139.563 141.460  1.00  0.00    -0.000 C 
BRANCH   2   3
ATOM      3  C   UNL     1     143.085 140.714 142.475  1.00  0.00    -0.000 C 
BRANCH   3   4
ATOM      4  C   UNL     1     141.826 141.568 142.254  1.00  0.00    -0.000 C 
BRANCH   4   5
ATOM      5  C   UNL     1     142.068 143.062 142.523  1.00  0.00    -0.000 C 
BRANCH   5   6
ATOM      6  C   UNL     1     141.795 143.938 141.287  1.00  0.00    -0.000 C 
BRANCH   6   7
ATOM      7  C   UNL     1     141.387 143.110 140.058  1.00  0.00    -0.003 C 
ATOM      8  C   UNL     1     142.255 143.400 138.833  1.00  0.00     0.004 C 
ENDBRANCH   6   7
ENDBRANCH   5   6
ENDBRANCH   4   5
ENDBRANCH   3   4
ENDBRANCH   2   3
ENDBRANCH   1   2
BRANCH   1   9
ATOM      9  C   UNL     1     142.553 139.606 138.971  1.00  0.00     0.000 C 
BRANCH   9  10
ATOM     10  C   UNL     1     141.282 138.978 139.565  1.00  0.00     0.000 C 
BRANCH  10  11
ATOM     11  C   UNL     1     140.021 139.811 139.280  1.00  0.00     0.000 C 
BRANCH  11  12
ATOM     12  C   UNL     1     139.113 139.942 140.524  1.00  0.00     0.002 C 
BRANCH  12  13
ATOM     13  C   UNL     1     138.144 141.136 140.455  1.00  0.00     0.028 C 
BRANCH  13  14
ATOM     14  C   UNL     1     138.137 142.001 141.721  1.00  0.00     0.156 C 
BRANCH  14  15
ATOM     15  O   UNL     1     138.153 141.199 142.870  1.00  0.00    -0.396 OA
ATOM     16  H   UNL     1     138.770 141.629 143.516  1.00  0.00     0.210 HD
ENDBRANCH  14  15
ENDBRANCH  13  14
ENDBRANCH  12  13
ENDBRANCH  11  12
ENDBRANCH  10  11
ENDBRANCH   9  10
ENDBRANCH   1   9
TORSDOF 13
ENDMDL
MODEL 6
REMARK VINA RESULT:    -3.045      2.842      4.416
REMARK INTER + INTRA:          -6.816
REMARK INTER:                  -4.976
REMARK INTRA:                  -1.840
REMARK UNBOUND:                -1.546
REMARK SMILES CCCCCCCCCCCCCCO
REMARK SMILES IDX 8 1 7 2 6 3 5 4 4 5 3 6 2 7 1 8 9 9 10 10 11 11 12 12 13 13
REMARK SMILES IDX 14 14 15 15
REMARK H PARENT 15 16
REMARK Flexibility Score: inf
ROOT
ATOM      1  C   UNL     1     139.926 138.380 141.235  1.00  0.00     0.000 C 
ENDROOT
BRANCH   1   2
ATOM      2  C   UNL     1     139.425 139.196 140.033  1.00  0.00    -0.000 C 
BRANCH   2   3
ATOM      3  C   UNL     1     138.709 140.490 140.451  1.00  0.00    -0.000 C 
BRANCH   3   4
ATOM      4  C   UNL     1     138.893 141.585 139.388  1.00  0.00    -0.000 C 
BRANCH   4   5
ATOM      5  C   UNL     1     140.063 142.530 139.704  1.00  0.00    -0.000 C 
BRANCH   5   6
ATOM      6  C   UNL     1     140.326 142.660 141.215  1.00  0.00    -0.000 C 
BRANCH   6   7
ATOM      7  C   UNL     1     141.548 143.540 141.526  1.00  0.00    -0.003 C 
ATOM      8  C   UNL     1     141.916 144.473 140.372  1.00  0.00     0.004 C 
ENDBRANCH   6   7
ENDBRANCH   5   6
ENDBRANCH   4   5
ENDBRANCH   3   4
ENDBRANCH   2   3
ENDBRANCH   1   2
BRANCH   1   9
ATOM      9  C   UNL     1     139.721 139.110 142.574  1.00  0.00     0.000 C 
BRANCH   9  10
ATOM     10  C   UNL     1     141.028 139.705 143.124  1.00  0.00     0.000 C 
BRANCH  10  11
ATOM     11  C   UNL     1     142.279 139.073 142.491  1.00  0.00     0.000 C 
BRANCH  11  12
ATOM     12  C   UNL     1     143.194 140.126 141.827  1.00  0.00     0.002 C 
BRANCH  12  13
ATOM     13  C   UNL     1     143.118 140.124 140.289  1.00  0.00     0.028 C 
BRANCH  13  14
ATOM     14  C   UNL     1     144.466 139.874 139.604  1.00  0.00     0.156 C 
BRANCH  14  15
ATOM     15  O   UNL     1     145.474 139.658 140.555  1.00  0.00    -0.396 OA
ATOM     16  H   UNL     1     146.193 139.144 140.105  1.00  0.00     0.210 HD
ENDBRANCH  14  15
ENDBRANCH  13  14
ENDBRANCH  12  13
ENDBRANCH  11  12
ENDBRANCH  10  11
ENDBRANCH   9  10
ENDBRANCH   1   9
TORSDOF 13
ENDMDL
MODEL 7
REMARK VINA RESULT:    -3.030      2.911      5.271
REMARK INTER + INTRA:          -6.790
REMARK INTER:                  -5.086
REMARK INTRA:                  -1.704
REMARK UNBOUND:                -1.546
REMARK SMILES CCCCCCCCCCCCCCO
REMARK SMILES IDX 8 1 7 2 6 3 5 4 4 5 3 6 2 7 1 8 9 9 10 10 11 11 12 12 13 13
REMARK SMILES IDX 14 14 15 15
REMARK H PARENT 15 16
REMARK Flexibility Score: inf
ROOT
ATOM      1  C   UNL     1     141.582 143.833 140.221  1.00  0.00     0.000 C 
ENDROOT
BRANCH   1   2
ATOM      2  C   UNL     1     141.996 142.636 139.350  1.00  0.00    -0.000 C 
BRANCH   2   3
ATOM      3  C   UNL     1     140.891 142.202 138.373  1.00  0.00    -0.000 C 
BRANCH   3   4
ATOM      4  C   UNL     1     140.401 140.782 138.697  1.00  0.00    -0.000 C 
BRANCH   4   5
ATOM      5  C   UNL     1     139.483 140.738 139.929  1.00  0.00    -0.000 C 
BRANCH   5   6
ATOM      6  C   UNL     1     138.408 141.839 139.906  1.00  0.00    -0.000 C 
BRANCH   6   7
ATOM      7  C   UNL     1     137.672 141.972 141.249  1.00  0.00    -0.003 C 
ATOM      8  C   UNL     1     138.312 141.140 142.361  1.00  0.00     0.004 C 
ENDBRANCH   6   7
ENDBRANCH   5   6
ENDBRANCH   4   5
ENDBRANCH   3   4
ENDBRANCH   2   3
ENDBRANCH   1   2
BRANCH   1   9
ATOM      9  C   UNL     1     142.118 143.733 141.660  1.00  0.00     0.000 C 
BRANCH   9  10
ATOM     10  C   UNL     1     141.336 142.716 142.508  1.00  0.00     0.000 C 
BRANCH  10  11
ATOM     11  C   UNL     1     142.241 141.634 143.120  1.00  0.00     0.000 C 
BRANCH  11  12
ATOM     12  C   UNL     1     142.119 140.282 142.383  1.00  0.00     0.002 C 
BRANCH  12  13
ATOM     13  C   UNL     1     143.473 139.598 142.124  1.00  0.00     0.028 C 
BRANCH  13  14
ATOM     14  C   UNL     1     144.037 139.855 140.722  1.00  0.00     0.156 C 
BRANCH  14  15
ATOM     15  O   UNL     1     145.317 139.298 140.591  1.00  0.00    -0.396 OA
ATOM     16  H   UNL     1     145.969 140.026 140.761  1.00  0.00     0.210 HD
ENDBRANCH  14  15
ENDBRANCH  13  14
ENDBRANCH  12  13
ENDBRANCH  11  12
ENDBRANCH  10  11
ENDBRANCH   9  10
ENDBRANCH   1   9
TORSDOF 13
ENDMDL
MODEL 8
REMARK VINA RESULT:    -3.020      2.030      4.572
REMARK INTER + INTRA:          -6.772
REMARK INTER:                  -5.523
REMARK INTRA:                  -1.249
REMARK UNBOUND:                -1.546
REMARK SMILES CCCCCCCCCCCCCCO
REMARK SMILES IDX 8 1 7 2 6 3 5 4 4 5 3 6 2 7 1 8 9 9 10 10 11 11 12 12 13 13
REMARK SMILES IDX 14 14 15 15
REMARK H PARENT 15 16
REMARK Flexibility Score: inf
ROOT
ATOM      1  C   UNL     1     138.054 141.530 141.769  1.00  0.00     0.000 C 
ENDROOT
BRANCH   1   2
ATOM      2  C   UNL     1     139.165 141.985 142.730  1.00  0.00    -0.000 C 
BRANCH   2   3
ATOM      3  C   UNL     1     140.327 142.683 142.006  1.00  0.00    -0.000 C 
BRANCH   3   4
ATOM      4  C   UNL     1     141.680 142.146 142.499  1.00  0.00    -0.000 C 
BRANCH   4   5
ATOM      5  C   UNL     1     142.245 141.039 141.595  1.00  0.00    -0.000 C 
BRANCH   5   6
ATOM      6  C   UNL     1     141.949 139.627 142.133  1.00  0.00    -0.000 C 
BRANCH   6   7
ATOM      7  C   UNL     1     141.010 138.831 141.213  1.00  0.00    -0.003 C 
ATOM      8  C   UNL     1     139.808 138.245 141.955  1.00  0.00     0.004 C 
ENDBRANCH   6   7
ENDBRANCH   5   6
ENDBRANCH   4   5
ENDBRANCH   3   4
ENDBRANCH   2   3
ENDBRANCH   1   2
BRANCH   1   9
ATOM      9  C   UNL     1     138.475 141.623 140.292  1.00  0.00     0.000 C 
BRANCH   9  10
ATOM     10  C   UNL     1     137.334 142.119 139.388  1.00  0.00     0.000 C 
BRANCH  10  11
ATOM     11  C   UNL     1     135.945 141.723 139.915  1.00  0.00     0.000 C 
BRANCH  11  12
ATOM     12  C   UNL     1     134.814 142.548 139.262  1.00  0.00     0.002 C 
BRANCH  12  13
ATOM     13  C   UNL     1     133.402 142.062 139.638  1.00  0.00     0.028 C 
BRANCH  13  14
ATOM     14  C   UNL     1     133.284 140.539 139.756  1.00  0.00     0.156 C 
BRANCH  14  15
ATOM     15  O   UNL     1     133.037 140.161 141.083  1.00  0.00    -0.396 OA
ATOM     16  H   UNL     1     133.490 140.826 141.663  1.00  0.00     0.210 HD
ENDBRANCH  14  15
ENDBRANCH  13  14
ENDBRANCH  12  13
ENDBRANCH  11  12
ENDBRANCH  10  11
ENDBRANCH   9  10
ENDBRANCH   1   9
TORSDOF 13
ENDMDL
MODEL 9
REMARK VINA RESULT:    -3.001      2.986      4.404
REMARK INTER + INTRA:          -6.740
REMARK INTER:                  -5.251
REMARK INTRA:                  -1.490
REMARK UNBOUND:                -1.546
REMARK SMILES CCCCCCCCCCCCCCO
REMARK SMILES IDX 8 1 7 2 6 3 5 4 4 5 3 6 2 7 1 8 9 9 10 10 11 11 12 12 13 13
REMARK SMILES IDX 14 14 15 15
REMARK H PARENT 15 16
REMARK Flexibility Score: inf
ROOT
ATOM      1  C   UNL     1     143.025 140.240 142.149  1.00  0.00     0.000 C 
ENDROOT
BRANCH   1   2
ATOM      2  C   UNL     1     142.366 141.228 143.125  1.00  0.00    -0.000 C 
BRANCH   2   3
ATOM      3  C   UNL     1     142.126 142.610 142.498  1.00  0.00    -0.000 C 
BRANCH   3   4
ATOM      4  C   UNL     1     140.631 142.834 142.221  1.00  0.00    -0.000 C 
BRANCH   4   5
ATOM      5  C   UNL     1     140.305 142.874 140.720  1.00  0.00    -0.000 C 
BRANCH   5   6
ATOM      6  C   UNL     1     139.586 141.603 140.235  1.00  0.00    -0.000 C 
BRANCH   6   7
ATOM      7  C   UNL     1     138.346 141.270 141.080  1.00  0.00    -0.003 C 
ATOM      8  C   UNL     1     137.051 141.809 140.471  1.00  0.00     0.004 C 
ENDBRANCH   6   7
ENDBRANCH   5   6
ENDBRANCH   4   5
ENDBRANCH   3   4
ENDBRANCH   2   3
ENDBRANCH   1   2
BRANCH   1   9
ATOM      9  C   UNL     1     142.012 139.273 141.511  1.00  0.00     0.000 C 
BRANCH   9  10
ATOM     10  C   UNL     1     140.984 138.745 142.526  1.00  0.00     0.000 C 
BRANCH  10  11
ATOM     11  C   UNL     1     139.752 138.119 141.850  1.00  0.00     0.000 C 
BRANCH  11  12
ATOM     12  C   UNL     1     139.981 137.854 140.346  1.00  0.00     0.002 C 
BRANCH  12  13
ATOM     13  C   UNL     1     139.809 136.377 139.948  1.00  0.00     0.028 C 
BRANCH  13  14
ATOM     14  C   UNL     1     139.692 136.153 138.436  1.00  0.00     0.156 C 
BRANCH  14  15
ATOM     15  O   UNL     1     140.960 136.004 137.856  1.00  0.00    -0.396 OA
ATOM     16  H   UNL     1     140.817 135.752 136.908  1.00  0.00     0.210 HD
ENDBRANCH  14  15
ENDBRANCH  13  14
ENDBRANCH  12  13
ENDBRANCH  11  12
ENDBRANCH  10  11
ENDBRANCH   9  10
ENDBRANCH   1   9
TORSDOF 13
ENDMDL
