MODEL 1
REMARK VINA RESULT:    -3.918      0.000      0.000
REMARK INTER + INTRA:          -7.141
REMARK INTER:                  -6.209
REMARK INTRA:                  -0.932
REMARK UNBOUND:                -0.932
REMARK SMILES CCCCCCCCCCCC(=O)[O-]
REMARK SMILES IDX 7 1 8 2 9 3 10 4 11 5 12 6 13 7 14 8 6 9 5 10 4 11 3 12 2 13
REMARK SMILES IDX 1 14
REMARK H PARENT
REMARK Flexibility Score: inf
ROOT
ATOM      1  C   UNL     1       4.742  23.980 113.960  1.00  0.00     0.000 C 
ENDROOT
BRANCH   1   2
ATOM      2  C   UNL     1       4.497  24.016 112.443  1.00  0.00     0.000 C 
BRANCH   2   3
ATOM      3  C   UNL     1       5.763  23.690 111.633  1.00  0.00     0.000 C 
BRANCH   3   4
ATOM      4  C   UNL     1       6.890  24.708 111.866  1.00  0.00     0.006 C 
BRANCH   4   5
ATOM      5  C   UNL     1       7.600  25.114 110.567  1.00  0.00     0.053 C 
BRANCH   5   6
ATOM      6  C   UNL     1       7.273  26.531 110.214  1.00  0.00     0.041 C 
ATOM      7  O   UNL     1       7.493  27.456 111.040  1.00  0.00    -0.550 OA
ATOM      8  O   UNL     1       6.770  26.836 108.956  1.00  0.00    -0.550 OA
ENDBRANCH   5   6
ENDBRANCH   4   5
ENDBRANCH   3   4
ENDBRANCH   2   3
ENDBRANCH   1   2
BRANCH   1   9
ATOM      9  C   UNL     1       3.952  22.866 114.665  1.00  0.00     0.000 C 
BRANCH   9  10
ATOM     10  C   UNL     1       3.417  21.848 113.652  1.00  0.00    -0.000 C 
BRANCH  10  11
ATOM     11  C   UNL     1       1.910  21.631 113.831  1.00  0.00    -0.000 C 
BRANCH  11  12
ATOM     12  C   UNL     1       1.244  22.874 114.442  1.00  0.00    -0.000 C 
BRANCH  12  13
ATOM     13  C   UNL     1       0.532  23.739 113.391  1.00  0.00    -0.003 C 
ATOM     14  C   UNL     1       1.085  25.161 113.323  1.00  0.00     0.004 C 
ENDBRANCH  12  13
ENDBRANCH  11  12
ENDBRANCH  10  11
ENDBRANCH   9  10
ENDBRANCH   1   9
TORSDOF 10
ENDMDL
MODEL 2
REMARK VINA RESULT:    -3.832      3.193      5.525
REMARK INTER + INTRA:          -7.004
REMARK INTER:                  -5.824
REMARK INTRA:                  -1.180
REMARK UNBOUND:                -0.932
REMARK SMILES CCCCCCCCCCCC(=O)[O-]
REMARK SMILES IDX 7 1 8 2 9 3 10 4 11 5 12 6 13 7 14 8 6 9 5 10 4 11 3 12 2 13
REMARK SMILES IDX 1 14
REMARK H PARENT
REMARK Flexibility Score: inf
ROOT
ATOM      1  C   UNL     1       4.217  25.223 113.002  1.00  0.00     0.000 C 
ENDROOT
BRANCH   1   2
ATOM      2  C   UNL     1       2.984  25.710 112.224  1.00  0.00     0.000 C 
BRANCH   2   3
ATOM      3  C   UNL     1       3.185  25.646 110.699  1.00  0.00     0.000 C 
BRANCH   3   4
ATOM      4  C   UNL     1       3.672  26.981 110.113  1.00  0.00     0.006 C 
BRANCH   4   5
ATOM      5  C   UNL     1       3.409  28.170 111.047  1.00  0.00     0.053 C 
BRANCH   5   6
ATOM      6  C   UNL     1       2.536  29.180 110.371  1.00  0.00     0.041 C 
ATOM      7  O   UNL     1       1.450  28.826 109.843  1.00  0.00    -0.550 OA
ATOM      8  O   UNL     1       2.899  30.521 110.368  1.00  0.00    -0.550 OA
ENDBRANCH   5   6
ENDBRANCH   4   5
ENDBRANCH   3   4
ENDBRANCH   2   3
ENDBRANCH   1   2
BRANCH   1   9
ATOM      9  C   UNL     1       4.875  23.990 112.363  1.00  0.00     0.000 C 
BRANCH   9  10
ATOM     10  C   UNL     1       6.241  24.346 111.765  1.00  0.00    -0.000 C 
BRANCH  10  11
ATOM     11  C   UNL     1       6.776  25.658 112.351  1.00  0.00    -0.000 C 
BRANCH  11  12
ATOM     12  C   UNL     1       7.176  26.636 111.236  1.00  0.00    -0.000 C 
BRANCH  12  13
ATOM     13  C   UNL     1       8.112  25.998 110.199  1.00  0.00    -0.003 C 
ATOM     14  C   UNL     1       7.526  26.008 108.788  1.00  0.00     0.004 C 
ENDBRANCH  12  13
ENDBRANCH  11  12
ENDBRANCH  10  11
ENDBRANCH   9  10
ENDBRANCH   1   9
TORSDOF 10
ENDMDL
MODEL 3
REMARK VINA RESULT:    -3.806      2.588      3.543
REMARK INTER + INTRA:          -6.964
REMARK INTER:                  -5.689
REMARK INTRA:                  -1.275
REMARK UNBOUND:                -0.932
REMARK SMILES CCCCCCCCCCCC(=O)[O-]
REMARK SMILES IDX 7 1 8 2 9 3 10 4 11 5 12 6 13 7 14 8 6 9 5 10 4 11 3 12 2 13
REMARK SMILES IDX 1 14
REMARK H PARENT
REMARK Flexibility Score: inf
ROOT
ATOM      1  C   UNL     1       6.697  25.307 113.360  1.00  0.00     0.000 C 
ENDROOT
BRANCH   1   2
ATOM      2  C   UNL     1       7.108  24.758 111.985  1.00  0.00     0.000 C 
BRANCH   2   3
ATOM      3  C   UNL     1       8.350  25.464 111.414  1.00  0.00     0.000 C 
BRANCH   3   4
ATOM      4  C   UNL     1       8.042  26.251 110.130  1.00  0.00     0.006 C 
BRANCH   4   5
ATOM      5  C   UNL     1       7.561  25.350 108.984  1.00  0.00     0.053 C 
BRANCH   5   6
ATOM      6  C   UNL     1       8.217  25.745 107.699  1.00  0.00     0.041 C 
ATOM      7  O   UNL     1       9.469  25.691 107.584  1.00  0.00    -0.550 OA
ATOM      8  O   UNL     1       7.441  26.127 106.611  1.00  0.00    -0.550 OA
ENDBRANCH   5   6
ENDBRANCH   4   5
ENDBRANCH   3   4
ENDBRANCH   2   3
ENDBRANCH   1   2
BRANCH   1   9
ATOM      9  C   UNL     1       5.272  24.896 113.764  1.00  0.00     0.000 C 
BRANCH   9  10
ATOM     10  C   UNL     1       4.509  24.316 112.568  1.00  0.00    -0.000 C 
BRANCH  10  11
ATOM     11  C   UNL     1       3.286  25.176 112.225  1.00  0.00    -0.000 C 
BRANCH  11  12
ATOM     12  C   UNL     1       3.305  25.595 110.747  1.00  0.00    -0.000 C 
BRANCH  12  13
ATOM     13  C   UNL     1       4.317  26.714 110.464  1.00  0.00    -0.003 C 
ATOM     14  C   UNL     1       4.287  27.820 111.518  1.00  0.00     0.004 C 
ENDBRANCH  12  13
ENDBRANCH  11  12
ENDBRANCH  10  11
ENDBRANCH   9  10
ENDBRANCH   1   9
TORSDOF 10
ENDMDL
MODEL 4
REMARK VINA RESULT:    -3.772      3.507      6.126
REMARK INTER + INTRA:          -6.909
REMARK INTER:                  -6.047
REMARK INTRA:                  -0.862
REMARK UNBOUND:                -0.932
REMARK SMILES CCCCCCCCCCCC(=O)[O-]
REMARK SMILES IDX 7 1 8 2 9 3 10 4 11 5 12 6 13 7 14 8 6 9 5 10 4 11 3 12 2 13
REMARK SMILES IDX 1 14
REMARK H PARENT
REMARK Flexibility Score: inf
ROOT
ATOM      1  C   UNL     1       5.531  24.106 111.760  1.00  0.00     0.000 C 
ENDROOT
BRANCH   1   2
ATOM      2  C   UNL     1       4.293  24.977 112.026  1.00  0.00     0.000 C 
BRANCH   2   3
ATOM      3  C   UNL     1       3.870  25.795 110.793  1.00  0.00     0.000 C 
BRANCH   3   4
ATOM      4  C   UNL     1       3.784  27.301 111.087  1.00  0.00     0.006 C 
BRANCH   4   5
ATOM      5  C   UNL     1       2.873  28.047 110.102  1.00  0.00     0.053 C 
BRANCH   5   6
ATOM      6  C   UNL     1       1.971  28.989 110.836  1.00  0.00     0.041 C 
ATOM      7  O   UNL     1       2.274  30.206 110.935  1.00  0.00    -0.550 OA
ATOM      8  O   UNL     1       0.772  28.531 111.367  1.00  0.00    -0.550 OA
ENDBRANCH   5   6
ENDBRANCH   4   5
ENDBRANCH   3   4
ENDBRANCH   2   3
ENDBRANCH   1   2
BRANCH   1   9
ATOM      9  C   UNL     1       6.764  24.568 112.552  1.00  0.00     0.000 C 
BRANCH   9  10
ATOM     10  C   UNL     1       7.304  25.894 112.005  1.00  0.00    -0.000 C 
BRANCH  10  11
ATOM     11  C   UNL     1       8.122  25.671 110.726  1.00  0.00    -0.000 C 
BRANCH  11  12
ATOM     12  C   UNL     1       7.451  26.344 109.519  1.00  0.00    -0.000 C 
BRANCH  12  13
ATOM     13  C   UNL     1       7.711  25.595 108.205  1.00  0.00    -0.003 C 
ATOM     14  C   UNL     1       7.077  26.282 106.996  1.00  0.00     0.004 C 
ENDBRANCH  12  13
ENDBRANCH  11  12
ENDBRANCH  10  11
ENDBRANCH   9  10
ENDBRANCH   1   9
TORSDOF 10
ENDMDL
MODEL 5
REMARK VINA RESULT:    -3.748      3.119      4.469
REMARK INTER + INTRA:          -6.872
REMARK INTER:                  -5.950
REMARK INTRA:                  -0.922
REMARK UNBOUND:                -0.932
REMARK SMILES CCCCCCCCCCCC(=O)[O-]
REMARK SMILES IDX 7 1 8 2 9 3 10 4 11 5 12 6 13 7 14 8 6 9 5 10 4 11 3 12 2 13
REMARK SMILES IDX 1 14
REMARK H PARENT
REMARK Flexibility Score: inf
ROOT
ATOM      1  C   UNL     1       4.541  24.758 111.968  1.00  0.00     0.000 C 
ENDROOT
BRANCH   1   2
ATOM      2  C   UNL     1       5.902  24.858 111.260  1.00  0.00     0.000 C 
BRANCH   2   3
ATOM      3  C   UNL     1       6.622  26.186 111.551  1.00  0.00     0.000 C 
BRANCH   3   4
ATOM      4  C   UNL     1       7.549  26.617 110.404  1.00  0.00     0.006 C 
BRANCH   4   5
ATOM      5  C   UNL     1       7.643  25.565 109.290  1.00  0.00     0.053 C 
BRANCH   5   6
ATOM      6  C   UNL     1       7.134  26.126 107.999  1.00  0.00     0.041 C 
ATOM      7  O   UNL     1       7.795  25.973 106.939  1.00  0.00    -0.550 OA
ATOM      8  O   UNL     1       5.906  26.773 107.958  1.00  0.00    -0.550 OA
ENDBRANCH   5   6
ENDBRANCH   4   5
ENDBRANCH   3   4
ENDBRANCH   2   3
ENDBRANCH   1   2
BRANCH   1   9
ATOM      9  C   UNL     1       3.808  26.106 112.042  1.00  0.00     0.000 C 
BRANCH   9  10
ATOM     10  C   UNL     1       2.976  26.349 110.778  1.00  0.00    -0.000 C 
BRANCH  10  11
ATOM     11  C   UNL     1       3.304  27.712 110.155  1.00  0.00    -0.000 C 
BRANCH  11  12
ATOM     12  C   UNL     1       2.064  28.618 110.130  1.00  0.00    -0.000 C 
BRANCH  12  13
ATOM     13  C   UNL     1       2.332  30.003 110.738  1.00  0.00    -0.003 C 
ATOM     14  C   UNL     1       3.269  29.948 111.944  1.00  0.00     0.004 C 
ENDBRANCH  12  13
ENDBRANCH  11  12
ENDBRANCH  10  11
ENDBRANCH   9  10
ENDBRANCH   1   9
TORSDOF 10
ENDMDL
MODEL 6
REMARK VINA RESULT:    -3.739      0.962      2.185
REMARK INTER + INTRA:          -6.857
REMARK INTER:                  -5.844
REMARK INTRA:                  -1.014
REMARK UNBOUND:                -0.932
REMARK SMILES CCCCCCCCCCCC(=O)[O-]
REMARK SMILES IDX 7 1 8 2 9 3 10 4 11 5 12 6 13 7 14 8 6 9 5 10 4 11 3 12 2 13
REMARK SMILES IDX 1 14
REMARK H PARENT
REMARK Flexibility Score: inf
ROOT
ATOM      1  C   UNL     1       4.535  25.129 113.475  1.00  0.00     0.000 C 
ENDROOT
BRANCH   1   2
ATOM      2  C   UNL     1       4.654  24.003 112.435  1.00  0.00     0.000 C 
BRANCH   2   3
ATOM      3  C   UNL     1       5.973  24.065 111.646  1.00  0.00     0.000 C 
BRANCH   3   4
ATOM      4  C   UNL     1       7.085  24.798 112.413  1.00  0.00     0.006 C 
BRANCH   4   5
ATOM      5  C   UNL     1       8.020  25.590 111.488  1.00  0.00     0.053 C 
BRANCH   5   6
ATOM      6  C   UNL     1       7.313  26.783 110.927  1.00  0.00     0.041 C 
ATOM      7  O   UNL     1       7.190  26.917 109.682  1.00  0.00    -0.550 OA
ATOM      8  O   UNL     1       6.746  27.720 111.781  1.00  0.00    -0.550 OA
ENDBRANCH   5   6
ENDBRANCH   4   5
ENDBRANCH   3   4
ENDBRANCH   2   3
ENDBRANCH   1   2
BRANCH   1   9
ATOM      9  C   UNL     1       3.083  25.396 113.900  1.00  0.00     0.000 C 
BRANCH   9  10
ATOM     10  C   UNL     1       2.102  24.972 112.801  1.00  0.00    -0.000 C 
BRANCH  10  11
ATOM     11  C   UNL     1       0.964  24.121 113.376  1.00  0.00    -0.000 C 
BRANCH  11  12
ATOM     12  C   UNL     1       1.468  23.230 114.523  1.00  0.00    -0.000 C 
BRANCH  12  13
ATOM     13  C   UNL     1       1.527  21.746 114.135  1.00  0.00    -0.003 C 
ATOM     14  C   UNL     1       2.948  21.267 113.841  1.00  0.00     0.004 C 
ENDBRANCH  12  13
ENDBRANCH  11  12
ENDBRANCH  10  11
ENDBRANCH   9  10
ENDBRANCH   1   9
TORSDOF 10
ENDMDL
MODEL 7
REMARK VINA RESULT:    -3.729      2.375      3.400
REMARK INTER + INTRA:          -6.842
REMARK INTER:                  -6.117
REMARK INTRA:                  -0.725
REMARK UNBOUND:                -0.932
REMARK SMILES CCCCCCCCCCCC(=O)[O-]
REMARK SMILES IDX 7 1 8 2 9 3 10 4 11 5 12 6 13 7 14 8 6 9 5 10 4 11 3 12 2 13
REMARK SMILES IDX 1 14
REMARK H PARENT
REMARK Flexibility Score: inf
ROOT
ATOM      1  C   UNL     1       4.792  25.452 112.652  1.00  0.00     0.000 C 
ENDROOT
BRANCH   1   2
ATOM      2  C   UNL     1       5.128  24.004 112.261  1.00  0.00     0.000 C 
BRANCH   2   3
ATOM      3  C   UNL     1       6.396  23.905 111.395  1.00  0.00     0.000 C 
BRANCH   3   4
ATOM      4  C   UNL     1       7.550  24.762 111.941  1.00  0.00     0.006 C 
BRANCH   4   5
ATOM      5  C   UNL     1       8.280  25.544 110.841  1.00  0.00     0.053 C 
BRANCH   5   6
ATOM      6  C   UNL     1       7.504  26.769 110.470  1.00  0.00     0.041 C 
ATOM      7  O   UNL     1       7.511  27.775 111.226  1.00  0.00    -0.550 OA
ATOM      8  O   UNL     1       6.815  26.817 109.265  1.00  0.00    -0.550 OA
ENDBRANCH   5   6
ENDBRANCH   4   5
ENDBRANCH   3   4
ENDBRANCH   2   3
ENDBRANCH   1   2
BRANCH   1   9
ATOM      9  C   UNL     1       3.334  25.623 113.106  1.00  0.00     0.000 C 
BRANCH   9  10
ATOM     10  C   UNL     1       2.396  25.762 111.902  1.00  0.00    -0.000 C 
BRANCH  10  11
ATOM     11  C   UNL     1       3.121  26.397 110.709  1.00  0.00    -0.000 C 
BRANCH  11  12
ATOM     12  C   UNL     1       2.606  27.820 110.446  1.00  0.00    -0.000 C 
BRANCH  12  13
ATOM     13  C   UNL     1       1.501  28.239 111.426  1.00  0.00    -0.003 C 
ATOM     14  C   UNL     1       0.742  29.483 110.967  1.00  0.00     0.004 C 
ENDBRANCH  12  13
ENDBRANCH  11  12
ENDBRANCH  10  11
ENDBRANCH   9  10
ENDBRANCH   1   9
TORSDOF 10
ENDMDL
MODEL 8
REMARK VINA RESULT:    -3.715      2.330      3.653
REMARK INTER + INTRA:          -6.819
REMARK INTER:                  -5.085
REMARK INTRA:                  -1.734
REMARK UNBOUND:                -0.932
REMARK SMILES CCCCCCCCCCCC(=O)[O-]
REMARK SMILES IDX 7 1 8 2 9 3 10 4 11 5 12 6 13 7 14 8 6 9 5 10 4 11 3 12 2 13
REMARK SMILES IDX 1 14
REMARK H PARENT
REMARK Flexibility Score: inf
ROOT
ATOM      1  C   UNL     1       3.144  25.102 114.160  1.00  0.00     0.000 C 
ENDROOT
BRANCH   1   2
ATOM      2  C   UNL     1       4.627  24.812 113.879  1.00  0.00     0.000 C 
BRANCH   2   3
ATOM      3  C   UNL     1       4.825  23.819 112.719  1.00  0.00     0.000 C 
BRANCH   3   4
ATOM      4  C   UNL     1       5.915  24.272 111.736  1.00  0.00     0.006 C 
BRANCH   4   5
ATOM      5  C   UNL     1       6.669  25.519 112.219  1.00  0.00     0.053 C 
BRANCH   5   6
ATOM      6  C   UNL     1       7.408  26.154 111.083  1.00  0.00     0.041 C 
ATOM      7  O   UNL     1       7.851  25.446 110.142  1.00  0.00    -0.550 OA
ATOM      8  O   UNL     1       7.566  27.533 111.041  1.00  0.00    -0.550 OA
ENDBRANCH   5   6
ENDBRANCH   4   5
ENDBRANCH   3   4
ENDBRANCH   2   3
ENDBRANCH   1   2
BRANCH   1   9
ATOM      9  C   UNL     1       2.250  24.875 112.932  1.00  0.00     0.000 C 
BRANCH   9  10
ATOM     10  C   UNL     1       1.980  26.193 112.197  1.00  0.00    -0.000 C 
BRANCH  10  11
ATOM     11  C   UNL     1       2.828  26.298 110.923  1.00  0.00    -0.000 C 
BRANCH  11  12
ATOM     12  C   UNL     1       3.742  27.532 110.970  1.00  0.00    -0.000 C 
BRANCH  12  13
ATOM     13  C   UNL     1       3.526  28.379 112.233  1.00  0.00    -0.003 C 
ATOM     14  C   UNL     1       4.820  28.627 113.007  1.00  0.00     0.004 C 
ENDBRANCH  12  13
ENDBRANCH  11  12
ENDBRANCH  10  11
ENDBRANCH   9  10
ENDBRANCH   1   9
TORSDOF 10
ENDMDL
MODEL 9
REMARK VINA RESULT:    -3.708      1.866      2.451
REMARK INTER + INTRA:          -6.808
REMARK INTER:                  -5.732
REMARK INTRA:                  -1.076
REMARK UNBOUND:                -0.932
REMARK SMILES CCCCCCCCCCCC(=O)[O-]
REMARK SMILES IDX 7 1 8 2 9 3 10 4 11 5 12 6 13 7 14 8 6 9 5 10 4 11 3 12 2 13
REMARK SMILES IDX 1 14
REMARK H PARENT
REMARK Flexibility Score: inf
ROOT
ATOM      1  C   UNL     1       3.873  22.757 114.743  1.00  0.00     0.000 C 
ENDROOT
BRANCH   1   2
ATOM      2  C   UNL     1       4.666  23.899 114.088  1.00  0.00     0.000 C 
BRANCH   2   3
ATOM      3  C   UNL     1       4.343  24.060 112.592  1.00  0.00     0.000 C 
BRANCH   3   4
ATOM      4  C   UNL     1       3.875  25.481 112.240  1.00  0.00     0.006 C 
BRANCH   4   5
ATOM      5  C   UNL     1       3.438  25.615 110.775  1.00  0.00     0.053 C 
BRANCH   5   6
ATOM      6  C   UNL     1       4.101  26.796 110.138  1.00  0.00     0.041 C 
ATOM      7  O   UNL     1       5.162  26.647 109.478  1.00  0.00    -0.550 OA
ATOM      8  O   UNL     1       3.520  28.054 110.233  1.00  0.00    -0.550 OA
ENDBRANCH   5   6
ENDBRANCH   4   5
ENDBRANCH   3   4
ENDBRANCH   2   3
ENDBRANCH   1   2
BRANCH   1   9
ATOM      9  C   UNL     1       3.370  21.722 113.725  1.00  0.00     0.000 C 
BRANCH   9  10
ATOM     10  C   UNL     1       1.843  21.600 113.774  1.00  0.00    -0.000 C 
BRANCH  10  11
ATOM     11  C   UNL     1       1.238  22.629 114.738  1.00  0.00    -0.000 C 
BRANCH  11  12
ATOM     12  C   UNL     1       0.264  23.563 114.004  1.00  0.00    -0.000 C 
BRANCH  12  13
ATOM     13  C   UNL     1       0.721  25.029 114.030  1.00  0.00    -0.003 C 
ATOM     14  C   UNL     1      -0.254  25.940 114.775  1.00  0.00     0.004 C 
ENDBRANCH  12  13
ENDBRANCH  11  12
ENDBRANCH  10  11
ENDBRANCH   9  10
ENDBRANCH   1   9
TORSDOF 10
ENDMDL
