MODEL 1
REMARK VINA RESULT:     4.544      0.000      0.000
REMARK INTER + INTRA:           6.729
REMARK INTER:                   6.935
REMARK INTRA:                  -0.206
REMARK UNBOUND:                -0.206
REMARK SMILES O=C([O-])CCCCCCCCC(=O)[O-]
REMARK SMILES IDX 7 1 6 2 5 3 4 4 2 5 1 6 3 7 8 8 9 9 10 10 11 11 12 12 13 13
REMARK SMILES IDX 14 14
REMARK H PARENT
REMARK Flexibility Score: inf
ROOT
ATOM      1  C   UNL     1      26.750  30.590  -4.789  1.00  0.00     0.000 C 
ENDROOT
BRANCH   1   2
ATOM      2  C   UNL     1      25.639  30.676  -5.852  1.00  0.00     0.000 C 
BRANCH   2   3
ATOM      3  C   UNL     1      26.018  31.567  -7.047  1.00  0.00     0.006 C 
BRANCH   3   4
ATOM      4  C   UNL     1      24.926  31.587  -8.124  1.00  0.00     0.053 C 
BRANCH   4   5
ATOM      5  C   UNL     1      24.094  32.830  -8.050  1.00  0.00     0.041 C 
ATOM      6  O   UNL     1      24.640  33.963  -8.088  1.00  0.00    -0.550 OA
ATOM      7  O   UNL     1      22.714  32.735  -7.914  1.00  0.00    -0.550 OA
ENDBRANCH   4   5
ENDBRANCH   3   4
ENDBRANCH   2   3
ENDBRANCH   1   2
BRANCH   1   8
ATOM      8  C   UNL     1      26.450  31.316  -3.466  1.00  0.00     0.000 C 
BRANCH   8   9
ATOM      9  C   UNL     1      27.375  30.876  -2.318  1.00  0.00     0.000 C 
BRANCH   9  10
ATOM     10  C   UNL     1      26.615  30.157  -1.191  1.00  0.00     0.006 C 
BRANCH  10  11
ATOM     11  C   UNL     1      27.332  30.254   0.162  1.00  0.00     0.053 C 
BRANCH  11  12
ATOM     12  C   UNL     1      27.170  28.981   0.931  1.00  0.00     0.041 C 
ATOM     13  O   UNL     1      27.603  28.891   2.109  1.00  0.00    -0.550 OA
ATOM     14  O   UNL     1      26.584  27.875   0.327  1.00  0.00    -0.550 OA
ENDBRANCH  11  12
ENDBRANCH  10  11
ENDBRANCH   9  10
ENDBRANCH   8   9
ENDBRANCH   1   8
TORSDOF 9
ENDMDL
MODEL 2
REMARK VINA RESULT:     4.622      0.915      8.191
REMARK INTER + INTRA:           6.848
REMARK INTER:                   7.021
REMARK INTRA:                  -0.173
REMARK UNBOUND:                -0.206
REMARK SMILES O=C([O-])CCCCCCCCC(=O)[O-]
REMARK SMILES IDX 7 1 6 2 5 3 4 4 2 5 1 6 3 7 8 8 9 9 10 10 11 11 12 12 13 13
REMARK SMILES IDX 14 14
REMARK H PARENT
REMARK Flexibility Score: inf
ROOT
ATOM      1  C   UNL     1      27.120  30.886  -4.070  1.00  0.00     0.000 C 
ENDROOT
BRANCH   1   2
ATOM      2  C   UNL     1      26.475  31.282  -2.729  1.00  0.00     0.000 C 
BRANCH   2   3
ATOM      3  C   UNL     1      27.213  30.701  -1.512  1.00  0.00     0.006 C 
BRANCH   3   4
ATOM      4  C   UNL     1      26.305  29.814  -0.652  1.00  0.00     0.053 C 
BRANCH   4   5
ATOM      5  C   UNL     1      26.867  29.605   0.721  1.00  0.00     0.041 C 
ATOM      6  O   UNL     1      27.412  28.512   1.024  1.00  0.00    -0.550 OA
ATOM      7  O   UNL     1      26.764  30.612   1.673  1.00  0.00    -0.550 OA
ENDBRANCH   4   5
ENDBRANCH   3   4
ENDBRANCH   2   3
ENDBRANCH   1   2
BRANCH   1   8
ATOM      8  C   UNL     1      26.131  30.550  -5.200  1.00  0.00     0.000 C 
BRANCH   8   9
ATOM      9  C   UNL     1      25.673  31.791  -5.985  1.00  0.00     0.000 C 
BRANCH   9  10
ATOM     10  C   UNL     1      25.650  31.553  -7.504  1.00  0.00     0.006 C 
BRANCH  10  11
ATOM     11  C   UNL     1      24.228  31.391  -8.057  1.00  0.00     0.053 C 
BRANCH  11  12
ATOM     12  C   UNL     1      23.495  32.694  -8.001  1.00  0.00     0.041 C 
ATOM     13  O   UNL     1      22.239  32.713  -7.926  1.00  0.00    -0.550 OA
ATOM     14  O   UNL     1      24.198  33.890  -8.082  1.00  0.00    -0.550 OA
ENDBRANCH  11  12
ENDBRANCH  10  11
ENDBRANCH   9  10
ENDBRANCH   8   9
ENDBRANCH   1   8
TORSDOF 9
ENDMDL
MODEL 3
REMARK VINA RESULT:     4.685     15.431     17.073
REMARK INTER + INTRA:           6.944
REMARK INTER:                   7.199
REMARK INTRA:                  -0.255
REMARK UNBOUND:                -0.206
REMARK SMILES O=C([O-])CCCCCCCCC(=O)[O-]
REMARK SMILES IDX 7 1 6 2 5 3 4 4 2 5 1 6 3 7 8 8 9 9 10 10 11 11 12 12 13 13
REMARK SMILES IDX 14 14
REMARK H PARENT
REMARK Flexibility Score: inf
ROOT
ATOM      1  C   UNL     1      27.619  44.197   4.193  1.00  0.00     0.000 C 
ENDROOT
BRANCH   1   2
ATOM      2  C   UNL     1      27.836  45.704   3.960  1.00  0.00     0.000 C 
BRANCH   2   3
ATOM      3  C   UNL     1      27.564  46.551   5.214  1.00  0.00     0.006 C 
BRANCH   3   4
ATOM      4  C   UNL     1      26.673  45.820   6.227  1.00  0.00     0.053 C 
BRANCH   4   5
ATOM      5  C   UNL     1      26.201  46.733   7.316  1.00  0.00     0.041 C 
ATOM      6  O   UNL     1      27.000  47.541   7.857  1.00  0.00    -0.550 OA
ATOM      7  O   UNL     1      24.883  46.673   7.750  1.00  0.00    -0.550 OA
ENDBRANCH   4   5
ENDBRANCH   3   4
ENDBRANCH   2   3
ENDBRANCH   1   2
BRANCH   1   8
ATOM      8  C   UNL     1      26.332  43.618   3.580  1.00  0.00     0.000 C 
BRANCH   8   9
ATOM      9  C   UNL     1      25.352  43.083   4.637  1.00  0.00     0.000 C 
BRANCH   9  10
ATOM     10  C   UNL     1      24.403  42.011   4.074  1.00  0.00     0.006 C 
BRANCH  10  11
ATOM     11  C   UNL     1      24.103  42.211   2.582  1.00  0.00     0.053 C 
BRANCH  11  12
ATOM     12  C   UNL     1      22.627  42.294   2.355  1.00  0.00     0.041 C 
ATOM     13  O   UNL     1      21.958  43.231   2.862  1.00  0.00    -0.550 OA
ATOM     14  O   UNL     1      21.981  41.306   1.621  1.00  0.00    -0.550 OA
ENDBRANCH  11  12
ENDBRANCH  10  11
ENDBRANCH   9  10
ENDBRANCH   8   9
ENDBRANCH   1   8
TORSDOF 9
ENDMDL
MODEL 4
REMARK VINA RESULT:     4.806      1.124      8.487
REMARK INTER + INTRA:           7.129
REMARK INTER:                   7.315
REMARK INTRA:                  -0.186
REMARK UNBOUND:                -0.206
REMARK SMILES O=C([O-])CCCCCCCCC(=O)[O-]
REMARK SMILES IDX 7 1 6 2 5 3 4 4 2 5 1 6 3 7 8 8 9 9 10 10 11 11 12 12 13 13
REMARK SMILES IDX 14 14
REMARK H PARENT
REMARK Flexibility Score: inf
ROOT
ATOM      1  C   UNL     1      27.180  30.893  -2.127  1.00  0.00     0.000 C 
ENDROOT
BRANCH   1   2
ATOM      2  C   UNL     1      26.336  30.251  -1.011  1.00  0.00     0.000 C 
BRANCH   2   3
ATOM      3  C   UNL     1      27.115  30.067   0.302  1.00  0.00     0.006 C 
BRANCH   3   4
ATOM      4  C   UNL     1      27.025  28.631   0.834  1.00  0.00     0.053 C 
BRANCH   4   5
ATOM      5  C   UNL     1      28.246  28.247   1.612  1.00  0.00     0.041 C 
ATOM      6  O   UNL     1      29.375  28.238   1.057  1.00  0.00    -0.550 OA
ATOM      7  O   UNL     1      28.131  27.875   2.946  1.00  0.00    -0.550 OA
ENDBRANCH   4   5
ENDBRANCH   3   4
ENDBRANCH   2   3
ENDBRANCH   1   2
BRANCH   1   8
ATOM      8  C   UNL     1      26.401  31.281  -3.397  1.00  0.00     0.000 C 
BRANCH   8   9
ATOM      9  C   UNL     1      26.774  30.421  -4.615  1.00  0.00     0.000 C 
BRANCH   9  10
ATOM     10  C   UNL     1      25.725  30.501  -5.737  1.00  0.00     0.006 C 
BRANCH  10  11
ATOM     11  C   UNL     1      26.039  31.595  -6.766  1.00  0.00     0.053 C 
BRANCH  11  12
ATOM     12  C   UNL     1      24.822  31.915  -7.575  1.00  0.00     0.041 C 
ATOM     13  O   UNL     1      23.976  31.019  -7.830  1.00  0.00    -0.550 OA
ATOM     14  O   UNL     1      24.646  33.194  -8.089  1.00  0.00    -0.550 OA
ENDBRANCH  11  12
ENDBRANCH  10  11
ENDBRANCH   9  10
ENDBRANCH   8   9
ENDBRANCH   1   8
TORSDOF 9
ENDMDL
MODEL 5
REMARK VINA RESULT:     4.845     15.384     16.379
REMARK INTER + INTRA:           7.189
REMARK INTER:                   7.283
REMARK INTRA:                  -0.094
REMARK UNBOUND:                -0.206
REMARK SMILES O=C([O-])CCCCCCCCC(=O)[O-]
REMARK SMILES IDX 7 1 6 2 5 3 4 4 2 5 1 6 3 7 8 8 9 9 10 10 11 11 12 12 13 13
REMARK SMILES IDX 14 14
REMARK H PARENT
REMARK Flexibility Score: inf
ROOT
ATOM      1  C   UNL     1      26.338  43.632   3.694  1.00  0.00     0.000 C 
ENDROOT
BRANCH   1   2
ATOM      2  C   UNL     1      25.406  43.024   4.759  1.00  0.00     0.000 C 
BRANCH   2   3
ATOM      3  C   UNL     1      24.382  42.039   4.170  1.00  0.00     0.006 C 
BRANCH   3   4
ATOM      4  C   UNL     1      24.132  42.286   2.677  1.00  0.00     0.053 C 
BRANCH   4   5
ATOM      5  C   UNL     1      22.670  42.301   2.351  1.00  0.00     0.041 C 
ATOM      6  O   UNL     1      21.931  43.219   2.792  1.00  0.00    -0.550 OA
ATOM      7  O   UNL     1      22.120  41.283   1.581  1.00  0.00    -0.550 OA
ENDBRANCH   4   5
ENDBRANCH   3   4
ENDBRANCH   2   3
ENDBRANCH   1   2
BRANCH   1   8
ATOM      8  C   UNL     1      27.693  44.137   4.221  1.00  0.00     0.000 C 
BRANCH   8   9
ATOM      9  C   UNL     1      27.917  45.636   3.959  1.00  0.00     0.000 C 
BRANCH   9  10
ATOM     10  C   UNL     1      27.472  46.514   5.141  1.00  0.00     0.006 C 
BRANCH  10  11
ATOM     11  C   UNL     1      26.752  45.714   6.235  1.00  0.00     0.053 C 
BRANCH  11  12
ATOM     12  C   UNL     1      26.234  46.631   7.297  1.00  0.00     0.041 C 
ATOM     13  O   UNL     1      26.978  47.523   7.782  1.00  0.00    -0.550 OA
ATOM     14  O   UNL     1      24.944  46.470   7.786  1.00  0.00    -0.550 OA
ENDBRANCH  11  12
ENDBRANCH  10  11
ENDBRANCH   9  10
ENDBRANCH   8   9
ENDBRANCH   1   8
TORSDOF 9
ENDMDL
MODEL 6
REMARK VINA RESULT:     5.109     15.582     17.332
REMARK INTER + INTRA:           7.591
REMARK INTER:                   7.785
REMARK INTRA:                  -0.194
REMARK UNBOUND:                -0.206
REMARK SMILES O=C([O-])CCCCCCCCC(=O)[O-]
REMARK SMILES IDX 7 1 6 2 5 3 4 4 2 5 1 6 3 7 8 8 9 9 10 10 11 11 12 12 13 13
REMARK SMILES IDX 14 14
REMARK H PARENT
REMARK Flexibility Score: inf
ROOT
ATOM      1  C   UNL     1      27.566  45.036   3.910  1.00  0.00     0.000 C 
ENDROOT
BRANCH   1   2
ATOM      2  C   UNL     1      27.409  45.497   5.371  1.00  0.00     0.000 C 
BRANCH   2   3
ATOM      3  C   UNL     1      27.471  47.025   5.530  1.00  0.00     0.006 C 
BRANCH   3   4
ATOM      4  C   UNL     1      27.146  47.472   6.961  1.00  0.00     0.053 C 
BRANCH   4   5
ATOM      5  C   UNL     1      26.138  46.575   7.610  1.00  0.00     0.041 C 
ATOM      6  O   UNL     1      24.912  46.849   7.549  1.00  0.00    -0.550 OA
ATOM      7  O   UNL     1      26.558  45.448   8.306  1.00  0.00    -0.550 OA
ENDBRANCH   4   5
ENDBRANCH   3   4
ENDBRANCH   2   3
ENDBRANCH   1   2
BRANCH   1   8
ATOM      8  C   UNL     1      26.674  43.852   3.496  1.00  0.00     0.000 C 
BRANCH   8   9
ATOM      9  C   UNL     1      25.936  43.214   4.684  1.00  0.00     0.000 C 
BRANCH   9  10
ATOM     10  C   UNL     1      24.598  42.575   4.274  1.00  0.00     0.006 C 
BRANCH  10  11
ATOM     11  C   UNL     1      24.439  42.461   2.752  1.00  0.00     0.053 C 
BRANCH  11  12
ATOM     12  C   UNL     1      22.998  42.288   2.390  1.00  0.00     0.041 C 
ATOM     13  O   UNL     1      22.636  41.319   1.673  1.00  0.00    -0.550 OA
ATOM     14  O   UNL     1      22.060  43.225   2.805  1.00  0.00    -0.550 OA
ENDBRANCH  11  12
ENDBRANCH  10  11
ENDBRANCH   9  10
ENDBRANCH   8   9
ENDBRANCH   1   8
TORSDOF 9
ENDMDL
MODEL 7
REMARK VINA RESULT:     5.191     15.805     16.815
REMARK INTER + INTRA:           7.716
REMARK INTER:                   7.568
REMARK INTRA:                   0.148
REMARK UNBOUND:                -0.206
REMARK SMILES O=C([O-])CCCCCCCCC(=O)[O-]
REMARK SMILES IDX 7 1 6 2 5 3 4 4 2 5 1 6 3 7 8 8 9 9 10 10 11 11 12 12 13 13
REMARK SMILES IDX 14 14
REMARK H PARENT
REMARK Flexibility Score: inf
ROOT
ATOM      1  C   UNL     1      27.646  44.187   3.653  1.00  0.00     0.000 C 
ENDROOT
BRANCH   1   2
ATOM      2  C   UNL     1      26.355  43.615   4.267  1.00  0.00     0.000 C 
BRANCH   2   3
ATOM      3  C   UNL     1      25.469  42.891   3.240  1.00  0.00     0.006 C 
BRANCH   3   4
ATOM      4  C   UNL     1      24.101  42.512   3.819  1.00  0.00     0.053 C 
BRANCH   4   5
ATOM      5  C   UNL     1      23.070  42.337   2.746  1.00  0.00     0.041 C 
ATOM      6  O   UNL     1      23.266  41.525   1.805  1.00  0.00    -0.550 OA
ATOM      7  O   UNL     1      21.903  43.091   2.774  1.00  0.00    -0.550 OA
ENDBRANCH   4   5
ENDBRANCH   3   4
ENDBRANCH   2   3
ENDBRANCH   1   2
BRANCH   1   8
ATOM      8  C   UNL     1      28.105  45.537   4.231  1.00  0.00     0.000 C 
BRANCH   8   9
ATOM      9  C   UNL     1      27.142  46.094   5.292  1.00  0.00     0.000 C 
BRANCH   9  10
ATOM     10  C   UNL     1      27.625  47.428   5.885  1.00  0.00     0.006 C 
BRANCH  10  11
ATOM     11  C   UNL     1      27.134  47.648   7.323  1.00  0.00     0.053 C 
BRANCH  11  12
ATOM     12  C   UNL     1      26.101  46.628   7.683  1.00  0.00     0.041 C 
ATOM     13  O   UNL     1      26.440  45.441   7.929  1.00  0.00    -0.550 OA
ATOM     14  O   UNL     1      24.756  46.977   7.700  1.00  0.00    -0.550 OA
ENDBRANCH  11  12
ENDBRANCH  10  11
ENDBRANCH   9  10
ENDBRANCH   8   9
ENDBRANCH   1   8
TORSDOF 9
ENDMDL
MODEL 8
REMARK VINA RESULT:     5.886     13.523     14.883
REMARK INTER + INTRA:           8.777
REMARK INTER:                   9.153
REMARK INTRA:                  -0.376
REMARK UNBOUND:                -0.206
REMARK SMILES O=C([O-])CCCCCCCCC(=O)[O-]
REMARK SMILES IDX 7 1 6 2 5 3 4 4 2 5 1 6 3 7 8 8 9 9 10 10 11 11 12 12 13 13
REMARK SMILES IDX 14 14
REMARK H PARENT
REMARK Flexibility Score: inf
ROOT
ATOM      1  C   UNL     1      27.337  44.840   4.192  1.00  0.00     0.000 C 
ENDROOT
BRANCH   1   2
ATOM      2  C   UNL     1      26.353  43.720   4.578  1.00  0.00     0.000 C 
BRANCH   2   3
ATOM      3  C   UNL     1      25.533  43.202   3.385  1.00  0.00     0.006 C 
BRANCH   3   4
ATOM      4  C   UNL     1      24.383  42.287   3.826  1.00  0.00     0.053 C 
BRANCH   4   5
ATOM      5  C   UNL     1      23.247  42.310   2.850  1.00  0.00     0.041 C 
ATOM      6  O   UNL     1      22.268  43.078   3.034  1.00  0.00    -0.550 OA
ATOM      7  O   UNL     1      23.261  41.463   1.749  1.00  0.00    -0.550 OA
ENDBRANCH   4   5
ENDBRANCH   3   4
ENDBRANCH   2   3
ENDBRANCH   1   2
BRANCH   1   8
ATOM      8  C   UNL     1      28.773  44.376   3.888  1.00  0.00     0.000 C 
BRANCH   8   9
ATOM      9  C   UNL     1      29.240  44.759   2.474  1.00  0.00     0.000 C 
BRANCH   9  10
ATOM     10  C   UNL     1      29.358  43.541   1.542  1.00  0.00     0.006 C 
BRANCH  10  11
ATOM     11  C   UNL     1      30.198  43.833   0.291  1.00  0.00     0.053 C 
BRANCH  11  12
ATOM     12  C   UNL     1      30.258  42.625  -0.590  1.00  0.00     0.041 C 
ATOM     13  O   UNL     1      30.955  41.632  -0.258  1.00  0.00    -0.550 OA
ATOM     14  O   UNL     1      29.581  42.616  -1.803  1.00  0.00    -0.550 OA
ENDBRANCH  11  12
ENDBRANCH  10  11
ENDBRANCH   9  10
ENDBRANCH   8   9
ENDBRANCH   1   8
TORSDOF 9
ENDMDL
MODEL 9
REMARK VINA RESULT:     5.900     13.573     14.652
REMARK INTER + INTRA:           8.799
REMARK INTER:                   9.139
REMARK INTRA:                  -0.340
REMARK UNBOUND:                -0.206
REMARK SMILES O=C([O-])CCCCCCCCC(=O)[O-]
REMARK SMILES IDX 7 1 6 2 5 3 4 4 2 5 1 6 3 7 8 8 9 9 10 10 11 11 12 12 13 13
REMARK SMILES IDX 14 14
REMARK H PARENT
REMARK Flexibility Score: inf
ROOT
ATOM      1  C   UNL     1      28.597  44.738   3.651  1.00  0.00     0.000 C 
ENDROOT
BRANCH   1   2
ATOM      2  C   UNL     1      29.402  44.900   2.348  1.00  0.00     0.000 C 
BRANCH   2   3
ATOM      3  C   UNL     1      29.486  43.603   1.527  1.00  0.00     0.006 C 
BRANCH   3   4
ATOM      4  C   UNL     1      30.301  43.782   0.240  1.00  0.00     0.053 C 
BRANCH   4   5
ATOM      5  C   UNL     1      30.258  42.558  -0.622  1.00  0.00     0.041 C 
ATOM      6  O   UNL     1      30.929  41.540  -0.312  1.00  0.00    -0.550 OA
ATOM      7  O   UNL     1      29.496  42.554  -1.784  1.00  0.00    -0.550 OA
ENDBRANCH   4   5
ENDBRANCH   3   4
ENDBRANCH   2   3
ENDBRANCH   1   2
BRANCH   1   8
ATOM      8  C   UNL     1      27.154  44.235   3.471  1.00  0.00     0.000 C 
BRANCH   8   9
ATOM      9  C   UNL     1      26.451  43.941   4.807  1.00  0.00     0.000 C 
BRANCH   9  10
ATOM     10  C   UNL     1      25.415  42.810   4.692  1.00  0.00     0.006 C 
BRANCH  10  11
ATOM     11  C   UNL     1      24.848  42.667   3.273  1.00  0.00     0.053 C 
BRANCH  11  12
ATOM     12  C   UNL     1      23.387  42.351   3.325  1.00  0.00     0.041 C 
ATOM     13  O   UNL     1      22.746  42.141   2.263  1.00  0.00    -0.550 OA
ATOM     14  O   UNL     1      22.722  42.337   4.545  1.00  0.00    -0.550 OA
ENDBRANCH  11  12
ENDBRANCH  10  11
ENDBRANCH   9  10
ENDBRANCH   8   9
ENDBRANCH   1   8
TORSDOF 9
ENDMDL
