MODEL 1
REMARK VINA RESULT:    -5.702      0.000      0.000
REMARK INTER + INTRA:          -7.119
REMARK INTER:                  -6.868
REMARK INTRA:                  -0.250
REMARK UNBOUND:                -0.250
REMARK SMILES Oc1cc(O)c2c(c1)O[C@@H](c1ccc(O)c(O)c1)[C@@H](O)C2
REMARK SMILES IDX 21 1 19 2 10 3 9 4 7 5 8 6 2 7 3 8 4 9 6 10 20 11 11 13
REMARK SMILES IDX 18 14 12 15 16 16 13 17 14 18 17 19 15 21 5 23 1 25
REMARK H PARENT 20 12 17 20 15 22 5 24 1 26
REMARK Flexibility Score: inf
ROOT
ATOM      1  C   UNL     1     -18.035  -0.028  -3.945  1.00  0.00     0.079 C 
ATOM      2  C   UNL     1     -17.491  -1.465  -4.057  1.00  0.00     0.164 C 
ATOM      3  C   UNL     1     -16.554  -1.562  -5.276  1.00  0.00     0.232 C 
ATOM      4  O   UNL     1     -15.500  -0.603  -5.167  1.00  0.00    -0.482 OA
ATOM      5  C   UNL     1     -15.709   0.678  -4.642  1.00  0.00     0.131 A 
ATOM      6  C   UNL     1     -14.688   1.628  -4.725  1.00  0.00     0.093 A 
ATOM      7  C   UNL     1     -14.878   2.915  -4.207  1.00  0.00     0.122 A 
ATOM      8  C   UNL     1     -16.095   3.249  -3.606  1.00  0.00     0.092 A 
ATOM      9  C   UNL     1     -17.125   2.302  -3.511  1.00  0.00     0.126 A 
ATOM     10  C   UNL     1     -16.929   1.002  -4.013  1.00  0.00     0.039 A 
ENDROOT
BRANCH   2  11
ATOM     11  O   UNL     1     -16.792  -1.804  -2.886  1.00  0.00    -0.389 OA
ATOM     12  H   UNL     1     -17.111  -1.190  -2.174  1.00  0.00     0.211 HD
ENDBRANCH   2  11
BRANCH   3  13
ATOM     13  C   UNL     1     -15.990  -2.956  -5.430  1.00  0.00    -0.001 A 
ATOM     14  C   UNL     1     -14.646  -3.156  -5.793  1.00  0.00     0.057 A 
ATOM     15  C   UNL     1     -16.795  -4.072  -5.149  1.00  0.00     0.012 A 
ATOM     16  C   UNL     1     -14.122  -4.452  -5.898  1.00  0.00     0.157 A 
ATOM     17  C   UNL     1     -16.274  -5.365  -5.254  1.00  0.00     0.050 A 
ATOM     18  C   UNL     1     -14.939  -5.558  -5.631  1.00  0.00     0.157 A 
BRANCH  16  19
ATOM     19  O   UNL     1     -12.792  -4.648  -6.265  1.00  0.00    -0.504 OA
ATOM     20  H   UNL     1     -12.028  -4.327  -5.682  1.00  0.00     0.293 HD
ENDBRANCH  16  19
BRANCH  18  21
ATOM     21  O   UNL     1     -14.415  -6.845  -5.738  1.00  0.00    -0.504 OA
ATOM     22  H   UNL     1     -13.978  -7.307  -4.949  1.00  0.00     0.293 HD
ENDBRANCH  18  21
ENDBRANCH   3  13
BRANCH   9  23
ATOM     23  O   UNL     1     -18.340   2.650  -2.921  1.00  0.00    -0.507 OA
ATOM     24  H   UNL     1     -18.630   3.617  -2.833  1.00  0.00     0.293 HD
ENDBRANCH   9  23
BRANCH   7  25
ATOM     25  O   UNL     1     -13.866   3.869  -4.288  1.00  0.00    -0.508 OA
ATOM     26  H   UNL     1     -13.253   4.059  -3.504  1.00  0.00     0.293 HD
ENDBRANCH   7  25
TORSDOF 6
ENDMDL
MODEL 2
REMARK VINA RESULT:    -5.553      1.269      2.763
REMARK INTER + INTRA:          -6.940
REMARK INTER:                  -6.635
REMARK INTRA:                  -0.305
REMARK UNBOUND:                -0.250
REMARK SMILES Oc1cc(O)c2c(c1)O[C@@H](c1ccc(O)c(O)c1)[C@@H](O)C2
REMARK SMILES IDX 21 1 19 2 10 3 9 4 7 5 8 6 2 7 3 8 4 9 6 10 20 11 11 13
REMARK SMILES IDX 18 14 12 15 16 16 13 17 14 18 17 19 15 21 5 23 1 25
REMARK H PARENT 20 12 17 20 15 22 5 24 1 26
REMARK Flexibility Score: inf
ROOT
ATOM      1  C   UNL     1     -15.354   0.942  -3.845  1.00  0.00     0.079 C 
ATOM      2  C   UNL     1     -15.128  -0.404  -4.560  1.00  0.00     0.164 C 
ATOM      3  C   UNL     1     -15.912  -1.509  -3.825  1.00  0.00     0.232 C 
ATOM      4  O   UNL     1     -17.298  -1.170  -3.758  1.00  0.00    -0.482 OA
ATOM      5  C   UNL     1     -17.736   0.144  -3.554  1.00  0.00     0.131 A 
ATOM      6  C   UNL     1     -19.092   0.387  -3.320  1.00  0.00     0.093 A 
ATOM      7  C   UNL     1     -19.549   1.695  -3.113  1.00  0.00     0.122 A 
ATOM      8  C   UNL     1     -18.643   2.760  -3.140  1.00  0.00     0.092 A 
ATOM      9  C   UNL     1     -17.281   2.529  -3.381  1.00  0.00     0.126 A 
ATOM     10  C   UNL     1     -16.823   1.217  -3.609  1.00  0.00     0.039 A 
ENDROOT
BRANCH   2  11
ATOM     11  O   UNL     1     -15.561  -0.315  -5.893  1.00  0.00    -0.389 OA
ATOM     12  H   UNL     1     -16.480   0.060  -5.873  1.00  0.00     0.211 HD
ENDBRANCH   2  11
BRANCH   3  13
ATOM     13  C   UNL     1     -15.725  -2.854  -4.489  1.00  0.00    -0.001 A 
ATOM     14  C   UNL     1     -14.455  -3.278  -4.919  1.00  0.00     0.057 A 
ATOM     15  C   UNL     1     -16.819  -3.724  -4.626  1.00  0.00     0.012 A 
ATOM     16  C   UNL     1     -14.286  -4.542  -5.502  1.00  0.00     0.157 A 
ATOM     17  C   UNL     1     -16.652  -4.984  -5.207  1.00  0.00     0.050 A 
ATOM     18  C   UNL     1     -15.388  -5.395  -5.648  1.00  0.00     0.157 A 
BRANCH  16  19
ATOM     19  O   UNL     1     -13.028  -4.957  -5.936  1.00  0.00    -0.504 OA
ATOM     20  H   UNL     1     -12.423  -5.515  -5.346  1.00  0.00     0.293 HD
ENDBRANCH  16  19
BRANCH  18  21
ATOM     21  O   UNL     1     -15.216  -6.650  -6.230  1.00  0.00    -0.504 OA
ATOM     22  H   UNL     1     -15.885  -7.397  -6.084  1.00  0.00     0.293 HD
ENDBRANCH  18  21
ENDBRANCH   3  13
BRANCH   9  23
ATOM     23  O   UNL     1     -16.385   3.597  -3.393  1.00  0.00    -0.507 OA
ATOM     24  H   UNL     1     -16.640   4.501  -3.772  1.00  0.00     0.293 HD
ENDBRANCH   9  23
BRANCH   7  25
ATOM     25  O   UNL     1     -20.898   1.945  -2.875  1.00  0.00    -0.508 OA
ATOM     26  H   UNL     1     -21.626   1.435  -3.363  1.00  0.00     0.293 HD
ENDBRANCH   7  25
TORSDOF 6
ENDMDL
MODEL 3
REMARK VINA RESULT:    -5.512      1.975      7.204
REMARK INTER + INTRA:          -6.890
REMARK INTER:                  -6.501
REMARK INTRA:                  -0.389
REMARK UNBOUND:                -0.250
REMARK SMILES Oc1cc(O)c2c(c1)O[C@@H](c1ccc(O)c(O)c1)[C@@H](O)C2
REMARK SMILES IDX 21 1 19 2 10 3 9 4 7 5 8 6 2 7 3 8 4 9 6 10 20 11 11 13
REMARK SMILES IDX 18 14 12 15 16 16 13 17 14 18 17 19 15 21 5 23 1 25
REMARK H PARENT 20 12 17 20 15 22 5 24 1 26
REMARK Flexibility Score: inf
ROOT
ATOM      1  C   UNL     1     -15.922  -3.885  -5.994  1.00  0.00     0.079 C 
ATOM      2  C   UNL     1     -15.370  -2.448  -5.933  1.00  0.00     0.164 C 
ATOM      3  C   UNL     1     -15.056  -2.085  -4.468  1.00  0.00     0.232 C 
ATOM      4  O   UNL     1     -14.139  -3.030  -3.912  1.00  0.00    -0.482 OA
ATOM      5  C   UNL     1     -14.198  -4.395  -4.216  1.00  0.00     0.131 A 
ATOM      6  C   UNL     1     -13.394  -5.291  -3.507  1.00  0.00     0.093 A 
ATOM      7  C   UNL     1     -13.439  -6.661  -3.797  1.00  0.00     0.122 A 
ATOM      8  C   UNL     1     -14.293  -7.131  -4.799  1.00  0.00     0.092 A 
ATOM      9  C   UNL     1     -15.100  -6.241  -5.521  1.00  0.00     0.126 A 
ATOM     10  C   UNL     1     -15.041  -4.861  -5.246  1.00  0.00     0.039 A 
ENDROOT
BRANCH   2  11
ATOM     11  O   UNL     1     -14.206  -2.349  -6.712  1.00  0.00    -0.389 OA
ATOM     12  H   UNL     1     -14.436  -1.795  -7.503  1.00  0.00     0.211 HD
ENDBRANCH   2  11
BRANCH   3  13
ATOM     13  C   UNL     1     -14.508  -0.682  -4.352  1.00  0.00    -0.001 A 
ATOM     14  C   UNL     1     -15.292   0.432  -4.703  1.00  0.00     0.057 A 
ATOM     15  C   UNL     1     -13.222  -0.474  -3.827  1.00  0.00     0.012 A 
ATOM     16  C   UNL     1     -14.788   1.732  -4.557  1.00  0.00     0.157 A 
ATOM     17  C   UNL     1     -12.718   0.822  -3.682  1.00  0.00     0.050 A 
ATOM     18  C   UNL     1     -13.497   1.927  -4.049  1.00  0.00     0.157 A 
BRANCH  16  19
ATOM     19  O   UNL     1     -15.563   2.834  -4.914  1.00  0.00    -0.504 OA
ATOM     20  H   UNL     1     -15.222   3.534  -5.563  1.00  0.00     0.293 HD
ENDBRANCH  16  19
BRANCH  18  21
ATOM     21  O   UNL     1     -12.998   3.220  -3.908  1.00  0.00    -0.504 OA
ATOM     22  H   UNL     1     -13.408   4.003  -4.404  1.00  0.00     0.293 HD
ENDBRANCH  18  21
ENDBRANCH   3  13
BRANCH   9  23
ATOM     23  O   UNL     1     -15.958  -6.722  -6.510  1.00  0.00    -0.507 OA
ATOM     24  H   UNL     1     -15.681  -6.756  -7.484  1.00  0.00     0.293 HD
ENDBRANCH   9  23
BRANCH   7  25
ATOM     25  O   UNL     1     -12.643  -7.561  -3.093  1.00  0.00    -0.508 OA
ATOM     26  H   UNL     1     -12.122  -7.278  -2.271  1.00  0.00     0.293 HD
ENDBRANCH   7  25
TORSDOF 6
ENDMDL
MODEL 4
REMARK VINA RESULT:    -5.474      8.319     10.943
REMARK INTER + INTRA:          -6.844
REMARK INTER:                  -7.209
REMARK INTRA:                   0.364
REMARK UNBOUND:                -0.250
REMARK SMILES Oc1cc(O)c2c(c1)O[C@@H](c1ccc(O)c(O)c1)[C@@H](O)C2
REMARK SMILES IDX 21 1 19 2 10 3 9 4 7 5 8 6 2 7 3 8 4 9 6 10 20 11 11 13
REMARK SMILES IDX 18 14 12 15 16 16 13 17 14 18 17 19 15 21 5 23 1 25
REMARK H PARENT 20 12 17 20 15 22 5 24 1 26
REMARK Flexibility Score: inf
ROOT
ATOM      1  C   UNL     1     -12.050   3.830 -12.579  1.00  0.00     0.079 C 
ATOM      2  C   UNL     1     -12.214   3.850 -11.048  1.00  0.00     0.164 C 
ATOM      3  C   UNL     1     -10.874   4.245 -10.397  1.00  0.00     0.232 C 
ATOM      4  O   UNL     1     -10.434   5.508 -10.901  1.00  0.00    -0.482 OA
ATOM      5  C   UNL     1     -10.610   5.880 -12.239  1.00  0.00     0.131 A 
ATOM      6  C   UNL     1     -10.002   7.046 -12.712  1.00  0.00     0.093 A 
ATOM      7  C   UNL     1     -10.166   7.434 -14.048  1.00  0.00     0.122 A 
ATOM      8  C   UNL     1     -10.940   6.650 -14.909  1.00  0.00     0.092 A 
ATOM      9  C   UNL     1     -11.559   5.481 -14.444  1.00  0.00     0.126 A 
ATOM     10  C   UNL     1     -11.413   5.100 -13.097  1.00  0.00     0.039 A 
ENDROOT
BRANCH   2  11
ATOM     11  O   UNL     1     -13.212   4.770 -10.686  1.00  0.00    -0.389 OA
ATOM     12  H   UNL     1     -13.304   4.720  -9.699  1.00  0.00     0.211 HD
ENDBRANCH   2  11
BRANCH   3  13
ATOM     13  C   UNL     1     -10.981   4.282  -8.890  1.00  0.00    -0.001 A 
ATOM     14  C   UNL     1     -10.012   3.661  -8.081  1.00  0.00     0.057 A 
ATOM     15  C   UNL     1     -12.024   4.998  -8.280  1.00  0.00     0.012 A 
ATOM     16  C   UNL     1     -10.100   3.732  -6.683  1.00  0.00     0.157 A 
ATOM     17  C   UNL     1     -12.113   5.069  -6.887  1.00  0.00     0.050 A 
ATOM     18  C   UNL     1     -11.155   4.435  -6.086  1.00  0.00     0.157 A 
BRANCH  16  19
ATOM     19  O   UNL     1      -9.145   3.109  -5.883  1.00  0.00    -0.504 OA
ATOM     20  H   UNL     1      -9.048   3.335  -4.900  1.00  0.00     0.293 HD
ENDBRANCH  16  19
BRANCH  18  21
ATOM     21  O   UNL     1     -11.240   4.502  -4.696  1.00  0.00    -0.504 OA
ATOM     22  H   UNL     1     -12.032   4.935  -4.235  1.00  0.00     0.293 HD
ENDBRANCH  18  21
ENDBRANCH   3  13
BRANCH   9  23
ATOM     23  O   UNL     1     -12.318   4.700 -15.315  1.00  0.00    -0.507 OA
ATOM     24  H   UNL     1     -13.324   4.624 -15.222  1.00  0.00     0.293 HD
ENDBRANCH   9  23
BRANCH   7  25
ATOM     25  O   UNL     1      -9.562   8.593 -14.529  1.00  0.00    -0.508 OA
ATOM     26  H   UNL     1     -10.031   9.490 -14.490  1.00  0.00     0.293 HD
ENDBRANCH   7  25
TORSDOF 6
ENDMDL
MODEL 5
REMARK VINA RESULT:    -5.358      2.796      7.122
REMARK INTER + INTRA:          -6.705
REMARK INTER:                  -6.485
REMARK INTRA:                  -0.219
REMARK UNBOUND:                -0.250
REMARK SMILES Oc1cc(O)c2c(c1)O[C@@H](c1ccc(O)c(O)c1)[C@@H](O)C2
REMARK SMILES IDX 21 1 19 2 10 3 9 4 7 5 8 6 2 7 3 8 4 9 6 10 20 11 11 13
REMARK SMILES IDX 18 14 12 15 16 16 13 17 14 18 17 19 15 21 5 23 1 25
REMARK H PARENT 20 12 17 20 15 22 5 24 1 26
REMARK Flexibility Score: inf
ROOT
ATOM      1  C   UNL     1     -16.416   2.806  -3.622  1.00  0.00     0.079 C 
ATOM      2  C   UNL     1     -15.217   3.676  -4.044  1.00  0.00     0.164 C 
ATOM      3  C   UNL     1     -13.908   2.915  -3.757  1.00  0.00     0.232 C 
ATOM      4  O   UNL     1     -13.912   1.655  -4.431  1.00  0.00    -0.482 OA
ATOM      5  C   UNL     1     -15.071   0.878  -4.553  1.00  0.00     0.131 A 
ATOM      6  C   UNL     1     -14.976  -0.420  -5.062  1.00  0.00     0.093 A 
ATOM      7  C   UNL     1     -16.123  -1.212  -5.192  1.00  0.00     0.122 A 
ATOM      8  C   UNL     1     -17.367  -0.702  -4.808  1.00  0.00     0.092 A 
ATOM      9  C   UNL     1     -17.476   0.601  -4.302  1.00  0.00     0.126 A 
ATOM     10  C   UNL     1     -16.327   1.407  -4.190  1.00  0.00     0.039 A 
ENDROOT
BRANCH   2  11
ATOM     11  O   UNL     1     -15.305   3.980  -5.413  1.00  0.00    -0.389 OA
ATOM     12  H   UNL     1     -16.220   4.330  -5.571  1.00  0.00     0.211 HD
ENDBRANCH   2  11
BRANCH   3  13
ATOM     13  C   UNL     1     -12.697   3.726  -4.156  1.00  0.00    -0.001 A 
ATOM     14  C   UNL     1     -11.574   3.111  -4.737  1.00  0.00     0.057 A 
ATOM     15  C   UNL     1     -12.710   5.123  -4.007  1.00  0.00     0.012 A 
ATOM     16  C   UNL     1     -10.470   3.876  -5.138  1.00  0.00     0.157 A 
ATOM     17  C   UNL     1     -11.610   5.887  -4.405  1.00  0.00     0.050 A 
ATOM     18  C   UNL     1     -10.487   5.267  -4.968  1.00  0.00     0.157 A 
BRANCH  16  19
ATOM     19  O   UNL     1      -9.354   3.264  -5.705  1.00  0.00    -0.504 OA
ATOM     20  H   UNL     1      -8.711   3.777  -6.296  1.00  0.00     0.293 HD
ENDBRANCH  16  19
BRANCH  18  21
ATOM     21  O   UNL     1      -9.387   6.025  -5.365  1.00  0.00    -0.504 OA
ATOM     22  H   UNL     1      -8.827   6.538  -4.694  1.00  0.00     0.293 HD
ENDBRANCH  18  21
ENDBRANCH   3  13
BRANCH   9  23
ATOM     23  O   UNL     1     -18.720   1.096  -3.910  1.00  0.00    -0.507 OA
ATOM     24  H   UNL     1     -19.581   0.624  -4.158  1.00  0.00     0.293 HD
ENDBRANCH   9  23
BRANCH   7  25
ATOM     25  O   UNL     1     -16.037  -2.508  -5.696  1.00  0.00    -0.508 OA
ATOM     26  H   UNL     1     -15.641  -3.264  -5.149  1.00  0.00     0.293 HD
ENDBRANCH   7  25
TORSDOF 6
ENDMDL
MODEL 6
REMARK VINA RESULT:    -5.324      1.703      3.157
REMARK INTER + INTRA:          -6.664
REMARK INTER:                  -6.364
REMARK INTRA:                  -0.299
REMARK UNBOUND:                -0.250
REMARK SMILES Oc1cc(O)c2c(c1)O[C@@H](c1ccc(O)c(O)c1)[C@@H](O)C2
REMARK SMILES IDX 21 1 19 2 10 3 9 4 7 5 8 6 2 7 3 8 4 9 6 10 20 11 11 13
REMARK SMILES IDX 18 14 12 15 16 16 13 17 14 18 17 19 15 21 5 23 1 25
REMARK H PARENT 20 12 17 20 15 22 5 24 1 26
REMARK Flexibility Score: inf
ROOT
ATOM      1  C   UNL     1     -14.343  -0.258  -3.400  1.00  0.00     0.079 C 
ATOM      2  C   UNL     1     -14.053  -1.645  -4.005  1.00  0.00     0.164 C 
ATOM      3  C   UNL     1     -15.018  -2.679  -3.394  1.00  0.00     0.232 C 
ATOM      4  O   UNL     1     -16.373  -2.279  -3.612  1.00  0.00    -0.482 OA
ATOM      5  C   UNL     1     -16.774  -0.939  -3.549  1.00  0.00     0.131 A 
ATOM      6  C   UNL     1     -18.136  -0.628  -3.593  1.00  0.00     0.093 A 
ATOM      7  C   UNL     1     -18.557   0.706  -3.530  1.00  0.00     0.122 A 
ATOM      8  C   UNL     1     -17.610   1.729  -3.421  1.00  0.00     0.092 A 
ATOM      9  C   UNL     1     -16.241   1.430  -3.383  1.00  0.00     0.126 A 
ATOM     10  C   UNL     1     -15.814   0.091  -3.466  1.00  0.00     0.039 A 
ENDROOT
BRANCH   2  11
ATOM     11  O   UNL     1     -14.215  -1.602  -5.399  1.00  0.00    -0.389 OA
ATOM     12  H   UNL     1     -14.950  -2.231  -5.622  1.00  0.00     0.211 HD
ENDBRANCH   2  11
BRANCH   3  13
ATOM     13  C   UNL     1     -14.776  -4.061  -3.957  1.00  0.00    -0.001 A 
ATOM     14  C   UNL     1     -15.584  -4.574  -4.987  1.00  0.00     0.057 A 
ATOM     15  C   UNL     1     -13.693  -4.825  -3.493  1.00  0.00     0.012 A 
ATOM     16  C   UNL     1     -15.329  -5.842  -5.528  1.00  0.00     0.157 A 
ATOM     17  C   UNL     1     -13.438  -6.090  -4.031  1.00  0.00     0.050 A 
ATOM     18  C   UNL     1     -14.256  -6.603  -5.046  1.00  0.00     0.157 A 
BRANCH  16  19
ATOM     19  O   UNL     1     -16.136  -6.352  -6.544  1.00  0.00    -0.504 OA
ATOM     20  H   UNL     1     -16.393  -5.792  -7.348  1.00  0.00     0.293 HD
ENDBRANCH  16  19
BRANCH  18  21
ATOM     21  O   UNL     1     -14.007  -7.864  -5.584  1.00  0.00    -0.504 OA
ATOM     22  H   UNL     1     -13.297  -8.006  -6.293  1.00  0.00     0.293 HD
ENDBRANCH  18  21
ENDBRANCH   3  13
BRANCH   9  23
ATOM     23  O   UNL     1     -15.305   2.457  -3.261  1.00  0.00    -0.507 OA
ATOM     24  H   UNL     1     -14.428   2.439  -3.767  1.00  0.00     0.293 HD
ENDBRANCH   9  23
BRANCH   7  25
ATOM     25  O   UNL     1     -19.912   1.025  -3.570  1.00  0.00    -0.508 OA
ATOM     26  H   UNL     1     -20.274   1.717  -4.215  1.00  0.00     0.293 HD
ENDBRANCH   7  25
TORSDOF 6
ENDMDL
MODEL 7
REMARK VINA RESULT:    -5.281      7.963      8.930
REMARK INTER + INTRA:          -6.612
REMARK INTER:                  -6.393
REMARK INTRA:                  -0.219
REMARK UNBOUND:                -0.250
REMARK SMILES Oc1cc(O)c2c(c1)O[C@@H](c1ccc(O)c(O)c1)[C@@H](O)C2
REMARK SMILES IDX 21 1 19 2 10 3 9 4 7 5 8 6 2 7 3 8 4 9 6 10 20 11 11 13
REMARK SMILES IDX 18 14 12 15 16 16 13 17 14 18 17 19 15 21 5 23 1 25
REMARK H PARENT 20 12 17 20 15 22 5 24 1 26
REMARK Flexibility Score: inf
ROOT
ATOM      1  C   UNL     1     -14.482   7.907  -3.186  1.00  0.00     0.079 C 
ATOM      2  C   UNL     1     -13.235   7.126  -3.643  1.00  0.00     0.164 C 
ATOM      3  C   UNL     1     -13.627   6.159  -4.777  1.00  0.00     0.232 C 
ATOM      4  O   UNL     1     -14.227   6.880  -5.856  1.00  0.00    -0.482 OA
ATOM      5  C   UNL     1     -15.081   7.968  -5.642  1.00  0.00     0.131 A 
ATOM      6  C   UNL     1     -15.776   8.517  -6.722  1.00  0.00     0.093 A 
ATOM      7  C   UNL     1     -16.636   9.605  -6.528  1.00  0.00     0.122 A 
ATOM      8  C   UNL     1     -16.801  10.141  -5.247  1.00  0.00     0.092 A 
ATOM      9  C   UNL     1     -16.105   9.602  -4.156  1.00  0.00     0.126 A 
ATOM     10  C   UNL     1     -15.223   8.521  -4.353  1.00  0.00     0.039 A 
ENDROOT
BRANCH   2  11
ATOM     11  O   UNL     1     -12.250   8.021  -4.094  1.00  0.00    -0.389 OA
ATOM     12  H   UNL     1     -12.412   8.161  -5.064  1.00  0.00     0.211 HD
ENDBRANCH   2  11
BRANCH   3  13
ATOM     13  C   UNL     1     -12.435   5.367  -5.265  1.00  0.00    -0.001 A 
ATOM     14  C   UNL     1     -12.275   5.070  -6.631  1.00  0.00     0.057 A 
ATOM     15  C   UNL     1     -11.438   4.974  -4.359  1.00  0.00     0.012 A 
ATOM     16  C   UNL     1     -11.148   4.367  -7.079  1.00  0.00     0.157 A 
ATOM     17  C   UNL     1     -10.314   4.272  -4.804  1.00  0.00     0.050 A 
ATOM     18  C   UNL     1     -10.167   3.964  -6.163  1.00  0.00     0.157 A 
BRANCH  16  19
ATOM     19  O   UNL     1     -10.995   4.065  -8.431  1.00  0.00    -0.504 OA
ATOM     20  H   UNL     1     -11.495   3.297  -8.862  1.00  0.00     0.293 HD
ENDBRANCH  16  19
BRANCH  18  21
ATOM     21  O   UNL     1      -9.050   3.264  -6.612  1.00  0.00    -0.504 OA
ATOM     22  H   UNL     1      -9.112   2.599  -7.375  1.00  0.00     0.293 HD
ENDBRANCH  18  21
ENDBRANCH   3  13
BRANCH   9  23
ATOM     23  O   UNL     1     -16.286  10.136  -2.881  1.00  0.00    -0.507 OA
ATOM     24  H   UNL     1     -16.851  10.963  -2.726  1.00  0.00     0.293 HD
ENDBRANCH   9  23
BRANCH   7  25
ATOM     25  O   UNL     1     -17.335  10.157  -7.599  1.00  0.00    -0.508 OA
ATOM     26  H   UNL     1     -17.967   9.600  -8.163  1.00  0.00     0.293 HD
ENDBRANCH   7  25
TORSDOF 6
ENDMDL
MODEL 8
REMARK VINA RESULT:    -5.057      7.403      9.310
REMARK INTER + INTRA:          -6.342
REMARK INTER:                  -6.162
REMARK INTRA:                  -0.180
REMARK UNBOUND:                -0.250
REMARK SMILES Oc1cc(O)c2c(c1)O[C@@H](c1ccc(O)c(O)c1)[C@@H](O)C2
REMARK SMILES IDX 21 1 19 2 10 3 9 4 7 5 8 6 2 7 3 8 4 9 6 10 20 11 11 13
REMARK SMILES IDX 18 14 12 15 16 16 13 17 14 18 17 19 15 21 5 23 1 25
REMARK H PARENT 20 12 17 20 15 22 5 24 1 26
REMARK Flexibility Score: inf
ROOT
ATOM      1  C   UNL     1     -12.515   8.648  -7.715  1.00  0.00     0.079 C 
ATOM      2  C   UNL     1     -11.994   7.264  -7.285  1.00  0.00     0.164 C 
ATOM      3  C   UNL     1     -12.103   7.131  -5.753  1.00  0.00     0.232 C 
ATOM      4  O   UNL     1     -13.453   7.342  -5.335  1.00  0.00    -0.482 OA
ATOM      5  C   UNL     1     -14.280   8.298  -5.937  1.00  0.00     0.131 A 
ATOM      6  C   UNL     1     -15.525   8.583  -5.371  1.00  0.00     0.093 A 
ATOM      7  C   UNL     1     -16.366   9.536  -5.958  1.00  0.00     0.122 A 
ATOM      8  C   UNL     1     -15.956  10.205  -7.116  1.00  0.00     0.092 A 
ATOM      9  C   UNL     1     -14.712   9.923  -7.697  1.00  0.00     0.126 A 
ATOM     10  C   UNL     1     -13.873   8.950  -7.120  1.00  0.00     0.039 A 
ENDROOT
BRANCH   2  11
ATOM     11  O   UNL     1     -12.746   6.255  -7.909  1.00  0.00    -0.389 OA
ATOM     12  H   UNL     1     -12.451   5.392  -7.516  1.00  0.00     0.211 HD
ENDBRANCH   2  11
BRANCH   3  13
ATOM     13  C   UNL     1     -11.604   5.785  -5.278  1.00  0.00    -0.001 A 
ATOM     14  C   UNL     1     -10.567   5.119  -5.954  1.00  0.00     0.057 A 
ATOM     15  C   UNL     1     -12.136   5.215  -4.111  1.00  0.00     0.012 A 
ATOM     16  C   UNL     1     -10.086   3.888  -5.485  1.00  0.00     0.157 A 
ATOM     17  C   UNL     1     -11.659   3.987  -3.642  1.00  0.00     0.050 A 
ATOM     18  C   UNL     1     -10.636   3.320  -4.328  1.00  0.00     0.157 A 
BRANCH  16  19
ATOM     19  O   UNL     1      -9.063   3.225  -6.161  1.00  0.00    -0.504 OA
ATOM     20  H   UNL     1      -9.221   2.785  -7.060  1.00  0.00     0.293 HD
ENDBRANCH  16  19
BRANCH  18  21
ATOM     21  O   UNL     1     -10.158   2.096  -3.866  1.00  0.00    -0.504 OA
ATOM     22  H   UNL     1     -10.606   1.607  -3.100  1.00  0.00     0.293 HD
ENDBRANCH  18  21
ENDBRANCH   3  13
BRANCH   9  23
ATOM     23  O   UNL     1     -14.307  10.605  -8.845  1.00  0.00    -0.507 OA
ATOM     24  H   UNL     1     -14.884  11.323  -9.267  1.00  0.00     0.293 HD
ENDBRANCH   9  23
BRANCH   7  25
ATOM     25  O   UNL     1     -17.607   9.828  -5.398  1.00  0.00    -0.508 OA
ATOM     26  H   UNL     1     -17.697  10.458  -4.609  1.00  0.00     0.293 HD
ENDBRANCH   7  25
TORSDOF 6
ENDMDL
MODEL 9
REMARK VINA RESULT:    -4.962      2.768      4.872
REMARK INTER + INTRA:          -6.228
REMARK INTER:                  -6.109
REMARK INTRA:                  -0.119
REMARK UNBOUND:                -0.250
REMARK SMILES Oc1cc(O)c2c(c1)O[C@@H](c1ccc(O)c(O)c1)[C@@H](O)C2
REMARK SMILES IDX 21 1 19 2 10 3 9 4 7 5 8 6 2 7 3 8 4 9 6 10 20 11 11 13
REMARK SMILES IDX 18 14 12 15 16 16 13 17 14 18 17 19 15 21 5 23 1 25
REMARK H PARENT 20 12 17 20 15 22 5 24 1 26
REMARK Flexibility Score: inf
ROOT
ATOM      1  C   UNL     1     -13.424   4.394  -3.311  1.00  0.00     0.079 C 
ATOM      2  C   UNL     1     -13.444   2.914  -3.737  1.00  0.00     0.164 C 
ATOM      3  C   UNL     1     -14.891   2.497  -4.061  1.00  0.00     0.232 C 
ATOM      4  O   UNL     1     -15.435   3.347  -5.073  1.00  0.00    -0.482 OA
ATOM      5  C   UNL     1     -15.155   4.718  -5.125  1.00  0.00     0.131 A 
ATOM      6  C   UNL     1     -15.854   5.527  -6.025  1.00  0.00     0.093 A 
ATOM      7  C   UNL     1     -15.589   6.901  -6.091  1.00  0.00     0.122 A 
ATOM      8  C   UNL     1     -14.623   7.463  -5.251  1.00  0.00     0.092 A 
ATOM      9  C   UNL     1     -13.911   6.660  -4.349  1.00  0.00     0.126 A 
ATOM     10  C   UNL     1     -14.161   5.276  -4.295  1.00  0.00     0.039 A 
ENDROOT
BRANCH   2  11
ATOM     11  O   UNL     1     -12.627   2.730  -4.864  1.00  0.00    -0.389 OA
ATOM     12  H   UNL     1     -12.508   3.623  -5.282  1.00  0.00     0.211 HD
ENDBRANCH   2  11
BRANCH   3  13
ATOM     13  C   UNL     1     -14.967   1.049  -4.488  1.00  0.00    -0.001 A 
ATOM     14  C   UNL     1     -14.015   0.114  -4.043  1.00  0.00     0.057 A 
ATOM     15  C   UNL     1     -16.034   0.610  -5.288  1.00  0.00     0.012 A 
ATOM     16  C   UNL     1     -14.114  -1.235  -4.414  1.00  0.00     0.157 A 
ATOM     17  C   UNL     1     -16.133  -0.734  -5.660  1.00  0.00     0.050 A 
ATOM     18  C   UNL     1     -15.174  -1.658  -5.227  1.00  0.00     0.157 A 
BRANCH  16  19
ATOM     19  O   UNL     1     -13.165  -2.159  -3.980  1.00  0.00    -0.504 OA
ATOM     20  H   UNL     1     -12.497  -1.930  -3.254  1.00  0.00     0.293 HD
ENDBRANCH  16  19
BRANCH  18  21
ATOM     21  O   UNL     1     -15.268  -2.998  -5.597  1.00  0.00    -0.504 OA
ATOM     22  H   UNL     1     -16.033  -3.338  -6.168  1.00  0.00     0.293 HD
ENDBRANCH  18  21
ENDBRANCH   3  13
BRANCH   9  23
ATOM     23  O   UNL     1     -12.958   7.234  -3.507  1.00  0.00    -0.507 OA
ATOM     24  H   UNL     1     -12.017   7.430  -3.826  1.00  0.00     0.293 HD
ENDBRANCH   9  23
BRANCH   7  25
ATOM     25  O   UNL     1     -16.283   7.715  -6.983  1.00  0.00    -0.508 OA
ATOM     26  H   UNL     1     -16.948   8.409  -6.660  1.00  0.00     0.293 HD
ENDBRANCH   7  25
TORSDOF 6
ENDMDL
