MODEL 1
REMARK VINA RESULT:    -4.101      0.000      0.000
REMARK INTER + INTRA:          -5.194
REMARK INTER:                  -4.941
REMARK INTRA:                  -0.253
REMARK UNBOUND:                -0.253
REMARK SMILES NC(=O)C[C@@H]([NH3+])C(=O)[O-]
REMARK SMILES IDX 4 1 5 2 6 3 7 7 8 8 9 9 2 10 3 11 1 12
REMARK H PARENT 6 4 6 5 6 6 1 13 1 14
REMARK Flexibility Score: inf
ROOT
ATOM      1  C   UNL     1     -18.195   0.209  -8.246  1.00  0.00     0.171 C 
ENDROOT
BRANCH   1   2
ATOM      2  C   UNL     1     -16.829  -0.426  -7.914  1.00  0.00     0.237 C 
BRANCH   2   3
ATOM      3  N   UNL     1     -16.981  -1.598  -7.042  1.00  0.00    -0.350 N 
ATOM      4  H   UNL     1     -16.483  -1.434  -6.136  1.00  0.00     0.345 HD
ATOM      5  H   UNL     1     -17.991  -1.758  -6.828  1.00  0.00     0.345 HD
ATOM      6  H   UNL     1     -16.586  -2.454  -7.499  1.00  0.00     0.345 HD
ENDBRANCH   2   3
BRANCH   2   7
ATOM      7  C   UNL     1     -16.130  -0.816  -9.189  1.00  0.00     0.100 C 
ATOM      8  O   UNL     1     -16.590  -1.745  -9.904  1.00  0.00    -0.544 OA
ATOM      9  O   UNL     1     -14.964  -0.167  -9.576  1.00  0.00    -0.544 OA
ENDBRANCH   2   7
ENDBRANCH   1   2
BRANCH   1  10
ATOM     10  C   UNL     1     -18.786   0.908  -7.057  1.00  0.00     0.223 C 
ATOM     11  O   UNL     1     -18.219   0.826  -5.934  1.00  0.00    -0.275 OA
ATOM     12  N   UNL     1     -19.972   1.689  -7.195  1.00  0.00    -0.369 N 
ATOM     13  H   UNL     1     -20.448   1.775  -8.121  1.00  0.00     0.159 HD
ATOM     14  H   UNL     1     -20.377   2.185  -6.370  1.00  0.00     0.159 HD
ENDBRANCH   1  10
TORSDOF 4
ENDMDL
MODEL 2
REMARK VINA RESULT:    -4.030     12.480     13.482
REMARK INTER + INTRA:          -5.108
REMARK INTER:                  -5.028
REMARK INTRA:                  -0.080
REMARK UNBOUND:                -0.253
REMARK SMILES NC(=O)C[C@@H]([NH3+])C(=O)[O-]
REMARK SMILES IDX 4 1 5 2 6 3 7 7 8 8 9 9 2 10 3 11 1 12
REMARK H PARENT 6 4 6 5 6 6 1 13 1 14
REMARK Flexibility Score: inf
ROOT
ATOM      1  C   UNL     1     -14.478  11.519  -5.518  1.00  0.00     0.171 C 
ENDROOT
BRANCH   1   2
ATOM      2  C   UNL     1     -14.582  11.807  -4.007  1.00  0.00     0.237 C 
BRANCH   2   3
ATOM      3  N   UNL     1     -14.089  10.676  -3.210  1.00  0.00    -0.350 N 
ATOM      4  H   UNL     1     -14.395   9.775  -3.645  1.00  0.00     0.345 HD
ATOM      5  H   UNL     1     -13.044  10.682  -3.186  1.00  0.00     0.345 HD
ATOM      6  H   UNL     1     -14.456  10.724  -2.230  1.00  0.00     0.345 HD
ENDBRANCH   2   3
BRANCH   2   7
ATOM      7  C   UNL     1     -13.804  13.052  -3.674  1.00  0.00     0.100 C 
ATOM      8  O   UNL     1     -13.598  13.368  -2.473  1.00  0.00    -0.544 OA
ATOM      9  O   UNL     1     -13.322  13.870  -4.690  1.00  0.00    -0.544 OA
ENDBRANCH   2   7
ENDBRANCH   1   2
BRANCH   1  10
ATOM     10  C   UNL     1     -15.668  12.045  -6.266  1.00  0.00     0.223 C 
ATOM     11  O   UNL     1     -15.606  12.199  -7.516  1.00  0.00    -0.275 OA
ATOM     12  N   UNL     1     -16.880  12.343  -5.576  1.00  0.00    -0.369 N 
ATOM     13  H   UNL     1     -16.951  12.211  -4.542  1.00  0.00     0.159 HD
ATOM     14  H   UNL     1     -17.712  12.697  -6.098  1.00  0.00     0.159 HD
ENDBRANCH   1  10
TORSDOF 4
ENDMDL
MODEL 3
REMARK VINA RESULT:    -3.951     11.693     12.985
REMARK INTER + INTRA:          -5.013
REMARK INTER:                  -4.537
REMARK INTRA:                  -0.476
REMARK UNBOUND:                -0.253
REMARK SMILES NC(=O)C[C@@H]([NH3+])C(=O)[O-]
REMARK SMILES IDX 4 1 5 2 6 3 7 7 8 8 9 9 2 10 3 11 1 12
REMARK H PARENT 6 4 6 5 6 6 1 13 1 14
REMARK Flexibility Score: inf
ROOT
ATOM      1  C   UNL     1     -13.183   2.229   2.937  1.00  0.00     0.171 C 
ENDROOT
BRANCH   1   2
ATOM      2  C   UNL     1     -13.412   3.314   4.008  1.00  0.00     0.237 C 
BRANCH   2   3
ATOM      3  N   UNL     1     -14.577   4.148   3.686  1.00  0.00    -0.350 N 
ATOM      4  H   UNL     1     -15.228   3.621   3.059  1.00  0.00     0.345 HD
ATOM      5  H   UNL     1     -15.097   4.390   4.559  1.00  0.00     0.345 HD
ATOM      6  H   UNL     1     -14.280   5.031   3.207  1.00  0.00     0.345 HD
ENDBRANCH   2   3
BRANCH   2   7
ATOM      7  C   UNL     1     -13.596   2.665   5.354  1.00  0.00     0.100 C 
ATOM      8  O   UNL     1     -14.388   1.694   5.485  1.00  0.00    -0.544 OA
ATOM      9  O   UNL     1     -12.909   3.142   6.463  1.00  0.00    -0.544 OA
ENDBRANCH   2   7
ENDBRANCH   1   2
BRANCH   1  10
ATOM     10  C   UNL     1     -14.416   1.991   2.115  1.00  0.00     0.223 C 
ATOM     11  O   UNL     1     -14.639   2.702   1.099  1.00  0.00    -0.275 OA
ATOM     12  N   UNL     1     -15.323   0.946   2.461  1.00  0.00    -0.369 N 
ATOM     13  H   UNL     1     -15.146   0.341   3.294  1.00  0.00     0.159 HD
ATOM     14  H   UNL     1     -16.175   0.773   1.882  1.00  0.00     0.159 HD
ENDBRANCH   1  10
TORSDOF 4
ENDMDL
MODEL 4
REMARK VINA RESULT:    -3.947     12.380     12.979
REMARK INTER + INTRA:          -5.008
REMARK INTER:                  -4.750
REMARK INTRA:                  -0.258
REMARK UNBOUND:                -0.253
REMARK SMILES NC(=O)C[C@@H]([NH3+])C(=O)[O-]
REMARK SMILES IDX 4 1 5 2 6 3 7 7 8 8 9 9 2 10 3 11 1 12
REMARK H PARENT 6 4 6 5 6 6 1 13 1 14
REMARK Flexibility Score: inf
ROOT
ATOM      1  C   UNL     1     -14.611  11.575  -5.511  1.00  0.00     0.171 C 
ENDROOT
BRANCH   1   2
ATOM      2  C   UNL     1     -15.962  12.276  -5.757  1.00  0.00     0.237 C 
BRANCH   2   3
ATOM      3  N   UNL     1     -15.947  13.659  -5.261  1.00  0.00    -0.350 N 
ATOM      4  H   UNL     1     -15.360  14.255  -5.890  1.00  0.00     0.345 HD
ATOM      5  H   UNL     1     -16.916  14.050  -5.261  1.00  0.00     0.345 HD
ATOM      6  H   UNL     1     -15.559  13.701  -4.290  1.00  0.00     0.345 HD
ENDBRANCH   2   3
BRANCH   2   7
ATOM      7  C   UNL     1     -16.281  12.258  -7.228  1.00  0.00     0.100 C 
ATOM      8  O   UNL     1     -15.351  12.277  -8.077  1.00  0.00    -0.544 OA
ATOM      9  O   UNL     1     -17.602  12.235  -7.659  1.00  0.00    -0.544 OA
ENDBRANCH   2   7
ENDBRANCH   1   2
BRANCH   1  10
ATOM     10  C   UNL     1     -14.287  11.491  -4.048  1.00  0.00     0.223 C 
ATOM     11  O   UNL     1     -13.951  12.530  -3.418  1.00  0.00    -0.275 OA
ATOM     12  N   UNL     1     -14.384  10.246  -3.358  1.00  0.00    -0.369 N 
ATOM     13  H   UNL     1     -14.671   9.378  -3.864  1.00  0.00     0.159 HD
ATOM     14  H   UNL     1     -14.171  10.190  -2.337  1.00  0.00     0.159 HD
ENDBRANCH   1  10
TORSDOF 4
ENDMDL
MODEL 5
REMARK VINA RESULT:    -3.870     12.974     13.969
REMARK INTER + INTRA:          -4.915
REMARK INTER:                  -4.843
REMARK INTRA:                  -0.071
REMARK UNBOUND:                -0.253
REMARK SMILES NC(=O)C[C@@H]([NH3+])C(=O)[O-]
REMARK SMILES IDX 4 1 5 2 6 3 7 7 8 8 9 9 2 10 3 11 1 12
REMARK H PARENT 6 4 6 5 6 6 1 13 1 14
REMARK Flexibility Score: inf
ROOT
ATOM      1  C   UNL     1     -14.810  13.546  -4.271  1.00  0.00     0.171 C 
ENDROOT
BRANCH   1   2
ATOM      2  C   UNL     1     -14.725  12.219  -5.052  1.00  0.00     0.237 C 
BRANCH   2   3
ATOM      3  N   UNL     1     -14.899  11.062  -4.164  1.00  0.00    -0.350 N 
ATOM      4  H   UNL     1     -15.918  10.892  -3.998  1.00  0.00     0.345 HD
ATOM      5  H   UNL     1     -14.499  10.205  -4.609  1.00  0.00     0.345 HD
ATOM      6  H   UNL     1     -14.425  11.225  -3.245  1.00  0.00     0.345 HD
ENDBRANCH   2   3
BRANCH   2   7
ATOM      7  C   UNL     1     -15.772  12.202  -6.134  1.00  0.00     0.100 C 
ATOM      8  O   UNL     1     -15.445  11.962  -7.327  1.00  0.00    -0.544 OA
ATOM      9  O   UNL     1     -17.101  12.467  -5.829  1.00  0.00    -0.544 OA
ENDBRANCH   2   7
ENDBRANCH   1   2
BRANCH   1  10
ATOM     10  C   UNL     1     -13.451  14.046  -3.876  1.00  0.00     0.223 C 
ATOM     11  O   UNL     1     -12.844  14.865  -4.617  1.00  0.00    -0.275 OA
ATOM     12  N   UNL     1     -12.853  13.621  -2.652  1.00  0.00    -0.369 N 
ATOM     13  H   UNL     1     -13.348  12.951  -2.022  1.00  0.00     0.159 HD
ATOM     14  H   UNL     1     -11.913  13.979  -2.372  1.00  0.00     0.159 HD
ENDBRANCH   1  10
TORSDOF 4
ENDMDL
MODEL 6
REMARK VINA RESULT:    -3.765     12.489     13.727
REMARK INTER + INTRA:          -4.788
REMARK INTER:                  -4.277
REMARK INTRA:                  -0.511
REMARK UNBOUND:                -0.253
REMARK SMILES NC(=O)C[C@@H]([NH3+])C(=O)[O-]
REMARK SMILES IDX 4 1 5 2 6 3 7 7 8 8 9 9 2 10 3 11 1 12
REMARK H PARENT 6 4 6 5 6 6 1 13 1 14
REMARK Flexibility Score: inf
ROOT
ATOM      1  C   UNL     1     -14.516  11.745  -5.237  1.00  0.00     0.171 C 
ENDROOT
BRANCH   1   2
ATOM      2  C   UNL     1     -15.911  12.354  -5.484  1.00  0.00     0.237 C 
BRANCH   2   3
ATOM      3  N   UNL     1     -16.869  11.937  -4.452  1.00  0.00    -0.350 N 
ATOM      4  H   UNL     1     -16.877  10.893  -4.376  1.00  0.00     0.345 HD
ATOM      5  H   UNL     1     -16.587  12.324  -3.523  1.00  0.00     0.345 HD
ATOM      6  H   UNL     1     -17.834  12.271  -4.685  1.00  0.00     0.345 HD
ENDBRANCH   2   3
BRANCH   2   7
ATOM      7  C   UNL     1     -15.807  13.856  -5.518  1.00  0.00     0.100 C 
ATOM      8  O   UNL     1     -15.806  14.466  -6.620  1.00  0.00    -0.544 OA
ATOM      9  O   UNL     1     -15.695  14.578  -4.335  1.00  0.00    -0.544 OA
ENDBRANCH   2   7
ENDBRANCH   1   2
BRANCH   1  10
ATOM     10  C   UNL     1     -14.260  11.519  -3.775  1.00  0.00     0.223 C 
ATOM     11  O   UNL     1     -14.538  10.405  -3.254  1.00  0.00    -0.275 OA
ATOM     12  N   UNL     1     -13.677  12.548  -2.977  1.00  0.00    -0.369 N 
ATOM     13  H   UNL     1     -13.432  13.472  -3.397  1.00  0.00     0.159 HD
ATOM     14  H   UNL     1     -13.488  12.387  -1.963  1.00  0.00     0.159 HD
ENDBRANCH   1  10
TORSDOF 4
ENDMDL
MODEL 7
REMARK VINA RESULT:    -3.680      1.700      2.050
REMARK INTER + INTRA:          -4.686
REMARK INTER:                  -4.543
REMARK INTRA:                  -0.144
REMARK UNBOUND:                -0.253
REMARK SMILES NC(=O)C[C@@H]([NH3+])C(=O)[O-]
REMARK SMILES IDX 4 1 5 2 6 3 7 7 8 8 9 9 2 10 3 11 1 12
REMARK H PARENT 6 4 6 5 6 6 1 13 1 14
REMARK Flexibility Score: inf
ROOT
ATOM      1  C   UNL     1     -17.630  -0.042  -8.716  1.00  0.00     0.171 C 
ENDROOT
BRANCH   1   2
ATOM      2  C   UNL     1     -16.409  -0.980  -8.620  1.00  0.00     0.237 C 
BRANCH   2   3
ATOM      3  N   UNL     1     -16.427  -1.994  -9.682  1.00  0.00    -0.350 N 
ATOM      4  H   UNL     1     -16.851  -1.591 -10.550  1.00  0.00     0.345 HD
ATOM      5  H   UNL     1     -15.451  -2.291  -9.910  1.00  0.00     0.345 HD
ATOM      6  H   UNL     1     -16.982  -2.831  -9.387  1.00  0.00     0.345 HD
ENDBRANCH   2   3
BRANCH   2   7
ATOM      7  C   UNL     1     -15.143  -0.169  -8.699  1.00  0.00     0.100 C 
ATOM      8  O   UNL     1     -14.640   0.322  -7.654  1.00  0.00    -0.544 OA
ATOM      9  O   UNL     1     -14.529   0.056  -9.925  1.00  0.00    -0.544 OA
ENDBRANCH   2   7
ENDBRANCH   1   2
BRANCH   1  10
ATOM     10  C   UNL     1     -18.234   0.222  -7.367  1.00  0.00     0.223 C 
ATOM     11  O   UNL     1     -19.025   1.191  -7.212  1.00  0.00    -0.275 OA
ATOM     12  N   UNL     1     -17.940  -0.635  -6.264  1.00  0.00    -0.369 N 
ATOM     13  H   UNL     1     -17.295  -1.448  -6.380  1.00  0.00     0.159 HD
ATOM     14  H   UNL     1     -18.370  -0.458  -5.329  1.00  0.00     0.159 HD
ENDBRANCH   1  10
TORSDOF 4
ENDMDL
MODEL 8
REMARK VINA RESULT:    -3.671     11.477     12.404
REMARK INTER + INTRA:          -4.675
REMARK INTER:                  -4.191
REMARK INTRA:                  -0.484
REMARK UNBOUND:                -0.253
REMARK SMILES NC(=O)C[C@@H]([NH3+])C(=O)[O-]
REMARK SMILES IDX 4 1 5 2 6 3 7 7 8 8 9 9 2 10 3 11 1 12
REMARK H PARENT 6 4 6 5 6 6 1 13 1 14
REMARK Flexibility Score: inf
ROOT
ATOM      1  C   UNL     1     -13.019   2.792   3.802  1.00  0.00     0.171 C 
ENDROOT
BRANCH   1   2
ATOM      2  C   UNL     1     -13.786   1.595   3.204  1.00  0.00     0.237 C 
BRANCH   2   3
ATOM      3  N   UNL     1     -14.725   1.020   4.175  1.00  0.00    -0.350 N 
ATOM      4  H   UNL     1     -14.290   0.190   4.640  1.00  0.00     0.345 HD
ATOM      5  H   UNL     1     -14.949   1.722   4.917  1.00  0.00     0.345 HD
ATOM      6  H   UNL     1     -15.611   0.723   3.704  1.00  0.00     0.345 HD
ENDBRANCH   2   3
BRANCH   2   7
ATOM      7  C   UNL     1     -14.525   2.036   1.968  1.00  0.00     0.100 C 
ATOM      8  O   UNL     1     -15.043   1.181   1.201  1.00  0.00    -0.544 OA
ATOM      9  O   UNL     1     -14.627   3.386   1.656  1.00  0.00    -0.544 OA
ENDBRANCH   2   7
ENDBRANCH   1   2
BRANCH   1  10
ATOM     10  C   UNL     1     -13.777   3.429   4.930  1.00  0.00     0.223 C 
ATOM     11  O   UNL     1     -13.552   3.073   6.118  1.00  0.00    -0.275 OA
ATOM     12  N   UNL     1     -14.731   4.457   4.668  1.00  0.00    -0.369 N 
ATOM     13  H   UNL     1     -14.921   4.771   3.690  1.00  0.00     0.159 HD
ATOM     14  H   UNL     1     -15.249   4.909   5.454  1.00  0.00     0.159 HD
ENDBRANCH   1  10
TORSDOF 4
ENDMDL
MODEL 9
REMARK VINA RESULT:    -3.597      9.616     10.598
REMARK INTER + INTRA:          -4.587
REMARK INTER:                  -4.091
REMARK INTRA:                  -0.495
REMARK UNBOUND:                -0.253
REMARK SMILES NC(=O)C[C@@H]([NH3+])C(=O)[O-]
REMARK SMILES IDX 4 1 5 2 6 3 7 7 8 8 9 9 2 10 3 11 1 12
REMARK H PARENT 6 4 6 5 6 6 1 13 1 14
REMARK Flexibility Score: inf
ROOT
ATOM      1  C   UNL     1     -12.974   3.218   1.442  1.00  0.00     0.171 C 
ENDROOT
BRANCH   1   2
ATOM      2  C   UNL     1     -13.817   2.925   0.185  1.00  0.00     0.237 C 
BRANCH   2   3
ATOM      3  N   UNL     1     -14.867   1.935   0.462  1.00  0.00    -0.350 N 
ATOM      4  H   UNL     1     -15.016   1.331  -0.380  1.00  0.00     0.345 HD
ATOM      5  H   UNL     1     -14.578   1.318   1.253  1.00  0.00     0.345 HD
ATOM      6  H   UNL     1     -15.768   2.409   0.707  1.00  0.00     0.345 HD
ENDBRANCH   2   3
BRANCH   2   7
ATOM      7  C   UNL     1     -14.432   4.203  -0.321  1.00  0.00     0.100 C 
ATOM      8  O   UNL     1     -15.351   4.765   0.331  1.00  0.00    -0.544 OA
ATOM      9  O   UNL     1     -14.001   4.762  -1.518  1.00  0.00    -0.544 OA
ENDBRANCH   2   7
ENDBRANCH   1   2
BRANCH   1  10
ATOM     10  C   UNL     1     -13.758   2.992   2.702  1.00  0.00     0.223 C 
ATOM     11  O   UNL     1     -13.750   1.858   3.251  1.00  0.00    -0.275 OA
ATOM     12  N   UNL     1     -14.489   4.062   3.298  1.00  0.00    -0.369 N 
ATOM     13  H   UNL     1     -14.497   5.010   2.861  1.00  0.00     0.159 HD
ATOM     14  H   UNL     1     -15.025   3.907   4.181  1.00  0.00     0.159 HD
ENDBRANCH   1  10
TORSDOF 4
ENDMDL
