MODEL 1
REMARK VINA RESULT:    15.765      0.000      0.000
REMARK INTER + INTRA:          18.723
REMARK INTER:                  18.991
REMARK INTRA:                  -0.268
REMARK UNBOUND:                -0.268
REMARK SMILES Oc1cc(O)c2c(c1)O[C@H](c1ccc(O)c(O)c1)[C@@H](O)C2
REMARK SMILES IDX 21 1 19 2 10 3 9 4 7 5 8 6 2 7 3 8 4 9 6 10 20 11 11 13
REMARK SMILES IDX 18 14 12 15 16 16 13 17 14 18 17 19 15 21 5 23 1 25
REMARK H PARENT 20 12 17 20 15 22 5 24 1 26
REMARK Flexibility Score: inf
ROOT
ATOM      1  C   UNL     1      19.873   3.840  19.916  1.00  0.00     0.079 C 
ATOM      2  C   UNL     1      19.322   3.943  18.480  1.00  0.00     0.164 C 
ATOM      3  C   UNL     1      20.203   4.888  17.638  1.00  0.00     0.232 C 
ATOM      4  O   UNL     1      20.280   6.164  18.271  1.00  0.00    -0.482 OA
ATOM      5  C   UNL     1      20.371   6.306  19.660  1.00  0.00     0.131 A 
ATOM      6  C   UNL     1      20.633   7.570  20.195  1.00  0.00     0.093 A 
ATOM      7  C   UNL     1      20.744   7.742  21.579  1.00  0.00     0.122 A 
ATOM      8  C   UNL     1      20.601   6.642  22.428  1.00  0.00     0.092 A 
ATOM      9  C   UNL     1      20.338   5.369  21.911  1.00  0.00     0.126 A 
ATOM     10  C   UNL     1      20.181   5.197  20.514  1.00  0.00     0.039 A 
ENDROOT
BRANCH   2  11
ATOM     11  O   UNL     1      19.228   2.669  17.895  1.00  0.00    -0.389 OA
ATOM     12  H   UNL     1      18.276   2.516  17.657  1.00  0.00     0.211 HD
ENDBRANCH   2  11
BRANCH   3  13
ATOM     13  C   UNL     1      19.652   5.045  16.241  1.00  0.00    -0.001 A 
ATOM     14  C   UNL     1      18.694   6.035  15.964  1.00  0.00     0.057 A 
ATOM     15  C   UNL     1      20.124   4.238  15.192  1.00  0.00     0.012 A 
ATOM     16  C   UNL     1      18.200   6.206  14.667  1.00  0.00     0.157 A 
ATOM     17  C   UNL     1      19.631   4.406  13.895  1.00  0.00     0.050 A 
ATOM     18  C   UNL     1      18.668   5.387  13.626  1.00  0.00     0.157 A 
BRANCH  16  19
ATOM     19  O   UNL     1      17.245   7.196  14.430  1.00  0.00    -0.504 OA
ATOM     20  H   UNL     1      16.253   6.995  14.416  1.00  0.00     0.293 HD
ENDBRANCH  16  19
BRANCH  18  21
ATOM     21  O   UNL     1      18.178   5.551  12.331  1.00  0.00    -0.504 OA
ATOM     22  H   UNL     1      18.249   4.814  11.640  1.00  0.00     0.293 HD
ENDBRANCH  18  21
ENDBRANCH   3  13
BRANCH   9  23
ATOM     23  O   UNL     1      20.249   4.301  22.808  1.00  0.00    -0.507 OA
ATOM     24  H   UNL     1      19.797   4.370  23.709  1.00  0.00     0.293 HD
ENDBRANCH   9  23
BRANCH   7  25
ATOM     25  O   UNL     1      21.004   8.999  22.119  1.00  0.00    -0.508 OA
ATOM     26  H   UNL     1      20.771   9.221  23.080  1.00  0.00     0.293 HD
ENDBRANCH   7  25
TORSDOF 6
ENDMDL
MODEL 2
REMARK VINA RESULT:    16.419      1.590      3.087
REMARK INTER + INTRA:          19.511
REMARK INTER:                  19.631
REMARK INTRA:                  -0.120
REMARK UNBOUND:                -0.268
REMARK SMILES Oc1cc(O)c2c(c1)O[C@H](c1ccc(O)c(O)c1)[C@@H](O)C2
REMARK SMILES IDX 21 1 19 2 10 3 9 4 7 5 8 6 2 7 3 8 4 9 6 10 20 11 11 13
REMARK SMILES IDX 18 14 12 15 16 16 13 17 14 18 17 19 15 21 5 23 1 25
REMARK H PARENT 20 12 17 20 15 22 5 24 1 26
REMARK Flexibility Score: inf
ROOT
ATOM      1  C   UNL     1      20.729   7.288  19.566  1.00  0.00     0.079 C 
ATOM      2  C   UNL     1      20.948   6.462  18.283  1.00  0.00     0.164 C 
ATOM      3  C   UNL     1      19.896   5.339  18.186  1.00  0.00     0.232 C 
ATOM      4  O   UNL     1      19.952   4.526  19.357  1.00  0.00    -0.482 OA
ATOM      5  C   UNL     1      20.170   5.063  20.631  1.00  0.00     0.131 A 
ATOM      6  C   UNL     1      20.024   4.235  21.748  1.00  0.00     0.093 A 
ATOM      7  C   UNL     1      20.220   4.746  23.035  1.00  0.00     0.122 A 
ATOM      8  C   UNL     1      20.555   6.091  23.204  1.00  0.00     0.092 A 
ATOM      9  C   UNL     1      20.705   6.935  22.098  1.00  0.00     0.126 A 
ATOM     10  C   UNL     1      20.551   6.413  20.790  1.00  0.00     0.039 A 
ENDROOT
BRANCH   2  11
ATOM     11  O   UNL     1      20.919   7.294  17.150  1.00  0.00    -0.389 OA
ATOM     12  H   UNL     1      20.251   8.009  17.318  1.00  0.00     0.211 HD
ENDBRANCH   2  11
BRANCH   3  13
ATOM     13  C   UNL     1      20.124   4.484  16.961  1.00  0.00    -0.001 A 
ATOM     14  C   UNL     1      19.639   4.898  15.709  1.00  0.00     0.057 A 
ATOM     15  C   UNL     1      20.864   3.293  17.049  1.00  0.00     0.012 A 
ATOM     16  C   UNL     1      19.870   4.127  14.565  1.00  0.00     0.157 A 
ATOM     17  C   UNL     1      21.096   2.520  15.908  1.00  0.00     0.050 A 
ATOM     18  C   UNL     1      20.600   2.930  14.664  1.00  0.00     0.157 A 
BRANCH  16  19
ATOM     19  O   UNL     1      19.368   4.565  13.339  1.00  0.00    -0.504 OA
ATOM     20  H   UNL     1      19.819   4.340  12.462  1.00  0.00     0.293 HD
ENDBRANCH  16  19
BRANCH  18  21
ATOM     21  O   UNL     1      20.833   2.156  13.528  1.00  0.00    -0.504 OA
ATOM     22  H   UNL     1      21.235   2.554  12.688  1.00  0.00     0.293 HD
ENDBRANCH  18  21
ENDBRANCH   3  13
BRANCH   9  23
ATOM     23  O   UNL     1      20.997   8.281  22.333  1.00  0.00    -0.507 OA
ATOM     24  H   UNL     1      21.290   8.636  23.233  1.00  0.00     0.293 HD
ENDBRANCH   9  23
BRANCH   7  25
ATOM     25  O   UNL     1      20.077   3.927  24.153  1.00  0.00    -0.508 OA
ATOM     26  H   UNL     1      20.372   4.231  25.073  1.00  0.00     0.293 HD
ENDBRANCH   7  25
TORSDOF 6
ENDMDL
MODEL 3
REMARK VINA RESULT:    16.922     15.200     16.643
REMARK INTER + INTRA:          20.116
REMARK INTER:                  20.081
REMARK INTRA:                   0.036
REMARK UNBOUND:                -0.268
REMARK SMILES Oc1cc(O)c2c(c1)O[C@H](c1ccc(O)c(O)c1)[C@@H](O)C2
REMARK SMILES IDX 21 1 19 2 10 3 9 4 7 5 8 6 2 7 3 8 4 9 6 10 20 11 11 13
REMARK SMILES IDX 18 14 12 15 16 16 13 17 14 18 17 19 15 21 5 23 1 25
REMARK H PARENT 20 12 17 20 15 22 5 24 1 26
REMARK Flexibility Score: inf
ROOT
ATOM      1  C   UNL     1      31.851  -0.833  22.661  1.00  0.00     0.079 C 
ATOM      2  C   UNL     1      32.628   0.344  22.040  1.00  0.00     0.164 C 
ATOM      3  C   UNL     1      33.973  -0.148  21.468  1.00  0.00     0.232 C 
ATOM      4  O   UNL     1      34.722  -0.798  22.493  1.00  0.00    -0.482 OA
ATOM      5  C   UNL     1      34.120  -1.617  23.455  1.00  0.00     0.131 A 
ATOM      6  C   UNL     1      34.933  -2.368  24.309  1.00  0.00     0.093 A 
ATOM      7  C   UNL     1      34.362  -3.208  25.270  1.00  0.00     0.122 A 
ATOM      8  C   UNL     1      32.972  -3.302  25.370  1.00  0.00     0.092 A 
ATOM      9  C   UNL     1      32.142  -2.558  24.524  1.00  0.00     0.126 A 
ATOM     10  C   UNL     1      32.714  -1.674  23.579  1.00  0.00     0.039 A 
ENDROOT
BRANCH   2  11
ATOM     11  O   UNL     1      31.853   0.983  21.056  1.00  0.00    -0.389 OA
ATOM     12  H   UNL     1      31.349   0.281  20.567  1.00  0.00     0.211 HD
ENDBRANCH   2  11
BRANCH   3  13
ATOM     13  C   UNL     1      34.775   0.998  20.899  1.00  0.00    -0.001 A 
ATOM     14  C   UNL     1      34.460   2.323  21.245  1.00  0.00     0.057 A 
ATOM     15  C   UNL     1      35.874   0.753  20.059  1.00  0.00     0.012 A 
ATOM     16  C   UNL     1      35.216   3.389  20.746  1.00  0.00     0.157 A 
ATOM     17  C   UNL     1      36.631   1.816  19.558  1.00  0.00     0.050 A 
ATOM     18  C   UNL     1      36.306   3.136  19.896  1.00  0.00     0.157 A 
BRANCH  16  19
ATOM     19  O   UNL     1      34.871   4.692  21.106  1.00  0.00    -0.504 OA
ATOM     20  H   UNL     1      33.951   5.075  20.927  1.00  0.00     0.293 HD
ENDBRANCH  16  19
BRANCH  18  21
ATOM     21  O   UNL     1      37.062   4.195  19.394  1.00  0.00    -0.504 OA
ATOM     22  H   UNL     1      36.702   4.809  18.674  1.00  0.00     0.293 HD
ENDBRANCH  18  21
ENDBRANCH   3  13
BRANCH   9  23
ATOM     23  O   UNL     1      30.760  -2.729  24.644  1.00  0.00    -0.507 OA
ATOM     24  H   UNL     1      30.178  -2.150  25.234  1.00  0.00     0.293 HD
ENDBRANCH   9  23
BRANCH   7  25
ATOM     25  O   UNL     1      35.166  -3.958  26.125  1.00  0.00    -0.508 OA
ATOM     26  H   UNL     1      36.023  -4.390  25.802  1.00  0.00     0.293 HD
ENDBRANCH   7  25
TORSDOF 6
ENDMDL
MODEL 4
REMARK VINA RESULT:    17.742     15.653     17.049
REMARK INTER + INTRA:          21.105
REMARK INTER:                  20.712
REMARK INTRA:                   0.393
REMARK UNBOUND:                -0.268
REMARK SMILES Oc1cc(O)c2c(c1)O[C@H](c1ccc(O)c(O)c1)[C@@H](O)C2
REMARK SMILES IDX 21 1 19 2 10 3 9 4 7 5 8 6 2 7 3 8 4 9 6 10 20 11 11 13
REMARK SMILES IDX 18 14 12 15 16 16 13 17 14 18 17 19 15 21 5 23 1 25
REMARK H PARENT 20 12 17 20 15 22 5 24 1 26
REMARK Flexibility Score: inf
ROOT
ATOM      1  C   UNL     1      34.704  -3.496  24.079  1.00  0.00     0.079 C 
ATOM      2  C   UNL     1      35.112  -2.806  22.763  1.00  0.00     0.164 C 
ATOM      3  C   UNL     1      35.010  -1.275  22.910  1.00  0.00     0.232 C 
ATOM      4  O   UNL     1      33.688  -0.917  23.309  1.00  0.00    -0.482 OA
ATOM      5  C   UNL     1      32.951  -1.678  24.223  1.00  0.00     0.131 A 
ATOM      6  C   UNL     1      31.743  -1.169  24.709  1.00  0.00     0.093 A 
ATOM      7  C   UNL     1      30.991  -1.899  25.635  1.00  0.00     0.122 A 
ATOM      8  C   UNL     1      31.455  -3.138  26.082  1.00  0.00     0.092 A 
ATOM      9  C   UNL     1      32.661  -3.664  25.607  1.00  0.00     0.126 A 
ATOM     10  C   UNL     1      33.405  -2.950  24.637  1.00  0.00     0.039 A 
ENDROOT
BRANCH   2  11
ATOM     11  O   UNL     1      36.406  -3.202  22.380  1.00  0.00    -0.389 OA
ATOM     12  H   UNL     1      36.898  -2.387  22.095  1.00  0.00     0.211 HD
ENDBRANCH   2  11
BRANCH   3  13
ATOM     13  C   UNL     1      35.357  -0.579  21.615  1.00  0.00    -0.001 A 
ATOM     14  C   UNL     1      35.069   0.785  21.445  1.00  0.00     0.057 A 
ATOM     15  C   UNL     1      36.015  -1.273  20.585  1.00  0.00     0.012 A 
ATOM     16  C   UNL     1      35.413   1.444  20.260  1.00  0.00     0.157 A 
ATOM     17  C   UNL     1      36.358  -0.618  19.400  1.00  0.00     0.050 A 
ATOM     18  C   UNL     1      36.059   0.740  19.229  1.00  0.00     0.157 A 
BRANCH  16  19
ATOM     19  O   UNL     1      35.107   2.798  20.123  1.00  0.00    -0.504 OA
ATOM     20  H   UNL     1      34.171   3.120  19.912  1.00  0.00     0.293 HD
ENDBRANCH  16  19
BRANCH  18  21
ATOM     21  O   UNL     1      36.403   1.390  18.045  1.00  0.00    -0.504 OA
ATOM     22  H   UNL     1      35.855   2.162  17.686  1.00  0.00     0.293 HD
ENDBRANCH  18  21
ENDBRANCH   3  13
BRANCH   9  23
ATOM     23  O   UNL     1      33.093  -4.888  26.125  1.00  0.00    -0.507 OA
ATOM     24  H   UNL     1      33.944  -5.347  25.830  1.00  0.00     0.293 HD
ENDBRANCH   9  23
BRANCH   7  25
ATOM     25  O   UNL     1      29.786  -1.398  26.123  1.00  0.00    -0.508 OA
ATOM     26  H   UNL     1      29.706  -1.038  27.067  1.00  0.00     0.293 HD
ENDBRANCH   7  25
TORSDOF 6
ENDMDL
MODEL 5
REMARK VINA RESULT:    18.041      1.914      7.272
REMARK INTER + INTRA:          21.465
REMARK INTER:                  21.772
REMARK INTRA:                  -0.308
REMARK UNBOUND:                -0.268
REMARK SMILES Oc1cc(O)c2c(c1)O[C@H](c1ccc(O)c(O)c1)[C@@H](O)C2
REMARK SMILES IDX 21 1 19 2 10 3 9 4 7 5 8 6 2 7 3 8 4 9 6 10 20 11 11 13
REMARK SMILES IDX 18 14 12 15 16 16 13 17 14 18 17 19 15 21 5 23 1 25
REMARK H PARENT 20 12 17 20 15 22 5 24 1 26
REMARK Flexibility Score: inf
ROOT
ATOM      1  C   UNL     1      21.927   5.136  17.748  1.00  0.00     0.079 C 
ATOM      2  C   UNL     1      21.757   5.501  19.236  1.00  0.00     0.164 C 
ATOM      3  C   UNL     1      20.693   4.597  19.889  1.00  0.00     0.232 C 
ATOM      4  O   UNL     1      19.464   4.706  19.172  1.00  0.00    -0.482 OA
ATOM      5  C   UNL     1      19.419   4.810  17.777  1.00  0.00     0.131 A 
ATOM      6  C   UNL     1      18.182   4.722  17.133  1.00  0.00     0.093 A 
ATOM      7  C   UNL     1      18.105   4.807  15.739  1.00  0.00     0.122 A 
ATOM      8  C   UNL     1      19.271   4.971  14.988  1.00  0.00     0.092 A 
ATOM      9  C   UNL     1      20.518   5.060  15.616  1.00  0.00     0.126 A 
ATOM     10  C   UNL     1      20.598   5.019  17.029  1.00  0.00     0.039 A 
ENDROOT
BRANCH   2  11
ATOM     11  O   UNL     1      22.989   5.415  19.908  1.00  0.00    -0.389 OA
ATOM     12  H   UNL     1      23.450   6.289  19.806  1.00  0.00     0.211 HD
ENDBRANCH   2  11
BRANCH   3  13
ATOM     13  C   UNL     1      20.474   4.971  21.336  1.00  0.00    -0.001 A 
ATOM     14  C   UNL     1      20.490   3.982  22.333  1.00  0.00     0.057 A 
ATOM     15  C   UNL     1      20.300   6.315  21.707  1.00  0.00     0.012 A 
ATOM     16  C   UNL     1      20.317   4.324  23.679  1.00  0.00     0.157 A 
ATOM     17  C   UNL     1      20.125   6.660  23.050  1.00  0.00     0.050 A 
ATOM     18  C   UNL     1      20.131   5.669  24.040  1.00  0.00     0.157 A 
BRANCH  16  19
ATOM     19  O   UNL     1      20.333   3.315  24.642  1.00  0.00    -0.504 OA
ATOM     20  H   UNL     1      19.980   3.460  25.580  1.00  0.00     0.293 HD
ENDBRANCH  16  19
BRANCH  18  21
ATOM     21  O   UNL     1      19.955   6.017  25.379  1.00  0.00    -0.504 OA
ATOM     22  H   UNL     1      20.469   5.554  26.119  1.00  0.00     0.293 HD
ENDBRANCH  18  21
ENDBRANCH   3  13
BRANCH   9  23
ATOM     23  O   UNL     1      21.653   5.180  14.809  1.00  0.00    -0.507 OA
ATOM     24  H   UNL     1      22.469   4.591  14.907  1.00  0.00     0.293 HD
ENDBRANCH   9  23
BRANCH   7  25
ATOM     25  O   UNL     1      16.875   4.722  15.090  1.00  0.00    -0.508 OA
ATOM     26  H   UNL     1      16.814   4.583  14.088  1.00  0.00     0.293 HD
ENDBRANCH   7  25
TORSDOF 6
ENDMDL
MODEL 6
REMARK VINA RESULT:    18.118      2.167      3.638
REMARK INTER + INTRA:          21.558
REMARK INTER:                  21.926
REMARK INTRA:                  -0.369
REMARK UNBOUND:                -0.268
REMARK SMILES Oc1cc(O)c2c(c1)O[C@H](c1ccc(O)c(O)c1)[C@@H](O)C2
REMARK SMILES IDX 21 1 19 2 10 3 9 4 7 5 8 6 2 7 3 8 4 9 6 10 20 11 11 13
REMARK SMILES IDX 18 14 12 15 16 16 13 17 14 18 17 19 15 21 5 23 1 25
REMARK H PARENT 20 12 17 20 15 22 5 24 1 26
REMARK Flexibility Score: inf
ROOT
ATOM      1  C   UNL     1      20.253   5.715  18.373  1.00  0.00     0.079 C 
ATOM      2  C   UNL     1      20.160   5.906  16.847  1.00  0.00     0.164 C 
ATOM      3  C   UNL     1      18.683   5.947  16.404  1.00  0.00     0.232 C 
ATOM      4  O   UNL     1      18.020   4.758  16.832  1.00  0.00    -0.482 OA
ATOM      5  C   UNL     1      18.280   4.162  18.072  1.00  0.00     0.131 A 
ATOM      6  C   UNL     1      17.462   3.115  18.503  1.00  0.00     0.093 A 
ATOM      7  C   UNL     1      17.686   2.508  19.743  1.00  0.00     0.122 A 
ATOM      8  C   UNL     1      18.728   2.959  20.557  1.00  0.00     0.092 A 
ATOM      9  C   UNL     1      19.557   4.007  20.143  1.00  0.00     0.126 A 
ATOM     10  C   UNL     1      19.362   4.595  18.870  1.00  0.00     0.039 A 
ENDROOT
BRANCH   2  11
ATOM     11  O   UNL     1      20.848   7.066  16.451  1.00  0.00    -0.389 OA
ATOM     12  H   UNL     1      21.229   7.483  17.267  1.00  0.00     0.211 HD
ENDBRANCH   2  11
BRANCH   3  13
ATOM     13  C   UNL     1      18.568   6.081  14.904  1.00  0.00    -0.001 A 
ATOM     14  C   UNL     1      17.975   7.222  14.339  1.00  0.00     0.057 A 
ATOM     15  C   UNL     1      19.095   5.093  14.056  1.00  0.00     0.012 A 
ATOM     16  C   UNL     1      17.890   7.368  12.950  1.00  0.00     0.157 A 
ATOM     17  C   UNL     1      19.011   5.235  12.668  1.00  0.00     0.050 A 
ATOM     18  C   UNL     1      18.409   6.369  12.109  1.00  0.00     0.157 A 
BRANCH  16  19
ATOM     19  O   UNL     1      17.289   8.512  12.424  1.00  0.00    -0.504 OA
ATOM     20  H   UNL     1      17.170   8.648  11.428  1.00  0.00     0.293 HD
ENDBRANCH  16  19
BRANCH  18  21
ATOM     21  O   UNL     1      18.326   6.507  10.724  1.00  0.00    -0.504 OA
ATOM     22  H   UNL     1      18.966   7.100  10.211  1.00  0.00     0.293 HD
ENDBRANCH  18  21
ENDBRANCH   3  13
BRANCH   9  23
ATOM     23  O   UNL     1      20.554   4.442  21.020  1.00  0.00    -0.507 OA
ATOM     24  H   UNL     1      20.655   4.093  21.963  1.00  0.00     0.293 HD
ENDBRANCH   9  23
BRANCH   7  25
ATOM     25  O   UNL     1      16.875   1.463  20.180  1.00  0.00    -0.508 OA
ATOM     26  H   UNL     1      15.885   1.596  20.351  1.00  0.00     0.293 HD
ENDBRANCH   7  25
TORSDOF 6
ENDMDL
