MODEL 1
REMARK VINA RESULT:     9.726      0.000      0.000
REMARK INTER + INTRA:          15.958
REMARK INTER:                  13.138
REMARK INTRA:                   2.820
REMARK UNBOUND:                 2.820
REMARK SMILES O=c1c(-c2ccc(O)cc2)coc2c([C@H]3O[C@@H](CO)[C@@H](O)[C@H](O)[C@@H]3O)c(O)ccc12
REMARK SMILES IDX 3 1 11 2 12 3 13 4 30 5 2 6 1 7 29 8 28 9 26 10 14 11 4 12
REMARK SMILES IDX 5 13 6 14 7 15 10 16 9 17 8 18 15 20 24 21 16 22 22 23 17 24
REMARK SMILES IDX 20 25 25 26 23 28 18 30 19 31 21 33 27 35
REMARK H PARENT 8 19 25 27 23 29 19 32 21 34 27 36
REMARK Flexibility Score: inf
ROOT
ATOM      1  C   UNL     1      12.752 -31.615  14.639  1.00  0.00     0.065 A 
ATOM      2  C   UNL     1      12.129 -32.605  13.866  1.00  0.00     0.208 A 
ATOM      3  O   UNL     1      10.893 -33.005  14.138  1.00  0.00    -0.463 OA
ATOM      4  C   UNL     1      10.171 -32.510  15.139  1.00  0.00     0.147 A 
ATOM      5  C   UNL     1      10.723 -31.507  15.971  1.00  0.00     0.066 A 
ATOM      6  C   UNL     1      12.033 -31.065  15.716  1.00  0.00     0.200 A 
ATOM      7  O   UNL     1      12.568 -30.196  16.459  1.00  0.00    -0.288 OA
ATOM      8  C   UNL     1       9.957 -30.979  17.022  1.00  0.00     0.020 A 
ATOM      9  C   UNL     1       8.655 -31.428  17.236  1.00  0.00     0.047 A 
ATOM     10  C   UNL     1       8.097 -32.417  16.417  1.00  0.00     0.125 A 
ATOM     11  C   UNL     1       8.858 -32.984  15.369  1.00  0.00     0.069 A 
ENDROOT
BRANCH   1  12
ATOM     12  C   UNL     1      14.134 -31.179  14.312  1.00  0.00    -0.011 A 
ATOM     13  C   UNL     1      14.361 -29.969  13.634  1.00  0.00     0.013 A 
ATOM     14  C   UNL     1      15.664 -29.569  13.320  1.00  0.00     0.047 A 
ATOM     15  C   UNL     1      16.752 -30.373  13.673  1.00  0.00     0.115 A 
ATOM     16  C   UNL     1      15.231 -31.986  14.657  1.00  0.00     0.013 A 
ATOM     17  C   UNL     1      16.533 -31.583  14.343  1.00  0.00     0.047 A 
BRANCH  15  18
ATOM     18  O   UNL     1      18.044 -29.961  13.354  1.00  0.00    -0.508 OA
ATOM     19  H   UNL     1      18.322 -28.989  13.422  1.00  0.00     0.293 HD
ENDBRANCH  15  18
ENDBRANCH   1  12
BRANCH  11  20
ATOM     20  C   UNL     1       8.252 -34.045  14.459  1.00  0.00     0.188 C 
ATOM     21  C   UNL     1       6.870 -34.482  14.998  1.00  0.00     0.179 C 
ATOM     22  O   UNL     1       9.138 -35.152  14.379  1.00  0.00    -0.362 OA
ATOM     23  C   UNL     1       6.283 -35.609  14.120  1.00  0.00     0.177 C 
ATOM     24  C   UNL     1       8.678 -36.101  13.432  1.00  0.00     0.176 C 
ATOM     25  C   UNL     1       7.327 -36.718  13.885  1.00  0.00     0.177 C 
BRANCH  21  26
ATOM     26  O   UNL     1       6.000 -33.377  15.018  1.00  0.00    -0.387 OA
ATOM     27  H   UNL     1       6.491 -32.619  14.606  1.00  0.00     0.211 HD
ENDBRANCH  21  26
BRANCH  23  28
ATOM     28  O   UNL     1       5.876 -35.093  12.876  1.00  0.00    -0.387 OA
ATOM     29  H   UNL     1       5.882 -35.848  12.231  1.00  0.00     0.211 HD
ENDBRANCH  23  28
BRANCH  24  30
ATOM     30  C   UNL     1       9.760 -37.176  13.249  1.00  0.00     0.191 C 
BRANCH  30  31
ATOM     31  O   UNL     1      10.997 -36.599  12.929  1.00  0.00    -0.394 OA
ATOM     32  H   UNL     1      11.639 -36.899  13.626  1.00  0.00     0.210 HD
ENDBRANCH  30  31
ENDBRANCH  24  30
BRANCH  25  33
ATOM     33  O   UNL     1       7.470 -37.523  15.032  1.00  0.00    -0.388 OA
ATOM     34  H   UNL     1       7.878 -36.971  15.749  1.00  0.00     0.211 HD
ENDBRANCH  25  33
ENDBRANCH  11  20
BRANCH  10  35
ATOM     35  O   UNL     1       6.784 -32.832  16.643  1.00  0.00    -0.507 OA
ATOM     36  H   UNL     1       6.474 -33.770  16.415  1.00  0.00     0.293 HD
ENDBRANCH  10  35
TORSDOF 9
ENDMDL
MODEL 2
REMARK VINA RESULT:    10.096      1.895      4.084
REMARK INTER + INTRA:          16.457
REMARK INTER:                  15.912
REMARK INTRA:                   0.545
REMARK UNBOUND:                 2.820
REMARK SMILES O=c1c(-c2ccc(O)cc2)coc2c([C@H]3O[C@@H](CO)[C@@H](O)[C@H](O)[C@@H]3O)c(O)ccc12
REMARK SMILES IDX 3 1 11 2 12 3 13 4 30 5 2 6 1 7 29 8 28 9 26 10 14 11 4 12
REMARK SMILES IDX 5 13 6 14 7 15 10 16 9 17 8 18 15 20 24 21 16 22 22 23 17 24
REMARK SMILES IDX 20 25 25 26 23 28 18 30 19 31 21 33 27 35
REMARK H PARENT 8 19 25 27 23 29 19 32 21 34 27 36
REMARK Flexibility Score: inf
ROOT
ATOM      1  C   UNL     1      12.508 -32.826  14.328  1.00  0.00     0.065 A 
ATOM      2  C   UNL     1      11.543 -32.277  15.185  1.00  0.00     0.208 A 
ATOM      3  O   UNL     1      10.383 -32.889  15.387  1.00  0.00    -0.463 OA
ATOM      4  C   UNL     1      10.056 -34.040  14.805  1.00  0.00     0.147 A 
ATOM      5  C   UNL     1      10.970 -34.664  13.924  1.00  0.00     0.066 A 
ATOM      6  C   UNL     1      12.207 -34.038  13.681  1.00  0.00     0.200 A 
ATOM      7  O   UNL     1      13.032 -34.551  12.875  1.00  0.00    -0.288 OA
ATOM      8  C   UNL     1      10.628 -35.883  13.319  1.00  0.00     0.020 A 
ATOM      9  C   UNL     1       9.401 -36.483  13.594  1.00  0.00     0.047 A 
ATOM     10  C   UNL     1       8.490 -35.877  14.467  1.00  0.00     0.125 A 
ATOM     11  C   UNL     1       8.800 -34.636  15.069  1.00  0.00     0.069 A 
ENDROOT
BRANCH   1  12
ATOM     12  C   UNL     1      13.801 -32.125  14.123  1.00  0.00    -0.011 A 
ATOM     13  C   UNL     1      15.019 -32.802  14.306  1.00  0.00     0.013 A 
ATOM     14  C   UNL     1      16.233 -32.134  14.121  1.00  0.00     0.047 A 
ATOM     15  C   UNL     1      16.247 -30.785  13.755  1.00  0.00     0.115 A 
ATOM     16  C   UNL     1      13.822 -30.766  13.763  1.00  0.00     0.013 A 
ATOM     17  C   UNL     1      15.038 -30.102  13.577  1.00  0.00     0.047 A 
BRANCH  15  18
ATOM     18  O   UNL     1      17.465 -30.133  13.574  1.00  0.00    -0.508 OA
ATOM     19  H   UNL     1      18.205 -30.192  14.264  1.00  0.00     0.293 HD
ENDBRANCH  15  18
ENDBRANCH   1  12
BRANCH  11  20
ATOM     20  C   UNL     1       7.824 -33.980  16.037  1.00  0.00     0.188 C 
ATOM     21  C   UNL     1       8.126 -32.467  16.152  1.00  0.00     0.179 C 
ATOM     22  O   UNL     1       7.924 -34.614  17.303  1.00  0.00    -0.362 OA
ATOM     23  C   UNL     1       7.185 -31.810  17.186  1.00  0.00     0.177 C 
ATOM     24  C   UNL     1       6.933 -34.127  18.192  1.00  0.00     0.176 C 
ATOM     25  C   UNL     1       7.159 -32.622  18.495  1.00  0.00     0.177 C 
BRANCH  21  26
ATOM     26  O   UNL     1       7.970 -31.857  14.894  1.00  0.00    -0.387 OA
ATOM     27  H   UNL     1       8.740 -31.241  14.778  1.00  0.00     0.211 HD
ENDBRANCH  21  26
BRANCH  23  28
ATOM     28  O   UNL     1       5.878 -31.730  16.671  1.00  0.00    -0.387 OA
ATOM     29  H   UNL     1       5.957 -31.635  15.686  1.00  0.00     0.211 HD
ENDBRANCH  23  28
BRANCH  24  30
ATOM     30  C   UNL     1       6.964 -34.975  19.474  1.00  0.00     0.191 C 
BRANCH  30  31
ATOM     31  O   UNL     1       7.808 -36.085  19.324  1.00  0.00    -0.394 OA
ATOM     32  H   UNL     1       8.242 -36.232  20.206  1.00  0.00     0.210 HD
ENDBRANCH  30  31
ENDBRANCH  24  30
BRANCH  25  33
ATOM     33  O   UNL     1       8.332 -32.402  19.244  1.00  0.00    -0.388 OA
ATOM     34  H   UNL     1       8.335 -31.456  19.545  1.00  0.00     0.211 HD
ENDBRANCH  25  33
ENDBRANCH  11  20
BRANCH  10  35
ATOM     35  O   UNL     1       7.278 -36.512  14.740  1.00  0.00    -0.507 OA
ATOM     36  H   UNL     1       6.644 -36.169  15.452  1.00  0.00     0.293 HD
ENDBRANCH  10  35
TORSDOF 9
ENDMDL
MODEL 3
REMARK VINA RESULT:    11.894      1.759      7.565
REMARK INTER + INTRA:          18.886
REMARK INTER:                  18.397
REMARK INTRA:                   0.489
REMARK UNBOUND:                 2.820
REMARK SMILES O=c1c(-c2ccc(O)cc2)coc2c([C@H]3O[C@@H](CO)[C@@H](O)[C@H](O)[C@@H]3O)c(O)ccc12
REMARK SMILES IDX 3 1 11 2 12 3 13 4 30 5 2 6 1 7 29 8 28 9 26 10 14 11 4 12
REMARK SMILES IDX 5 13 6 14 7 15 10 16 9 17 8 18 15 20 24 21 16 22 22 23 17 24
REMARK SMILES IDX 20 25 25 26 23 28 18 30 19 31 21 33 27 35
REMARK H PARENT 8 19 25 27 23 29 19 32 21 34 27 36
REMARK Flexibility Score: inf
ROOT
ATOM      1  C   UNL     1       9.029 -33.759  14.904  1.00  0.00     0.065 A 
ATOM      2  C   UNL     1      10.217 -33.430  14.235  1.00  0.00     0.208 A 
ATOM      3  O   UNL     1      10.971 -32.417  14.644  1.00  0.00    -0.463 OA
ATOM      4  C   UNL     1      10.663 -31.656  15.691  1.00  0.00     0.147 A 
ATOM      5  C   UNL     1       9.481 -31.917  16.423  1.00  0.00     0.066 A 
ATOM      6  C   UNL     1       8.655 -32.979  16.013  1.00  0.00     0.200 A 
ATOM      7  O   UNL     1       7.576 -33.220  16.625  1.00  0.00    -0.288 OA
ATOM      8  C   UNL     1       9.163 -31.120  17.533  1.00  0.00     0.020 A 
ATOM      9  C   UNL     1      10.012 -30.086  17.922  1.00  0.00     0.047 A 
ATOM     10  C   UNL     1      11.186 -29.821  17.207  1.00  0.00     0.125 A 
ATOM     11  C   UNL     1      11.516 -30.592  16.069  1.00  0.00     0.069 A 
ENDROOT
BRANCH   1  12
ATOM     12  C   UNL     1       8.206 -34.902  14.432  1.00  0.00    -0.011 A 
ATOM     13  C   UNL     1       8.815 -36.071  13.946  1.00  0.00     0.013 A 
ATOM     14  C   UNL     1       8.035 -37.140  13.494  1.00  0.00     0.047 A 
ATOM     15  C   UNL     1       6.640 -37.052  13.517  1.00  0.00     0.115 A 
ATOM     16  C   UNL     1       6.803 -34.817  14.445  1.00  0.00     0.013 A 
ATOM     17  C   UNL     1       6.025 -35.887  13.993  1.00  0.00     0.047 A 
BRANCH  15  18
ATOM     18  O   UNL     1       5.875 -38.125  13.063  1.00  0.00    -0.508 OA
ATOM     19  H   UNL     1       5.120 -38.510  13.619  1.00  0.00     0.293 HD
ENDBRANCH  15  18
ENDBRANCH   1  12
BRANCH  11  20
ATOM     20  C   UNL     1      12.801 -30.324  15.298  1.00  0.00     0.188 C 
ATOM     21  C   UNL     1      12.619 -30.707  13.810  1.00  0.00     0.179 C 
ATOM     22  O   UNL     1      13.862 -31.064  15.885  1.00  0.00    -0.362 OA
ATOM     23  C   UNL     1      13.942 -30.504  13.038  1.00  0.00     0.177 C 
ATOM     24  C   UNL     1      15.103 -30.734  15.285  1.00  0.00     0.176 C 
ATOM     25  C   UNL     1      15.119 -31.154  13.791  1.00  0.00     0.177 C 
BRANCH  21  26
ATOM     26  O   UNL     1      11.599 -29.923  13.243  1.00  0.00    -0.387 OA
ATOM     27  H   UNL     1      12.046 -29.217  12.706  1.00  0.00     0.211 HD
ENDBRANCH  21  26
BRANCH  23  28
ATOM     28  O   UNL     1      14.204 -29.131  12.877  1.00  0.00    -0.387 OA
ATOM     29  H   UNL     1      13.426 -28.740  12.400  1.00  0.00     0.211 HD
ENDBRANCH  23  28
BRANCH  24  30
ATOM     30  C   UNL     1      16.228 -31.416  16.078  1.00  0.00     0.191 C 
BRANCH  30  31
ATOM     31  O   UNL     1      17.101 -32.106  15.225  1.00  0.00    -0.394 OA
ATOM     32  H   UNL     1      17.131 -31.594  14.375  1.00  0.00     0.210 HD
ENDBRANCH  30  31
ENDBRANCH  24  30
BRANCH  25  33
ATOM     33  O   UNL     1      15.102 -32.554  13.633  1.00  0.00    -0.388 OA
ATOM     34  H   UNL     1      14.748 -32.760  12.730  1.00  0.00     0.211 HD
ENDBRANCH  25  33
ENDBRANCH  11  20
BRANCH  10  35
ATOM     35  O   UNL     1      12.028 -28.791  17.632  1.00  0.00    -0.507 OA
ATOM     36  H   UNL     1      12.910 -28.600  17.172  1.00  0.00     0.293 HD
ENDBRANCH  10  35
TORSDOF 9
ENDMDL
MODEL 4
REMARK VINA RESULT:    11.956      2.030      4.520
REMARK INTER + INTRA:          18.969
REMARK INTER:                  17.310
REMARK INTRA:                   1.660
REMARK UNBOUND:                 2.820
REMARK SMILES O=c1c(-c2ccc(O)cc2)coc2c([C@H]3O[C@@H](CO)[C@@H](O)[C@H](O)[C@@H]3O)c(O)ccc12
REMARK SMILES IDX 3 1 11 2 12 3 13 4 30 5 2 6 1 7 29 8 28 9 26 10 14 11 4 12
REMARK SMILES IDX 5 13 6 14 7 15 10 16 9 17 8 18 15 20 24 21 16 22 22 23 17 24
REMARK SMILES IDX 20 25 25 26 23 28 18 30 19 31 21 33 27 35
REMARK H PARENT 8 19 25 27 23 29 19 32 21 34 27 36
REMARK Flexibility Score: inf
ROOT
ATOM      1  C   UNL     1      13.086 -31.708  14.863  1.00  0.00     0.065 A 
ATOM      2  C   UNL     1      12.486 -31.215  16.030  1.00  0.00     0.208 A 
ATOM      3  O   UNL     1      11.197 -31.423  16.273  1.00  0.00    -0.463 OA
ATOM      4  C   UNL     1      10.400 -32.098  15.449  1.00  0.00     0.147 A 
ATOM      5  C   UNL     1      10.924 -32.630  14.248  1.00  0.00     0.066 A 
ATOM      6  C   UNL     1      12.284 -32.421  13.954  1.00  0.00     0.200 A 
ATOM      7  O   UNL     1      12.776 -32.855  12.875  1.00  0.00    -0.288 OA
ATOM      8  C   UNL     1      10.084 -33.349  13.384  1.00  0.00     0.020 A 
ATOM      9  C   UNL     1       8.745 -33.551  13.714  1.00  0.00     0.047 A 
ATOM     10  C   UNL     1       8.217 -33.033  14.902  1.00  0.00     0.125 A 
ATOM     11  C   UNL     1       9.036 -32.282  15.776  1.00  0.00     0.069 A 
ENDROOT
BRANCH   1  12
ATOM     12  C   UNL     1      14.531 -31.467  14.615  1.00  0.00    -0.011 A 
ATOM     13  C   UNL     1      14.950 -30.399  13.804  1.00  0.00     0.013 A 
ATOM     14  C   UNL     1      16.311 -30.183  13.566  1.00  0.00     0.047 A 
ATOM     15  C   UNL     1      17.268 -31.032  14.131  1.00  0.00     0.115 A 
ATOM     16  C   UNL     1      15.498 -32.322  15.173  1.00  0.00     0.013 A 
ATOM     17  C   UNL     1      16.858 -32.103  14.935  1.00  0.00     0.047 A 
BRANCH  15  18
ATOM     18  O   UNL     1      18.620 -30.804  13.885  1.00  0.00    -0.508 OA
ATOM     19  H   UNL     1      18.999 -30.829  12.946  1.00  0.00     0.293 HD
ENDBRANCH  15  18
ENDBRANCH   1  12
BRANCH  11  20
ATOM     20  C   UNL     1       8.475 -31.731  17.080  1.00  0.00     0.188 C 
ATOM     21  C   UNL     1       9.556 -30.906  17.818  1.00  0.00     0.179 C 
ATOM     22  O   UNL     1       8.023 -32.809  17.886  1.00  0.00    -0.362 OA
ATOM     23  C   UNL     1       9.014 -30.405  19.175  1.00  0.00     0.177 C 
ATOM     24  C   UNL     1       7.365 -32.332  19.048  1.00  0.00     0.176 C 
ATOM     25  C   UNL     1       8.354 -31.557  19.959  1.00  0.00     0.177 C 
BRANCH  21  26
ATOM     26  O   UNL     1       9.947 -29.817  17.018  1.00  0.00    -0.387 OA
ATOM     27  H   UNL     1      10.687 -30.139  16.440  1.00  0.00     0.211 HD
ENDBRANCH  21  26
BRANCH  23  28
ATOM     28  O   UNL     1       8.066 -29.386  18.974  1.00  0.00    -0.387 OA
ATOM     29  H   UNL     1       8.228 -29.011  18.069  1.00  0.00     0.211 HD
ENDBRANCH  23  28
BRANCH  24  30
ATOM     30  C   UNL     1       6.736 -33.527  19.781  1.00  0.00     0.191 C 
BRANCH  30  31
ATOM     31  O   UNL     1       7.428 -34.713  19.502  1.00  0.00    -0.394 OA
ATOM     32  H   UNL     1       7.119 -35.020  18.609  1.00  0.00     0.210 HD
ENDBRANCH  30  31
ENDBRANCH  24  30
BRANCH  25  33
ATOM     33  O   UNL     1       9.329 -32.402  20.524  1.00  0.00    -0.388 OA
ATOM     34  H   UNL     1       8.866 -33.170  20.947  1.00  0.00     0.211 HD
ENDBRANCH  25  33
ENDBRANCH  11  20
BRANCH  10  35
ATOM     35  O   UNL     1       6.877 -33.269  15.215  1.00  0.00    -0.507 OA
ATOM     36  H   UNL     1       6.158 -32.579  15.033  1.00  0.00     0.293 HD
ENDBRANCH  10  35
TORSDOF 9
ENDMDL
