MODEL 1
REMARK VINA RESULT:    -4.216      0.000      0.000
REMARK INTER + INTRA:          -5.547
REMARK INTER:                  -5.941
REMARK INTRA:                   0.394
REMARK UNBOUND:                 0.394
REMARK SMILES CC1=CCC(=C(C)C)C(=O)CC(C)=CCC1
REMARK SMILES IDX 12 1 14 2 13 3 15 4 16 5 2 6 1 7 3 8 11 10 9 11 10 12 5 13
REMARK SMILES IDX 6 14 7 15 8 16 4 17
REMARK H PARENT
REMARK Flexibility Score: 60.00
ROOT
ATOM      1  C   UNL     1     -11.171  11.722  30.593  1.00  0.00    -0.070 C 
ATOM      2  C   UNL     1     -12.418  11.791  30.070  1.00  0.00    -0.027 C 
ATOM      3  C   UNL     1     -10.041  12.298  29.775  1.00  0.00     0.039 C 
ENDROOT
BRANCH   2   4
ATOM      4  C   UNL     1     -13.670  11.188  30.662  1.00  0.00     0.032 C 
BRANCH   4   5
ATOM      5  C   UNL     1     -13.992   9.800  30.075  1.00  0.00     0.034 C 
BRANCH   5   6
ATOM      6  C   UNL     1     -14.381   8.802  31.148  1.00  0.00    -0.077 C 
ATOM      7  C   UNL     1     -15.808   8.792  31.632  1.00  0.00     0.039 C 
ATOM      8  C   UNL     1     -13.525   7.900  31.680  1.00  0.00    -0.023 CG0
ATOM      9  G   UNL     1     -12.074   7.732  31.301  1.00  0.00     0.000 G0
ENDBRANCH   5   6
ENDBRANCH   4   5
ENDBRANCH   2   4
BRANCH   1  10
ATOM     10  C   UNL     1     -10.845  11.045  31.914  1.00  0.00     0.111 C 
BRANCH  10  11
ATOM     11  C   UNL     1     -10.385   9.622  31.710  1.00  0.00     0.163 C 
ATOM     12  O   UNL     1      -9.301   9.432  31.094  1.00  0.00    -0.294 OA
BRANCH  11  13
ATOM     13  C   UNL     1     -11.146   8.457  32.261  1.00  0.00    -0.002 C 
ATOM     14  C   UNL     1     -10.986   8.043  33.555  1.00  0.00    -0.069 C 
ATOM     15  C   UNL     1      -9.979   8.693  34.477  1.00  0.00     0.039 C 
ATOM     16  C   UNL     1     -11.786   6.888  34.117  1.00  0.00     0.039 C 
BRANCH  13  17
ATOM     17  C   UNL     1     -12.049   7.705  31.302  1.00  0.00     0.066 CG0
ATOM     18  G   UNL     1     -13.494   7.924  31.679  1.00  0.00     0.000 G0
ENDBRANCH  13  17
ENDBRANCH  11  13
ENDBRANCH  10  11
ENDBRANCH   1  10
TORSDOF 0
ENDMDL
MODEL 2
REMARK VINA RESULT:    -4.094     11.651     12.981
REMARK INTER + INTRA:          -5.375
REMARK INTER:                  -5.963
REMARK INTRA:                   0.588
REMARK UNBOUND:                 0.394
REMARK SMILES CC1=CCC(=C(C)C)C(=O)CC(C)=CCC1
REMARK SMILES IDX 12 1 14 2 13 3 15 4 16 5 2 6 1 7 3 8 11 10 9 11 10 12 5 13
REMARK SMILES IDX 6 14 7 15 8 16 4 17
REMARK H PARENT
REMARK Flexibility Score: 60.00
ROOT
ATOM      1  C   UNL     1      -1.052   2.713  28.970  1.00  0.00    -0.070 C 
ATOM      2  C   UNL     1      -0.615   1.833  28.037  1.00  0.00    -0.027 C 
ATOM      3  C   UNL     1      -0.884   4.182  28.671  1.00  0.00     0.039 C 
ENDROOT
BRANCH   2   4
ATOM      4  C   UNL     1      -0.586   0.329  28.172  1.00  0.00     0.032 C 
BRANCH   4   5
ATOM      5  C   UNL     1      -1.368  -0.380  27.050  1.00  0.00     0.034 C 
BRANCH   5   6
ATOM      6  C   UNL     1      -2.812   0.078  26.983  1.00  0.00    -0.077 C 
ATOM      7  C   UNL     1      -3.357   0.537  25.654  1.00  0.00     0.039 C 
ATOM      8  C   UNL     1      -3.651   0.076  28.043  1.00  0.00    -0.023 CG0
ATOM      9  G   UNL     1      -3.304  -0.379  29.441  1.00  0.00     0.000 G0
ENDBRANCH   5   6
ENDBRANCH   4   5
ENDBRANCH   2   4
BRANCH   1  10
ATOM     10  C   UNL     1      -1.633   2.302  30.312  1.00  0.00     0.111 C 
BRANCH  10  11
ATOM     11  C   UNL     1      -3.120   2.057  30.222  1.00  0.00     0.163 C 
ATOM     12  O   UNL     1      -3.862   3.026  29.905  1.00  0.00    -0.294 OA
BRANCH  11  13
ATOM     13  C   UNL     1      -3.713   0.701  30.443  1.00  0.00    -0.002 C 
ATOM     14  C   UNL     1      -4.498   0.429  31.529  1.00  0.00    -0.069 C 
ATOM     15  C   UNL     1      -4.749   1.463  32.604  1.00  0.00     0.039 C 
ATOM     16  C   UNL     1      -5.127  -0.933  31.726  1.00  0.00     0.039 C 
BRANCH  13  17
ATOM     17  C   UNL     1      -3.345  -0.384  29.448  1.00  0.00     0.066 CG0
ATOM     18  G   UNL     1      -3.640   0.086  28.044  1.00  0.00     0.000 G0
ENDBRANCH  13  17
ENDBRANCH  11  13
ENDBRANCH  10  11
ENDBRANCH   1  10
TORSDOF 0
ENDMDL
MODEL 3
REMARK VINA RESULT:    -3.762     11.537     13.084
REMARK INTER + INTRA:          -4.908
REMARK INTER:                  -5.296
REMARK INTRA:                   0.388
REMARK UNBOUND:                 0.394
REMARK SMILES CC1=CCC(=C(C)C)C(=O)CC(C)=CCC1
REMARK SMILES IDX 12 1 14 2 13 3 15 4 16 5 2 6 1 7 3 8 11 10 9 11 10 12 5 13
REMARK SMILES IDX 6 14 7 15 8 16 4 17
REMARK H PARENT
REMARK Flexibility Score: 60.00
ROOT
ATOM      1  C   UNL     1      -2.446   0.069  27.564  1.00  0.00    -0.070 C 
ATOM      2  C   UNL     1      -3.442  -0.553  28.239  1.00  0.00    -0.027 C 
ATOM      3  C   UNL     1      -1.635  -0.761  26.600  1.00  0.00     0.039 C 
ENDROOT
BRANCH   2   4
ATOM      4  C   UNL     1      -4.302   0.053  29.321  1.00  0.00     0.032 C 
BRANCH   4   5
ATOM      5  C   UNL     1      -3.596   0.084  30.690  1.00  0.00     0.034 C 
BRANCH   5   6
ATOM      6  C   UNL     1      -3.841   1.385  31.430  1.00  0.00    -0.077 C 
ATOM      7  C   UNL     1      -5.238   1.679  31.917  1.00  0.00     0.039 C 
ATOM      8  C   UNL     1      -2.873   2.288  31.703  1.00  0.00    -0.023 CG0
ATOM      9  G   UNL     1      -1.415   2.157  31.332  1.00  0.00     0.000 G0
ENDBRANCH   5   6
ENDBRANCH   4   5
ENDBRANCH   2   4
BRANCH   1  10
ATOM     10  C   UNL     1      -2.066   1.526  27.772  1.00  0.00     0.111 C 
BRANCH  10  11
ATOM     11  C   UNL     1      -1.016   1.678  28.845  1.00  0.00     0.163 C 
ATOM     12  O   UNL     1       0.012   0.951  28.775  1.00  0.00    -0.294 OA
BRANCH  11  13
ATOM     13  C   UNL     1      -1.142   2.692  29.938  1.00  0.00    -0.002 C 
ATOM     14  C   UNL     1      -0.972   4.028  29.701  1.00  0.00    -0.069 C 
ATOM     15  C   UNL     1      -0.577   4.547  28.336  1.00  0.00     0.039 C 
ATOM     16  C   UNL     1      -1.138   5.052  30.803  1.00  0.00     0.039 C 
BRANCH  13  17
ATOM     17  C   UNL     1      -1.391   2.168  31.340  1.00  0.00     0.066 CG0
ATOM     18  G   UNL     1      -2.859   2.282  31.676  1.00  0.00     0.000 G0
ENDBRANCH  13  17
ENDBRANCH  11  13
ENDBRANCH  10  11
ENDBRANCH   1  10
TORSDOF 0
ENDMDL
MODEL 4
REMARK VINA RESULT:    -3.679      1.549      2.698
REMARK INTER + INTRA:          -4.790
REMARK INTER:                  -5.142
REMARK INTRA:                   0.352
REMARK UNBOUND:                 0.394
REMARK SMILES CC1=CCC(=C(C)C)C(=O)CC(C)=CCC1
REMARK SMILES IDX 12 1 14 2 13 3 15 4 16 5 2 6 1 7 3 8 11 10 9 11 10 12 5 13
REMARK SMILES IDX 6 14 7 15 8 16 4 17
REMARK H PARENT
REMARK Flexibility Score: 60.00
ROOT
ATOM      1  C   UNL     1     -13.620  11.269  30.260  1.00  0.00    -0.070 C 
ATOM      2  C   UNL     1     -14.753  10.530  30.337  1.00  0.00    -0.027 C 
ATOM      3  C   UNL     1     -13.742  12.755  30.488  1.00  0.00     0.039 C 
ENDROOT
BRANCH   2   4
ATOM      4  C   UNL     1     -14.880   9.055  30.042  1.00  0.00     0.032 C 
BRANCH   4   5
ATOM      5  C   UNL     1     -14.473   8.175  31.239  1.00  0.00     0.034 C 
BRANCH   5   6
ATOM      6  C   UNL     1     -13.400   7.169  30.870  1.00  0.00    -0.077 C 
ATOM      7  C   UNL     1     -13.757   6.062  29.911  1.00  0.00     0.039 C 
ATOM      8  C   UNL     1     -12.131   7.220  31.334  1.00  0.00    -0.023 CG0
ATOM      9  G   UNL     1     -11.575   8.267  32.269  1.00  0.00     0.000 G0
ENDBRANCH   5   6
ENDBRANCH   4   5
ENDBRANCH   2   4
BRANCH   1  10
ATOM     10  C   UNL     1     -12.261  10.694  29.896  1.00  0.00     0.111 C 
BRANCH  10  11
ATOM     11  C   UNL     1     -11.368  10.570  31.106  1.00  0.00     0.163 C 
ATOM     12  O   UNL     1     -11.212  11.587  31.834  1.00  0.00    -0.294 OA
BRANCH  11  13
ATOM     13  C   UNL     1     -10.720   9.275  31.482  1.00  0.00    -0.002 C 
ATOM     14  C   UNL     1      -9.450   8.964  31.081  1.00  0.00    -0.069 C 
ATOM     15  C   UNL     1      -8.657   9.881  30.177  1.00  0.00     0.039 C 
ATOM     16  C   UNL     1      -8.787   7.669  31.498  1.00  0.00     0.039 C 
BRANCH  13  17
ATOM     17  C   UNL     1     -11.562   8.284  32.265  1.00  0.00     0.066 CG0
ATOM     18  G   UNL     1     -12.108   7.227  31.335  1.00  0.00     0.000 G0
ENDBRANCH  13  17
ENDBRANCH  11  13
ENDBRANCH  10  11
ENDBRANCH   1  10
TORSDOF 0
ENDMDL
MODEL 5
REMARK VINA RESULT:    -3.560      1.975      3.959
REMARK INTER + INTRA:          -4.622
REMARK INTER:                  -5.054
REMARK INTRA:                   0.432
REMARK UNBOUND:                 0.394
REMARK SMILES CC1=CCC(=C(C)C)C(=O)CC(C)=CCC1
REMARK SMILES IDX 12 1 14 2 13 3 15 4 16 5 2 6 1 7 3 8 11 10 9 11 10 12 5 13
REMARK SMILES IDX 6 14 7 15 8 16 4 17
REMARK H PARENT
REMARK Flexibility Score: 60.00
ROOT
ATOM      1  C   UNL     1     -12.549  11.390  30.403  1.00  0.00    -0.070 C 
ATOM      2  C   UNL     1     -11.418  11.633  31.107  1.00  0.00    -0.027 C 
ATOM      3  C   UNL     1     -13.601  12.471  30.383  1.00  0.00     0.039 C 
ENDROOT
BRANCH   2   4
ATOM      4  C   UNL     1     -10.289  10.659  31.349  1.00  0.00     0.032 C 
BRANCH   4   5
ATOM      5  C   UNL     1     -10.491   9.828  32.631  1.00  0.00     0.034 C 
BRANCH   5   6
ATOM      6  C   UNL     1     -10.075   8.381  32.445  1.00  0.00    -0.077 C 
ATOM      7  C   UNL     1      -8.604   8.052  32.458  1.00  0.00     0.039 C 
ATOM      8  C   UNL     1     -10.951   7.362  32.293  1.00  0.00    -0.023 CG0
ATOM      9  G   UNL     1     -12.455   7.485  32.289  1.00  0.00     0.000 G0
ENDBRANCH   5   6
ENDBRANCH   4   5
ENDBRANCH   2   4
BRANCH   1  10
ATOM     10  C   UNL     1     -12.838  10.077  29.695  1.00  0.00     0.111 C 
BRANCH  10  11
ATOM     11  C   UNL     1     -13.545   9.100  30.603  1.00  0.00     0.163 C 
ATOM     12  O   UNL     1     -14.657   9.443  31.090  1.00  0.00    -0.294 OA
BRANCH  11  13
ATOM     13  C   UNL     1     -12.991   7.740  30.888  1.00  0.00    -0.002 C 
ATOM     14  C   UNL     1     -13.019   6.744  29.951  1.00  0.00    -0.069 C 
ATOM     15  C   UNL     1     -13.674   6.941  28.602  1.00  0.00     0.039 C 
ATOM     16  C   UNL     1     -12.423   5.381  30.232  1.00  0.00     0.039 C 
BRANCH  13  17
ATOM     17  C   UNL     1     -12.466   7.487  32.288  1.00  0.00     0.066 CG0
ATOM     18  G   UNL     1     -10.963   7.348  32.255  1.00  0.00     0.000 G0
ENDBRANCH  13  17
ENDBRANCH  11  13
ENDBRANCH  10  11
ENDBRANCH   1  10
TORSDOF 0
ENDMDL
MODEL 6
REMARK VINA RESULT:    -3.511     11.222     12.766
REMARK INTER + INTRA:          -4.553
REMARK INTER:                  -5.171
REMARK INTRA:                   0.618
REMARK UNBOUND:                 0.394
REMARK SMILES CC1=CCC(=C(C)C)C(=O)CC(C)=CCC1
REMARK SMILES IDX 12 1 14 2 13 3 15 4 16 5 2 6 1 7 3 8 11 10 9 11 10 12 5 13
REMARK SMILES IDX 6 14 7 15 8 16 4 17
REMARK H PARENT
REMARK Flexibility Score: 60.00
ROOT
ATOM      1  C   UNL     1      -2.631   0.342  27.235  1.00  0.00    -0.070 C 
ATOM      2  C   UNL     1      -2.450   1.617  26.815  1.00  0.00    -0.027 C 
ATOM      3  C   UNL     1      -1.841  -0.738  26.539  1.00  0.00     0.039 C 
ENDROOT
BRANCH   2   4
ATOM      4  C   UNL     1      -3.208   2.832  27.292  1.00  0.00     0.032 C 
BRANCH   4   5
ATOM      5  C   UNL     1      -2.279   3.930  27.844  1.00  0.00     0.034 C 
BRANCH   5   6
ATOM      6  C   UNL     1      -1.457   3.445  29.022  1.00  0.00    -0.077 C 
ATOM      7  C   UNL     1       0.040   3.617  28.970  1.00  0.00     0.039 C 
ATOM      8  C   UNL     1      -1.991   2.886  30.131  1.00  0.00    -0.023 CG0
ATOM      9  G   UNL     1      -3.463   2.662  30.384  1.00  0.00     0.000 G0
ENDBRANCH   5   6
ENDBRANCH   4   5
ENDBRANCH   2   4
BRANCH   1  10
ATOM     10  C   UNL     1      -3.625  -0.058  28.313  1.00  0.00     0.111 C 
BRANCH  10  11
ATOM     11  C   UNL     1      -3.084   0.212  29.696  1.00  0.00     0.163 C 
ATOM     12  O   UNL     1      -2.016  -0.365  30.037  1.00  0.00    -0.294 OA
BRANCH  11  13
ATOM     13  C   UNL     1      -3.746   1.174  30.631  1.00  0.00    -0.002 C 
ATOM     14  C   UNL     1      -4.615   0.752  31.599  1.00  0.00    -0.069 C 
ATOM     15  C   UNL     1      -5.009  -0.702  31.731  1.00  0.00     0.039 C 
ATOM     16  C   UNL     1      -5.251   1.727  32.566  1.00  0.00     0.039 C 
BRANCH  13  17
ATOM     17  C   UNL     1      -3.472   2.650  30.411  1.00  0.00     0.066 CG0
ATOM     18  G   UNL     1      -1.999   2.866  30.154  1.00  0.00     0.000 G0
ENDBRANCH  13  17
ENDBRANCH  11  13
ENDBRANCH  10  11
ENDBRANCH   1  10
TORSDOF 0
ENDMDL
MODEL 7
REMARK VINA RESULT:    -3.390      8.969     11.139
REMARK INTER + INTRA:          -4.382
REMARK INTER:                  -4.947
REMARK INTRA:                   0.564
REMARK UNBOUND:                 0.394
REMARK SMILES CC1=CCC(=C(C)C)C(=O)CC(C)=CCC1
REMARK SMILES IDX 12 1 14 2 13 3 15 4 16 5 2 6 1 7 3 8 11 10 9 11 10 12 5 13
REMARK SMILES IDX 6 14 7 15 8 16 4 17
REMARK H PARENT
REMARK Flexibility Score: 60.00
ROOT
ATOM      1  C   UNL     1     -18.668  10.354  23.488  1.00  0.00    -0.070 C 
ATOM      2  C   UNL     1     -17.770  10.860  24.367  1.00  0.00    -0.027 C 
ATOM      3  C   UNL     1     -20.096  10.217  23.954  1.00  0.00     0.039 C 
ENDROOT
BRANCH   2   4
ATOM      4  C   UNL     1     -16.281  10.984  24.152  1.00  0.00     0.032 C 
BRANCH   4   5
ATOM      5  C   UNL     1     -15.513   9.724  24.596  1.00  0.00     0.034 C 
BRANCH   5   6
ATOM      6  C   UNL     1     -14.680   9.137  23.474  1.00  0.00    -0.077 C 
ATOM      7  C   UNL     1     -13.348   9.772  23.163  1.00  0.00     0.039 C 
ATOM      8  C   UNL     1     -15.051   8.058  22.748  1.00  0.00    -0.023 CG0
ATOM      9  G   UNL     1     -16.324   7.268  22.932  1.00  0.00     0.000 G0
ENDBRANCH   5   6
ENDBRANCH   4   5
ENDBRANCH   2   4
BRANCH   1  10
ATOM     10  C   UNL     1     -18.303   9.861  22.098  1.00  0.00     0.111 C 
BRANCH  10  11
ATOM     11  C   UNL     1     -18.437   8.362  21.986  1.00  0.00     0.163 C 
ATOM     12  O   UNL     1     -19.595   7.866  22.046  1.00  0.00    -0.294 OA
BRANCH  11  13
ATOM     13  C   UNL     1     -17.254   7.476  21.754  1.00  0.00    -0.002 C 
ATOM     14  C   UNL     1     -17.057   6.840  20.560  1.00  0.00    -0.069 C 
ATOM     15  C   UNL     1     -18.061   6.939  19.433  1.00  0.00     0.039 C 
ATOM     16  C   UNL     1     -15.839   5.975  20.319  1.00  0.00     0.039 C 
BRANCH  13  17
ATOM     17  C   UNL     1     -16.319   7.251  22.928  1.00  0.00     0.066 CG0
ATOM     18  G   UNL     1     -15.059   8.061  22.741  1.00  0.00     0.000 G0
ENDBRANCH  13  17
ENDBRANCH  11  13
ENDBRANCH  10  11
ENDBRANCH   1  10
TORSDOF 0
ENDMDL
MODEL 8
REMARK VINA RESULT:    -3.380      1.801      4.825
REMARK INTER + INTRA:          -4.369
REMARK INTER:                  -4.951
REMARK INTRA:                   0.582
REMARK UNBOUND:                 0.394
REMARK SMILES CC1=CCC(=C(C)C)C(=O)CC(C)=CCC1
REMARK SMILES IDX 12 1 14 2 13 3 15 4 16 5 2 6 1 7 3 8 11 10 9 11 10 12 5 13
REMARK SMILES IDX 6 14 7 15 8 16 4 17
REMARK H PARENT
REMARK Flexibility Score: 60.00
ROOT
ATOM      1  C   UNL     1     -15.138   8.256  31.859  1.00  0.00    -0.070 C 
ATOM      2  C   UNL     1     -14.422   7.505  32.729  1.00  0.00    -0.027 C 
ATOM      3  C   UNL     1     -16.380   7.640  31.266  1.00  0.00     0.039 C 
ENDROOT
BRANCH   2   4
ATOM      4  C   UNL     1     -13.099   7.878  33.355  1.00  0.00     0.032 C 
BRANCH   4   5
ATOM      5  C   UNL     1     -11.896   7.343  32.555  1.00  0.00     0.034 C 
BRANCH   5   6
ATOM      6  C   UNL     1     -10.747   8.333  32.520  1.00  0.00    -0.077 C 
ATOM      7  C   UNL     1      -9.829   8.407  33.713  1.00  0.00     0.039 C 
ATOM      8  C   UNL     1     -10.483   9.139  31.467  1.00  0.00    -0.023 CG0
ATOM      9  G   UNL     1     -11.262   9.185  30.174  1.00  0.00     0.000 G0
ENDBRANCH   5   6
ENDBRANCH   4   5
ENDBRANCH   2   4
BRANCH   1  10
ATOM     10  C   UNL     1     -14.723   9.646  31.403  1.00  0.00     0.111 C 
BRANCH  10  11
ATOM     11  C   UNL     1     -13.787   9.586  30.221  1.00  0.00     0.163 C 
ATOM     12  O   UNL     1     -14.217   9.077  29.150  1.00  0.00    -0.294 OA
BRANCH  11  13
ATOM     13  C   UNL     1     -12.406  10.159  30.275  1.00  0.00    -0.002 C 
ATOM     14  C   UNL     1     -12.190  11.507  30.350  1.00  0.00    -0.069 C 
ATOM     15  C   UNL     1     -13.333  12.497  30.309  1.00  0.00     0.039 C 
ATOM     16  C   UNL     1     -10.791  12.078  30.442  1.00  0.00     0.039 C 
BRANCH  13  17
ATOM     17  C   UNL     1     -11.249   9.183  30.166  1.00  0.00     0.066 CG0
ATOM     18  G   UNL     1     -10.472   9.162  31.460  1.00  0.00     0.000 G0
ENDBRANCH  13  17
ENDBRANCH  11  13
ENDBRANCH  10  11
ENDBRANCH   1  10
TORSDOF 0
ENDMDL
MODEL 9
REMARK VINA RESULT:    -3.265     11.110     12.664
REMARK INTER + INTRA:          -4.207
REMARK INTER:                  -4.693
REMARK INTRA:                   0.486
REMARK UNBOUND:                 0.394
REMARK SMILES CC1=CCC(=C(C)C)C(=O)CC(C)=CCC1
REMARK SMILES IDX 12 1 14 2 13 3 15 4 16 5 2 6 1 7 3 8 11 10 9 11 10 12 5 13
REMARK SMILES IDX 6 14 7 15 8 16 4 17
REMARK H PARENT
REMARK Flexibility Score: 60.00
ROOT
ATOM      1  C   UNL     1      -4.283   0.140  30.960  1.00  0.00    -0.070 C 
ATOM      2  C   UNL     1      -4.357  -0.752  29.944  1.00  0.00    -0.027 C 
ATOM      3  C   UNL     1      -5.437   0.183  31.931  1.00  0.00     0.039 C 
ENDROOT
BRANCH   2   4
ATOM      4  C   UNL     1      -3.375  -0.893  28.805  1.00  0.00     0.032 C 
BRANCH   4   5
ATOM      5  C   UNL     1      -3.611   0.143  27.689  1.00  0.00     0.034 C 
BRANCH   5   6
ATOM      6  C   UNL     1      -2.364   0.950  27.385  1.00  0.00    -0.077 C 
ATOM      7  C   UNL     1      -1.217   0.260  26.692  1.00  0.00     0.039 C 
ATOM      8  C   UNL     1      -2.230   2.264  27.677  1.00  0.00    -0.023 CG0
ATOM      9  G   UNL     1      -3.276   3.132  28.334  1.00  0.00     0.000 G0
ENDBRANCH   5   6
ENDBRANCH   4   5
ENDBRANCH   2   4
BRANCH   1  10
ATOM     10  C   UNL     1      -3.145   1.132  31.133  1.00  0.00     0.111 C 
BRANCH  10  11
ATOM     11  C   UNL     1      -3.586   2.542  30.830  1.00  0.00     0.163 C 
ATOM     12  O   UNL     1      -4.535   3.025  31.507  1.00  0.00    -0.294 OA
BRANCH  11  13
ATOM     13  C   UNL     1      -2.899   3.383  29.801  1.00  0.00    -0.002 C 
ATOM     14  C   UNL     1      -2.027   4.377  30.152  1.00  0.00    -0.069 C 
ATOM     15  C   UNL     1      -1.765   4.727  31.599  1.00  0.00     0.039 C 
ATOM     16  C   UNL     1      -1.306   5.198  29.105  1.00  0.00     0.039 C 
BRANCH  13  17
ATOM     17  C   UNL     1      -3.268   3.138  28.350  1.00  0.00     0.066 CG0
ATOM     18  G   UNL     1      -2.222   2.269  27.694  1.00  0.00     0.000 G0
ENDBRANCH  13  17
ENDBRANCH  11  13
ENDBRANCH  10  11
ENDBRANCH   1  10
TORSDOF 0
ENDMDL
