MODEL 1
REMARK VINA RESULT:    -0.266      0.000      0.000
REMARK INTER + INTRA:           0.463
REMARK INTER:                  -0.374
REMARK INTRA:                   0.838
REMARK UNBOUND:                 0.838
REMARK SMILES CC1=CCC(=C(C)C)C(=O)CC(C)=CCC1
REMARK SMILES IDX 12 1 14 2 13 3 15 4 16 5 2 6 1 7 3 8 11 10 9 11 10 12 5 13
REMARK SMILES IDX 6 14 7 15 8 16 4 17
REMARK H PARENT
REMARK Flexibility Score: 60.00
ROOT
ATOM      1  C   UNL     1      83.734  31.477  65.395  1.00  0.00    -0.070 C 
ATOM      2  C   UNL     1      84.428  31.115  66.500  1.00  0.00    -0.027 C 
ATOM      3  C   UNL     1      82.834  30.438  64.769  1.00  0.00     0.039 C 
ENDROOT
BRANCH   2   4
ATOM      4  C   UNL     1      85.457  31.952  67.222  1.00  0.00     0.032 C 
BRANCH   4   5
ATOM      5  C   UNL     1      86.831  31.261  67.304  1.00  0.00     0.034 C 
BRANCH   5   6
ATOM      6  C   UNL     1      87.456  31.068  65.935  1.00  0.00    -0.077 C 
ATOM      7  C   UNL     1      87.883  29.679  65.534  1.00  0.00     0.039 C 
ATOM      8  C   UNL     1      87.629  32.067  65.042  1.00  0.00    -0.023 CG0
ATOM      9  G   UNL     1      87.235  33.510  65.244  1.00  0.00     0.000 G0
ENDBRANCH   5   6
ENDBRANCH   4   5
ENDBRANCH   2   4
BRANCH   1  10
ATOM     10  C   UNL     1      83.861  32.834  64.723  1.00  0.00     0.111 C 
BRANCH  10  11
ATOM     11  C   UNL     1      85.117  32.928  63.894  1.00  0.00     0.163 C 
ATOM     12  O   UNL     1      85.224  32.172  62.889  1.00  0.00    -0.294 OA
BRANCH  11  13
ATOM     13  C   UNL     1      86.196  33.919  64.200  1.00  0.00    -0.002 C 
ATOM     14  C   UNL     1      86.285  35.112  63.537  1.00  0.00    -0.069 C 
ATOM     15  C   UNL     1      87.357  36.124  63.877  1.00  0.00     0.039 C 
ATOM     16  C   UNL     1      85.344  35.463  62.406  1.00  0.00     0.039 C 
BRANCH  13  17
ATOM     17  C   UNL     1      87.235  33.512  65.228  1.00  0.00     0.066 CG0
ATOM     18  G   UNL     1      87.620  32.067  65.024  1.00  0.00     0.000 G0
ENDBRANCH  13  17
ENDBRANCH  11  13
ENDBRANCH  10  11
ENDBRANCH   1  10
TORSDOF 0
ENDMDL
MODEL 2
REMARK VINA RESULT:     0.068      1.682      3.913
REMARK INTER + INTRA:           0.934
REMARK INTER:                  -0.104
REMARK INTRA:                   1.038
REMARK UNBOUND:                 0.838
REMARK SMILES CC1=CCC(=C(C)C)C(=O)CC(C)=CCC1
REMARK SMILES IDX 12 1 14 2 13 3 15 4 16 5 2 6 1 7 3 8 11 10 9 11 10 12 5 13
REMARK SMILES IDX 6 14 7 15 8 16 4 17
REMARK H PARENT
REMARK Flexibility Score: 60.00
ROOT
ATOM      1  C   UNL     1      85.929  32.021  67.372  1.00  0.00    -0.070 C 
ATOM      2  C   UNL     1      86.739  33.096  67.221  1.00  0.00    -0.027 C 
ATOM      3  C   UNL     1      84.625  32.230  68.103  1.00  0.00     0.039 C 
ENDROOT
BRANCH   2   4
ATOM      4  C   UNL     1      88.124  33.094  66.621  1.00  0.00     0.032 C 
BRANCH   4   5
ATOM      5  C   UNL     1      88.114  33.378  65.107  1.00  0.00     0.034 C 
BRANCH   5   6
ATOM      6  C   UNL     1      86.889  34.164  64.681  1.00  0.00    -0.077 C 
ATOM      7  C   UNL     1      86.852  35.643  64.969  1.00  0.00     0.039 C 
ATOM      8  C   UNL     1      85.835  33.618  64.034  1.00  0.00    -0.023 CG0
ATOM      9  G   UNL     1      85.703  32.170  63.628  1.00  0.00     0.000 G0
ENDBRANCH   5   6
ENDBRANCH   4   5
ENDBRANCH   2   4
BRANCH   1  10
ATOM     10  C   UNL     1      86.289  30.620  66.906  1.00  0.00     0.111 C 
BRANCH  10  11
ATOM     11  C   UNL     1      85.860  30.380  65.480  1.00  0.00     0.163 C 
ATOM     12  O   UNL     1      86.195  29.294  64.934  1.00  0.00    -0.294 OA
BRANCH  11  13
ATOM     13  C   UNL     1      85.015  31.363  64.731  1.00  0.00    -0.002 C 
ATOM     14  C   UNL     1      83.674  31.485  64.968  1.00  0.00    -0.069 C 
ATOM     15  C   UNL     1      82.834  32.506  64.233  1.00  0.00     0.039 C 
ATOM     16  C   UNL     1      82.957  30.582  65.948  1.00  0.00     0.039 C 
BRANCH  13  17
ATOM     17  C   UNL     1      85.697  32.169  63.640  1.00  0.00     0.066 CG0
ATOM     18  G   UNL     1      85.830  33.608  64.074  1.00  0.00     0.000 G0
ENDBRANCH  13  17
ENDBRANCH  11  13
ENDBRANCH  10  11
ENDBRANCH   1  10
TORSDOF 0
ENDMDL
MODEL 3
REMARK VINA RESULT:     0.356      1.839      2.907
REMARK INTER + INTRA:           1.340
REMARK INTER:                   0.361
REMARK INTRA:                   0.978
REMARK UNBOUND:                 0.838
REMARK SMILES CC1=CCC(=C(C)C)C(=O)CC(C)=CCC1
REMARK SMILES IDX 12 1 14 2 13 3 15 4 16 5 2 6 1 7 3 8 11 10 9 11 10 12 5 13
REMARK SMILES IDX 6 14 7 15 8 16 4 17
REMARK H PARENT
REMARK Flexibility Score: 60.00
ROOT
ATOM      1  C   UNL     1      84.275  31.390  64.882  1.00  0.00    -0.070 C 
ATOM      2  C   UNL     1      84.190  30.058  65.112  1.00  0.00    -0.027 C 
ATOM      3  C   UNL     1      83.334  32.289  65.648  1.00  0.00     0.039 C 
ENDROOT
BRANCH   2   4
ATOM      4  C   UNL     1      84.953  28.976  64.388  1.00  0.00     0.032 C 
BRANCH   4   5
ATOM      5  C   UNL     1      85.900  28.194  65.318  1.00  0.00     0.034 C 
BRANCH   5   6
ATOM      6  C   UNL     1      87.359  28.453  64.998  1.00  0.00    -0.077 C 
ATOM      7  C   UNL     1      88.077  27.478  64.100  1.00  0.00     0.039 C 
ATOM      8  C   UNL     1      88.048  29.523  65.450  1.00  0.00    -0.023 CG0
ATOM      9  G   UNL     1      87.497  30.622  66.327  1.00  0.00     0.000 G0
ENDBRANCH   5   6
ENDBRANCH   4   5
ENDBRANCH   2   4
BRANCH   1  10
ATOM     10  C   UNL     1      85.210  32.013  63.859  1.00  0.00     0.111 C 
BRANCH  10  11
ATOM     11  C   UNL     1      86.654  31.698  64.162  1.00  0.00     0.163 C 
ATOM     12  O   UNL     1      87.388  31.308  63.213  1.00  0.00    -0.294 OA
BRANCH  11  13
ATOM     13  C   UNL     1      87.237  31.887  65.527  1.00  0.00    -0.002 C 
ATOM     14  C   UNL     1      87.570  33.125  66.001  1.00  0.00    -0.069 C 
ATOM     15  C   UNL     1      88.125  33.312  67.396  1.00  0.00     0.039 C 
ATOM     16  C   UNL     1      87.437  34.364  65.143  1.00  0.00     0.039 C 
BRANCH  13  17
ATOM     17  C   UNL     1      87.514  30.634  66.338  1.00  0.00     0.066 CG0
ATOM     18  G   UNL     1      88.057  29.551  65.439  1.00  0.00     0.000 G0
ENDBRANCH  13  17
ENDBRANCH  11  13
ENDBRANCH  10  11
ENDBRANCH   1  10
TORSDOF 0
ENDMDL
MODEL 4
REMARK VINA RESULT:     0.476      2.008      4.814
REMARK INTER + INTRA:           1.508
REMARK INTER:                  -0.681
REMARK INTRA:                   2.189
REMARK UNBOUND:                 0.838
REMARK SMILES CC1=CCC(=C(C)C)C(=O)CC(C)=CCC1
REMARK SMILES IDX 12 1 14 2 13 3 15 4 16 5 2 6 1 7 3 8 11 10 9 11 10 12 5 13
REMARK SMILES IDX 6 14 7 15 8 16 4 17
REMARK H PARENT
REMARK Flexibility Score: 60.00
ROOT
ATOM      1  C   UNL     1      87.983  30.579  64.157  1.00  0.00    -0.070 C 
ATOM      2  C   UNL     1      88.118  31.924  64.248  1.00  0.00    -0.027 C 
ATOM      3  C   UNL     1      88.125  29.957  62.789  1.00  0.00     0.039 C 
ENDROOT
BRANCH   2   4
ATOM      4  C   UNL     1      87.913  32.760  65.488  1.00  0.00     0.032 C 
BRANCH   4   5
ATOM      5  C   UNL     1      86.813  33.824  65.310  1.00  0.00     0.034 C 
BRANCH   5   6
ATOM      6  C   UNL     1      85.722  33.365  64.362  1.00  0.00    -0.077 C 
ATOM      7  C   UNL     1      85.447  34.193  63.133  1.00  0.00     0.039 C 
ATOM      8  C   UNL     1      84.996  32.239  64.543  1.00  0.00    -0.023 CG0
ATOM      9  G   UNL     1      85.147  31.267  65.687  1.00  0.00     0.000 G0
ENDBRANCH   5   6
ENDBRANCH   4   5
ENDBRANCH   2   4
BRANCH   1  10
ATOM     10  C   UNL     1      87.637  29.683  65.334  1.00  0.00     0.111 C 
BRANCH  10  11
ATOM     11  C   UNL     1      86.282  29.042  65.166  1.00  0.00     0.163 C 
ATOM     12  O   UNL     1      86.229  27.788  65.045  1.00  0.00    -0.294 OA
BRANCH  11  13
ATOM     13  C   UNL     1      85.018  29.844  65.193  1.00  0.00    -0.002 C 
ATOM     14  C   UNL     1      83.835  29.337  64.730  1.00  0.00    -0.069 C 
ATOM     15  C   UNL     1      82.555  30.140  64.795  1.00  0.00     0.039 C 
ATOM     16  C   UNL     1      83.754  27.965  64.098  1.00  0.00     0.039 C 
BRANCH  13  17
ATOM     17  C   UNL     1      85.120  31.276  65.687  1.00  0.00     0.066 CG0
ATOM     18  G   UNL     1      85.002  32.229  64.523  1.00  0.00     0.000 G0
ENDBRANCH  13  17
ENDBRANCH  11  13
ENDBRANCH  10  11
ENDBRANCH   1  10
TORSDOF 0
ENDMDL
MODEL 5
REMARK VINA RESULT:     1.195      1.565      4.223
REMARK INTER + INTRA:           2.522
REMARK INTER:                  -0.258
REMARK INTRA:                   2.779
REMARK UNBOUND:                 0.838
REMARK SMILES CC1=CCC(=C(C)C)C(=O)CC(C)=CCC1
REMARK SMILES IDX 12 1 14 2 13 3 15 4 16 5 2 6 1 7 3 8 11 10 9 11 10 12 5 13
REMARK SMILES IDX 6 14 7 15 8 16 4 17
REMARK H PARENT
REMARK Flexibility Score: 60.00
ROOT
ATOM      1  C   UNL     1      85.819  34.021  63.578  1.00  0.00    -0.070 C 
ATOM      2  C   UNL     1      86.719  34.693  64.335  1.00  0.00    -0.027 C 
ATOM      3  C   UNL     1      84.752  34.831  62.882  1.00  0.00     0.039 C 
ENDROOT
BRANCH   2   4
ATOM      4  C   UNL     1      87.797  34.081  65.195  1.00  0.00     0.032 C 
BRANCH   4   5
ATOM      5  C   UNL     1      87.733  32.542  65.221  1.00  0.00     0.034 C 
BRANCH   5   6
ATOM      6  C   UNL     1      87.144  32.017  66.516  1.00  0.00    -0.077 C 
ATOM      7  C   UNL     1      87.345  32.825  67.773  1.00  0.00     0.039 C 
ATOM      8  C   UNL     1      86.426  30.875  66.605  1.00  0.00    -0.023 CG0
ATOM      9  G   UNL     1      86.089  29.953  65.459  1.00  0.00     0.000 G0
ENDBRANCH   5   6
ENDBRANCH   4   5
ENDBRANCH   2   4
BRANCH   1  10
ATOM     10  C   UNL     1      85.789  32.507  63.447  1.00  0.00     0.111 C 
BRANCH  10  11
ATOM     11  C   UNL     1      84.770  31.889  64.372  1.00  0.00     0.163 C 
ATOM     12  O   UNL     1      83.825  32.616  64.785  1.00  0.00    -0.294 OA
BRANCH  11  13
ATOM     13  C   UNL     1      84.824  30.445  64.758  1.00  0.00    -0.002 C 
ATOM     14  C   UNL     1      83.762  29.607  64.560  1.00  0.00    -0.069 C 
ATOM     15  C   UNL     1      83.838  28.139  64.919  1.00  0.00     0.039 C 
ATOM     16  C   UNL     1      82.448  30.111  64.007  1.00  0.00     0.039 C 
BRANCH  13  17
ATOM     17  C   UNL     1      86.086  29.963  65.452  1.00  0.00     0.066 CG0
ATOM     18  G   UNL     1      86.414  30.874  66.610  1.00  0.00     0.000 G0
ENDBRANCH  13  17
ENDBRANCH  11  13
ENDBRANCH  10  11
ENDBRANCH   1  10
TORSDOF 0
ENDMDL
MODEL 6
REMARK VINA RESULT:     1.271      2.321      4.067
REMARK INTER + INTRA:           2.629
REMARK INTER:                   1.937
REMARK INTRA:                   0.693
REMARK UNBOUND:                 0.838
REMARK SMILES CC1=CCC(=C(C)C)C(=O)CC(C)=CCC1
REMARK SMILES IDX 12 1 14 2 13 3 15 4 16 5 2 6 1 7 3 8 11 10 9 11 10 12 5 13
REMARK SMILES IDX 6 14 7 15 8 16 4 17
REMARK H PARENT
REMARK Flexibility Score: 60.00
ROOT
ATOM      1  C   UNL     1      86.079  32.724  64.782  1.00  0.00    -0.070 C 
ATOM      2  C   UNL     1      87.267  32.075  64.718  1.00  0.00    -0.027 C 
ATOM      3  C   UNL     1      85.464  33.178  63.480  1.00  0.00     0.039 C 
ENDROOT
BRANCH   2   4
ATOM      4  C   UNL     1      88.105  31.629  65.891  1.00  0.00     0.032 C 
BRANCH   4   5
ATOM      5  C   UNL     1      87.952  30.126  66.191  1.00  0.00     0.034 C 
BRANCH   5   6
ATOM      6  C   UNL     1      87.279  29.382  65.053  1.00  0.00    -0.077 C 
ATOM      7  C   UNL     1      88.125  28.949  63.883  1.00  0.00     0.039 C 
ATOM      8  C   UNL     1      85.966  29.061  65.040  1.00  0.00    -0.023 CG0
ATOM      9  G   UNL     1      84.970  29.374  66.129  1.00  0.00     0.000 G0
ENDBRANCH   5   6
ENDBRANCH   4   5
ENDBRANCH   2   4
BRANCH   1  10
ATOM     10  C   UNL     1      85.375  33.071  66.083  1.00  0.00     0.111 C 
BRANCH  10  11
ATOM     11  C   UNL     1      84.676  31.872  66.674  1.00  0.00     0.163 C 
ATOM     12  O   UNL     1      84.405  31.891  67.905  1.00  0.00    -0.294 OA
BRANCH  11  13
ATOM     13  C   UNL     1      84.258  30.706  65.835  1.00  0.00    -0.002 C 
ATOM     14  C   UNL     1      83.259  30.809  64.907  1.00  0.00    -0.069 C 
ATOM     15  C   UNL     1      82.867  29.635  64.037  1.00  0.00     0.039 C 
ATOM     16  C   UNL     1      82.472  32.089  64.730  1.00  0.00     0.039 C 
BRANCH  13  17
ATOM     17  C   UNL     1      84.940  29.378  66.111  1.00  0.00     0.066 CG0
ATOM     18  G   UNL     1      85.941  29.080  65.020  1.00  0.00     0.000 G0
ENDBRANCH  13  17
ENDBRANCH  11  13
ENDBRANCH  10  11
ENDBRANCH   1  10
TORSDOF 0
ENDMDL
MODEL 7
REMARK VINA RESULT:     1.454      2.104      4.587
REMARK INTER + INTRA:           2.886
REMARK INTER:                  -0.119
REMARK INTRA:                   3.005
REMARK UNBOUND:                 0.838
REMARK SMILES CC1=CCC(=C(C)C)C(=O)CC(C)=CCC1
REMARK SMILES IDX 12 1 14 2 13 3 15 4 16 5 2 6 1 7 3 8 11 10 9 11 10 12 5 13
REMARK SMILES IDX 6 14 7 15 8 16 4 17
REMARK H PARENT
REMARK Flexibility Score: 60.00
ROOT
ATOM      1  C   UNL     1      85.006  32.035  65.052  1.00  0.00    -0.070 C 
ATOM      2  C   UNL     1      85.655  33.202  65.280  1.00  0.00    -0.027 C 
ATOM      3  C   UNL     1      83.779  31.747  65.883  1.00  0.00     0.039 C 
ENDROOT
BRANCH   2   4
ATOM      4  C   UNL     1      86.951  33.643  64.645  1.00  0.00     0.032 C 
BRANCH   4   5
ATOM      5  C   UNL     1      88.123  32.698  64.972  1.00  0.00     0.034 C 
BRANCH   5   6
ATOM      6  C   UNL     1      87.870  31.888  66.228  1.00  0.00    -0.077 C 
ATOM      7  C   UNL     1      87.591  32.627  67.512  1.00  0.00     0.039 C 
ATOM      8  C   UNL     1      87.855  30.536  66.260  1.00  0.00    -0.023 CG0
ATOM      9  G   UNL     1      88.076  29.624  65.078  1.00  0.00     0.000 G0
ENDBRANCH   5   6
ENDBRANCH   4   5
ENDBRANCH   2   4
BRANCH   1  10
ATOM     10  C   UNL     1      85.480  30.984  64.061  1.00  0.00     0.111 C 
BRANCH  10  11
ATOM     11  C   UNL     1      85.536  29.614  64.688  1.00  0.00     0.163 C 
ATOM     12  O   UNL     1      84.463  29.115  65.123  1.00  0.00    -0.294 OA
BRANCH  11  13
ATOM     13  C   UNL     1      86.806  28.825  64.755  1.00  0.00    -0.002 C 
ATOM     14  C   UNL     1      86.817  27.466  64.604  1.00  0.00    -0.069 C 
ATOM     15  C   UNL     1      88.110  26.680  64.636  1.00  0.00     0.039 C 
ATOM     16  C   UNL     1      85.538  26.677  64.434  1.00  0.00     0.039 C 
BRANCH  13  17
ATOM     17  C   UNL     1      88.078  29.591  65.075  1.00  0.00     0.066 CG0
ATOM     18  G   UNL     1      87.830  30.540  66.221  1.00  0.00     0.000 G0
ENDBRANCH  13  17
ENDBRANCH  11  13
ENDBRANCH  10  11
ENDBRANCH   1  10
TORSDOF 0
ENDMDL
MODEL 8
REMARK VINA RESULT:     1.491      2.544      3.419
REMARK INTER + INTRA:           2.939
REMARK INTER:                   1.188
REMARK INTRA:                   1.751
REMARK UNBOUND:                 0.838
REMARK SMILES CC1=CCC(=C(C)C)C(=O)CC(C)=CCC1
REMARK SMILES IDX 12 1 14 2 13 3 15 4 16 5 2 6 1 7 3 8 11 10 9 11 10 12 5 13
REMARK SMILES IDX 6 14 7 15 8 16 4 17
REMARK H PARENT
REMARK Flexibility Score: 60.00
ROOT
ATOM      1  C   UNL     1      83.036  29.871  64.267  1.00  0.00    -0.070 C 
ATOM      2  C   UNL     1      83.392  28.653  64.741  1.00  0.00    -0.027 C 
ATOM      3  C   UNL     1      81.603  30.056  63.830  1.00  0.00     0.039 C 
ENDROOT
BRANCH   2   4
ATOM      4  C   UNL     1      84.784  28.218  65.132  1.00  0.00     0.032 C 
BRANCH   4   5
ATOM      5  C   UNL     1      85.801  28.387  63.987  1.00  0.00     0.034 C 
BRANCH   5   6
ATOM      6  C   UNL     1      87.200  28.663  64.502  1.00  0.00    -0.077 C 
ATOM      7  C   UNL     1      88.106  27.490  64.775  1.00  0.00     0.039 C 
ATOM      8  C   UNL     1      87.692  29.905  64.707  1.00  0.00    -0.023 CG0
ATOM      9  G   UNL     1      86.954  31.198  64.460  1.00  0.00     0.000 G0
ENDBRANCH   5   6
ENDBRANCH   4   5
ENDBRANCH   2   4
BRANCH   1  10
ATOM     10  C   UNL     1      84.007  31.027  64.095  1.00  0.00     0.111 C 
BRANCH  10  11
ATOM     11  C   UNL     1      84.592  31.465  65.414  1.00  0.00     0.163 C 
ATOM     12  O   UNL     1      83.797  31.723  66.359  1.00  0.00    -0.294 OA
BRANCH  11  13
ATOM     13  C   UNL     1      86.069  31.546  65.638  1.00  0.00    -0.002 C 
ATOM     14  C   UNL     1      86.594  31.953  66.833  1.00  0.00    -0.069 C 
ATOM     15  C   UNL     1      88.089  31.997  67.064  1.00  0.00     0.039 C 
ATOM     16  C   UNL     1      85.710  32.415  67.971  1.00  0.00     0.039 C 
BRANCH  13  17
ATOM     17  C   UNL     1      86.965  31.228  64.454  1.00  0.00     0.066 CG0
ATOM     18  G   UNL     1      87.691  29.927  64.696  1.00  0.00     0.000 G0
ENDBRANCH  13  17
ENDBRANCH  11  13
ENDBRANCH  10  11
ENDBRANCH   1  10
TORSDOF 0
ENDMDL
MODEL 9
REMARK VINA RESULT:     2.301     14.078     15.949
REMARK INTER + INTRA:           4.081
REMARK INTER:                   0.030
REMARK INTRA:                   4.051
REMARK UNBOUND:                 0.838
REMARK SMILES CC1=CCC(=C(C)C)C(=O)CC(C)=CCC1
REMARK SMILES IDX 12 1 14 2 13 3 15 4 16 5 2 6 1 7 3 8 11 10 9 11 10 12 5 13
REMARK SMILES IDX 6 14 7 15 8 16 4 17
REMARK H PARENT
REMARK Flexibility Score: 60.00
ROOT
ATOM      1  C   UNL     1      79.441  35.546  50.123  1.00  0.00    -0.070 C 
ATOM      2  C   UNL     1      80.369  35.334  51.086  1.00  0.00    -0.027 C 
ATOM      3  C   UNL     1      79.920  36.112  48.808  1.00  0.00     0.039 C 
ENDROOT
BRANCH   2   4
ATOM      4  C   UNL     1      80.102  34.877  52.500  1.00  0.00     0.032 C 
BRANCH   4   5
ATOM      5  C   UNL     1      80.280  33.357  52.676  1.00  0.00     0.034 C 
BRANCH   5   6
ATOM      6  C   UNL     1      79.524  32.568  51.625  1.00  0.00    -0.077 C 
ATOM      7  C   UNL     1      80.305  31.959  50.489  1.00  0.00     0.039 C 
ATOM      8  C   UNL     1      78.190  32.356  51.662  1.00  0.00    -0.023 CG0
ATOM      9  G   UNL     1      77.247  32.851  52.732  1.00  0.00     0.000 G0
ENDBRANCH   5   6
ENDBRANCH   4   5
ENDBRANCH   2   4
BRANCH   1  10
ATOM     10  C   UNL     1      77.952  35.310  50.317  1.00  0.00     0.111 C 
BRANCH  10  11
ATOM     11  C   UNL     1      77.587  35.237  51.779  1.00  0.00     0.163 C 
ATOM     12  O   UNL     1      78.070  36.105  52.556  1.00  0.00    -0.294 OA
BRANCH  11  13
ATOM     13  C   UNL     1      76.637  34.208  52.308  1.00  0.00    -0.002 C 
ATOM     14  C   UNL     1      75.307  34.476  52.475  1.00  0.00    -0.069 C 
ATOM     15  C   UNL     1      74.346  33.419  52.975  1.00  0.00     0.039 C 
ATOM     16  C   UNL     1      74.735  35.851  52.204  1.00  0.00     0.039 C 
BRANCH  13  17
ATOM     17  C   UNL     1      77.228  32.873  52.723  1.00  0.00     0.066 CG0
ATOM     18  G   UNL     1      78.181  32.382  51.662  1.00  0.00     0.000 G0
ENDBRANCH  13  17
ENDBRANCH  11  13
ENDBRANCH  10  11
ENDBRANCH   1  10
TORSDOF 0
ENDMDL
