MODEL 1
REMARK VINA RESULT:    -4.033      0.000      0.000
REMARK INTER + INTRA:          -6.000
REMARK INTER:                  -5.447
REMARK INTRA:                  -0.553
REMARK UNBOUND:                -0.553
REMARK SMILES CCCCCCCC(=O)[O-]
REMARK SMILES IDX 5 1 6 2 7 3 8 4 9 5 10 6 4 7 3 8 2 9 1 10
REMARK H PARENT
REMARK Flexibility Score: inf
ROOT
ATOM      1  C   UNL     1       0.767   7.792  -7.157  1.00  0.00     0.000 C 
ENDROOT
BRANCH   1   2
ATOM      2  C   UNL     1       1.556   9.000  -6.629  1.00  0.00     0.006 C 
BRANCH   2   3
ATOM      3  C   UNL     1       1.600   9.052  -5.096  1.00  0.00     0.053 C 
BRANCH   3   4
ATOM      4  C   UNL     1       2.756   8.254  -4.579  1.00  0.00     0.041 C 
ATOM      5  O   UNL     1       3.816   8.166  -5.251  1.00  0.00    -0.550 OA
ATOM      6  O   UNL     1       2.643   7.566  -3.378  1.00  0.00    -0.550 OA
ENDBRANCH   3   4
ENDBRANCH   2   3
ENDBRANCH   1   2
BRANCH   1   7
ATOM      7  C   UNL     1       1.615   6.874  -8.051  1.00  0.00     0.000 C 
BRANCH   7   8
ATOM      8  C   UNL     1       2.211   5.716  -7.238  1.00  0.00    -0.000 C 
BRANCH   8   9
ATOM      9  C   UNL     1       1.260   5.212  -6.141  1.00  0.00    -0.003 C 
ATOM     10  C   UNL     1       0.306   4.127  -6.638  1.00  0.00     0.004 C 
ENDBRANCH   8   9
ENDBRANCH   7   8
ENDBRANCH   1   7
TORSDOF 6
ENDMDL
MODEL 2
REMARK VINA RESULT:    -4.010      2.698      4.292
REMARK INTER + INTRA:          -5.970
REMARK INTER:                  -5.606
REMARK INTRA:                  -0.364
REMARK UNBOUND:                -0.553
REMARK SMILES CCCCCCCC(=O)[O-]
REMARK SMILES IDX 5 1 6 2 7 3 8 4 9 5 10 6 4 7 3 8 2 9 1 10
REMARK H PARENT
REMARK Flexibility Score: inf
ROOT
ATOM      1  C   UNL     1      -0.016   7.087  -7.780  1.00  0.00     0.000 C 
ENDROOT
BRANCH   1   2
ATOM      2  C   UNL     1       0.469   5.942  -8.683  1.00  0.00     0.006 C 
BRANCH   2   3
ATOM      3  C   UNL     1       1.276   4.886  -7.917  1.00  0.00     0.053 C 
BRANCH   3   4
ATOM      4  C   UNL     1       0.391   4.139  -6.970  1.00  0.00     0.041 C 
ATOM      5  O   UNL     1      -0.373   3.234  -7.396  1.00  0.00    -0.550 OA
ATOM      6  O   UNL     1       0.374   4.477  -5.623  1.00  0.00    -0.550 OA
ENDBRANCH   3   4
ENDBRANCH   2   3
ENDBRANCH   1   2
BRANCH   1   7
ATOM      7  C   UNL     1       0.941   8.289  -7.779  1.00  0.00     0.000 C 
BRANCH   7   8
ATOM      8  C   UNL     1       1.327   8.681  -6.346  1.00  0.00    -0.000 C 
BRANCH   8   9
ATOM      9  C   UNL     1       2.214   7.628  -5.663  1.00  0.00    -0.003 C 
ATOM     10  C   UNL     1       2.955   8.179  -4.446  1.00  0.00     0.004 C 
ENDBRANCH   8   9
ENDBRANCH   7   8
ENDBRANCH   1   7
TORSDOF 6
ENDMDL
MODEL 3
REMARK VINA RESULT:    -3.888     16.799     18.726
REMARK INTER + INTRA:          -5.805
REMARK INTER:                  -5.293
REMARK INTRA:                  -0.512
REMARK UNBOUND:                -0.553
REMARK SMILES CCCCCCCC(=O)[O-]
REMARK SMILES IDX 5 1 6 2 7 3 8 4 9 5 10 6 4 7 3 8 2 9 1 10
REMARK H PARENT
REMARK Flexibility Score: inf
ROOT
ATOM      1  C   UNL     1      -4.963  -6.388   6.444  1.00  0.00     0.000 C 
ENDROOT
BRANCH   1   2
ATOM      2  C   UNL     1      -3.930  -5.254   6.362  1.00  0.00     0.006 C 
BRANCH   2   3
ATOM      3  C   UNL     1      -4.157  -4.334   5.155  1.00  0.00     0.053 C 
BRANCH   3   4
ATOM      4  C   UNL     1      -4.616  -2.983   5.608  1.00  0.00     0.041 C 
ATOM      5  O   UNL     1      -5.352  -2.871   6.624  1.00  0.00    -0.550 OA
ATOM      6  O   UNL     1      -4.272  -1.852   4.879  1.00  0.00    -0.550 OA
ENDBRANCH   3   4
ENDBRANCH   2   3
ENDBRANCH   1   2
BRANCH   1   7
ATOM      7  C   UNL     1      -5.968  -6.361   5.282  1.00  0.00     0.000 C 
BRANCH   7   8
ATOM      8  C   UNL     1      -7.410  -6.304   5.805  1.00  0.00    -0.000 C 
BRANCH   8   9
ATOM      9  C   UNL     1      -7.514  -5.624   7.179  1.00  0.00    -0.003 C 
ATOM     10  C   UNL     1      -8.509  -4.465   7.192  1.00  0.00     0.004 C 
ENDBRANCH   8   9
ENDBRANCH   7   8
ENDBRANCH   1   7
TORSDOF 6
ENDMDL
MODEL 4
REMARK VINA RESULT:    -3.843     17.225     19.148
REMARK INTER + INTRA:          -5.743
REMARK INTER:                  -5.436
REMARK INTRA:                  -0.307
REMARK UNBOUND:                -0.553
REMARK SMILES CCCCCCCC(=O)[O-]
REMARK SMILES IDX 5 1 6 2 7 3 8 4 9 5 10 6 4 7 3 8 2 9 1 10
REMARK H PARENT
REMARK Flexibility Score: inf
ROOT
ATOM      1  C   UNL     1      -5.480  -6.305   5.284  1.00  0.00     0.000 C 
ENDROOT
BRANCH   1   2
ATOM      2  C   UNL     1      -4.498  -5.403   6.049  1.00  0.00     0.006 C 
BRANCH   2   3
ATOM      3  C   UNL     1      -3.968  -4.247   5.191  1.00  0.00     0.053 C 
BRANCH   3   4
ATOM      4  C   UNL     1      -4.631  -2.962   5.580  1.00  0.00     0.041 C 
ATOM      5  O   UNL     1      -5.462  -2.939   6.525  1.00  0.00    -0.550 OA
ATOM      6  O   UNL     1      -4.368  -1.801   4.865  1.00  0.00    -0.550 OA
ENDBRANCH   3   4
ENDBRANCH   2   3
ENDBRANCH   1   2
BRANCH   1   7
ATOM      7  C   UNL     1      -6.812  -6.494   6.025  1.00  0.00     0.000 C 
BRANCH   7   8
ATOM      8  C   UNL     1      -7.029  -7.967   6.397  1.00  0.00    -0.000 C 
BRANCH   8   9
ATOM      9  C   UNL     1      -5.887  -8.874   5.911  1.00  0.00    -0.003 C 
ATOM     10  C   UNL     1      -5.608 -10.035   6.864  1.00  0.00     0.004 C 
ENDBRANCH   8   9
ENDBRANCH   7   8
ENDBRANCH   1   7
TORSDOF 6
ENDMDL
MODEL 5
REMARK VINA RESULT:    -3.809     17.991     19.820
REMARK INTER + INTRA:          -5.697
REMARK INTER:                  -5.227
REMARK INTRA:                  -0.470
REMARK UNBOUND:                -0.553
REMARK SMILES CCCCCCCC(=O)[O-]
REMARK SMILES IDX 5 1 6 2 7 3 8 4 9 5 10 6 4 7 3 8 2 9 1 10
REMARK H PARENT
REMARK Flexibility Score: inf
ROOT
ATOM      1  C   UNL     1      -4.925  -6.576   6.108  1.00  0.00     0.000 C 
ENDROOT
BRANCH   1   2
ATOM      2  C   UNL     1      -6.113  -6.283   5.178  1.00  0.00     0.006 C 
BRANCH   2   3
ATOM      3  C   UNL     1      -7.425  -6.070   5.945  1.00  0.00     0.053 C 
BRANCH   3   4
ATOM      4  C   UNL     1      -8.241  -7.324   5.939  1.00  0.00     0.041 C 
ATOM      5  O   UNL     1      -9.239  -7.427   5.178  1.00  0.00    -0.550 OA
ATOM      6  O   UNL     1      -7.929  -8.360   6.809  1.00  0.00    -0.550 OA
ENDBRANCH   3   4
ENDBRANCH   2   3
ENDBRANCH   1   2
BRANCH   1   7
ATOM      7  C   UNL     1      -4.035  -5.346   6.341  1.00  0.00     0.000 C 
BRANCH   7   8
ATOM      8  C   UNL     1      -4.102  -4.386   5.145  1.00  0.00    -0.000 C 
BRANCH   8   9
ATOM      9  C   UNL     1      -4.544  -2.970   5.547  1.00  0.00    -0.003 C 
ATOM     10  C   UNL     1      -5.448  -2.959   6.778  1.00  0.00     0.004 C 
ENDBRANCH   8   9
ENDBRANCH   7   8
ENDBRANCH   1   7
TORSDOF 6
ENDMDL
MODEL 6
REMARK VINA RESULT:    -3.757     17.970     19.486
REMARK INTER + INTRA:          -5.628
REMARK INTER:                  -5.067
REMARK INTRA:                  -0.560
REMARK UNBOUND:                -0.553
REMARK SMILES CCCCCCCC(=O)[O-]
REMARK SMILES IDX 5 1 6 2 7 3 8 4 9 5 10 6 4 7 3 8 2 9 1 10
REMARK H PARENT
REMARK Flexibility Score: inf
ROOT
ATOM      1  C   UNL     1      -4.110  -5.453   6.325  1.00  0.00     0.000 C 
ENDROOT
BRANCH   1   2
ATOM      2  C   UNL     1      -4.976  -6.688   6.033  1.00  0.00     0.006 C 
BRANCH   2   3
ATOM      3  C   UNL     1      -6.249  -6.346   5.248  1.00  0.00     0.053 C 
BRANCH   3   4
ATOM      4  C   UNL     1      -7.438  -6.347   6.157  1.00  0.00     0.041 C 
ATOM      5  O   UNL     1      -7.458  -7.091   7.173  1.00  0.00    -0.550 OA
ATOM      6  O   UNL     1      -8.544  -5.563   5.856  1.00  0.00    -0.550 OA
ENDBRANCH   3   4
ENDBRANCH   2   3
ENDBRANCH   1   2
BRANCH   1   7
ATOM      7  C   UNL     1      -4.265  -4.354   5.262  1.00  0.00     0.000 C 
BRANCH   7   8
ATOM      8  C   UNL     1      -4.811  -3.062   5.884  1.00  0.00    -0.000 C 
BRANCH   8   9
ATOM      9  C   UNL     1      -5.333  -3.269   7.315  1.00  0.00    -0.003 C 
ATOM     10  C   UNL     1      -6.813  -2.919   7.461  1.00  0.00     0.004 C 
ENDBRANCH   8   9
ENDBRANCH   7   8
ENDBRANCH   1   7
TORSDOF 6
ENDMDL
MODEL 7
REMARK VINA RESULT:    -3.527     17.820     19.194
REMARK INTER + INTRA:          -5.317
REMARK INTER:                  -4.764
REMARK INTRA:                  -0.553
REMARK UNBOUND:                -0.553
REMARK SMILES CCCCCCCC(=O)[O-]
REMARK SMILES IDX 5 1 6 2 7 3 8 4 9 5 10 6 4 7 3 8 2 9 1 10
REMARK H PARENT
REMARK Flexibility Score: inf
ROOT
ATOM      1  C   UNL     1      -4.873  -2.942   5.914  1.00  0.00     0.000 C 
ENDROOT
BRANCH   1   2
ATOM      2  C   UNL     1      -5.393  -3.349   7.301  1.00  0.00     0.006 C 
BRANCH   2   3
ATOM      3  C   UNL     1      -6.914  -3.195   7.430  1.00  0.00     0.053 C 
BRANCH   3   4
ATOM      4  C   UNL     1      -7.573  -4.538   7.463  1.00  0.00     0.041 C 
ATOM      5  O   UNL     1      -7.436  -5.287   8.465  1.00  0.00    -0.550 OA
ATOM      6  O   UNL     1      -8.298  -4.983   6.365  1.00  0.00    -0.550 OA
ENDBRANCH   3   4
ENDBRANCH   2   3
ENDBRANCH   1   2
BRANCH   1   7
ATOM      7  C   UNL     1      -4.078  -4.063   5.226  1.00  0.00     0.000 C 
BRANCH   7   8
ATOM      8  C   UNL     1      -4.249  -5.394   5.972  1.00  0.00    -0.000 C 
BRANCH   8   9
ATOM      9  C   UNL     1      -5.238  -6.341   5.273  1.00  0.00    -0.003 C 
ATOM     10  C   UNL     1      -5.653  -7.517   6.154  1.00  0.00     0.004 C 
ENDBRANCH   8   9
ENDBRANCH   7   8
ENDBRANCH   1   7
TORSDOF 6
ENDMDL
MODEL 8
REMARK VINA RESULT:    -3.524      3.085      4.742
REMARK INTER + INTRA:          -5.313
REMARK INTER:                  -4.875
REMARK INTRA:                  -0.437
REMARK UNBOUND:                -0.553
REMARK SMILES CCCCCCCC(=O)[O-]
REMARK SMILES IDX 5 1 6 2 7 3 8 4 9 5 10 6 4 7 3 8 2 9 1 10
REMARK H PARENT
REMARK Flexibility Score: inf
ROOT
ATOM      1  C   UNL     1       2.900   6.737  -7.616  1.00  0.00     0.000 C 
ENDROOT
BRANCH   1   2
ATOM      2  C   UNL     1       2.186   5.677  -6.764  1.00  0.00     0.006 C 
BRANCH   2   3
ATOM      3  C   UNL     1       0.673   5.637  -7.015  1.00  0.00     0.053 C 
BRANCH   3   4
ATOM      4  C   UNL     1       0.297   4.382  -7.739  1.00  0.00     0.041 C 
ATOM      5  O   UNL     1      -0.170   3.400  -7.106  1.00  0.00    -0.550 OA
ATOM      6  O   UNL     1       0.509   4.281  -9.108  1.00  0.00    -0.550 OA
ENDBRANCH   3   4
ENDBRANCH   2   3
ENDBRANCH   1   2
BRANCH   1   7
ATOM      7  C   UNL     1       4.130   7.332  -6.915  1.00  0.00     0.000 C 
BRANCH   7   8
ATOM      8  C   UNL     1       3.712   8.332  -5.828  1.00  0.00    -0.000 C 
BRANCH   8   9
ATOM      9  C   UNL     1       2.676   9.351  -6.329  1.00  0.00    -0.003 C 
ATOM     10  C   UNL     1       1.495   9.512  -5.374  1.00  0.00     0.004 C 
ENDBRANCH   8   9
ENDBRANCH   7   8
ENDBRANCH   1   7
TORSDOF 6
ENDMDL
MODEL 9
REMARK VINA RESULT:    -3.488      2.857      4.603
REMARK INTER + INTRA:          -5.264
REMARK INTER:                  -4.861
REMARK INTRA:                  -0.403
REMARK UNBOUND:                -0.553
REMARK SMILES CCCCCCCC(=O)[O-]
REMARK SMILES IDX 5 1 6 2 7 3 8 4 9 5 10 6 4 7 3 8 2 9 1 10
REMARK H PARENT
REMARK Flexibility Score: inf
ROOT
ATOM      1  C   UNL     1       2.278   7.125  -5.232  1.00  0.00     0.000 C 
ENDROOT
BRANCH   1   2
ATOM      2  C   UNL     1       2.153   6.162  -6.422  1.00  0.00     0.006 C 
BRANCH   2   3
ATOM      3  C   UNL     1       1.298   4.930  -6.099  1.00  0.00     0.053 C 
BRANCH   3   4
ATOM      4  C   UNL     1       0.497   4.522  -7.296  1.00  0.00     0.041 C 
ATOM      5  O   UNL     1       0.430   5.277  -8.301  1.00  0.00    -0.550 OA
ATOM      6  O   UNL     1      -0.215   3.330  -7.281  1.00  0.00    -0.550 OA
ENDBRANCH   3   4
ENDBRANCH   2   3
ENDBRANCH   1   2
BRANCH   1   7
ATOM      7  C   UNL     1       1.928   8.575  -5.602  1.00  0.00     0.000 C 
BRANCH   7   8
ATOM      8  C   UNL     1       1.085   8.625  -6.883  1.00  0.00    -0.000 C 
BRANCH   8   9
ATOM      9  C   UNL     1       1.724   9.494  -7.978  1.00  0.00    -0.003 C 
ATOM     10  C   UNL     1       3.210   9.753  -7.735  1.00  0.00     0.004 C 
ENDBRANCH   8   9
ENDBRANCH   7   8
ENDBRANCH   1   7
TORSDOF 6
ENDMDL
