MODEL 1
REMARK VINA RESULT:    -5.004      0.000      0.000
REMARK INTER + INTRA:          -5.812
REMARK INTER:                  -5.736
REMARK INTRA:                  -0.076
REMARK UNBOUND:                -0.076
REMARK SMILES C=Cc1ccc(O)c(OC)c1
REMARK SMILES IDX 8 1 6 2 5 3 4 4 3 5 11 6 9 7 10 8 7 9 2 11 1 12
REMARK H PARENT 7 10
REMARK Flexibility Score: inf
ROOT
ATOM      1  C   UNL     1       5.921  -2.849  46.538  1.00  0.00     0.161 A 
ATOM      2  C   UNL     1       5.911  -1.551  45.996  1.00  0.00     0.157 A 
ATOM      3  C   UNL     1       6.744  -0.564  46.527  1.00  0.00     0.051 A 
ATOM      4  C   UNL     1       7.588  -0.852  47.602  1.00  0.00     0.012 A 
ATOM      5  C   UNL     1       7.604  -2.140  48.168  1.00  0.00    -0.022 A 
ATOM      6  C   UNL     1       6.774  -3.134  47.622  1.00  0.00     0.058 A 
ENDROOT
BRANCH   1   7
ATOM      7  O   UNL     1       5.077  -3.822  45.980  1.00  0.00    -0.493 OA
ATOM      8  C   UNL     1       4.941  -5.152  46.470  1.00  0.00     0.278 C 
ENDBRANCH   1   7
BRANCH   2   9
ATOM      9  O   UNL     1       5.081  -1.225  44.923  1.00  0.00    -0.504 OA
ATOM     10  H   UNL     1       4.136  -0.885  45.054  1.00  0.00     0.293 HD
ENDBRANCH   2   9
BRANCH   5  11
ATOM     11  C   UNL     1       8.488  -2.501  49.305  1.00  0.00     0.000 C 
ATOM     12  C   UNL     1       9.790  -2.768  49.188  1.00  0.00     0.009 C 
ENDBRANCH   5  11
TORSDOF 3
ENDMDL
MODEL 2
REMARK VINA RESULT:    -4.848      2.108      2.679
REMARK INTER + INTRA:          -5.633
REMARK INTER:                  -5.534
REMARK INTRA:                  -0.099
REMARK UNBOUND:                -0.076
REMARK SMILES C=Cc1ccc(O)c(OC)c1
REMARK SMILES IDX 8 1 6 2 5 3 4 4 3 5 11 6 9 7 10 8 7 9 2 11 1 12
REMARK H PARENT 7 10
REMARK Flexibility Score: inf
ROOT
ATOM      1  C   UNL     1       5.784  -1.870  46.926  1.00  0.00     0.161 A 
ATOM      2  C   UNL     1       7.094  -1.376  47.055  1.00  0.00     0.157 A 
ATOM      3  C   UNL     1       7.770  -1.496  48.271  1.00  0.00     0.051 A 
ATOM      4  C   UNL     1       7.154  -2.100  49.369  1.00  0.00     0.012 A 
ATOM      5  C   UNL     1       5.838  -2.589  49.266  1.00  0.00    -0.022 A 
ATOM      6  C   UNL     1       5.166  -2.478  48.036  1.00  0.00     0.058 A 
ENDROOT
BRANCH   1   7
ATOM      7  O   UNL     1       5.130  -1.740  45.690  1.00  0.00    -0.493 OA
ATOM      8  C   UNL     1       4.815  -2.824  44.823  1.00  0.00     0.278 C 
ENDBRANCH   1   7
BRANCH   2   9
ATOM      9  O   UNL     1       7.743  -0.766  45.982  1.00  0.00    -0.504 OA
ATOM     10  H   UNL     1       8.737  -0.571  45.990  1.00  0.00     0.293 HD
ENDBRANCH   2   9
BRANCH   5  11
ATOM     11  C   UNL     1       5.139  -3.247  50.398  1.00  0.00     0.000 C 
ATOM     12  C   UNL     1       5.547  -4.378  50.976  1.00  0.00     0.009 C 
ENDBRANCH   5  11
TORSDOF 3
ENDMDL
MODEL 3
REMARK VINA RESULT:    -4.732      2.647      4.132
REMARK INTER + INTRA:          -5.499
REMARK INTER:                  -5.408
REMARK INTRA:                  -0.092
REMARK UNBOUND:                -0.076
REMARK SMILES C=Cc1ccc(O)c(OC)c1
REMARK SMILES IDX 8 1 6 2 5 3 4 4 3 5 11 6 9 7 10 8 7 9 2 11 1 12
REMARK H PARENT 7 10
REMARK Flexibility Score: inf
ROOT
ATOM      1  C   UNL     1       7.175  -4.059  49.127  1.00  0.00     0.161 A 
ATOM      2  C   UNL     1       8.522  -4.455  49.207  1.00  0.00     0.157 A 
ATOM      3  C   UNL     1       9.527  -3.620  48.712  1.00  0.00     0.051 A 
ATOM      4  C   UNL     1       9.206  -2.393  48.129  1.00  0.00     0.012 A 
ATOM      5  C   UNL     1       7.864  -1.983  48.026  1.00  0.00    -0.022 A 
ATOM      6  C   UNL     1       6.857  -2.820  48.538  1.00  0.00     0.058 A 
ENDROOT
BRANCH   1   7
ATOM      7  O   UNL     1       6.186  -4.915  49.637  1.00  0.00    -0.493 OA
ATOM      8  C   UNL     1       5.472  -4.696  50.849  1.00  0.00     0.278 C 
ENDBRANCH   1   7
BRANCH   2   9
ATOM      9  O   UNL     1       8.882  -5.674  49.781  1.00  0.00    -0.504 OA
ATOM     10  H   UNL     1       8.777  -5.857  50.772  1.00  0.00     0.293 HD
ENDBRANCH   2   9
BRANCH   5  11
ATOM     11  C   UNL     1       7.469  -0.685  47.424  1.00  0.00     0.000 C 
ATOM     12  C   UNL     1       6.350  -0.492  46.724  1.00  0.00     0.009 C 
ENDBRANCH   5  11
TORSDOF 3
ENDMDL
MODEL 4
REMARK VINA RESULT:    -4.656      2.559      3.806
REMARK INTER + INTRA:          -5.413
REMARK INTER:                  -5.324
REMARK INTRA:                  -0.089
REMARK UNBOUND:                -0.076
REMARK SMILES C=Cc1ccc(O)c(OC)c1
REMARK SMILES IDX 8 1 6 2 5 3 4 4 3 5 11 6 9 7 10 8 7 9 2 11 1 12
REMARK H PARENT 7 10
REMARK Flexibility Score: inf
ROOT
ATOM      1  C   UNL     1       7.669  -2.242  48.334  1.00  0.00     0.161 A 
ATOM      2  C   UNL     1       7.001  -1.947  47.133  1.00  0.00     0.157 A 
ATOM      3  C   UNL     1       5.646  -2.257  46.992  1.00  0.00     0.051 A 
ATOM      4  C   UNL     1       4.946  -2.866  48.034  1.00  0.00     0.012 A 
ATOM      5  C   UNL     1       5.599  -3.182  49.241  1.00  0.00    -0.022 A 
ATOM      6  C   UNL     1       6.958  -2.857  49.383  1.00  0.00     0.058 A 
ENDROOT
BRANCH   1   7
ATOM      7  O   UNL     1       9.030  -1.915  48.449  1.00  0.00    -0.493 OA
ATOM      8  C   UNL     1      10.019  -2.760  49.028  1.00  0.00     0.278 C 
ENDBRANCH   1   7
BRANCH   2   9
ATOM      9  O   UNL     1       7.666  -1.339  46.068  1.00  0.00    -0.504 OA
ATOM     10  H   UNL     1       7.414  -0.420  45.725  1.00  0.00     0.293 HD
ENDBRANCH   2   9
BRANCH   5  11
ATOM     11  C   UNL     1       4.899  -3.822  50.384  1.00  0.00     0.000 C 
ATOM     12  C   UNL     1       4.127  -4.904  50.280  1.00  0.00     0.009 C 
ENDBRANCH   5  11
TORSDOF 3
ENDMDL
MODEL 5
REMARK VINA RESULT:    -4.610     13.249     14.527
REMARK INTER + INTRA:          -5.360
REMARK INTER:                  -5.270
REMARK INTRA:                  -0.090
REMARK UNBOUND:                -0.076
REMARK SMILES C=Cc1ccc(O)c(OC)c1
REMARK SMILES IDX 8 1 6 2 5 3 4 4 3 5 11 6 9 7 10 8 7 9 2 11 1 12
REMARK H PARENT 7 10
REMARK Flexibility Score: inf
ROOT
ATOM      1  C   UNL     1       2.324  11.534  48.287  1.00  0.00     0.161 A 
ATOM      2  C   UNL     1       2.881  12.371  49.270  1.00  0.00     0.157 A 
ATOM      3  C   UNL     1       4.252  12.642  49.263  1.00  0.00     0.051 A 
ATOM      4  C   UNL     1       5.081  12.081  48.290  1.00  0.00     0.012 A 
ATOM      5  C   UNL     1       4.546  11.230  47.305  1.00  0.00    -0.022 A 
ATOM      6  C   UNL     1       3.165  10.971  47.307  1.00  0.00     0.058 A 
ENDROOT
BRANCH   1   7
ATOM      7  O   UNL     1       0.943  11.284  48.315  1.00  0.00    -0.493 OA
ATOM      8  C   UNL     1       0.336  10.053  47.936  1.00  0.00     0.278 C 
ENDBRANCH   1   7
BRANCH   2   9
ATOM      9  O   UNL     1       2.086  12.949  50.260  1.00  0.00    -0.504 OA
ATOM     10  H   UNL     1       1.976  13.952  50.348  1.00  0.00     0.293 HD
ENDBRANCH   2   9
BRANCH   5  11
ATOM     11  C   UNL     1       5.381  10.615  46.242  1.00  0.00     0.000 C 
ATOM     12  C   UNL     1       6.654  10.253  46.404  1.00  0.00     0.009 C 
ENDBRANCH   5  11
TORSDOF 3
ENDMDL
MODEL 6
REMARK VINA RESULT:    -4.602     12.765     14.233
REMARK INTER + INTRA:          -5.351
REMARK INTER:                  -5.257
REMARK INTRA:                  -0.093
REMARK UNBOUND:                -0.076
REMARK SMILES C=Cc1ccc(O)c(OC)c1
REMARK SMILES IDX 8 1 6 2 5 3 4 4 3 5 11 6 9 7 10 8 7 9 2 11 1 12
REMARK H PARENT 7 10
REMARK Flexibility Score: inf
ROOT
ATOM      1  C   UNL     1      -0.848   7.232  40.875  1.00  0.00     0.161 A 
ATOM      2  C   UNL     1      -0.818   6.877  42.235  1.00  0.00     0.157 A 
ATOM      3  C   UNL     1      -1.535   5.765  42.684  1.00  0.00     0.051 A 
ATOM      4  C   UNL     1      -2.290   5.001  41.792  1.00  0.00     0.012 A 
ATOM      5  C   UNL     1      -2.345   5.347  40.429  1.00  0.00    -0.022 A 
ATOM      6  C   UNL     1      -1.611   6.458  39.979  1.00  0.00     0.058 A 
ENDROOT
BRANCH   1   7
ATOM      7  O   UNL     1      -0.114   8.351  40.451  1.00  0.00    -0.493 OA
ATOM      8  C   UNL     1      -0.686   9.600  40.076  1.00  0.00     0.278 C 
ENDBRANCH   1   7
BRANCH   2   9
ATOM      9  O   UNL     1      -0.076   7.616  43.157  1.00  0.00    -0.504 OA
ATOM     10  H   UNL     1      -0.507   8.101  43.934  1.00  0.00     0.293 HD
ENDBRANCH   2   9
BRANCH   5  11
ATOM     11  C   UNL     1      -3.125   4.564  39.437  1.00  0.00     0.000 C 
ATOM     12  C   UNL     1      -2.587   3.712  38.563  1.00  0.00     0.009 C 
ENDBRANCH   5  11
TORSDOF 3
ENDMDL
MODEL 7
REMARK VINA RESULT:    -4.561      2.306      3.912
REMARK INTER + INTRA:          -5.304
REMARK INTER:                  -5.212
REMARK INTRA:                  -0.091
REMARK UNBOUND:                -0.076
REMARK SMILES C=Cc1ccc(O)c(OC)c1
REMARK SMILES IDX 8 1 6 2 5 3 4 4 3 5 11 6 9 7 10 8 7 9 2 11 1 12
REMARK H PARENT 7 10
REMARK Flexibility Score: inf
ROOT
ATOM      1  C   UNL     1       5.995  -3.068  48.093  1.00  0.00     0.161 A 
ATOM      2  C   UNL     1       6.712  -1.935  48.516  1.00  0.00     0.157 A 
ATOM      3  C   UNL     1       6.769  -0.801  47.703  1.00  0.00     0.051 A 
ATOM      4  C   UNL     1       6.124  -0.782  46.465  1.00  0.00     0.012 A 
ATOM      5  C   UNL     1       5.412  -1.910  46.016  1.00  0.00    -0.022 A 
ATOM      6  C   UNL     1       5.346  -3.044  46.843  1.00  0.00     0.058 A 
ENDROOT
BRANCH   1   7
ATOM      7  O   UNL     1       5.950  -4.193  48.933  1.00  0.00    -0.493 OA
ATOM      8  C   UNL     1       4.901  -4.474  49.854  1.00  0.00     0.278 C 
ENDBRANCH   1   7
BRANCH   2   9
ATOM      9  O   UNL     1       7.370  -1.916  49.745  1.00  0.00    -0.504 OA
ATOM     10  H   UNL     1       7.346  -2.702  50.384  1.00  0.00     0.293 HD
ENDBRANCH   2   9
BRANCH   5  11
ATOM     11  C   UNL     1       4.701  -1.940  44.713  1.00  0.00     0.000 C 
ATOM     12  C   UNL     1       4.414  -3.056  44.041  1.00  0.00     0.009 C 
ENDBRANCH   5  11
TORSDOF 3
ENDMDL
MODEL 8
REMARK VINA RESULT:    -4.479      8.952      9.835
REMARK INTER + INTRA:          -5.209
REMARK INTER:                  -5.108
REMARK INTRA:                  -0.101
REMARK UNBOUND:                -0.076
REMARK SMILES C=Cc1ccc(O)c(OC)c1
REMARK SMILES IDX 8 1 6 2 5 3 4 4 3 5 11 6 9 7 10 8 7 9 2 11 1 12
REMARK H PARENT 7 10
REMARK Flexibility Score: inf
ROOT
ATOM      1  C   UNL     1      10.105   3.217  53.494  1.00  0.00     0.161 A 
ATOM      2  C   UNL     1       9.731   1.991  54.070  1.00  0.00     0.157 A 
ATOM      3  C   UNL     1       8.388   1.735  54.359  1.00  0.00     0.051 A 
ATOM      4  C   UNL     1       7.409   2.691  54.087  1.00  0.00     0.012 A 
ATOM      5  C   UNL     1       7.763   3.931  53.522  1.00  0.00    -0.022 A 
ATOM      6  C   UNL     1       9.113   4.179  53.221  1.00  0.00     0.058 A 
ENDROOT
BRANCH   1   7
ATOM      7  O   UNL     1      11.461   3.446  53.210  1.00  0.00    -0.493 OA
ATOM      8  C   UNL     1      11.989   3.667  51.906  1.00  0.00     0.278 C 
ENDBRANCH   1   7
BRANCH   2   9
ATOM      9  O   UNL     1      10.680   1.010  54.359  1.00  0.00    -0.504 OA
ATOM     10  H   UNL     1      10.421   0.071  54.636  1.00  0.00     0.293 HD
ENDBRANCH   2   9
BRANCH   5  11
ATOM     11  C   UNL     1       6.761   4.980  53.204  1.00  0.00     0.000 C 
ATOM     12  C   UNL     1       5.542   4.730  52.724  1.00  0.00     0.009 C 
ENDBRANCH   5  11
TORSDOF 3
ENDMDL
MODEL 9
REMARK VINA RESULT:    -4.436      2.672      3.931
REMARK INTER + INTRA:          -5.160
REMARK INTER:                  -5.057
REMARK INTRA:                  -0.103
REMARK UNBOUND:                -0.076
REMARK SMILES C=Cc1ccc(O)c(OC)c1
REMARK SMILES IDX 8 1 6 2 5 3 4 4 3 5 11 6 9 7 10 8 7 9 2 11 1 12
REMARK H PARENT 7 10
REMARK Flexibility Score: inf
ROOT
ATOM      1  C   UNL     1       5.152  -4.081  48.963  1.00  0.00     0.161 A 
ATOM      2  C   UNL     1       5.731  -3.839  50.221  1.00  0.00     0.157 A 
ATOM      3  C   UNL     1       6.348  -2.613  50.483  1.00  0.00     0.051 A 
ATOM      4  C   UNL     1       6.403  -1.623  49.501  1.00  0.00     0.012 A 
ATOM      5  C   UNL     1       5.842  -1.849  48.230  1.00  0.00    -0.022 A 
ATOM      6  C   UNL     1       5.210  -3.079  47.975  1.00  0.00     0.058 A 
ENDROOT
BRANCH   1   7
ATOM      7  O   UNL     1       4.534  -5.320  48.729  1.00  0.00    -0.493 OA
ATOM      8  C   UNL     1       3.144  -5.575  48.898  1.00  0.00     0.278 C 
ENDBRANCH   1   7
BRANCH   2   9
ATOM      9  O   UNL     1       5.698  -4.804  51.228  1.00  0.00    -0.504 OA
ATOM     10  H   UNL     1       6.440  -4.899  51.911  1.00  0.00     0.293 HD
ENDBRANCH   2   9
BRANCH   5  11
ATOM     11  C   UNL     1       5.865  -0.827  47.153  1.00  0.00     0.000 C 
ATOM     12  C   UNL     1       6.930  -0.087  46.844  1.00  0.00     0.009 C 
ENDBRANCH   5  11
TORSDOF 3
ENDMDL
