MODEL 1
REMARK VINA RESULT:    -4.276      0.000      0.000
REMARK INTER + INTRA:         -15.302
REMARK INTER:                 -10.776
REMARK INTRA:                  -4.527
REMARK UNBOUND:                -4.527
REMARK SMILES CCCCCCCCCCCCCCCCCCCCCCCCCCCC(=O)[O-]
REMARK SMILES IDX 15 1 16 2 17 3 18 4 19 5 20 6 21 7 22 8 23 9 24 10 25 11
REMARK SMILES IDX 26 12 27 13 28 14 29 15 30 16 14 17 13 18 12 19 11 20 10 21
REMARK SMILES IDX 9 22 8 23 7 24 6 25 5 26 4 27 3 28 2 29 1 30
REMARK H PARENT
REMARK Flexibility Score: inf
ROOT
ATOM      1  C   UNL     1       6.391  35.023  69.531  1.00  0.00     0.000 C 
ENDROOT
BRANCH   1   2
ATOM      2  C   UNL     1       5.287  35.405  70.524  1.00  0.00     0.000 C 
BRANCH   2   3
ATOM      3  C   UNL     1       4.282  34.256  70.703  1.00  0.00     0.000 C 
BRANCH   3   4
ATOM      4  C   UNL     1       2.854  34.757  70.969  1.00  0.00     0.000 C 
BRANCH   4   5
ATOM      5  C   UNL     1       2.512  36.025  70.168  1.00  0.00     0.000 C 
BRANCH   5   6
ATOM      6  C   UNL     1       1.014  36.134  69.849  1.00  0.00     0.000 C 
BRANCH   6   7
ATOM      7  C   UNL     1       0.738  36.245  68.338  1.00  0.00     0.000 C 
BRANCH   7   8
ATOM      8  C   UNL     1       1.603  35.286  67.507  1.00  0.00     0.000 C 
BRANCH   8   9
ATOM      9  C   UNL     1       1.145  33.821  67.624  1.00  0.00     0.000 C 
BRANCH   9  10
ATOM     10  C   UNL     1       2.336  32.839  67.669  1.00  0.00     0.000 C 
BRANCH  10  11
ATOM     11  C   UNL     1       1.927  31.358  67.542  1.00  0.00     0.000 C 
BRANCH  11  12
ATOM     12  C   UNL     1       0.802  30.908  68.493  1.00  0.00     0.006 C 
BRANCH  12  13
ATOM     13  C   UNL     1       1.287  30.489  69.889  1.00  0.00     0.053 C 
BRANCH  13  14
ATOM     14  C   UNL     1       0.778  31.409  70.955  1.00  0.00     0.041 C 
ATOM     15  O   UNL     1       1.018  31.170  72.168  1.00  0.00    -0.550 OA
ATOM     16  O   UNL     1       0.062  32.546  70.606  1.00  0.00    -0.550 OA
ENDBRANCH  13  14
ENDBRANCH  12  13
ENDBRANCH  11  12
ENDBRANCH  10  11
ENDBRANCH   9  10
ENDBRANCH   8   9
ENDBRANCH   7   8
ENDBRANCH   6   7
ENDBRANCH   5   6
ENDBRANCH   4   5
ENDBRANCH   3   4
ENDBRANCH   2   3
ENDBRANCH   1   2
BRANCH   1  17
ATOM     17  C   UNL     1       5.845  34.083  68.445  1.00  0.00     0.000 C 
BRANCH  17  18
ATOM     18  C   UNL     1       6.824  33.877  67.276  1.00  0.00     0.000 C 
BRANCH  18  19
ATOM     19  C   UNL     1       8.195  33.289  67.668  1.00  0.00     0.000 C 
BRANCH  19  20
ATOM     20  C   UNL     1       8.421  31.823  67.250  1.00  0.00     0.000 C 
BRANCH  20  21
ATOM     21  C   UNL     1       7.182  31.110  66.675  1.00  0.00     0.000 C 
BRANCH  21  22
ATOM     22  C   UNL     1       6.523  30.084  67.614  1.00  0.00    -0.000 C 
BRANCH  22  23
ATOM     23  C   UNL     1       5.394  30.693  68.463  1.00  0.00    -0.000 C 
BRANCH  23  24
ATOM     24  C   UNL     1       5.086  29.876  69.733  1.00  0.00    -0.000 C 
BRANCH  24  25
ATOM     25  C   UNL     1       5.929  30.243  70.968  1.00  0.00    -0.000 C 
BRANCH  25  26
ATOM     26  C   UNL     1       7.231  30.981  70.610  1.00  0.00    -0.000 C 
BRANCH  26  27
ATOM     27  C   UNL     1       7.373  32.324  71.345  1.00  0.00    -0.000 C 
BRANCH  27  28
ATOM     28  C   UNL     1       6.646  32.333  72.698  1.00  0.00    -0.000 C 
BRANCH  28  29
ATOM     29  C   UNL     1       7.625  32.085  73.851  1.00  0.00    -0.003 C 
ATOM     30  C   UNL     1       8.597  33.250  74.009  1.00  0.00     0.004 C 
ENDBRANCH  28  29
ENDBRANCH  27  28
ENDBRANCH  26  27
ENDBRANCH  25  26
ENDBRANCH  24  25
ENDBRANCH  23  24
ENDBRANCH  22  23
ENDBRANCH  21  22
ENDBRANCH  20  21
ENDBRANCH  19  20
ENDBRANCH  18  19
ENDBRANCH  17  18
ENDBRANCH   1  17
TORSDOF 26
ENDMDL
MODEL 2
REMARK VINA RESULT:    -4.247     13.493     16.732
REMARK INTER + INTRA:         -15.229
REMARK INTER:                 -13.182
REMARK INTRA:                  -2.047
REMARK UNBOUND:                -4.527
REMARK SMILES CCCCCCCCCCCCCCCCCCCCCCCCCCCC(=O)[O-]
REMARK SMILES IDX 15 1 16 2 17 3 18 4 19 5 20 6 21 7 22 8 23 9 24 10 25 11
REMARK SMILES IDX 26 12 27 13 28 14 29 15 30 16 14 17 13 18 12 19 11 20 10 21
REMARK SMILES IDX 9 22 8 23 7 24 6 25 5 26 4 27 3 28 2 29 1 30
REMARK H PARENT
REMARK Flexibility Score: inf
ROOT
ATOM      1  C   UNL     1       7.211  47.301  68.721  1.00  0.00     0.000 C 
ENDROOT
BRANCH   1   2
ATOM      2  C   UNL     1       6.932  47.408  70.225  1.00  0.00     0.000 C 
BRANCH   2   3
ATOM      3  C   UNL     1       8.073  48.136  70.950  1.00  0.00     0.000 C 
BRANCH   3   4
ATOM      4  C   UNL     1       8.532  49.401  70.209  1.00  0.00     0.000 C 
BRANCH   4   5
ATOM      5  C   UNL     1      10.059  49.465  70.036  1.00  0.00     0.000 C 
BRANCH   5   6
ATOM      6  C   UNL     1      10.741  48.118  70.316  1.00  0.00     0.000 C 
BRANCH   6   7
ATOM      7  C   UNL     1      11.932  48.248  71.284  1.00  0.00     0.000 C 
BRANCH   7   8
ATOM      8  C   UNL     1      11.522  48.059  72.753  1.00  0.00     0.000 C 
BRANCH   8   9
ATOM      9  C   UNL     1      12.732  47.946  73.697  1.00  0.00     0.000 C 
BRANCH   9  10
ATOM     10  C   UNL     1      12.813  46.563  74.380  1.00  0.00     0.000 C 
BRANCH  10  11
ATOM     11  C   UNL     1      11.738  46.339  75.462  1.00  0.00     0.000 C 
BRANCH  11  12
ATOM     12  C   UNL     1      10.815  47.544  75.724  1.00  0.00     0.006 C 
BRANCH  12  13
ATOM     13  C   UNL     1      10.165  47.550  77.116  1.00  0.00     0.053 C 
BRANCH  13  14
ATOM     14  C   UNL     1      10.645  48.697  77.950  1.00  0.00     0.041 C 
ATOM     15  O   UNL     1      11.665  49.351  77.604  1.00  0.00    -0.550 OA
ATOM     16  O   UNL     1       9.951  49.061  79.096  1.00  0.00    -0.550 OA
ENDBRANCH  13  14
ENDBRANCH  12  13
ENDBRANCH  11  12
ENDBRANCH  10  11
ENDBRANCH   9  10
ENDBRANCH   8   9
ENDBRANCH   7   8
ENDBRANCH   6   7
ENDBRANCH   5   6
ENDBRANCH   4   5
ENDBRANCH   3   4
ENDBRANCH   2   3
ENDBRANCH   1   2
BRANCH   1  17
ATOM     17  C   UNL     1       5.946  47.619  67.909  1.00  0.00     0.000 C 
BRANCH  17  18
ATOM     18  C   UNL     1       5.871  49.089  67.461  1.00  0.00     0.000 C 
BRANCH  18  19
ATOM     19  C   UNL     1       6.492  49.385  66.080  1.00  0.00     0.000 C 
BRANCH  19  20
ATOM     20  C   UNL     1       5.492  49.824  64.993  1.00  0.00     0.000 C 
BRANCH  20  21
ATOM     21  C   UNL     1       4.520  48.725  64.519  1.00  0.00     0.000 C 
BRANCH  21  22
ATOM     22  C   UNL     1       5.190  47.472  63.926  1.00  0.00    -0.000 C 
BRANCH  22  23
ATOM     23  C   UNL     1       4.423  46.179  64.248  1.00  0.00    -0.000 C 
BRANCH  23  24
ATOM     24  C   UNL     1       3.379  46.359  65.367  1.00  0.00    -0.000 C 
BRANCH  24  25
ATOM     25  C   UNL     1       2.860  45.051  65.995  1.00  0.00    -0.000 C 
BRANCH  25  26
ATOM     26  C   UNL     1       3.278  44.883  67.466  1.00  0.00    -0.000 C 
BRANCH  26  27
ATOM     27  C   UNL     1       3.047  43.457  67.989  1.00  0.00    -0.000 C 
BRANCH  27  28
ATOM     28  C   UNL     1       2.715  43.426  69.488  1.00  0.00    -0.000 C 
BRANCH  28  29
ATOM     29  C   UNL     1       3.955  43.742  70.333  1.00  0.00    -0.003 C 
ATOM     30  C   UNL     1       3.580  43.993  71.790  1.00  0.00     0.004 C 
ENDBRANCH  28  29
ENDBRANCH  27  28
ENDBRANCH  26  27
ENDBRANCH  25  26
ENDBRANCH  24  25
ENDBRANCH  23  24
ENDBRANCH  22  23
ENDBRANCH  21  22
ENDBRANCH  20  21
ENDBRANCH  19  20
ENDBRANCH  18  19
ENDBRANCH  17  18
ENDBRANCH   1  17
TORSDOF 26
ENDMDL
MODEL 3
REMARK VINA RESULT:    -4.163      2.381      6.644
REMARK INTER + INTRA:         -15.016
REMARK INTER:                  -9.870
REMARK INTRA:                  -5.146
REMARK UNBOUND:                -4.527
REMARK SMILES CCCCCCCCCCCCCCCCCCCCCCCCCCCC(=O)[O-]
REMARK SMILES IDX 15 1 16 2 17 3 18 4 19 5 20 6 21 7 22 8 23 9 24 10 25 11
REMARK SMILES IDX 26 12 27 13 28 14 29 15 30 16 14 17 13 18 12 19 11 20 10 21
REMARK SMILES IDX 9 22 8 23 7 24 6 25 5 26 4 27 3 28 2 29 1 30
REMARK H PARENT
REMARK Flexibility Score: inf
ROOT
ATOM      1  C   UNL     1       6.325  34.745  67.977  1.00  0.00     0.000 C 
ENDROOT
BRANCH   1   2
ATOM      2  C   UNL     1       7.426  33.955  67.261  1.00  0.00     0.000 C 
BRANCH   2   3
ATOM      3  C   UNL     1       8.387  33.306  68.269  1.00  0.00     0.000 C 
BRANCH   3   4
ATOM      4  C   UNL     1       8.539  31.793  68.050  1.00  0.00     0.000 C 
BRANCH   4   5
ATOM      5  C   UNL     1       7.991  31.333  66.689  1.00  0.00     0.000 C 
BRANCH   5   6
ATOM      6  C   UNL     1       6.912  30.248  66.824  1.00  0.00     0.000 C 
BRANCH   6   7
ATOM      7  C   UNL     1       6.453  30.049  68.280  1.00  0.00     0.000 C 
BRANCH   7   8
ATOM      8  C   UNL     1       4.943  30.270  68.459  1.00  0.00     0.000 C 
BRANCH   8   9
ATOM      9  C   UNL     1       4.454  29.915  69.873  1.00  0.00     0.000 C 
BRANCH   9  10
ATOM     10  C   UNL     1       5.434  30.393  70.968  1.00  0.00     0.000 C 
BRANCH  10  11
ATOM     11  C   UNL     1       4.795  30.513  72.366  1.00  0.00     0.000 C 
BRANCH  11  12
ATOM     12  C   UNL     1       5.737  31.026  73.472  1.00  0.00     0.006 C 
BRANCH  12  13
ATOM     13  C   UNL     1       6.603  32.225  73.057  1.00  0.00     0.053 C 
BRANCH  13  14
ATOM     14  C   UNL     1       7.991  32.127  73.610  1.00  0.00     0.041 C 
ATOM     15  O   UNL     1       8.565  31.008  73.691  1.00  0.00    -0.550 OA
ATOM     16  O   UNL     1       8.662  33.275  74.010  1.00  0.00    -0.550 OA
ENDBRANCH  13  14
ENDBRANCH  12  13
ENDBRANCH  11  12
ENDBRANCH  10  11
ENDBRANCH   9  10
ENDBRANCH   8   9
ENDBRANCH   7   8
ENDBRANCH   6   7
ENDBRANCH   5   6
ENDBRANCH   4   5
ENDBRANCH   3   4
ENDBRANCH   2   3
ENDBRANCH   1   2
BRANCH   1  17
ATOM     17  C   UNL     1       5.156  33.825  68.363  1.00  0.00     0.000 C 
BRANCH  17  18
ATOM     18  C   UNL     1       4.866  33.818  69.874  1.00  0.00     0.000 C 
BRANCH  18  19
ATOM     19  C   UNL     1       4.999  35.188  70.571  1.00  0.00     0.000 C 
BRANCH  19  20
ATOM     20  C   UNL     1       3.806  35.589  71.461  1.00  0.00     0.000 C 
BRANCH  20  21
ATOM     21  C   UNL     1       2.419  35.397  70.816  1.00  0.00     0.000 C 
BRANCH  21  22
ATOM     22  C   UNL     1       1.911  36.594  69.993  1.00  0.00    -0.000 C 
BRANCH  22  23
ATOM     23  C   UNL     1       1.089  36.167  68.766  1.00  0.00    -0.000 C 
BRANCH  23  24
ATOM     24  C   UNL     1       1.814  35.132  67.884  1.00  0.00    -0.000 C 
BRANCH  24  25
ATOM     25  C   UNL     1       0.992  33.877  67.536  1.00  0.00    -0.000 C 
BRANCH  25  26
ATOM     26  C   UNL     1       1.812  32.578  67.618  1.00  0.00    -0.000 C 
BRANCH  26  27
ATOM     27  C   UNL     1       1.213  31.560  68.601  1.00  0.00    -0.000 C 
BRANCH  27  28
ATOM     28  C   UNL     1       0.656  32.223  69.869  1.00  0.00    -0.000 C 
BRANCH  28  29
ATOM     29  C   UNL     1       1.589  31.996  71.064  1.00  0.00    -0.003 C 
ATOM     30  C   UNL     1       1.194  30.745  71.842  1.00  0.00     0.004 C 
ENDBRANCH  28  29
ENDBRANCH  27  28
ENDBRANCH  26  27
ENDBRANCH  25  26
ENDBRANCH  24  25
ENDBRANCH  23  24
ENDBRANCH  22  23
ENDBRANCH  21  22
ENDBRANCH  20  21
ENDBRANCH  19  20
ENDBRANCH  18  19
ENDBRANCH  17  18
ENDBRANCH   1  17
TORSDOF 26
ENDMDL
MODEL 4
REMARK VINA RESULT:    -4.135     12.503     15.689
REMARK INTER + INTRA:         -14.948
REMARK INTER:                 -12.808
REMARK INTRA:                  -2.140
REMARK UNBOUND:                -4.527
REMARK SMILES CCCCCCCCCCCCCCCCCCCCCCCCCCCC(=O)[O-]
REMARK SMILES IDX 15 1 16 2 17 3 18 4 19 5 20 6 21 7 22 8 23 9 24 10 25 11
REMARK SMILES IDX 26 12 27 13 28 14 29 15 30 16 14 17 13 18 12 19 11 20 10 21
REMARK SMILES IDX 9 22 8 23 7 24 6 25 5 26 4 27 3 28 2 29 1 30
REMARK H PARENT
REMARK Flexibility Score: inf
ROOT
ATOM      1  C   UNL     1       7.003  48.567  66.533  1.00  0.00     0.000 C 
ENDROOT
BRANCH   1   2
ATOM      2  C   UNL     1       7.963  47.919  67.536  1.00  0.00     0.000 C 
BRANCH   2   3
ATOM      3  C   UNL     1       7.196  47.123  68.603  1.00  0.00     0.000 C 
BRANCH   3   4
ATOM      4  C   UNL     1       7.055  47.892  69.926  1.00  0.00     0.000 C 
BRANCH   4   5
ATOM      5  C   UNL     1       7.407  49.383  69.785  1.00  0.00     0.000 C 
BRANCH   5   6
ATOM      6  C   UNL     1       8.629  49.782  70.626  1.00  0.00     0.000 C 
BRANCH   6   7
ATOM      7  C   UNL     1       9.421  48.563  71.133  1.00  0.00     0.000 C 
BRANCH   7   8
ATOM      8  C   UNL     1      10.703  48.314  70.325  1.00  0.00     0.000 C 
BRANCH   8   9
ATOM      9  C   UNL     1      11.972  48.768  71.068  1.00  0.00     0.000 C 
BRANCH   9  10
ATOM     10  C   UNL     1      12.309  47.852  72.265  1.00  0.00     0.000 C 
BRANCH  10  11
ATOM     11  C   UNL     1      13.102  48.555  73.384  1.00  0.00     0.000 C 
BRANCH  11  12
ATOM     12  C   UNL     1      12.590  48.290  74.812  1.00  0.00     0.006 C 
BRANCH  12  13
ATOM     13  C   UNL     1      11.276  47.496  74.875  1.00  0.00     0.053 C 
BRANCH  13  14
ATOM     14  C   UNL     1      11.467  46.154  75.512  1.00  0.00     0.041 C 
ATOM     15  O   UNL     1      10.736  45.799  76.474  1.00  0.00    -0.550 OA
ATOM     16  O   UNL     1      12.433  45.285  75.024  1.00  0.00    -0.550 OA
ENDBRANCH  13  14
ENDBRANCH  12  13
ENDBRANCH  11  12
ENDBRANCH  10  11
ENDBRANCH   9  10
ENDBRANCH   8   9
ENDBRANCH   7   8
ENDBRANCH   6   7
ENDBRANCH   5   6
ENDBRANCH   4   5
ENDBRANCH   3   4
ENDBRANCH   2   3
ENDBRANCH   1   2
BRANCH   1  17
ATOM     17  C   UNL     1       6.200  47.496  65.778  1.00  0.00     0.000 C 
BRANCH  17  18
ATOM     18  C   UNL     1       4.694  47.538  66.092  1.00  0.00     0.000 C 
BRANCH  18  19
ATOM     19  C   UNL     1       3.798  48.025  64.935  1.00  0.00     0.000 C 
BRANCH  19  20
ATOM     20  C   UNL     1       3.131  46.908  64.108  1.00  0.00     0.000 C 
BRANCH  20  21
ATOM     21  C   UNL     1       2.832  45.612  64.886  1.00  0.00     0.000 C 
BRANCH  21  22
ATOM     22  C   UNL     1       3.569  44.360  64.376  1.00  0.00    -0.000 C 
BRANCH  22  23
ATOM     23  C   UNL     1       3.509  43.188  65.370  1.00  0.00    -0.000 C 
BRANCH  23  24
ATOM     24  C   UNL     1       2.529  43.432  66.533  1.00  0.00    -0.000 C 
BRANCH  24  25
ATOM     25  C   UNL     1       3.120  43.227  67.941  1.00  0.00    -0.000 C 
BRANCH  25  26
ATOM     26  C   UNL     1       2.209  43.764  69.059  1.00  0.00    -0.000 C 
BRANCH  26  27
ATOM     27  C   UNL     1       2.362  42.983  70.374  1.00  0.00    -0.000 C 
BRANCH  27  28
ATOM     28  C   UNL     1       3.152  43.765  71.434  1.00  0.00    -0.000 C 
BRANCH  28  29
ATOM     29  C   UNL     1       4.594  44.010  70.976  1.00  0.00    -0.003 C 
ATOM     30  C   UNL     1       5.423  42.733  71.058  1.00  0.00     0.004 C 
ENDBRANCH  28  29
ENDBRANCH  27  28
ENDBRANCH  26  27
ENDBRANCH  25  26
ENDBRANCH  24  25
ENDBRANCH  23  24
ENDBRANCH  22  23
ENDBRANCH  21  22
ENDBRANCH  20  21
ENDBRANCH  19  20
ENDBRANCH  18  19
ENDBRANCH  17  18
ENDBRANCH   1  17
TORSDOF 26
ENDMDL
MODEL 5
REMARK VINA RESULT:    -4.123     12.810     16.210
REMARK INTER + INTRA:         -14.917
REMARK INTER:                 -12.747
REMARK INTRA:                  -2.169
REMARK UNBOUND:                -4.527
REMARK SMILES CCCCCCCCCCCCCCCCCCCCCCCCCCCC(=O)[O-]
REMARK SMILES IDX 15 1 16 2 17 3 18 4 19 5 20 6 21 7 22 8 23 9 24 10 25 11
REMARK SMILES IDX 26 12 27 13 28 14 29 15 30 16 14 17 13 18 12 19 11 20 10 21
REMARK SMILES IDX 9 22 8 23 7 24 6 25 5 26 4 27 3 28 2 29 1 30
REMARK H PARENT
REMARK Flexibility Score: inf
ROOT
ATOM      1  C   UNL     1       8.215  47.222  68.162  1.00  0.00     0.000 C 
ENDROOT
BRANCH   1   2
ATOM      2  C   UNL     1       6.949  47.264  69.026  1.00  0.00     0.000 C 
BRANCH   2   3
ATOM      3  C   UNL     1       7.274  47.699  70.463  1.00  0.00     0.000 C 
BRANCH   3   4
ATOM      4  C   UNL     1       8.410  48.730  70.526  1.00  0.00     0.000 C 
BRANCH   4   5
ATOM      5  C   UNL     1       9.497  48.353  71.547  1.00  0.00     0.000 C 
BRANCH   5   6
ATOM      6  C   UNL     1      10.902  48.319  70.927  1.00  0.00     0.000 C 
BRANCH   6   7
ATOM      7  C   UNL     1      12.016  48.270  71.990  1.00  0.00     0.000 C 
BRANCH   7   8
ATOM      8  C   UNL     1      11.490  47.876  73.378  1.00  0.00     0.000 C 
BRANCH   8   9
ATOM      9  C   UNL     1      12.553  48.030  74.481  1.00  0.00     0.000 C 
BRANCH   9  10
ATOM     10  C   UNL     1      13.448  46.778  74.609  1.00  0.00     0.000 C 
BRANCH  10  11
ATOM     11  C   UNL     1      12.663  45.472  74.839  1.00  0.00     0.000 C 
BRANCH  11  12
ATOM     12  C   UNL     1      13.530  44.209  74.999  1.00  0.00     0.006 C 
BRANCH  12  13
ATOM     13  C   UNL     1      15.020  44.493  75.239  1.00  0.00     0.053 C 
BRANCH  13  14
ATOM     14  C   UNL     1      15.897  43.517  74.517  1.00  0.00     0.041 C 
ATOM     15  O   UNL     1      16.674  42.764  75.161  1.00  0.00    -0.550 OA
ATOM     16  O   UNL     1      15.835  43.421  73.133  1.00  0.00    -0.550 OA
ENDBRANCH  13  14
ENDBRANCH  12  13
ENDBRANCH  11  12
ENDBRANCH  10  11
ENDBRANCH   9  10
ENDBRANCH   8   9
ENDBRANCH   7   8
ENDBRANCH   6   7
ENDBRANCH   5   6
ENDBRANCH   4   5
ENDBRANCH   3   4
ENDBRANCH   2   3
ENDBRANCH   1   2
BRANCH   1  17
ATOM     17  C   UNL     1       8.022  48.038  66.874  1.00  0.00     0.000 C 
BRANCH  17  18
ATOM     18  C   UNL     1       6.886  49.070  66.977  1.00  0.00     0.000 C 
BRANCH  18  19
ATOM     19  C   UNL     1       6.409  49.654  65.631  1.00  0.00     0.000 C 
BRANCH  19  20
ATOM     20  C   UNL     1       5.064  49.103  65.119  1.00  0.00     0.000 C 
BRANCH  20  21
ATOM     21  C   UNL     1       5.065  47.601  64.771  1.00  0.00     0.000 C 
BRANCH  21  22
ATOM     22  C   UNL     1       4.390  46.689  65.811  1.00  0.00    -0.000 C 
BRANCH  22  23
ATOM     23  C   UNL     1       3.329  45.763  65.191  1.00  0.00    -0.000 C 
BRANCH  23  24
ATOM     24  C   UNL     1       3.503  44.288  65.602  1.00  0.00    -0.000 C 
BRANCH  24  25
ATOM     25  C   UNL     1       2.286  43.657  66.305  1.00  0.00    -0.000 C 
BRANCH  25  26
ATOM     26  C   UNL     1       2.062  44.204  67.725  1.00  0.00    -0.000 C 
BRANCH  26  27
ATOM     27  C   UNL     1       3.194  43.825  68.693  1.00  0.00    -0.000 C 
BRANCH  27  28
ATOM     28  C   UNL     1       2.668  43.309  70.041  1.00  0.00    -0.000 C 
BRANCH  28  29
ATOM     29  C   UNL     1       3.696  43.536  71.156  1.00  0.00    -0.003 C 
ATOM     30  C   UNL     1       4.838  44.426  70.679  1.00  0.00     0.004 C 
ENDBRANCH  28  29
ENDBRANCH  27  28
ENDBRANCH  26  27
ENDBRANCH  25  26
ENDBRANCH  24  25
ENDBRANCH  23  24
ENDBRANCH  22  23
ENDBRANCH  21  22
ENDBRANCH  20  21
ENDBRANCH  19  20
ENDBRANCH  18  19
ENDBRANCH  17  18
ENDBRANCH   1  17
TORSDOF 26
ENDMDL
MODEL 6
REMARK VINA RESULT:    -4.063      2.620      7.472
REMARK INTER + INTRA:         -14.766
REMARK INTER:                  -9.686
REMARK INTRA:                  -5.080
REMARK UNBOUND:                -4.527
REMARK SMILES CCCCCCCCCCCCCCCCCCCCCCCCCCCC(=O)[O-]
REMARK SMILES IDX 15 1 16 2 17 3 18 4 19 5 20 6 21 7 22 8 23 9 24 10 25 11
REMARK SMILES IDX 26 12 27 13 28 14 29 15 30 16 14 17 13 18 12 19 11 20 10 21
REMARK SMILES IDX 9 22 8 23 7 24 6 25 5 26 4 27 3 28 2 29 1 30
REMARK H PARENT
REMARK Flexibility Score: inf
ROOT
ATOM      1  C   UNL     1       3.030  32.561  67.368  1.00  0.00     0.000 C 
ENDROOT
BRANCH   1   2
ATOM      2  C   UNL     1       4.391  32.087  67.891  1.00  0.00     0.000 C 
BRANCH   2   3
ATOM      3  C   UNL     1       4.329  30.621  68.348  1.00  0.00     0.000 C 
BRANCH   3   4
ATOM      4  C   UNL     1       4.869  30.424  69.773  1.00  0.00     0.000 C 
BRANCH   4   5
ATOM      5  C   UNL     1       6.341  29.978  69.792  1.00  0.00     0.000 C 
BRANCH   5   6
ATOM      6  C   UNL     1       6.936  29.970  71.209  1.00  0.00     0.000 C 
BRANCH   6   7
ATOM      7  C   UNL     1       7.701  31.266  71.535  1.00  0.00     0.000 C 
BRANCH   7   8
ATOM      8  C   UNL     1       6.817  32.319  72.220  1.00  0.00     0.000 C 
BRANCH   8   9
ATOM      9  C   UNL     1       7.009  33.728  71.632  1.00  0.00     0.000 C 
BRANCH   9  10
ATOM     10  C   UNL     1       6.207  33.931  70.328  1.00  0.00     0.000 C 
BRANCH  10  11
ATOM     11  C   UNL     1       6.951  34.758  69.261  1.00  0.00     0.000 C 
BRANCH  11  12
ATOM     12  C   UNL     1       8.084  34.013  68.531  1.00  0.00     0.006 C 
BRANCH  12  13
ATOM     13  C   UNL     1       7.647  33.320  67.231  1.00  0.00     0.053 C 
BRANCH  13  14
ATOM     14  C   UNL     1       8.302  31.983  67.065  1.00  0.00     0.041 C 
ATOM     15  O   UNL     1       7.692  31.045  66.487  1.00  0.00    -0.550 OA
ATOM     16  O   UNL     1       9.596  31.782  67.526  1.00  0.00    -0.550 OA
ENDBRANCH  13  14
ENDBRANCH  12  13
ENDBRANCH  11  12
ENDBRANCH  10  11
ENDBRANCH   9  10
ENDBRANCH   8   9
ENDBRANCH   7   8
ENDBRANCH   6   7
ENDBRANCH   5   6
ENDBRANCH   4   5
ENDBRANCH   3   4
ENDBRANCH   2   3
ENDBRANCH   1   2
BRANCH   1  17
ATOM     17  C   UNL     1       2.025  31.399  67.336  1.00  0.00     0.000 C 
BRANCH  17  18
ATOM     18  C   UNL     1       0.575  31.848  67.591  1.00  0.00     0.000 C 
BRANCH  18  19
ATOM     19  C   UNL     1      -0.077  31.264  68.861  1.00  0.00     0.000 C 
BRANCH  19  20
ATOM     20  C   UNL     1       0.824  30.322  69.684  1.00  0.00     0.000 C 
BRANCH  20  21
ATOM     21  C   UNL     1       1.332  30.906  71.017  1.00  0.00     0.000 C 
BRANCH  21  22
ATOM     22  C   UNL     1       1.230  32.436  71.141  1.00  0.00    -0.000 C 
BRANCH  22  23
ATOM     23  C   UNL     1       2.549  33.150  70.800  1.00  0.00    -0.000 C 
BRANCH  23  24
ATOM     24  C   UNL     1       2.501  34.667  71.069  1.00  0.00    -0.000 C 
BRANCH  24  25
ATOM     25  C   UNL     1       2.929  35.555  69.886  1.00  0.00    -0.000 C 
BRANCH  25  26
ATOM     26  C   UNL     1       1.866  36.598  69.502  1.00  0.00    -0.000 C 
BRANCH  26  27
ATOM     27  C   UNL     1       0.488  35.970  69.238  1.00  0.00    -0.000 C 
BRANCH  27  28
ATOM     28  C   UNL     1       0.470  35.101  67.971  1.00  0.00    -0.000 C 
BRANCH  28  29
ATOM     29  C   UNL     1       1.043  35.864  66.772  1.00  0.00    -0.003 C 
ATOM     30  C   UNL     1       0.128  37.014  66.363  1.00  0.00     0.004 C 
ENDBRANCH  28  29
ENDBRANCH  27  28
ENDBRANCH  26  27
ENDBRANCH  25  26
ENDBRANCH  24  25
ENDBRANCH  23  24
ENDBRANCH  22  23
ENDBRANCH  21  22
ENDBRANCH  20  21
ENDBRANCH  19  20
ENDBRANCH  18  19
ENDBRANCH  17  18
ENDBRANCH   1  17
TORSDOF 26
ENDMDL
MODEL 7
REMARK VINA RESULT:    -4.036     12.555     16.185
REMARK INTER + INTRA:         -14.697
REMARK INTER:                 -12.967
REMARK INTRA:                  -1.730
REMARK UNBOUND:                -4.527
REMARK SMILES CCCCCCCCCCCCCCCCCCCCCCCCCCCC(=O)[O-]
REMARK SMILES IDX 15 1 16 2 17 3 18 4 19 5 20 6 21 7 22 8 23 9 24 10 25 11
REMARK SMILES IDX 26 12 27 13 28 14 29 15 30 16 14 17 13 18 12 19 11 20 10 21
REMARK SMILES IDX 9 22 8 23 7 24 6 25 5 26 4 27 3 28 2 29 1 30
REMARK H PARENT
REMARK Flexibility Score: inf
ROOT
ATOM      1  C   UNL     1       7.810  48.403  69.973  1.00  0.00     0.000 C 
ENDROOT
BRANCH   1   2
ATOM      2  C   UNL     1       8.793  48.265  71.142  1.00  0.00     0.000 C 
BRANCH   2   3
ATOM      3  C   UNL     1      10.138  48.931  70.815  1.00  0.00     0.000 C 
BRANCH   3   4
ATOM      4  C   UNL     1      11.334  48.168  71.406  1.00  0.00     0.000 C 
BRANCH   4   5
ATOM      5  C   UNL     1      11.104  47.746  72.867  1.00  0.00     0.000 C 
BRANCH   5   6
ATOM      6  C   UNL     1      12.230  48.216  73.800  1.00  0.00     0.000 C 
BRANCH   6   7
ATOM      7  C   UNL     1      13.043  47.044  74.382  1.00  0.00     0.000 C 
BRANCH   7   8
ATOM      8  C   UNL     1      12.164  45.837  74.743  1.00  0.00     0.000 C 
BRANCH   8   9
ATOM      9  C   UNL     1      12.914  44.785  75.578  1.00  0.00     0.000 C 
BRANCH   9  10
ATOM     10  C   UNL     1      14.128  44.197  74.824  1.00  0.00     0.000 C 
BRANCH  10  11
ATOM     11  C   UNL     1      13.960  42.716  74.433  1.00  0.00     0.000 C 
BRANCH  11  12
ATOM     12  C   UNL     1      15.133  42.114  73.637  1.00  0.00     0.006 C 
BRANCH  12  13
ATOM     13  C   UNL     1      16.484  42.801  73.887  1.00  0.00     0.053 C 
BRANCH  13  14
ATOM     14  C   UNL     1      17.429  41.914  74.638  1.00  0.00     0.041 C 
ATOM     15  O   UNL     1      17.677  42.136  75.852  1.00  0.00    -0.550 OA
ATOM     16  O   UNL     1      18.013  40.827  74.003  1.00  0.00    -0.550 OA
ENDBRANCH  13  14
ENDBRANCH  12  13
ENDBRANCH  11  12
ENDBRANCH  10  11
ENDBRANCH   9  10
ENDBRANCH   8   9
ENDBRANCH   7   8
ENDBRANCH   6   7
ENDBRANCH   5   6
ENDBRANCH   4   5
ENDBRANCH   3   4
ENDBRANCH   2   3
ENDBRANCH   1   2
BRANCH   1  17
ATOM     17  C   UNL     1       6.945  47.140  69.838  1.00  0.00     0.000 C 
BRANCH  17  18
ATOM     18  C   UNL     1       5.823  47.286  68.794  1.00  0.00     0.000 C 
BRANCH  18  19
ATOM     19  C   UNL     1       5.890  48.567  67.937  1.00  0.00     0.000 C 
BRANCH  19  20
ATOM     20  C   UNL     1       5.109  48.508  66.610  1.00  0.00     0.000 C 
BRANCH  20  21
ATOM     21  C   UNL     1       5.800  47.719  65.480  1.00  0.00     0.000 C 
BRANCH  21  22
ATOM     22  C   UNL     1       4.867  46.832  64.637  1.00  0.00    -0.000 C 
BRANCH  22  23
ATOM     23  C   UNL     1       3.722  46.221  65.461  1.00  0.00    -0.000 C 
BRANCH  23  24
ATOM     24  C   UNL     1       3.311  44.817  64.975  1.00  0.00    -0.000 C 
BRANCH  24  25
ATOM     25  C   UNL     1       3.266  43.733  66.068  1.00  0.00    -0.000 C 
BRANCH  25  26
ATOM     26  C   UNL     1       2.483  44.172  67.318  1.00  0.00    -0.000 C 
BRANCH  26  27
ATOM     27  C   UNL     1       3.333  44.123  68.598  1.00  0.00    -0.000 C 
BRANCH  27  28
ATOM     28  C   UNL     1       2.858  43.038  69.577  1.00  0.00    -0.000 C 
BRANCH  28  29
ATOM     29  C   UNL     1       3.303  43.358  71.009  1.00  0.00    -0.003 C 
ATOM     30  C   UNL     1       4.594  44.169  71.017  1.00  0.00     0.004 C 
ENDBRANCH  28  29
ENDBRANCH  27  28
ENDBRANCH  26  27
ENDBRANCH  25  26
ENDBRANCH  24  25
ENDBRANCH  23  24
ENDBRANCH  22  23
ENDBRANCH  21  22
ENDBRANCH  20  21
ENDBRANCH  19  20
ENDBRANCH  18  19
ENDBRANCH  17  18
ENDBRANCH   1  17
TORSDOF 26
ENDMDL
MODEL 8
REMARK VINA RESULT:    -4.031      1.997      6.659
REMARK INTER + INTRA:         -14.685
REMARK INTER:                  -9.762
REMARK INTRA:                  -4.923
REMARK UNBOUND:                -4.527
REMARK SMILES CCCCCCCCCCCCCCCCCCCCCCCCCCCC(=O)[O-]
REMARK SMILES IDX 15 1 16 2 17 3 18 4 19 5 20 6 21 7 22 8 23 9 24 10 25 11
REMARK SMILES IDX 26 12 27 13 28 14 29 15 30 16 14 17 13 18 12 19 11 20 10 21
REMARK SMILES IDX 9 22 8 23 7 24 6 25 5 26 4 27 3 28 2 29 1 30
REMARK H PARENT
REMARK Flexibility Score: inf
ROOT
ATOM      1  C   UNL     1       5.706  34.013  68.023  1.00  0.00     0.000 C 
ENDROOT
BRANCH   1   2
ATOM      2  C   UNL     1       6.981  34.183  67.188  1.00  0.00     0.000 C 
BRANCH   2   3
ATOM      3  C   UNL     1       8.234  33.868  68.020  1.00  0.00     0.000 C 
BRANCH   3   4
ATOM      4  C   UNL     1       8.613  32.380  67.977  1.00  0.00     0.000 C 
BRANCH   4   5
ATOM      5  C   UNL     1       8.375  31.747  66.596  1.00  0.00     0.000 C 
BRANCH   5   6
ATOM      6  C   UNL     1       7.270  30.680  66.618  1.00  0.00     0.000 C 
BRANCH   6   7
ATOM      7  C   UNL     1       6.878  30.266  68.049  1.00  0.00     0.000 C 
BRANCH   7   8
ATOM      8  C   UNL     1       5.385  29.926  68.177  1.00  0.00     0.000 C 
BRANCH   8   9
ATOM      9  C   UNL     1       4.877  30.023  69.626  1.00  0.00     0.000 C 
BRANCH   9  10
ATOM     10  C   UNL     1       6.003  30.389  70.618  1.00  0.00     0.000 C 
BRANCH  10  11
ATOM     11  C   UNL     1       5.901  31.822  71.176  1.00  0.00     0.000 C 
BRANCH  11  12
ATOM     12  C   UNL     1       7.245  32.559  71.331  1.00  0.00     0.006 C 
BRANCH  12  13
ATOM     13  C   UNL     1       7.661  32.811  72.788  1.00  0.00     0.053 C 
BRANCH  13  14
ATOM     14  C   UNL     1       7.401  31.618  73.656  1.00  0.00     0.041 C 
ATOM     15  O   UNL     1       6.359  31.561  74.361  1.00  0.00    -0.550 OA
ATOM     16  O   UNL     1       8.297  30.558  73.665  1.00  0.00    -0.550 OA
ENDBRANCH  13  14
ENDBRANCH  12  13
ENDBRANCH  11  12
ENDBRANCH  10  11
ENDBRANCH   9  10
ENDBRANCH   8   9
ENDBRANCH   7   8
ENDBRANCH   6   7
ENDBRANCH   5   6
ENDBRANCH   4   5
ENDBRANCH   3   4
ENDBRANCH   2   3
ENDBRANCH   1   2
BRANCH   1  17
ATOM     17  C   UNL     1       4.559  33.466  67.159  1.00  0.00     0.000 C 
BRANCH  17  18
ATOM     18  C   UNL     1       3.368  32.956  67.990  1.00  0.00     0.000 C 
BRANCH  18  19
ATOM     19  C   UNL     1       2.377  32.054  67.226  1.00  0.00     0.000 C 
BRANCH  19  20
ATOM     20  C   UNL     1       0.889  32.299  67.546  1.00  0.00     0.000 C 
BRANCH  20  21
ATOM     21  C   UNL     1       0.300  31.390  68.642  1.00  0.00     0.000 C 
BRANCH  21  22
ATOM     22  C   UNL     1       1.322  30.840  69.653  1.00  0.00    -0.000 C 
BRANCH  22  23
ATOM     23  C   UNL     1       1.094  31.370  71.079  1.00  0.00    -0.000 C 
BRANCH  23  24
ATOM     24  C   UNL     1       1.104  32.909  71.159  1.00  0.00    -0.000 C 
BRANCH  24  25
ATOM     25  C   UNL     1       2.474  33.568  70.913  1.00  0.00    -0.000 C 
BRANCH  25  26
ATOM     26  C   UNL     1       2.439  35.099  71.059  1.00  0.00    -0.000 C 
BRANCH  26  27
ATOM     27  C   UNL     1       2.280  35.820  69.711  1.00  0.00    -0.000 C 
BRANCH  27  28
ATOM     28  C   UNL     1       0.828  36.236  69.434  1.00  0.00    -0.000 C 
BRANCH  28  29
ATOM     29  C   UNL     1       0.394  35.814  68.025  1.00  0.00    -0.003 C 
ATOM     30  C   UNL     1       1.514  36.035  67.014  1.00  0.00     0.004 C 
ENDBRANCH  28  29
ENDBRANCH  27  28
ENDBRANCH  26  27
ENDBRANCH  25  26
ENDBRANCH  24  25
ENDBRANCH  23  24
ENDBRANCH  22  23
ENDBRANCH  21  22
ENDBRANCH  20  21
ENDBRANCH  19  20
ENDBRANCH  18  19
ENDBRANCH  17  18
ENDBRANCH   1  17
TORSDOF 26
ENDMDL
MODEL 9
REMARK VINA RESULT:    -3.971     15.835     18.061
REMARK INTER + INTRA:         -14.534
REMARK INTER:                 -10.220
REMARK INTRA:                  -4.315
REMARK UNBOUND:                -4.527
REMARK SMILES CCCCCCCCCCCCCCCCCCCCCCCCCCCC(=O)[O-]
REMARK SMILES IDX 15 1 16 2 17 3 18 4 19 5 20 6 21 7 22 8 23 9 24 10 25 11
REMARK SMILES IDX 26 12 27 13 28 14 29 15 30 16 14 17 13 18 12 19 11 20 10 21
REMARK SMILES IDX 9 22 8 23 7 24 6 25 5 26 4 27 3 28 2 29 1 30
REMARK H PARENT
REMARK Flexibility Score: inf
ROOT
ATOM      1  C   UNL     1      15.221  43.114  74.077  1.00  0.00     0.000 C 
ENDROOT
BRANCH   1   2
ATOM      2  C   UNL     1      15.681  44.502  73.618  1.00  0.00     0.000 C 
BRANCH   2   3
ATOM      3  C   UNL     1      15.584  45.523  74.761  1.00  0.00     0.000 C 
BRANCH   3   4
ATOM      4  C   UNL     1      16.899  46.285  74.987  1.00  0.00     0.000 C 
BRANCH   4   5
ATOM      5  C   UNL     1      17.788  46.317  73.732  1.00  0.00     0.000 C 
BRANCH   5   6
ATOM      6  C   UNL     1      18.265  47.735  73.384  1.00  0.00     0.000 C 
BRANCH   6   7
ATOM      7  C   UNL     1      17.659  48.256  72.068  1.00  0.00     0.000 C 
BRANCH   7   8
ATOM      8  C   UNL     1      16.170  48.609  72.201  1.00  0.00     0.000 C 
BRANCH   8   9
ATOM      9  C   UNL     1      15.918  49.751  73.201  1.00  0.00     0.000 C 
BRANCH   9  10
ATOM     10  C   UNL     1      14.927  49.346  74.314  1.00  0.00     0.000 C 
BRANCH  10  11
ATOM     11  C   UNL     1      13.591  48.788  73.785  1.00  0.00     0.000 C 
BRANCH  11  12
ATOM     12  C   UNL     1      12.647  48.222  74.863  1.00  0.00     0.006 C 
BRANCH  12  13
ATOM     13  C   UNL     1      11.746  47.078  74.376  1.00  0.00     0.053 C 
BRANCH  13  14
ATOM     14  C   UNL     1      11.581  46.016  75.418  1.00  0.00     0.041 C 
ATOM     15  O   UNL     1      10.778  46.183  76.374  1.00  0.00    -0.550 OA
ATOM     16  O   UNL     1      12.295  44.828  75.319  1.00  0.00    -0.550 OA
ENDBRANCH  13  14
ENDBRANCH  12  13
ENDBRANCH  11  12
ENDBRANCH  10  11
ENDBRANCH   9  10
ENDBRANCH   8   9
ENDBRANCH   7   8
ENDBRANCH   6   7
ENDBRANCH   5   6
ENDBRANCH   4   5
ENDBRANCH   3   4
ENDBRANCH   2   3
ENDBRANCH   1   2
BRANCH   1  17
ATOM     17  C   UNL     1      16.418  42.160  74.213  1.00  0.00     0.000 C 
BRANCH  17  18
ATOM     18  C   UNL     1      17.721  42.740  73.634  1.00  0.00     0.000 C 
BRANCH  18  19
ATOM     19  C   UNL     1      18.975  41.868  73.848  1.00  0.00     0.000 C 
BRANCH  19  20
ATOM     20  C   UNL     1      19.874  42.293  75.026  1.00  0.00     0.000 C 
BRANCH  20  21
ATOM     21  C   UNL     1      19.532  43.662  75.647  1.00  0.00     0.000 C 
BRANCH  21  22
ATOM     22  C   UNL     1      19.087  43.617  77.119  1.00  0.00    -0.000 C 
BRANCH  22  23
ATOM     23  C   UNL     1      17.926  42.638  77.361  1.00  0.00    -0.000 C 
BRANCH  23  24
ATOM     24  C   UNL     1      18.221  41.618  78.479  1.00  0.00    -0.000 C 
BRANCH  24  25
ATOM     25  C   UNL     1      18.671  40.227  77.994  1.00  0.00    -0.000 C 
BRANCH  25  26
ATOM     26  C   UNL     1      17.851  39.713  76.798  1.00  0.00    -0.000 C 
BRANCH  26  27
ATOM     27  C   UNL     1      18.574  38.606  76.015  1.00  0.00    -0.000 C 
BRANCH  27  28
ATOM     28  C   UNL     1      19.323  37.628  76.933  1.00  0.00    -0.000 C 
BRANCH  28  29
ATOM     29  C   UNL     1      19.392  36.230  76.309  1.00  0.00    -0.003 C 
ATOM     30  C   UNL     1      19.941  36.288  74.887  1.00  0.00     0.004 C 
ENDBRANCH  28  29
ENDBRANCH  27  28
ENDBRANCH  26  27
ENDBRANCH  25  26
ENDBRANCH  24  25
ENDBRANCH  23  24
ENDBRANCH  22  23
ENDBRANCH  21  22
ENDBRANCH  20  21
ENDBRANCH  19  20
ENDBRANCH  18  19
ENDBRANCH  17  18
ENDBRANCH   1  17
TORSDOF 26
ENDMDL
