MODEL 1
REMARK VINA RESULT:    -5.095      0.000      0.000
REMARK INTER + INTRA:          -9.568
REMARK INTER:                  -8.967
REMARK INTRA:                  -0.601
REMARK UNBOUND:                -0.601
REMARK SMILES CCCCCCC=CCCCCCCCC(=O)[O-]
REMARK SMILES IDX 10 1 11 2 12 3 13 4 14 5 15 6 16 7 17 8 18 9 9 10 8 11 7 12
REMARK SMILES IDX 6 13 5 14 4 15 3 16 2 17 1 18
REMARK H PARENT
REMARK Flexibility Score: inf
ROOT
ATOM      1  C   UNL     1      25.191  52.309  37.890  1.00  0.00     0.004 C 
ENDROOT
BRANCH   1   2
ATOM      2  C   UNL     1      26.015  53.351  37.113  1.00  0.00     0.000 C 
BRANCH   2   3
ATOM      3  C   UNL     1      26.959  54.161  38.014  1.00  0.00     0.000 C 
BRANCH   3   4
ATOM      4  C   UNL     1      28.168  53.316  38.445  1.00  0.00     0.000 C 
BRANCH   4   5
ATOM      5  C   UNL     1      29.371  54.176  38.865  1.00  0.00     0.006 C 
BRANCH   5   6
ATOM      6  C   UNL     1      29.023  55.668  38.966  1.00  0.00     0.053 C 
BRANCH   6   7
ATOM      7  C   UNL     1      29.938  56.351  39.933  1.00  0.00     0.041 C 
ATOM      8  O   UNL     1      30.985  55.774  40.331  1.00  0.00    -0.550 OA
ATOM      9  O   UNL     1      29.611  57.606  40.431  1.00  0.00    -0.550 OA
ENDBRANCH   6   7
ENDBRANCH   5   6
ENDBRANCH   4   5
ENDBRANCH   3   4
ENDBRANCH   2   3
ENDBRANCH   1   2
BRANCH   1  10
ATOM     10  C   UNL     1      24.376  51.352  37.002  1.00  0.00     0.027 C 
BRANCH  10  11
ATOM     11  C   UNL     1      25.001  49.979  36.914  1.00  0.00    -0.031 C 
ATOM     12  C   UNL     1      24.514  48.959  36.181  1.00  0.00    -0.031 C 
BRANCH  12  13
ATOM     13  C   UNL     1      23.221  49.001  35.409  1.00  0.00     0.027 C 
BRANCH  13  14
ATOM     14  C   UNL     1      22.108  48.267  36.168  1.00  0.00     0.004 C 
BRANCH  14  15
ATOM     15  C   UNL     1      20.773  49.016  36.043  1.00  0.00     0.000 C 
BRANCH  15  16
ATOM     16  C   UNL     1      19.775  48.655  37.158  1.00  0.00    -0.000 C 
BRANCH  16  17
ATOM     17  C   UNL     1      18.300  48.948  36.827  1.00  0.00    -0.003 C 
ATOM     18  C   UNL     1      17.499  47.689  36.494  1.00  0.00     0.004 C 
ENDBRANCH  16  17
ENDBRANCH  15  16
ENDBRANCH  14  15
ENDBRANCH  13  14
ENDBRANCH  12  13
ENDBRANCH  10  11
ENDBRANCH   1  10
TORSDOF 13
ENDMDL
MODEL 2
REMARK VINA RESULT:    -5.020      4.777     10.668
REMARK INTER + INTRA:          -9.437
REMARK INTER:                  -8.891
REMARK INTRA:                  -0.546
REMARK UNBOUND:                -0.601
REMARK SMILES CCCCCCC=CCCCCCCCC(=O)[O-]
REMARK SMILES IDX 10 1 11 2 12 3 13 4 14 5 15 6 16 7 17 8 18 9 9 10 8 11 7 12
REMARK SMILES IDX 6 13 5 14 4 15 3 16 2 17 1 18
REMARK H PARENT
REMARK Flexibility Score: inf
ROOT
ATOM      1  C   UNL     1      26.533  53.752  37.388  1.00  0.00     0.004 C 
ENDROOT
BRANCH   1   2
ATOM      2  C   UNL     1      25.568  52.760  38.060  1.00  0.00     0.000 C 
BRANCH   2   3
ATOM      3  C   UNL     1      24.926  51.781  37.066  1.00  0.00     0.000 C 
BRANCH   3   4
ATOM      4  C   UNL     1      25.772  50.507  36.925  1.00  0.00     0.000 C 
BRANCH   4   5
ATOM      5  C   UNL     1      24.939  49.288  36.496  1.00  0.00     0.006 C 
BRANCH   5   6
ATOM      6  C   UNL     1      23.497  49.660  36.123  1.00  0.00     0.053 C 
BRANCH   6   7
ATOM      7  C   UNL     1      22.850  48.542  35.369  1.00  0.00     0.041 C 
ATOM      8  O   UNL     1      23.538  47.567  34.966  1.00  0.00    -0.550 OA
ATOM      9  O   UNL     1      21.494  48.600  35.069  1.00  0.00    -0.550 OA
ENDBRANCH   6   7
ENDBRANCH   5   6
ENDBRANCH   4   5
ENDBRANCH   3   4
ENDBRANCH   2   3
ENDBRANCH   1   2
BRANCH   1  10
ATOM     10  C   UNL     1      27.313  54.646  38.368  1.00  0.00     0.027 C 
BRANCH  10  11
ATOM     11  C   UNL     1      28.749  54.206  38.526  1.00  0.00    -0.031 C 
ATOM     12  C   UNL     1      29.692  54.890  39.204  1.00  0.00    -0.031 C 
BRANCH  12  13
ATOM     13  C   UNL     1      29.482  56.244  39.830  1.00  0.00     0.027 C 
BRANCH  13  14
ATOM     14  C   UNL     1      29.938  57.361  38.884  1.00  0.00     0.004 C 
BRANCH  14  15
ATOM     15  C   UNL     1      29.211  58.677  39.197  1.00  0.00     0.000 C 
BRANCH  15  16
ATOM     16  C   UNL     1      29.444  59.762  38.129  1.00  0.00    -0.000 C 
BRANCH  16  17
ATOM     17  C   UNL     1      29.198  61.204  38.606  1.00  0.00    -0.003 C 
ATOM     18  C   UNL     1      30.472  62.048  38.646  1.00  0.00     0.004 C 
ENDBRANCH  16  17
ENDBRANCH  15  16
ENDBRANCH  14  15
ENDBRANCH  13  14
ENDBRANCH  12  13
ENDBRANCH  10  11
ENDBRANCH   1  10
TORSDOF 13
ENDMDL
MODEL 3
REMARK VINA RESULT:    -4.812      2.971      5.514
REMARK INTER + INTRA:          -9.070
REMARK INTER:                  -7.924
REMARK INTRA:                  -1.146
REMARK UNBOUND:                -0.601
REMARK SMILES CCCCCCC=CCCCCCCCC(=O)[O-]
REMARK SMILES IDX 10 1 11 2 12 3 13 4 14 5 15 6 16 7 17 8 18 9 9 10 8 11 7 12
REMARK SMILES IDX 6 13 5 14 4 15 3 16 2 17 1 18
REMARK H PARENT
REMARK Flexibility Score: inf
ROOT
ATOM      1  C   UNL     1      25.075  52.985  36.831  1.00  0.00     0.004 C 
ENDROOT
BRANCH   1   2
ATOM      2  C   UNL     1      26.376  53.797  36.960  1.00  0.00     0.000 C 
BRANCH   2   3
ATOM      3  C   UNL     1      26.918  53.836  38.397  1.00  0.00     0.000 C 
BRANCH   3   4
ATOM      4  C   UNL     1      28.298  53.167  38.483  1.00  0.00     0.000 C 
BRANCH   4   5
ATOM      5  C   UNL     1      29.423  54.169  38.785  1.00  0.00     0.006 C 
BRANCH   5   6
ATOM      6  C   UNL     1      28.893  55.574  39.103  1.00  0.00     0.053 C 
BRANCH   6   7
ATOM      7  C   UNL     1      29.882  56.328  39.934  1.00  0.00     0.041 C 
ATOM      8  O   UNL     1      29.647  57.518  40.277  1.00  0.00    -0.550 OA
ATOM      9  O   UNL     1      31.086  55.733  40.292  1.00  0.00    -0.550 OA
ENDBRANCH   6   7
ENDBRANCH   5   6
ENDBRANCH   4   5
ENDBRANCH   3   4
ENDBRANCH   2   3
ENDBRANCH   1   2
BRANCH   1  10
ATOM     10  C   UNL     1      25.004  51.746  37.741  1.00  0.00     0.027 C 
BRANCH  10  11
ATOM     11  C   UNL     1      24.447  50.539  37.024  1.00  0.00    -0.031 C 
ATOM     12  C   UNL     1      25.191  49.550  36.493  1.00  0.00    -0.031 C 
BRANCH  12  13
ATOM     13  C   UNL     1      26.698  49.540  36.453  1.00  0.00     0.027 C 
BRANCH  13  14
ATOM     14  C   UNL     1      27.226  48.134  36.144  1.00  0.00     0.004 C 
BRANCH  14  15
ATOM     15  C   UNL     1      28.761  48.109  36.162  1.00  0.00     0.000 C 
BRANCH  15  16
ATOM     16  C   UNL     1      29.374  49.317  36.894  1.00  0.00    -0.000 C 
BRANCH  16  17
ATOM     17  C   UNL     1      30.434  48.965  37.953  1.00  0.00    -0.003 C 
ATOM     18  C   UNL     1      30.708  50.107  38.931  1.00  0.00     0.004 C 
ENDBRANCH  16  17
ENDBRANCH  15  16
ENDBRANCH  14  15
ENDBRANCH  13  14
ENDBRANCH  12  13
ENDBRANCH  10  11
ENDBRANCH   1  10
TORSDOF 13
ENDMDL
MODEL 4
REMARK VINA RESULT:    -4.730      4.842      8.729
REMARK INTER + INTRA:          -8.925
REMARK INTER:                  -7.897
REMARK INTRA:                  -1.028
REMARK UNBOUND:                -0.601
REMARK SMILES CCCCCCC=CCCCCCCCC(=O)[O-]
REMARK SMILES IDX 10 1 11 2 12 3 13 4 14 5 15 6 16 7 17 8 18 9 9 10 8 11 7 12
REMARK SMILES IDX 6 13 5 14 4 15 3 16 2 17 1 18
REMARK H PARENT
REMARK Flexibility Score: inf
ROOT
ATOM      1  C   UNL     1      30.090  48.932  36.896  1.00  0.00     0.004 C 
ENDROOT
BRANCH   1   2
ATOM      2  C   UNL     1      28.815  48.353  36.260  1.00  0.00     0.000 C 
BRANCH   2   3
ATOM      3  C   UNL     1      27.587  49.256  36.449  1.00  0.00     0.000 C 
BRANCH   3   4
ATOM      4  C   UNL     1      26.325  48.599  35.870  1.00  0.00     0.000 C 
BRANCH   4   5
ATOM      5  C   UNL     1      25.095  48.782  36.774  1.00  0.00     0.006 C 
BRANCH   5   6
ATOM      6  C   UNL     1      23.945  49.511  36.065  1.00  0.00     0.053 C 
BRANCH   6   7
ATOM      7  C   UNL     1      22.905  48.533  35.619  1.00  0.00     0.041 C 
ATOM      8  O   UNL     1      21.709  48.665  35.994  1.00  0.00    -0.550 OA
ATOM      9  O   UNL     1      23.264  47.449  34.828  1.00  0.00    -0.550 OA
ENDBRANCH   6   7
ENDBRANCH   5   6
ENDBRANCH   4   5
ENDBRANCH   3   4
ENDBRANCH   2   3
ENDBRANCH   1   2
BRANCH   1  10
ATOM     10  C   UNL     1      29.926  49.377  38.361  1.00  0.00     0.027 C 
BRANCH  10  11
ATOM     11  C   UNL     1      31.045  50.285  38.813  1.00  0.00    -0.031 C 
ATOM     12  C   UNL     1      30.891  51.575  39.168  1.00  0.00    -0.031 C 
BRANCH  12  13
ATOM     13  C   UNL     1      29.594  52.338  39.081  1.00  0.00     0.027 C 
BRANCH  13  14
ATOM     14  C   UNL     1      29.854  53.843  38.943  1.00  0.00     0.004 C 
BRANCH  14  15
ATOM     15  C   UNL     1      28.538  54.612  38.758  1.00  0.00     0.000 C 
BRANCH  15  16
ATOM     16  C   UNL     1      27.576  53.929  37.768  1.00  0.00    -0.000 C 
BRANCH  16  17
ATOM     17  C   UNL     1      26.157  53.681  38.308  1.00  0.00    -0.003 C 
ATOM     18  C   UNL     1      25.378  52.647  37.496  1.00  0.00     0.004 C 
ENDBRANCH  16  17
ENDBRANCH  15  16
ENDBRANCH  14  15
ENDBRANCH  13  14
ENDBRANCH  12  13
ENDBRANCH  10  11
ENDBRANCH   1  10
TORSDOF 13
ENDMDL
MODEL 5
REMARK VINA RESULT:    -4.725      4.859      9.110
REMARK INTER + INTRA:          -8.917
REMARK INTER:                  -8.176
REMARK INTRA:                  -0.742
REMARK UNBOUND:                -0.601
REMARK SMILES CCCCCCC=CCCCCCCCC(=O)[O-]
REMARK SMILES IDX 10 1 11 2 12 3 13 4 14 5 15 6 16 7 17 8 18 9 9 10 8 11 7 12
REMARK SMILES IDX 6 13 5 14 4 15 3 16 2 17 1 18
REMARK H PARENT
REMARK Flexibility Score: inf
ROOT
ATOM      1  C   UNL     1      26.068  53.363  38.168  1.00  0.00     0.004 C 
ENDROOT
BRANCH   1   2
ATOM      2  C   UNL     1      25.349  52.502  37.114  1.00  0.00     0.000 C 
BRANCH   2   3
ATOM      3  C   UNL     1      25.113  51.057  37.581  1.00  0.00     0.000 C 
BRANCH   3   4
ATOM      4  C   UNL     1      25.804  50.056  36.644  1.00  0.00     0.000 C 
BRANCH   4   5
ATOM      5  C   UNL     1      24.883  48.895  36.235  1.00  0.00     0.006 C 
BRANCH   5   6
ATOM      6  C   UNL     1      23.433  49.345  36.005  1.00  0.00     0.053 C 
BRANCH   6   7
ATOM      7  C   UNL     1      22.719  48.369  35.124  1.00  0.00     0.041 C 
ATOM      8  O   UNL     1      21.539  48.600  34.749  1.00  0.00    -0.550 OA
ATOM      9  O   UNL     1      23.341  47.182  34.755  1.00  0.00    -0.550 OA
ENDBRANCH   6   7
ENDBRANCH   5   6
ENDBRANCH   4   5
ENDBRANCH   3   4
ENDBRANCH   2   3
ENDBRANCH   1   2
BRANCH   1  10
ATOM     10  C   UNL     1      27.183  54.261  37.603  1.00  0.00     0.027 C 
BRANCH  10  11
ATOM     11  C   UNL     1      27.829  55.112  38.671  1.00  0.00    -0.031 C 
ATOM     12  C   UNL     1      29.109  54.996  39.075  1.00  0.00    -0.031 C 
BRANCH  12  13
ATOM     13  C   UNL     1      30.067  53.939  38.590  1.00  0.00     0.027 C 
BRANCH  13  14
ATOM     14  C   UNL     1      29.695  52.564  39.156  1.00  0.00     0.004 C 
BRANCH  14  15
ATOM     15  C   UNL     1      30.901  51.614  39.126  1.00  0.00     0.000 C 
BRANCH  15  16
ATOM     16  C   UNL     1      30.498  50.128  39.169  1.00  0.00    -0.000 C 
BRANCH  16  17
ATOM     17  C   UNL     1      30.822  49.331  37.894  1.00  0.00    -0.003 C 
ATOM     18  C   UNL     1      29.576  48.925  37.107  1.00  0.00     0.004 C 
ENDBRANCH  16  17
ENDBRANCH  15  16
ENDBRANCH  14  15
ENDBRANCH  13  14
ENDBRANCH  12  13
ENDBRANCH  10  11
ENDBRANCH   1  10
TORSDOF 13
ENDMDL
MODEL 6
REMARK VINA RESULT:    -4.717      3.057      5.029
REMARK INTER + INTRA:          -8.903
REMARK INTER:                  -8.062
REMARK INTRA:                  -0.841
REMARK UNBOUND:                -0.601
REMARK SMILES CCCCCCC=CCCCCCCCC(=O)[O-]
REMARK SMILES IDX 10 1 11 2 12 3 13 4 14 5 15 6 16 7 17 8 18 9 9 10 8 11 7 12
REMARK SMILES IDX 6 13 5 14 4 15 3 16 2 17 1 18
REMARK H PARENT
REMARK Flexibility Score: inf
ROOT
ATOM      1  C   UNL     1      29.855  48.927  37.972  1.00  0.00     0.004 C 
ENDROOT
BRANCH   1   2
ATOM      2  C   UNL     1      31.089  49.769  38.341  1.00  0.00     0.000 C 
BRANCH   2   3
ATOM      3  C   UNL     1      30.828  50.736  39.506  1.00  0.00     0.000 C 
BRANCH   3   4
ATOM      4  C   UNL     1      29.861  51.854  39.086  1.00  0.00     0.000 C 
BRANCH   4   5
ATOM      5  C   UNL     1      30.516  53.244  39.118  1.00  0.00     0.006 C 
BRANCH   5   6
ATOM      6  C   UNL     1      29.497  54.380  38.950  1.00  0.00     0.053 C 
BRANCH   6   7
ATOM      7  C   UNL     1      30.015  55.640  39.571  1.00  0.00     0.041 C 
ATOM      8  O   UNL     1      29.407  56.729  39.395  1.00  0.00    -0.550 OA
ATOM      9  O   UNL     1      31.194  55.619  40.306  1.00  0.00    -0.550 OA
ENDBRANCH   6   7
ENDBRANCH   5   6
ENDBRANCH   4   5
ENDBRANCH   3   4
ENDBRANCH   2   3
ENDBRANCH   1   2
BRANCH   1  10
ATOM     10  C   UNL     1      29.551  48.871  36.464  1.00  0.00     0.027 C 
BRANCH  10  11
ATOM     11  C   UNL     1      28.448  47.891  36.138  1.00  0.00    -0.031 C 
ATOM     12  C   UNL     1      27.137  48.198  36.094  1.00  0.00    -0.031 C 
BRANCH  12  13
ATOM     13  C   UNL     1      26.560  49.543  36.453  1.00  0.00     0.027 C 
BRANCH  13  14
ATOM     14  C   UNL     1      25.029  49.482  36.513  1.00  0.00     0.004 C 
BRANCH  14  15
ATOM     15  C   UNL     1      24.440  50.847  36.898  1.00  0.00     0.000 C 
BRANCH  15  16
ATOM     16  C   UNL     1      25.427  51.725  37.690  1.00  0.00    -0.000 C 
BRANCH  16  17
ATOM     17  C   UNL     1      25.701  53.108  37.073  1.00  0.00    -0.003 C 
ATOM     18  C   UNL     1      26.262  54.113  38.080  1.00  0.00     0.004 C 
ENDBRANCH  16  17
ENDBRANCH  15  16
ENDBRANCH  14  15
ENDBRANCH  13  14
ENDBRANCH  12  13
ENDBRANCH  10  11
ENDBRANCH   1  10
TORSDOF 13
ENDMDL
MODEL 7
REMARK VINA RESULT:    -4.611      5.067      9.760
REMARK INTER + INTRA:          -8.717
REMARK INTER:                  -8.067
REMARK INTRA:                  -0.650
REMARK UNBOUND:                -0.601
REMARK SMILES CCCCCCC=CCCCCCCCC(=O)[O-]
REMARK SMILES IDX 10 1 11 2 12 3 13 4 14 5 15 6 16 7 17 8 18 9 9 10 8 11 7 12
REMARK SMILES IDX 6 13 5 14 4 15 3 16 2 17 1 18
REMARK H PARENT
REMARK Flexibility Score: inf
ROOT
ATOM      1  C   UNL     1      24.287  50.956  36.874  1.00  0.00     0.004 C 
ENDROOT
BRANCH   1   2
ATOM      2  C   UNL     1      25.142  49.718  36.548  1.00  0.00     0.000 C 
BRANCH   2   3
ATOM      3  C   UNL     1      24.306  48.522  36.069  1.00  0.00     0.000 C 
BRANCH   3   4
ATOM      4  C   UNL     1      22.977  48.988  35.457  1.00  0.00     0.000 C 
BRANCH   4   5
ATOM      5  C   UNL     1      21.761  48.579  36.305  1.00  0.00     0.006 C 
BRANCH   5   6
ATOM      6  C   UNL     1      20.431  48.777  35.564  1.00  0.00     0.053 C 
BRANCH   6   7
ATOM      7  C   UNL     1      19.291  48.779  36.532  1.00  0.00     0.041 C 
ATOM      8  O   UNL     1      19.441  49.260  37.687  1.00  0.00    -0.550 OA
ATOM      9  O   UNL     1      18.076  48.207  36.176  1.00  0.00    -0.550 OA
ENDBRANCH   6   7
ENDBRANCH   5   6
ENDBRANCH   4   5
ENDBRANCH   3   4
ENDBRANCH   2   3
ENDBRANCH   1   2
BRANCH   1  10
ATOM     10  C   UNL     1      24.943  51.943  37.854  1.00  0.00     0.027 C 
BRANCH  10  11
ATOM     11  C   UNL     1      25.435  53.194  37.165  1.00  0.00    -0.031 C 
ATOM     12  C   UNL     1      26.599  53.815  37.439  1.00  0.00    -0.031 C 
BRANCH  12  13
ATOM     13  C   UNL     1      27.546  53.411  38.539  1.00  0.00     0.027 C 
BRANCH  13  14
ATOM     14  C   UNL     1      28.800  54.293  38.531  1.00  0.00     0.004 C 
BRANCH  14  15
ATOM     15  C   UNL     1      30.014  53.525  39.073  1.00  0.00     0.000 C 
BRANCH  15  16
ATOM     16  C   UNL     1      29.782  52.005  39.142  1.00  0.00    -0.000 C 
BRANCH  16  17
ATOM     17  C   UNL     1      31.065  51.153  39.154  1.00  0.00    -0.003 C 
ATOM     18  C   UNL     1      30.812  49.685  38.813  1.00  0.00     0.004 C 
ENDBRANCH  16  17
ENDBRANCH  15  16
ENDBRANCH  14  15
ENDBRANCH  13  14
ENDBRANCH  12  13
ENDBRANCH  10  11
ENDBRANCH   1  10
TORSDOF 13
ENDMDL
MODEL 8
REMARK VINA RESULT:    -4.533      1.233      2.103
REMARK INTER + INTRA:          -8.579
REMARK INTER:                  -8.001
REMARK INTRA:                  -0.578
REMARK UNBOUND:                -0.601
REMARK SMILES CCCCCCC=CCCCCCCCC(=O)[O-]
REMARK SMILES IDX 10 1 11 2 12 3 13 4 14 5 15 6 16 7 17 8 18 9 9 10 8 11 7 12
REMARK SMILES IDX 6 13 5 14 4 15 3 16 2 17 1 18
REMARK H PARENT
REMARK Flexibility Score: inf
ROOT
ATOM      1  C   UNL     1      26.089  49.753  36.492  1.00  0.00     0.004 C 
ENDROOT
BRANCH   1   2
ATOM      2  C   UNL     1      26.407  51.071  37.220  1.00  0.00     0.000 C 
BRANCH   2   3
ATOM      3  C   UNL     1      25.155  51.911  37.515  1.00  0.00     0.000 C 
BRANCH   3   4
ATOM      4  C   UNL     1      25.518  53.391  37.708  1.00  0.00     0.000 C 
BRANCH   4   5
ATOM      5  C   UNL     1      27.033  53.641  37.648  1.00  0.00     0.006 C 
BRANCH   5   6
ATOM      6  C   UNL     1      27.453  54.909  38.403  1.00  0.00     0.053 C 
BRANCH   6   7
ATOM      7  C   UNL     1      28.858  54.778  38.901  1.00  0.00     0.041 C 
ATOM      8  O   UNL     1      29.475  53.686  38.777  1.00  0.00    -0.550 OA
ATOM      9  O   UNL     1      29.469  55.846  39.545  1.00  0.00    -0.550 OA
ENDBRANCH   6   7
ENDBRANCH   5   6
ENDBRANCH   4   5
ENDBRANCH   3   4
ENDBRANCH   2   3
ENDBRANCH   1   2
BRANCH   1  10
ATOM     10  C   UNL     1      24.594  49.387  36.462  1.00  0.00     0.027 C 
BRANCH  10  11
ATOM     11  C   UNL     1      24.335  48.098  35.718  1.00  0.00    -0.031 C 
ATOM     12  C   UNL     1      23.213  47.825  35.023  1.00  0.00    -0.031 C 
BRANCH  12  13
ATOM     13  C   UNL     1      22.007  48.726  34.956  1.00  0.00     0.027 C 
BRANCH  13  14
ATOM     14  C   UNL     1      21.186  48.635  36.248  1.00  0.00     0.004 C 
BRANCH  14  15
ATOM     15  C   UNL     1      19.717  49.002  35.991  1.00  0.00     0.000 C 
BRANCH  15  16
ATOM     16  C   UNL     1      18.808  48.730  37.204  1.00  0.00    -0.000 C 
BRANCH  16  17
ATOM     17  C   UNL     1      17.330  48.475  36.862  1.00  0.00    -0.003 C 
ATOM     18  C   UNL     1      17.042  47.020  36.494  1.00  0.00     0.004 C 
ENDBRANCH  16  17
ENDBRANCH  15  16
ENDBRANCH  14  15
ENDBRANCH  13  14
ENDBRANCH  12  13
ENDBRANCH  10  11
ENDBRANCH   1  10
TORSDOF 13
ENDMDL
MODEL 9
REMARK VINA RESULT:    -4.447      4.940     10.123
REMARK INTER + INTRA:          -8.428
REMARK INTER:                  -7.724
REMARK INTRA:                  -0.704
REMARK UNBOUND:                -0.601
REMARK SMILES CCCCCCC=CCCCCCCCC(=O)[O-]
REMARK SMILES IDX 10 1 11 2 12 3 13 4 14 5 15 6 16 7 17 8 18 9 9 10 8 11 7 12
REMARK SMILES IDX 6 13 5 14 4 15 3 16 2 17 1 18
REMARK H PARENT
REMARK Flexibility Score: inf
ROOT
ATOM      1  C   UNL     1      25.494  49.432  36.526  1.00  0.00     0.004 C 
ENDROOT
BRANCH   1   2
ATOM      2  C   UNL     1      23.983  49.483  36.241  1.00  0.00     0.000 C 
BRANCH   2   3
ATOM      3  C   UNL     1      23.501  48.327  35.352  1.00  0.00     0.000 C 
BRANCH   3   4
ATOM      4  C   UNL     1      22.045  48.541  34.911  1.00  0.00     0.000 C 
BRANCH   4   5
ATOM      5  C   UNL     1      21.057  48.479  36.087  1.00  0.00     0.006 C 
BRANCH   5   6
ATOM      6  C   UNL     1      19.598  48.653  35.643  1.00  0.00     0.053 C 
BRANCH   6   7
ATOM      7  C   UNL     1      18.719  48.901  36.828  1.00  0.00     0.041 C 
ATOM      8  O   UNL     1      19.193  49.427  37.870  1.00  0.00    -0.550 OA
ATOM      9  O   UNL     1      17.386  48.508  36.798  1.00  0.00    -0.550 OA
ENDBRANCH   6   7
ENDBRANCH   5   6
ENDBRANCH   4   5
ENDBRANCH   3   4
ENDBRANCH   2   3
ENDBRANCH   1   2
BRANCH   1  10
ATOM     10  C   UNL     1      26.140  50.805  36.787  1.00  0.00     0.027 C 
BRANCH  10  11
ATOM     11  C   UNL     1      25.252  51.709  37.610  1.00  0.00    -0.031 C 
ATOM     12  C   UNL     1      25.438  53.034  37.765  1.00  0.00    -0.031 C 
BRANCH  12  13
ATOM     13  C   UNL     1      26.613  53.802  37.218  1.00  0.00     0.027 C 
BRANCH  13  14
ATOM     14  C   UNL     1      27.458  54.390  38.355  1.00  0.00     0.004 C 
BRANCH  14  15
ATOM     15  C   UNL     1      28.726  53.554  38.583  1.00  0.00     0.000 C 
BRANCH  15  16
ATOM     16  C   UNL     1      29.907  54.386  39.116  1.00  0.00    -0.000 C 
BRANCH  16  17
ATOM     17  C   UNL     1      29.560  55.837  39.492  1.00  0.00    -0.003 C 
ATOM     18  C   UNL     1      30.498  56.424  40.547  1.00  0.00     0.004 C 
ENDBRANCH  16  17
ENDBRANCH  15  16
ENDBRANCH  14  15
ENDBRANCH  13  14
ENDBRANCH  12  13
ENDBRANCH  10  11
ENDBRANCH   1  10
TORSDOF 13
ENDMDL
