MODEL 1
REMARK VINA RESULT:    -5.222      0.000      0.000
REMARK INTER + INTRA:          -6.051
REMARK INTER:                  -5.832
REMARK INTRA:                  -0.219
REMARK UNBOUND:                -0.219
REMARK SMILES CC(C)c1ccc(C(=O)[O-])cc1
REMARK SMILES IDX 7 1 6 2 11 3 5 4 12 5 4 6 8 7 9 8 10 9 2 10 1 11 3 12
REMARK H PARENT
REMARK Flexibility Score: inf
ROOT
ATOM      1  C   UNL     1      20.783 -47.077  67.963  1.00  0.00    -0.003 A 
ATOM      2  C   UNL     1      19.854 -48.071  67.616  1.00  0.00     0.010 A 
ATOM      3  C   UNL     1      20.685 -46.463  69.225  1.00  0.00     0.010 A 
ATOM      4  C   UNL     1      18.847 -48.445  68.510  1.00  0.00     0.004 A 
ATOM      5  C   UNL     1      19.678 -46.838  70.119  1.00  0.00     0.004 A 
ATOM      6  C   UNL     1      18.748 -47.833  69.772  1.00  0.00    -0.045 A 
ENDROOT
BRANCH   1   7
ATOM      7  C   UNL     1      21.848 -46.682  67.014  1.00  0.00     0.071 C 
ATOM      8  O   UNL     1      22.937 -46.210  67.434  1.00  0.00    -0.545 OA
ATOM      9  O   UNL     1      21.660 -46.830  65.645  1.00  0.00    -0.545 OA
ENDBRANCH   1   7
BRANCH   6  10
ATOM     10  C   UNL     1      17.660 -48.230  70.752  1.00  0.00     0.013 C 
ATOM     11  C   UNL     1      16.302 -48.353  70.051  1.00  0.00     0.012 C 
ATOM     12  C   UNL     1      17.588 -47.245  71.925  1.00  0.00     0.012 C 
ENDBRANCH   6  10
TORSDOF 2
ENDMDL
MODEL 2
REMARK VINA RESULT:    -5.211      2.529      4.294
REMARK INTER + INTRA:          -6.038
REMARK INTER:                  -5.835
REMARK INTRA:                  -0.204
REMARK UNBOUND:                -0.219
REMARK SMILES CC(C)c1ccc(C(=O)[O-])cc1
REMARK SMILES IDX 7 1 6 2 11 3 5 4 12 5 4 6 8 7 9 8 10 9 2 10 1 11 3 12
REMARK H PARENT
REMARK Flexibility Score: inf
ROOT
ATOM      1  C   UNL     1      19.970 -47.949  68.500  1.00  0.00    -0.003 A 
ATOM      2  C   UNL     1      20.880 -47.162  67.776  1.00  0.00     0.010 A 
ATOM      3  C   UNL     1      19.693 -47.614  69.838  1.00  0.00     0.010 A 
ATOM      4  C   UNL     1      21.501 -46.063  68.375  1.00  0.00     0.004 A 
ATOM      5  C   UNL     1      20.314 -46.514  70.436  1.00  0.00     0.004 A 
ATOM      6  C   UNL     1      21.225 -45.726  69.713  1.00  0.00    -0.045 A 
ENDROOT
BRANCH   1   7
ATOM      7  C   UNL     1      19.314 -49.113  67.863  1.00  0.00     0.071 C 
ATOM      8  O   UNL     1      18.113 -49.046  67.489  1.00  0.00    -0.545 OA
ATOM      9  O   UNL     1      20.016 -50.296  67.666  1.00  0.00    -0.545 OA
ENDBRANCH   1   7
BRANCH   6  10
ATOM     10  C   UNL     1      21.892 -44.535  70.375  1.00  0.00     0.013 C 
ATOM     11  C   UNL     1      22.351 -43.508  69.333  1.00  0.00     0.012 C 
ATOM     12  C   UNL     1      23.060 -44.980  71.263  1.00  0.00     0.012 C 
ENDBRANCH   6  10
TORSDOF 2
ENDMDL
MODEL 3
REMARK VINA RESULT:    -5.200      6.393      7.405
REMARK INTER + INTRA:          -6.027
REMARK INTER:                  -5.815
REMARK INTRA:                  -0.212
REMARK UNBOUND:                -0.219
REMARK SMILES CC(C)c1ccc(C(=O)[O-])cc1
REMARK SMILES IDX 7 1 6 2 11 3 5 4 12 5 4 6 8 7 9 8 10 9 2 10 1 11 3 12
REMARK H PARENT
REMARK Flexibility Score: inf
ROOT
ATOM      1  C   UNL     1      13.019 -47.473  70.229  1.00  0.00    -0.003 A 
ATOM      2  C   UNL     1      12.259 -48.225  71.140  1.00  0.00     0.010 A 
ATOM      3  C   UNL     1      14.410 -47.381  70.415  1.00  0.00     0.010 A 
ATOM      4  C   UNL     1      12.875 -48.871  72.215  1.00  0.00     0.004 A 
ATOM      5  C   UNL     1      15.025 -48.027  71.491  1.00  0.00     0.004 A 
ATOM      6  C   UNL     1      14.266 -48.780  72.403  1.00  0.00    -0.045 A 
ENDROOT
BRANCH   1   7
ATOM      7  C   UNL     1      12.363 -46.790  69.092  1.00  0.00     0.071 C 
ATOM      8  O   UNL     1      12.143 -47.406  68.015  1.00  0.00    -0.545 OA
ATOM      9  O   UNL     1      11.980 -45.458  69.197  1.00  0.00    -0.545 OA
ENDBRANCH   1   7
BRANCH   6  10
ATOM     10  C   UNL     1      14.948 -49.476  73.565  1.00  0.00     0.013 C 
ATOM     11  C   UNL     1      16.371 -49.909  73.193  1.00  0.00     0.012 C 
ATOM     12  C   UNL     1      14.119 -50.669  74.058  1.00  0.00     0.012 C 
ENDBRANCH   6  10
TORSDOF 2
ENDMDL
MODEL 4
REMARK VINA RESULT:    -5.191      0.186      1.398
REMARK INTER + INTRA:          -6.017
REMARK INTER:                  -5.800
REMARK INTRA:                  -0.217
REMARK UNBOUND:                -0.219
REMARK SMILES CC(C)c1ccc(C(=O)[O-])cc1
REMARK SMILES IDX 7 1 6 2 11 3 5 4 12 5 4 6 8 7 9 8 10 9 2 10 1 11 3 12
REMARK H PARENT
REMARK Flexibility Score: inf
ROOT
ATOM      1  C   UNL     1      20.803 -47.037  67.993  1.00  0.00    -0.003 A 
ATOM      2  C   UNL     1      20.596 -46.252  69.139  1.00  0.00     0.010 A 
ATOM      3  C   UNL     1      19.982 -48.158  67.777  1.00  0.00     0.010 A 
ATOM      4  C   UNL     1      19.590 -46.581  70.051  1.00  0.00     0.004 A 
ATOM      5  C   UNL     1      18.975 -48.485  68.690  1.00  0.00     0.004 A 
ATOM      6  C   UNL     1      18.767 -47.701  69.837  1.00  0.00    -0.045 A 
ENDROOT
BRANCH   1   7
ATOM      7  C   UNL     1      21.871 -46.687  67.029  1.00  0.00     0.071 C 
ATOM      8  O   UNL     1      22.982 -46.253  67.433  1.00  0.00    -0.545 OA
ATOM      9  O   UNL     1      21.661 -46.835  65.663  1.00  0.00    -0.545 OA
ENDBRANCH   1   7
BRANCH   6  10
ATOM     10  C   UNL     1      17.671 -48.068  70.819  1.00  0.00     0.013 C 
ATOM     11  C   UNL     1      16.365 -48.404  70.090  1.00  0.00     0.012 C 
ATOM     12  C   UNL     1      17.456 -46.954  71.850  1.00  0.00     0.012 C 
ENDBRANCH   6  10
TORSDOF 2
ENDMDL
MODEL 5
REMARK VINA RESULT:    -5.155      3.702      5.418
REMARK INTER + INTRA:          -5.976
REMARK INTER:                  -5.756
REMARK INTRA:                  -0.220
REMARK UNBOUND:                -0.219
REMARK SMILES CC(C)c1ccc(C(=O)[O-])cc1
REMARK SMILES IDX 7 1 6 2 11 3 5 4 12 5 4 6 8 7 9 8 10 9 2 10 1 11 3 12
REMARK H PARENT
REMARK Flexibility Score: inf
ROOT
ATOM      1  C   UNL     1      16.520 -47.090  71.057  1.00  0.00    -0.003 A 
ATOM      2  C   UNL     1      15.315 -46.582  70.543  1.00  0.00     0.010 A 
ATOM      3  C   UNL     1      16.477 -48.192  71.929  1.00  0.00     0.010 A 
ATOM      4  C   UNL     1      14.094 -47.164  70.892  1.00  0.00     0.004 A 
ATOM      5  C   UNL     1      15.255 -48.774  72.278  1.00  0.00     0.004 A 
ATOM      6  C   UNL     1      14.049 -48.267  71.764  1.00  0.00    -0.045 A 
ENDROOT
BRANCH   1   7
ATOM      7  C   UNL     1      17.812 -46.471  70.686  1.00  0.00     0.071 C 
ATOM      8  O   UNL     1      18.896 -47.078  70.893  1.00  0.00    -0.545 OA
ATOM      9  O   UNL     1      17.846 -45.211  70.101  1.00  0.00    -0.545 OA
ENDBRANCH   1   7
BRANCH   6  10
ATOM     10  C   UNL     1      12.730 -48.908  72.151  1.00  0.00     0.013 C 
ATOM     11  C   UNL     1      11.672 -47.845  72.473  1.00  0.00     0.012 C 
ATOM     12  C   UNL     1      12.911 -49.879  73.323  1.00  0.00     0.012 C 
ENDBRANCH   6  10
TORSDOF 2
ENDMDL
MODEL 6
REMARK VINA RESULT:    -5.077      6.244      7.627
REMARK INTER + INTRA:          -5.889
REMARK INTER:                  -5.679
REMARK INTRA:                  -0.210
REMARK UNBOUND:                -0.219
REMARK SMILES CC(C)c1ccc(C(=O)[O-])cc1
REMARK SMILES IDX 7 1 6 2 11 3 5 4 12 5 4 6 8 7 9 8 10 9 2 10 1 11 3 12
REMARK H PARENT
REMARK Flexibility Score: inf
ROOT
ATOM      1  C   UNL     1      14.475 -48.869  72.547  1.00  0.00    -0.003 A 
ATOM      2  C   UNL     1      13.075 -48.894  72.442  1.00  0.00     0.010 A 
ATOM      3  C   UNL     1      15.215 -48.113  71.620  1.00  0.00     0.010 A 
ATOM      4  C   UNL     1      12.427 -48.180  71.431  1.00  0.00     0.004 A 
ATOM      5  C   UNL     1      14.565 -47.399  70.609  1.00  0.00     0.004 A 
ATOM      6  C   UNL     1      13.164 -47.424  70.503  1.00  0.00    -0.045 A 
ENDROOT
BRANCH   1   7
ATOM      7  C   UNL     1      15.159 -49.626  73.619  1.00  0.00     0.071 C 
ATOM      8  O   UNL     1      14.622 -50.647  74.125  1.00  0.00    -0.545 OA
ATOM      9  O   UNL     1      16.406 -49.222  74.081  1.00  0.00    -0.545 OA
ENDBRANCH   1   7
BRANCH   6  10
ATOM     10  C   UNL     1      12.473 -46.644  69.400  1.00  0.00     0.013 C 
ATOM     11  C   UNL     1      12.389 -47.467  68.109  1.00  0.00     0.012 C 
ATOM     12  C   UNL     1      13.169 -45.301  69.154  1.00  0.00     0.012 C 
ENDBRANCH   6  10
TORSDOF 2
ENDMDL
MODEL 7
REMARK VINA RESULT:    -5.059      3.575      5.325
REMARK INTER + INTRA:          -5.869
REMARK INTER:                  -5.658
REMARK INTRA:                  -0.211
REMARK UNBOUND:                -0.219
REMARK SMILES CC(C)c1ccc(C(=O)[O-])cc1
REMARK SMILES IDX 7 1 6 2 11 3 5 4 12 5 4 6 8 7 9 8 10 9 2 10 1 11 3 12
REMARK H PARENT
REMARK Flexibility Score: inf
ROOT
ATOM      1  C   UNL     1      16.883 -48.298  71.025  1.00  0.00    -0.003 A 
ATOM      2  C   UNL     1      15.706 -47.846  70.408  1.00  0.00     0.010 A 
ATOM      3  C   UNL     1      16.795 -48.943  72.271  1.00  0.00     0.010 A 
ATOM      4  C   UNL     1      14.465 -48.035  71.022  1.00  0.00     0.004 A 
ATOM      5  C   UNL     1      15.554 -49.132  72.885  1.00  0.00     0.004 A 
ATOM      6  C   UNL     1      14.374 -48.681  72.268  1.00  0.00    -0.045 A 
ENDROOT
BRANCH   1   7
ATOM      7  C   UNL     1      18.196 -48.096  70.372  1.00  0.00     0.071 C 
ATOM      8  O   UNL     1      18.719 -49.015  69.687  1.00  0.00    -0.545 OA
ATOM      9  O   UNL     1      18.870 -46.887  70.505  1.00  0.00    -0.545 OA
ENDBRANCH   1   7
BRANCH   6  10
ATOM     10  C   UNL     1      13.034 -48.892  72.946  1.00  0.00     0.013 C 
ATOM     11  C   UNL     1      12.895 -50.330  73.461  1.00  0.00     0.012 C 
ATOM     12  C   UNL     1      11.877 -48.528  72.009  1.00  0.00     0.012 C 
ENDBRANCH   6  10
TORSDOF 2
ENDMDL
MODEL 8
REMARK VINA RESULT:    -4.943      5.388      7.196
REMARK INTER + INTRA:          -5.739
REMARK INTER:                  -5.524
REMARK INTRA:                  -0.215
REMARK UNBOUND:                -0.219
REMARK SMILES CC(C)c1ccc(C(=O)[O-])cc1
REMARK SMILES IDX 7 1 6 2 11 3 5 4 12 5 4 6 8 7 9 8 10 9 2 10 1 11 3 12
REMARK H PARENT
REMARK Flexibility Score: inf
ROOT
ATOM      1  C   UNL     1      14.281 -48.589  72.191  1.00  0.00    -0.003 A 
ATOM      2  C   UNL     1      14.328 -47.556  71.241  1.00  0.00     0.010 A 
ATOM      3  C   UNL     1      15.487 -49.097  72.706  1.00  0.00     0.010 A 
ATOM      4  C   UNL     1      15.555 -47.041  70.814  1.00  0.00     0.004 A 
ATOM      5  C   UNL     1      16.714 -48.581  72.278  1.00  0.00     0.004 A 
ATOM      6  C   UNL     1      16.762 -47.547  71.327  1.00  0.00    -0.045 A 
ENDROOT
BRANCH   1   7
ATOM      7  C   UNL     1      12.981 -49.133  72.642  1.00  0.00     0.071 C 
ATOM      8  O   UNL     1      12.935 -50.129  73.411  1.00  0.00    -0.545 OA
ATOM      9  O   UNL     1      11.791 -48.551  72.222  1.00  0.00    -0.545 OA
ENDBRANCH   1   7
BRANCH   6  10
ATOM     10  C   UNL     1      18.100 -46.997  70.872  1.00  0.00     0.013 C 
ATOM     11  C   UNL     1      17.917 -45.750  69.997  1.00  0.00     0.012 C 
ATOM     12  C   UNL     1      18.919 -48.068  70.142  1.00  0.00     0.012 C 
ENDBRANCH   6  10
TORSDOF 2
ENDMDL
MODEL 9
REMARK VINA RESULT:    -4.796      1.875      3.081
REMARK INTER + INTRA:          -5.575
REMARK INTER:                  -5.365
REMARK INTRA:                  -0.210
REMARK UNBOUND:                -0.219
REMARK SMILES CC(C)c1ccc(C(=O)[O-])cc1
REMARK SMILES IDX 7 1 6 2 11 3 5 4 12 5 4 6 8 7 9 8 10 9 2 10 1 11 3 12
REMARK H PARENT
REMARK Flexibility Score: inf
ROOT
ATOM      1  C   UNL     1      18.967 -47.660  69.644  1.00  0.00    -0.003 A 
ATOM      2  C   UNL     1      18.996 -47.240  70.984  1.00  0.00     0.010 A 
ATOM      3  C   UNL     1      17.811 -48.292  69.154  1.00  0.00     0.010 A 
ATOM      4  C   UNL     1      17.893 -47.448  71.817  1.00  0.00     0.004 A 
ATOM      5  C   UNL     1      16.709 -48.500  69.987  1.00  0.00     0.004 A 
ATOM      6  C   UNL     1      16.736 -48.080  71.328  1.00  0.00    -0.045 A 
ENDROOT
BRANCH   1   7
ATOM      7  C   UNL     1      20.136 -47.438  68.765  1.00  0.00     0.071 C 
ATOM      8  O   UNL     1      20.841 -46.401  68.885  1.00  0.00    -0.545 OA
ATOM      9  O   UNL     1      20.474 -48.373  67.793  1.00  0.00    -0.545 OA
ENDBRANCH   1   7
BRANCH   6  10
ATOM     10  C   UNL     1      15.533 -48.312  72.222  1.00  0.00     0.013 C 
ATOM     11  C   UNL     1      15.723 -49.559  73.094  1.00  0.00     0.012 C 
ATOM     12  C   UNL     1      14.243 -48.407  71.398  1.00  0.00     0.012 C 
ENDBRANCH   6  10
TORSDOF 2
ENDMDL
