MODEL 1
REMARK VINA RESULT:    -4.839      0.000      0.000
REMARK INTER + INTRA:          -8.121
REMARK INTER:                  -6.536
REMARK INTRA:                  -1.585
REMARK UNBOUND:                -1.585
REMARK SMILES CC(=O)CCC=C(C)CCC=C(C)C
REMARK SMILES IDX 7 1 6 2 8 3 9 4 10 5 11 6 13 7 12 8 14 9 5 10 4 11 2 12 3 13
REMARK SMILES IDX 1 14
REMARK H PARENT
REMARK Flexibility Score: inf
ROOT
ATOM      1  C   UNL     1       6.053  -5.046  50.266  1.00  0.00    -0.077 C 
ATOM      2  C   UNL     1       7.005  -5.806  49.673  1.00  0.00    -0.028 C 
ATOM      3  C   UNL     1       4.710  -5.679  50.529  1.00  0.00     0.039 C 
ENDROOT
BRANCH   1   4
ATOM      4  C   UNL     1       6.278  -3.607  50.692  1.00  0.00     0.034 C 
BRANCH   4   5
ATOM      5  C   UNL     1       5.210  -2.676  50.107  1.00  0.00     0.032 C 
BRANCH   5   6
ATOM      6  C   UNL     1       5.834  -1.581  49.276  1.00  0.00    -0.028 C 
ATOM      7  C   UNL     1       6.504  -0.456  47.193  1.00  0.00     0.039 C 
ATOM      8  C   UNL     1       5.853  -1.601  47.925  1.00  0.00    -0.080 C 
ATOM      9  C   UNL     1       5.240  -2.740  47.144  1.00  0.00     0.039 C 
ENDBRANCH   5   6
ENDBRANCH   4   5
ENDBRANCH   1   4
BRANCH   2  10
ATOM     10  C   UNL     1       8.400  -5.350  49.306  1.00  0.00     0.035 C 
BRANCH  10  11
ATOM     11  C   UNL     1       8.444  -4.736  47.900  1.00  0.00     0.079 C 
BRANCH  11  12
ATOM     12  C   UNL     1       9.026  -3.347  47.906  1.00  0.00     0.130 C 
ATOM     13  O   UNL     1       9.053  -2.693  46.874  1.00  0.00    -0.300 OA
ATOM     14  C   UNL     1       9.535  -2.743  49.179  1.00  0.00     0.087 C 
ENDBRANCH  11  12
ENDBRANCH  10  11
ENDBRANCH   2  10
TORSDOF 6
ENDMDL
MODEL 2
REMARK VINA RESULT:    -4.817      1.392      3.972
REMARK INTER + INTRA:          -8.093
REMARK INTER:                  -6.756
REMARK INTRA:                  -1.337
REMARK UNBOUND:                -1.585
REMARK SMILES CC(=O)CCC=C(C)CCC=C(C)C
REMARK SMILES IDX 7 1 6 2 8 3 9 4 10 5 11 6 13 7 12 8 14 9 5 10 4 11 2 12 3 13
REMARK SMILES IDX 1 14
REMARK H PARENT
REMARK Flexibility Score: inf
ROOT
ATOM      1  C   UNL     1       7.168  -1.522  47.503  1.00  0.00    -0.077 C 
ATOM      2  C   UNL     1       8.241  -1.635  48.323  1.00  0.00    -0.028 C 
ATOM      3  C   UNL     1       6.946  -0.201  46.810  1.00  0.00     0.039 C 
ENDROOT
BRANCH   1   4
ATOM      4  C   UNL     1       6.197  -2.658  47.234  1.00  0.00     0.034 C 
BRANCH   4   5
ATOM      5  C   UNL     1       5.080  -2.699  48.283  1.00  0.00     0.032 C 
BRANCH   5   6
ATOM      6  C   UNL     1       4.935  -4.080  48.876  1.00  0.00    -0.028 C 
ATOM      7  C   UNL     1       5.031  -5.773  50.657  1.00  0.00     0.039 C 
ATOM      8  C   UNL     1       5.209  -4.359  50.168  1.00  0.00    -0.080 C 
ATOM      9  C   UNL     1       5.684  -3.290  51.123  1.00  0.00     0.039 C 
ENDBRANCH   5   6
ENDBRANCH   4   5
ENDBRANCH   1   4
BRANCH   2  10
ATOM     10  C   UNL     1       8.620  -2.862  49.120  1.00  0.00     0.035 C 
BRANCH  10  11
ATOM     11  C   UNL     1       9.238  -3.949  48.229  1.00  0.00     0.079 C 
BRANCH  11  12
ATOM     12  C   UNL     1       8.550  -5.279  48.396  1.00  0.00     0.130 C 
ATOM     13  O   UNL     1       7.924  -5.762  47.465  1.00  0.00    -0.300 OA
ATOM     14  C   UNL     1       8.666  -6.035  49.684  1.00  0.00     0.087 C 
ENDBRANCH  11  12
ENDBRANCH  10  11
ENDBRANCH   2  10
TORSDOF 6
ENDMDL
MODEL 3
REMARK VINA RESULT:    -4.816      1.258      3.550
REMARK INTER + INTRA:          -8.090
REMARK INTER:                  -7.146
REMARK INTRA:                  -0.944
REMARK UNBOUND:                -1.585
REMARK SMILES CC(=O)CCC=C(C)CCC=C(C)C
REMARK SMILES IDX 7 1 6 2 8 3 9 4 10 5 11 6 13 7 12 8 14 9 5 10 4 11 2 12 3 13
REMARK SMILES IDX 1 14
REMARK H PARENT
REMARK Flexibility Score: inf
ROOT
ATOM      1  C   UNL     1       5.060  -3.206  49.779  1.00  0.00    -0.077 C 
ATOM      2  C   UNL     1       4.606  -3.252  48.504  1.00  0.00    -0.028 C 
ATOM      3  C   UNL     1       4.802  -4.399  50.664  1.00  0.00     0.039 C 
ENDROOT
BRANCH   1   4
ATOM      4  C   UNL     1       5.829  -2.028  50.350  1.00  0.00     0.034 C 
BRANCH   4   5
ATOM      5  C   UNL     1       7.341  -2.212  50.181  1.00  0.00     0.032 C 
BRANCH   5   6
ATOM      6  C   UNL     1       7.662  -3.529  49.516  1.00  0.00    -0.028 C 
ATOM      7  C   UNL     1       9.073  -5.146  48.314  1.00  0.00     0.039 C 
ATOM      8  C   UNL     1       8.859  -3.798  48.953  1.00  0.00    -0.080 C 
ATOM      9  C   UNL     1       9.977  -2.782  48.953  1.00  0.00     0.039 C 
ENDBRANCH   5   6
ENDBRANCH   4   5
ENDBRANCH   1   4
BRANCH   2  10
ATOM     10  C   UNL     1       4.744  -2.154  47.474  1.00  0.00     0.035 C 
BRANCH  10  11
ATOM     11  C   UNL     1       5.816  -2.490  46.428  1.00  0.00     0.079 C 
BRANCH  11  12
ATOM     12  C   UNL     1       6.997  -1.558  46.505  1.00  0.00     0.130 C 
ATOM     13  O   UNL     1       8.099  -1.940  46.143  1.00  0.00    -0.300 OA
ATOM     14  C   UNL     1       6.821  -0.149  46.982  1.00  0.00     0.087 C 
ENDBRANCH  11  12
ENDBRANCH  10  11
ENDBRANCH   2  10
TORSDOF 6
ENDMDL
MODEL 4
REMARK VINA RESULT:    -4.738      1.628      3.557
REMARK INTER + INTRA:          -7.985
REMARK INTER:                  -6.646
REMARK INTRA:                  -1.339
REMARK UNBOUND:                -1.585
REMARK SMILES CC(=O)CCC=C(C)CCC=C(C)C
REMARK SMILES IDX 7 1 6 2 8 3 9 4 10 5 11 6 13 7 12 8 14 9 5 10 4 11 2 12 3 13
REMARK SMILES IDX 1 14
REMARK H PARENT
REMARK Flexibility Score: inf
ROOT
ATOM      1  C   UNL     1       4.985  -5.192  49.279  1.00  0.00    -0.077 C 
ATOM      2  C   UNL     1       4.464  -4.128  48.623  1.00  0.00    -0.028 C 
ATOM      3  C   UNL     1       4.182  -5.785  50.410  1.00  0.00     0.039 C 
ENDROOT
BRANCH   1   4
ATOM      4  C   UNL     1       6.318  -5.825  48.921  1.00  0.00     0.034 C 
BRANCH   4   5
ATOM      5  C   UNL     1       7.450  -5.278  49.797  1.00  0.00     0.032 C 
BRANCH   5   6
ATOM      6  C   UNL     1       8.426  -4.462  48.984  1.00  0.00    -0.028 C 
ATOM      7  C   UNL     1       9.564  -2.406  48.255  1.00  0.00     0.039 C 
ATOM      8  C   UNL     1       8.559  -3.125  49.118  1.00  0.00    -0.080 C 
ATOM      9  C   UNL     1       7.728  -2.344  50.109  1.00  0.00     0.039 C 
ENDBRANCH   5   6
ENDBRANCH   4   5
ENDBRANCH   1   4
BRANCH   2  10
ATOM     10  C   UNL     1       5.121  -3.383  47.482  1.00  0.00     0.035 C 
BRANCH  10  11
ATOM     11  C   UNL     1       5.228  -1.880  47.774  1.00  0.00     0.079 C 
BRANCH  11  12
ATOM     12  C   UNL     1       5.855  -1.123  46.632  1.00  0.00     0.130 C 
ATOM     13  O   UNL     1       5.459  -1.305  45.491  1.00  0.00    -0.300 OA
ATOM     14  C   UNL     1       6.933  -0.116  46.892  1.00  0.00     0.087 C 
ENDBRANCH  11  12
ENDBRANCH  10  11
ENDBRANCH   2  10
TORSDOF 6
ENDMDL
MODEL 5
REMARK VINA RESULT:    -4.723      1.647      4.515
REMARK INTER + INTRA:          -7.966
REMARK INTER:                  -6.547
REMARK INTRA:                  -1.419
REMARK UNBOUND:                -1.585
REMARK SMILES CC(=O)CCC=C(C)CCC=C(C)C
REMARK SMILES IDX 7 1 6 2 8 3 9 4 10 5 11 6 13 7 12 8 14 9 5 10 4 11 2 12 3 13
REMARK SMILES IDX 1 14
REMARK H PARENT
REMARK Flexibility Score: inf
ROOT
ATOM      1  C   UNL     1       8.562  -2.881  48.544  1.00  0.00    -0.077 C 
ATOM      2  C   UNL     1       7.770  -1.782  48.522  1.00  0.00    -0.028 C 
ATOM      3  C   UNL     1       9.987  -2.715  49.009  1.00  0.00     0.039 C 
ENDROOT
BRANCH   1   4
ATOM      4  C   UNL     1       8.082  -4.265  48.146  1.00  0.00     0.034 C 
BRANCH   4   5
ATOM      5  C   UNL     1       7.676  -5.091  49.372  1.00  0.00     0.032 C 
BRANCH   5   6
ATOM      6  C   UNL     1       6.186  -5.333  49.400  1.00  0.00    -0.028 C 
ATOM      7  C   UNL     1       3.875  -4.984  50.165  1.00  0.00     0.039 C 
ATOM      8  C   UNL     1       5.346  -4.662  50.217  1.00  0.00    -0.080 C 
ATOM      9  C   UNL     1       5.849  -3.605  51.171  1.00  0.00     0.039 C 
ENDBRANCH   5   6
ENDBRANCH   4   5
ENDBRANCH   1   4
BRANCH   2  10
ATOM     10  C   UNL     1       6.328  -1.739  48.070  1.00  0.00     0.035 C 
BRANCH  10  11
ATOM     11  C   UNL     1       6.209  -1.339  46.593  1.00  0.00     0.079 C 
BRANCH  11  12
ATOM     12  C   UNL     1       5.294  -2.259  45.827  1.00  0.00     0.130 C 
ATOM     13  O   UNL     1       4.745  -1.864  44.811  1.00  0.00    -0.300 OA
ATOM     14  C   UNL     1       5.088  -3.672  46.281  1.00  0.00     0.087 C 
ENDBRANCH  11  12
ENDBRANCH  10  11
ENDBRANCH   2  10
TORSDOF 6
ENDMDL
MODEL 6
REMARK VINA RESULT:    -4.500      2.050      4.442
REMARK INTER + INTRA:          -7.663
REMARK INTER:                  -6.433
REMARK INTRA:                  -1.231
REMARK UNBOUND:                -1.585
REMARK SMILES CC(=O)CCC=C(C)CCC=C(C)C
REMARK SMILES IDX 7 1 6 2 8 3 9 4 10 5 11 6 13 7 12 8 14 9 5 10 4 11 2 12 3 13
REMARK SMILES IDX 1 14
REMARK H PARENT
REMARK Flexibility Score: inf
ROOT
ATOM      1  C   UNL     1       5.116  -2.349  45.805  1.00  0.00    -0.077 C 
ATOM      2  C   UNL     1       5.157  -3.658  46.152  1.00  0.00    -0.028 C 
ATOM      3  C   UNL     1       4.713  -2.007  44.392  1.00  0.00     0.039 C 
ENDROOT
BRANCH   1   4
ATOM      4  C   UNL     1       5.434  -1.218  46.766  1.00  0.00     0.034 C 
BRANCH   4   5
ATOM      5  C   UNL     1       6.935  -0.913  46.794  1.00  0.00     0.032 C 
BRANCH   5   6
ATOM      6  C   UNL     1       7.538  -1.251  48.136  1.00  0.00    -0.028 C 
ATOM      7  C   UNL     1       9.024  -2.452  49.685  1.00  0.00     0.039 C 
ATOM      8  C   UNL     1       8.492  -2.193  48.300  1.00  0.00    -0.080 C 
ATOM      9  C   UNL     1       9.028  -2.983  47.130  1.00  0.00     0.039 C 
ENDBRANCH   5   6
ENDBRANCH   4   5
ENDBRANCH   1   4
BRANCH   2  10
ATOM     10  C   UNL     1       5.556  -4.202  47.506  1.00  0.00     0.035 C 
BRANCH  10  11
ATOM     11  C   UNL     1       4.531  -3.837  48.588  1.00  0.00     0.079 C 
BRANCH  11  12
ATOM     12  C   UNL     1       5.185  -3.537  49.912  1.00  0.00     0.130 C 
ATOM     13  O   UNL     1       5.124  -2.411  50.380  1.00  0.00    -0.300 OA
ATOM     14  C   UNL     1       5.874  -4.624  50.680  1.00  0.00     0.087 C 
ENDBRANCH  11  12
ENDBRANCH  10  11
ENDBRANCH   2  10
TORSDOF 6
ENDMDL
MODEL 7
REMARK VINA RESULT:    -4.495      1.592      4.263
REMARK INTER + INTRA:          -7.658
REMARK INTER:                  -6.408
REMARK INTRA:                  -1.250
REMARK UNBOUND:                -1.585
REMARK SMILES CC(=O)CCC=C(C)CCC=C(C)C
REMARK SMILES IDX 7 1 6 2 8 3 9 4 10 5 11 6 13 7 12 8 14 9 5 10 4 11 2 12 3 13
REMARK SMILES IDX 1 14
REMARK H PARENT
REMARK Flexibility Score: inf
ROOT
ATOM      1  C   UNL     1       5.521  -2.335  46.114  1.00  0.00    -0.077 C 
ATOM      2  C   UNL     1       5.905  -1.204  46.754  1.00  0.00    -0.028 C 
ATOM      3  C   UNL     1       4.750  -2.189  44.826  1.00  0.00     0.039 C 
ENDROOT
BRANCH   1   4
ATOM      4  C   UNL     1       5.844  -3.731  46.616  1.00  0.00     0.034 C 
BRANCH   4   5
ATOM      5  C   UNL     1       4.822  -4.202  47.656  1.00  0.00     0.032 C 
BRANCH   5   6
ATOM      6  C   UNL     1       5.459  -5.114  48.676  1.00  0.00    -0.028 C 
ATOM      7  C   UNL     1       6.249  -5.765  50.913  1.00  0.00     0.039 C 
ATOM      8  C   UNL     1       5.597  -4.781  49.978  1.00  0.00    -0.080 C 
ATOM      9  C   UNL     1       5.113  -3.451  50.507  1.00  0.00     0.039 C 
ENDBRANCH   5   6
ENDBRANCH   4   5
ENDBRANCH   1   4
BRANCH   2  10
ATOM     10  C   UNL     1       6.662  -1.141  48.061  1.00  0.00     0.035 C 
BRANCH  10  11
ATOM     11  C   UNL     1       8.113  -1.617  47.900  1.00  0.00     0.079 C 
BRANCH  11  12
ATOM     12  C   UNL     1       8.503  -2.617  48.958  1.00  0.00     0.130 C 
ATOM     13  O   UNL     1       8.287  -2.373  50.135  1.00  0.00    -0.300 OA
ATOM     14  C   UNL     1       9.115  -3.928  48.572  1.00  0.00     0.087 C 
ENDBRANCH  11  12
ENDBRANCH  10  11
ENDBRANCH   2  10
TORSDOF 6
ENDMDL
MODEL 8
REMARK VINA RESULT:    -4.403      1.415      2.611
REMARK INTER + INTRA:          -7.532
REMARK INTER:                  -6.243
REMARK INTRA:                  -1.290
REMARK UNBOUND:                -1.585
REMARK SMILES CC(=O)CCC=C(C)CCC=C(C)C
REMARK SMILES IDX 7 1 6 2 8 3 9 4 10 5 11 6 13 7 12 8 14 9 5 10 4 11 2 12 3 13
REMARK SMILES IDX 1 14
REMARK H PARENT
REMARK Flexibility Score: inf
ROOT
ATOM      1  C   UNL     1       5.669  -4.896  46.977  1.00  0.00    -0.077 C 
ATOM      2  C   UNL     1       6.500  -5.662  47.724  1.00  0.00    -0.028 C 
ATOM      3  C   UNL     1       4.654  -5.597  46.110  1.00  0.00     0.039 C 
ENDROOT
BRANCH   1   4
ATOM      4  C   UNL     1       5.697  -3.378  46.987  1.00  0.00     0.034 C 
BRANCH   4   5
ATOM      5  C   UNL     1       4.792  -2.809  48.085  1.00  0.00     0.032 C 
BRANCH   5   6
ATOM      6  C   UNL     1       5.595  -2.068  49.126  1.00  0.00    -0.028 C 
ATOM      7  C   UNL     1       6.565  -1.690  51.355  1.00  0.00     0.039 C 
ATOM      8  C   UNL     1       5.743  -2.509  50.394  1.00  0.00    -0.080 C 
ATOM      9  C   UNL     1       5.106  -3.797  50.861  1.00  0.00     0.039 C 
ENDBRANCH   5   6
ENDBRANCH   4   5
ENDBRANCH   1   4
BRANCH   2  10
ATOM     10  C   UNL     1       7.594  -5.152  48.636  1.00  0.00     0.035 C 
BRANCH  10  11
ATOM     11  C   UNL     1       8.872  -4.818  47.855  1.00  0.00     0.079 C 
BRANCH  11  12
ATOM     12  C   UNL     1       9.208  -3.351  47.917  1.00  0.00     0.130 C 
ATOM     13  O   UNL     1       8.994  -2.635  46.950  1.00  0.00    -0.300 OA
ATOM     14  C   UNL     1       9.764  -2.753  49.173  1.00  0.00     0.087 C 
ENDBRANCH  11  12
ENDBRANCH  10  11
ENDBRANCH   2  10
TORSDOF 6
ENDMDL
MODEL 9
REMARK VINA RESULT:    -4.381      2.059      4.807
REMARK INTER + INTRA:          -7.503
REMARK INTER:                  -6.221
REMARK INTRA:                  -1.283
REMARK UNBOUND:                -1.585
REMARK SMILES CC(=O)CCC=C(C)CCC=C(C)C
REMARK SMILES IDX 7 1 6 2 8 3 9 4 10 5 11 6 13 7 12 8 14 9 5 10 4 11 2 12 3 13
REMARK SMILES IDX 1 14
REMARK H PARENT
REMARK Flexibility Score: inf
ROOT
ATOM      1  C   UNL     1       5.822  -1.893  47.290  1.00  0.00    -0.077 C 
ATOM      2  C   UNL     1       5.072  -2.260  48.356  1.00  0.00    -0.028 C 
ATOM      3  C   UNL     1       5.218  -2.048  45.916  1.00  0.00     0.039 C 
ENDROOT
BRANCH   1   4
ATOM      4  C   UNL     1       7.222  -1.318  47.410  1.00  0.00     0.034 C 
BRANCH   4   5
ATOM      5  C   UNL     1       8.271  -2.276  46.834  1.00  0.00     0.032 C 
BRANCH   5   6
ATOM      6  C   UNL     1       8.257  -3.602  47.557  1.00  0.00    -0.028 C 
ATOM      7  C   UNL     1       8.965  -5.233  49.256  1.00  0.00     0.039 C 
ATOM      8  C   UNL     1       9.059  -3.876  48.608  1.00  0.00    -0.080 C 
ATOM      9  C   UNL     1      10.038  -2.856  49.141  1.00  0.00     0.039 C 
ENDBRANCH   5   6
ENDBRANCH   4   5
ENDBRANCH   1   4
BRANCH   2  10
ATOM     10  C   UNL     1       5.504  -2.203  49.804  1.00  0.00     0.035 C 
BRANCH  10  11
ATOM     11  C   UNL     1       5.817  -3.600  50.358  1.00  0.00     0.079 C 
BRANCH  11  12
ATOM     12  C   UNL     1       4.863  -4.644  49.838  1.00  0.00     0.130 C 
ATOM     13  O   UNL     1       3.719  -4.689  50.263  1.00  0.00    -0.300 OA
ATOM     14  C   UNL     1       5.295  -5.599  48.768  1.00  0.00     0.087 C 
ENDBRANCH  11  12
ENDBRANCH  10  11
ENDBRANCH   2  10
TORSDOF 6
ENDMDL
