MODEL 1
REMARK VINA RESULT:    -7.982      0.000      0.000
REMARK INTER + INTRA:         -11.873
REMARK INTER:                 -11.714
REMARK INTRA:                  -0.158
REMARK UNBOUND:                -0.158
REMARK SMILES CC(C)(O)CC[C@H](O)[C@](C)(O)[C@@H]1CC[C@@]2(O)C3=CC(=O)[C@H]4C[C@H](O)[C@H](O)C[C@@]4(C)[C@H]3CC[C@@]12C
REMARK SMILES IDX 6 1 7 2 9 3 10 4 12 5 34 6 33 7 32 8 15 9 31 10 17 11 14 12
REMARK SMILES IDX 13 13 30 14 18 15 28 16 19 17 21 18 27 19 29 20 20 21 22 22
REMARK SMILES IDX 25 23 23 24 16 25 26 27 24 29 11 31 8 33 5 35 2 36 1 37 3 38
REMARK SMILES IDX 4 39
REMARK H PARENT 16 26 26 28 24 30 11 32 8 34 4 40
REMARK Flexibility Score: inf
ROOT
ATOM      1  C   UNL     1       0.366   9.096  48.093  1.00  0.00     0.038 C 
ENDROOT
BRANCH   1   2
ATOM      2  C   UNL     1       1.014  10.503  48.271  1.00  0.00     0.146 C 
BRANCH   2   3
ATOM      3  C   UNL     1       2.153  10.869  47.242  1.00  0.00     0.091 C 
ATOM      4  C   UNL     1       1.792  12.216  46.547  1.00  0.00     0.045 C 
BRANCH   3   5
ATOM      5  C   UNL     1       3.605  10.845  47.904  1.00  0.00     0.032 C 
ATOM      6  C   UNL     1       4.343  12.983  46.617  1.00  0.00     0.015 C 
ATOM      7  C   UNL     1       4.800  11.613  47.204  1.00  0.00     0.006 C 
ATOM      8  C   UNL     1       5.374  10.740  46.053  1.00  0.00     0.011 C 
ATOM      9  C   UNL     1       5.871  11.842  48.362  1.00  0.00     0.092 C 
ATOM     10  C   UNL     1       6.748  11.214  45.588  1.00  0.00     0.009 C 
ATOM     11  C   UNL     1       7.239  11.178  48.101  1.00  0.00    -0.031 C 
ATOM     12  C   UNL     1       5.196  11.280  49.638  1.00  0.00     0.041 C 
ATOM     13  C   UNL     1       3.709  11.242  49.367  1.00  0.00     0.010 C 
ATOM     14  C   UNL     1       7.828  11.116  46.696  1.00  0.00     0.025 C 
ATOM     15  C   UNL     1       8.089  11.013  49.127  1.00  0.00     0.050 C 
ATOM     16  C   UNL     1       8.858   9.925  46.501  1.00  0.00    -0.013 C 
ATOM     17  C   UNL     1       9.491  10.642  48.911  1.00  0.00     0.159 C 
ATOM     18  C   UNL     1       9.944   9.933  47.652  1.00  0.00     0.070 C 
ATOM     19  C   UNL     1       8.113   8.558  46.511  1.00  0.00     0.042 C 
ATOM     20  C   UNL     1       9.566  10.136  45.121  1.00  0.00     0.013 C 
ATOM     21  O   UNL     1      10.327  10.881  49.824  1.00  0.00    -0.295 OA
ATOM     22  C   UNL     1      10.453   8.522  48.077  1.00  0.00     0.047 C 
ATOM     23  C   UNL     1       9.032   7.326  46.327  1.00  0.00     0.143 C 
ATOM     24  C   UNL     1      10.442   7.468  46.964  1.00  0.00     0.143 C 
BRANCH   9  25
ATOM     25  O   UNL     1       6.109  13.222  48.544  1.00  0.00    -0.385 OA
ATOM     26  H   UNL     1       6.013  13.445  49.509  1.00  0.00     0.211 HD
ENDBRANCH   9  25
BRANCH  23  27
ATOM     27  O   UNL     1       9.128   7.003  44.963  1.00  0.00    -0.390 OA
ATOM     28  H   UNL     1       8.243   7.196  44.552  1.00  0.00     0.211 HD
ENDBRANCH  23  27
BRANCH  24  29
ATOM     29  O   UNL     1      11.423   7.773  46.004  1.00  0.00    -0.390 OA
ATOM     30  H   UNL     1      11.859   6.918  45.741  1.00  0.00     0.211 HD
ENDBRANCH  24  29
ENDBRANCH   3   5
BRANCH   3  31
ATOM     31  O   UNL     1       2.139   9.863  46.254  1.00  0.00    -0.387 OA
ATOM     32  H   UNL     1       1.718   9.040  46.622  1.00  0.00     0.211 HD
ENDBRANCH   3  31
ENDBRANCH   2   3
BRANCH   2  33
ATOM     33  O   UNL     1       0.014  11.493  48.261  1.00  0.00    -0.390 OA
ATOM     34  H   UNL     1       0.384  12.283  47.784  1.00  0.00     0.211 HD
ENDBRANCH   2  33
ENDBRANCH   1   2
BRANCH   1  35
ATOM     35  C   UNL     1      -1.100   9.191  47.618  1.00  0.00     0.037 C 
BRANCH  35  36
ATOM     36  C   UNL     1      -1.320   8.992  46.089  1.00  0.00     0.059 C 
ATOM     37  C   UNL     1      -1.595  10.335  45.385  1.00  0.00     0.042 C 
ATOM     38  C   UNL     1      -2.479   8.012  45.803  1.00  0.00     0.042 C 
BRANCH  36  39
ATOM     39  O   UNL     1      -0.134   8.462  45.529  1.00  0.00    -0.390 OA
ATOM     40  H   UNL     1       0.615   8.635  46.164  1.00  0.00     0.211 HD
ENDBRANCH  36  39
ENDBRANCH  35  36
ENDBRANCH   1  35
TORSDOF 11
ENDMDL
MODEL 2
REMARK VINA RESULT:    -7.681      1.884      2.401
REMARK INTER + INTRA:         -11.432
REMARK INTER:                 -11.053
REMARK INTRA:                  -0.379
REMARK UNBOUND:                -0.158
REMARK SMILES CC(C)(O)CC[C@H](O)[C@](C)(O)[C@@H]1CC[C@@]2(O)C3=CC(=O)[C@H]4C[C@H](O)[C@H](O)C[C@@]4(C)[C@H]3CC[C@@]12C
REMARK SMILES IDX 6 1 7 2 9 3 10 4 12 5 34 6 33 7 32 8 15 9 31 10 17 11 14 12
REMARK SMILES IDX 13 13 30 14 18 15 28 16 19 17 21 18 27 19 29 20 20 21 22 22
REMARK SMILES IDX 25 23 23 24 16 25 26 27 24 29 11 31 8 33 5 35 2 36 1 37 3 38
REMARK SMILES IDX 4 39
REMARK H PARENT 16 26 26 28 24 30 11 32 8 34 4 40
REMARK Flexibility Score: inf
ROOT
ATOM      1  C   UNL     1       2.414  10.510  48.161  1.00  0.00     0.038 C 
ENDROOT
BRANCH   1   2
ATOM      2  C   UNL     1       3.085  11.808  48.703  1.00  0.00     0.146 C 
BRANCH   2   3
ATOM      3  C   UNL     1       3.943  12.623  47.659  1.00  0.00     0.091 C 
ATOM      4  C   UNL     1       3.535  14.125  47.733  1.00  0.00     0.045 C 
BRANCH   3   5
ATOM      5  C   UNL     1       5.511  12.366  47.823  1.00  0.00     0.032 C 
ATOM      6  C   UNL     1       5.959  12.837  45.303  1.00  0.00     0.015 C 
ATOM      7  C   UNL     1       6.385  12.007  46.552  1.00  0.00     0.006 C 
ATOM      8  C   UNL     1       6.229  10.495  46.227  1.00  0.00     0.011 C 
ATOM      9  C   UNL     1       7.880  12.370  46.970  1.00  0.00     0.092 C 
ATOM     10  C   UNL     1       7.313   9.985  45.282  1.00  0.00     0.009 C 
ATOM     11  C   UNL     1       8.852  11.173  46.949  1.00  0.00    -0.031 C 
ATOM     12  C   UNL     1       7.753  12.981  48.388  1.00  0.00     0.041 C 
ATOM     13  C   UNL     1       6.318  13.431  48.546  1.00  0.00     0.010 C 
ATOM     14  C   UNL     1       8.738  10.085  45.887  1.00  0.00     0.025 C 
ATOM     15  C   UNL     1      10.027  11.277  47.592  1.00  0.00     0.050 C 
ATOM     16  C   UNL     1       9.352   8.696  46.345  1.00  0.00    -0.013 C 
ATOM     17  C   UNL     1      11.099  10.298  47.394  1.00  0.00     0.159 C 
ATOM     18  C   UNL     1      10.818   8.892  46.907  1.00  0.00     0.070 C 
ATOM     19  C   UNL     1       8.465   8.050  47.450  1.00  0.00     0.042 C 
ATOM     20  C   UNL     1       9.400   7.764  45.089  1.00  0.00     0.013 C 
ATOM     21  O   UNL     1      12.281  10.629  47.685  1.00  0.00    -0.295 OA
ATOM     22  C   UNL     1      11.211   7.919  48.059  1.00  0.00     0.047 C 
ATOM     23  C   UNL     1       8.979   6.685  47.969  1.00  0.00     0.143 C 
ATOM     24  C   UNL     1      10.526   6.549  48.010  1.00  0.00     0.143 C 
BRANCH   9  25
ATOM     25  O   UNL     1       8.407  13.349  46.099  1.00  0.00    -0.385 OA
ATOM     26  H   UNL     1       7.822  13.421  45.298  1.00  0.00     0.211 HD
ENDBRANCH   9  25
BRANCH  23  27
ATOM     27  O   UNL     1       8.403   5.644  47.221  1.00  0.00    -0.390 OA
ATOM     28  H   UNL     1       7.782   5.156  47.825  1.00  0.00     0.211 HD
ENDBRANCH  23  27
BRANCH  24  29
ATOM     29  O   UNL     1      11.017   5.806  46.923  1.00  0.00    -0.390 OA
ATOM     30  H   UNL     1      11.926   5.482  47.168  1.00  0.00     0.211 HD
ENDBRANCH  24  29
ENDBRANCH   3   5
BRANCH   3  31
ATOM     31  O   UNL     1       3.583  12.145  46.383  1.00  0.00    -0.387 OA
ATOM     32  H   UNL     1       2.607  12.279  46.241  1.00  0.00     0.211 HD
ENDBRANCH   3  31
ENDBRANCH   2   3
BRANCH   2  33
ATOM     33  O   UNL     1       2.113  12.640  49.287  1.00  0.00    -0.390 OA
ATOM     34  H   UNL     1       2.576  13.462  49.601  1.00  0.00     0.211 HD
ENDBRANCH   2  33
ENDBRANCH   1   2
BRANCH   1  35
ATOM     35  C   UNL     1       0.879  10.540  48.329  1.00  0.00     0.037 C 
BRANCH  35  36
ATOM     36  C   UNL     1       0.074  10.898  47.044  1.00  0.00     0.059 C 
ATOM     37  C   UNL     1      -1.412  11.144  47.367  1.00  0.00     0.042 C 
ATOM     38  C   UNL     1       0.193   9.792  45.972  1.00  0.00     0.042 C 
BRANCH  36  39
ATOM     39  O   UNL     1       0.592  12.100  46.509  1.00  0.00    -0.390 OA
ATOM     40  H   UNL     1       1.394  11.878  45.962  1.00  0.00     0.211 HD
ENDBRANCH  36  39
ENDBRANCH  35  36
ENDBRANCH   1  35
TORSDOF 11
ENDMDL
MODEL 3
REMARK VINA RESULT:    -7.167      6.521     11.347
REMARK INTER + INTRA:         -10.677
REMARK INTER:                  -9.720
REMARK INTRA:                  -0.958
REMARK UNBOUND:                -0.158
REMARK SMILES CC(C)(O)CC[C@H](O)[C@](C)(O)[C@@H]1CC[C@@]2(O)C3=CC(=O)[C@H]4C[C@H](O)[C@H](O)C[C@@]4(C)[C@H]3CC[C@@]12C
REMARK SMILES IDX 6 1 7 2 9 3 10 4 12 5 34 6 33 7 32 8 15 9 31 10 17 11 14 12
REMARK SMILES IDX 13 13 30 14 18 15 28 16 19 17 21 18 27 19 29 20 20 21 22 22
REMARK SMILES IDX 25 23 23 24 16 25 26 27 24 29 11 31 8 33 5 35 2 36 1 37 3 38
REMARK SMILES IDX 4 39
REMARK H PARENT 16 26 26 28 24 30 11 32 8 34 4 40
REMARK Flexibility Score: inf
ROOT
ATOM      1  C   UNL     1      15.239   4.438  53.066  1.00  0.00     0.038 C 
ENDROOT
BRANCH   1   2
ATOM      2  C   UNL     1      14.601   3.289  53.905  1.00  0.00     0.146 C 
BRANCH   2   3
ATOM      3  C   UNL     1      13.218   3.625  54.587  1.00  0.00     0.091 C 
ATOM      4  C   UNL     1      13.431   3.752  56.125  1.00  0.00     0.045 C 
BRANCH   3   5
ATOM      5  C   UNL     1      12.499   4.886  53.923  1.00  0.00     0.032 C 
ATOM      6  C   UNL     1      10.132   3.881  54.321  1.00  0.00     0.015 C 
ATOM      7  C   UNL     1      11.019   4.750  53.378  1.00  0.00     0.006 C 
ATOM      8  C   UNL     1      11.044   4.094  51.968  1.00  0.00     0.011 C 
ATOM      9  C   UNL     1      10.464   6.243  53.325  1.00  0.00     0.092 C 
ATOM     10  C   UNL     1       9.730   4.277  51.214  1.00  0.00     0.009 C 
ATOM     11  C   UNL     1      10.057   6.719  51.915  1.00  0.00    -0.031 C 
ATOM     12  C   UNL     1      11.607   7.107  53.913  1.00  0.00     0.041 C 
ATOM     13  C   UNL     1      12.488   6.180  54.720  1.00  0.00     0.010 C 
ATOM     14  C   UNL     1       9.403   5.765  50.921  1.00  0.00     0.025 C 
ATOM     15  C   UNL     1       9.902   8.034  51.690  1.00  0.00     0.050 C 
ATOM     16  C   UNL     1       9.614   6.195  49.409  1.00  0.00    -0.013 C 
ATOM     17  C   UNL     1       9.265   8.534  50.469  1.00  0.00     0.159 C 
ATOM     18  C   UNL     1       9.216   7.711  49.199  1.00  0.00     0.070 C 
ATOM     19  C   UNL     1      11.102   5.996  48.992  1.00  0.00     0.042 C 
ATOM     20  C   UNL     1       8.690   5.291  48.528  1.00  0.00     0.013 C 
ATOM     21  O   UNL     1       8.789   9.702  50.471  1.00  0.00    -0.295 OA
ATOM     22  C   UNL     1      10.062   8.466  48.129  1.00  0.00     0.047 C 
ATOM     23  C   UNL     1      11.415   6.389  47.528  1.00  0.00     0.143 C 
ATOM     24  C   UNL     1      10.592   7.591  46.989  1.00  0.00     0.143 C 
BRANCH   9  25
ATOM     25  O   UNL     1       9.326   6.373  54.151  1.00  0.00    -0.385 OA
ATOM     26  H   UNL     1       9.593   6.227  55.098  1.00  0.00     0.211 HD
ENDBRANCH   9  25
BRANCH  23  27
ATOM     27  O   UNL     1      11.271   5.267  46.694  1.00  0.00    -0.390 OA
ATOM     28  H   UNL     1      11.897   5.387  45.929  1.00  0.00     0.211 HD
ENDBRANCH  23  27
BRANCH  24  29
ATOM     29  O   UNL     1       9.528   7.174  46.169  1.00  0.00    -0.390 OA
ATOM     30  H   UNL     1       8.682   7.435  46.623  1.00  0.00     0.211 HD
ENDBRANCH  24  29
ENDBRANCH   3   5
BRANCH   3  31
ATOM     31  O   UNL     1      12.380   2.513  54.363  1.00  0.00    -0.387 OA
ATOM     32  H   UNL     1      11.712   2.736  53.661  1.00  0.00     0.211 HD
ENDBRANCH   3  31
ENDBRANCH   2   3
BRANCH   2  33
ATOM     33  O   UNL     1      14.484   2.130  53.116  1.00  0.00    -0.390 OA
ATOM     34  H   UNL     1      13.909   2.358  52.338  1.00  0.00     0.211 HD
ENDBRANCH   2  33
ENDBRANCH   1   2
BRANCH   1  35
ATOM     35  C   UNL     1      15.565   3.988  51.625  1.00  0.00     0.037 C 
BRANCH  35  36
ATOM     36  C   UNL     1      14.872   4.808  50.497  1.00  0.00     0.059 C 
ATOM     37  C   UNL     1      15.872   5.193  49.390  1.00  0.00     0.042 C 
ATOM     38  C   UNL     1      14.200   6.085  51.052  1.00  0.00     0.042 C 
BRANCH  36  39
ATOM     39  O   UNL     1      13.876   4.000  49.900  1.00  0.00    -0.390 OA
ATOM     40  H   UNL     1      13.096   4.579  49.679  1.00  0.00     0.211 HD
ENDBRANCH  36  39
ENDBRANCH  35  36
ENDBRANCH   1  35
TORSDOF 11
ENDMDL
MODEL 4
REMARK VINA RESULT:    -7.003      3.440      8.134
REMARK INTER + INTRA:         -10.437
REMARK INTER:                 -10.159
REMARK INTRA:                  -0.278
REMARK UNBOUND:                -0.158
REMARK SMILES CC(C)(O)CC[C@H](O)[C@](C)(O)[C@@H]1CC[C@@]2(O)C3=CC(=O)[C@H]4C[C@H](O)[C@H](O)C[C@@]4(C)[C@H]3CC[C@@]12C
REMARK SMILES IDX 6 1 7 2 9 3 10 4 12 5 34 6 33 7 32 8 15 9 31 10 17 11 14 12
REMARK SMILES IDX 13 13 30 14 18 15 28 16 19 17 21 18 27 19 29 20 20 21 22 22
REMARK SMILES IDX 25 23 23 24 16 25 26 27 24 29 11 31 8 33 5 35 2 36 1 37 3 38
REMARK SMILES IDX 4 39
REMARK H PARENT 16 26 26 28 24 30 11 32 8 34 4 40
REMARK Flexibility Score: inf
ROOT
ATOM      1  C   UNL     1       8.328   7.450  52.446  1.00  0.00     0.038 C 
ENDROOT
BRANCH   1   2
ATOM      2  C   UNL     1       9.884   7.484  52.527  1.00  0.00     0.146 C 
BRANCH   2   3
ATOM      3  C   UNL     1      10.647   7.253  51.166  1.00  0.00     0.091 C 
ATOM      4  C   UNL     1      11.174   5.788  51.124  1.00  0.00     0.045 C 
BRANCH   3   5
ATOM      5  C   UNL     1       9.772   7.668  49.897  1.00  0.00     0.032 C 
ATOM      6  C   UNL     1      11.464   9.518  49.199  1.00  0.00     0.015 C 
ATOM      7  C   UNL     1       9.964   9.096  49.242  1.00  0.00     0.006 C 
ATOM      8  C   UNL     1       9.169  10.152  50.062  1.00  0.00     0.011 C 
ATOM      9  C   UNL     1       9.393   8.947  47.761  1.00  0.00     0.092 C 
ATOM     10  C   UNL     1       8.977  11.461  49.300  1.00  0.00     0.009 C 
ATOM     11  C   UNL     1       8.202   9.875  47.444  1.00  0.00    -0.031 C 
ATOM     12  C   UNL     1       9.002   7.453  47.640  1.00  0.00     0.041 C 
ATOM     13  C   UNL     1       9.765   6.711  48.715  1.00  0.00     0.010 C 
ATOM     14  C   UNL     1       8.136  11.290  48.008  1.00  0.00     0.025 C 
ATOM     15  C   UNL     1       7.435   9.609  46.374  1.00  0.00     0.050 C 
ATOM     16  C   UNL     1       6.656  11.853  48.113  1.00  0.00    -0.013 C 
ATOM     17  C   UNL     1       6.467  10.582  45.862  1.00  0.00     0.159 C 
ATOM     18  C   UNL     1       5.893  11.675  46.739  1.00  0.00     0.070 C 
ATOM     19  C   UNL     1       5.871  11.109  49.234  1.00  0.00     0.042 C 
ATOM     20  C   UNL     1       6.755  13.377  48.456  1.00  0.00     0.013 C 
ATOM     21  O   UNL     1       6.070  10.471  44.670  1.00  0.00    -0.295 OA
ATOM     22  C   UNL     1       4.364  11.401  46.874  1.00  0.00     0.047 C 
ATOM     23  C   UNL     1       4.411  11.585  49.418  1.00  0.00     0.143 C 
ATOM     24  C   UNL     1       3.702  12.023  48.107  1.00  0.00     0.143 C 
BRANCH   9  25
ATOM     25  O   UNL     1      10.403   9.230  46.816  1.00  0.00    -0.385 OA
ATOM     26  H   UNL     1      11.120   9.762  47.255  1.00  0.00     0.211 HD
ENDBRANCH   9  25
BRANCH  23  27
ATOM     27  O   UNL     1       4.361  12.607  50.381  1.00  0.00    -0.390 OA
ATOM     28  H   UNL     1       5.056  12.402  51.063  1.00  0.00     0.211 HD
ENDBRANCH  23  27
BRANCH  24  29
ATOM     29  O   UNL     1       3.660  13.423  47.975  1.00  0.00    -0.390 OA
ATOM     30  H   UNL     1       4.599  13.752  47.991  1.00  0.00     0.211 HD
ENDBRANCH  24  29
ENDBRANCH   3   5
BRANCH   3  31
ATOM     31  O   UNL     1      11.768   8.109  51.185  1.00  0.00    -0.387 OA
ATOM     32  H   UNL     1      12.600   7.570  51.101  1.00  0.00     0.211 HD
ENDBRANCH   3  31
ENDBRANCH   2   3
BRANCH   2  33
ATOM     33  O   UNL     1      10.304   8.688  53.122  1.00  0.00    -0.390 OA
ATOM     34  H   UNL     1      10.140   9.416  52.465  1.00  0.00     0.211 HD
ENDBRANCH   2  33
ENDBRANCH   1   2
BRANCH   1  35
ATOM     35  C   UNL     1       7.722   6.389  53.390  1.00  0.00     0.037 C 
BRANCH  35  36
ATOM     36  C   UNL     1       7.384   5.021  52.727  1.00  0.00     0.059 C 
ATOM     37  C   UNL     1       5.867   4.746  52.756  1.00  0.00     0.042 C 
ATOM     38  C   UNL     1       8.133   3.856  53.411  1.00  0.00     0.042 C 
BRANCH  36  39
ATOM     39  O   UNL     1       7.774   5.071  51.369  1.00  0.00    -0.390 OA
ATOM     40  H   UNL     1       7.446   4.244  50.920  1.00  0.00     0.211 HD
ENDBRANCH  36  39
ENDBRANCH  35  36
ENDBRANCH   1  35
TORSDOF 11
ENDMDL
MODEL 5
REMARK VINA RESULT:    -6.875      4.253      9.660
REMARK INTER + INTRA:         -10.248
REMARK INTER:                  -9.698
REMARK INTRA:                  -0.551
REMARK UNBOUND:                -0.158
REMARK SMILES CC(C)(O)CC[C@H](O)[C@](C)(O)[C@@H]1CC[C@@]2(O)C3=CC(=O)[C@H]4C[C@H](O)[C@H](O)C[C@@]4(C)[C@H]3CC[C@@]12C
REMARK SMILES IDX 6 1 7 2 9 3 10 4 12 5 34 6 33 7 32 8 15 9 31 10 17 11 14 12
REMARK SMILES IDX 13 13 30 14 18 15 28 16 19 17 21 18 27 19 29 20 20 21 22 22
REMARK SMILES IDX 25 23 23 24 16 25 26 27 24 29 11 31 8 33 5 35 2 36 1 37 3 38
REMARK SMILES IDX 4 39
REMARK H PARENT 16 26 26 28 24 30 11 32 8 34 4 40
REMARK Flexibility Score: inf
ROOT
ATOM      1  C   UNL     1      13.349   3.910  48.804  1.00  0.00     0.038 C 
ENDROOT
BRANCH   1   2
ATOM      2  C   UNL     1      12.183   4.855  49.226  1.00  0.00     0.146 C 
BRANCH   2   3
ATOM      3  C   UNL     1      11.176   5.255  48.079  1.00  0.00     0.091 C 
ATOM      4  C   UNL     1       9.751   4.757  48.462  1.00  0.00     0.045 C 
BRANCH   3   5
ATOM      5  C   UNL     1      11.248   6.809  47.717  1.00  0.00     0.032 C 
ATOM      6  C   UNL     1      10.518   7.510  50.114  1.00  0.00     0.015 C 
ATOM      7  C   UNL     1      10.452   7.858  48.596  1.00  0.00     0.006 C 
ATOM      8  C   UNL     1       8.962   7.882  48.151  1.00  0.00     0.011 C 
ATOM      9  C   UNL     1      11.174   9.252  48.320  1.00  0.00     0.092 C 
ATOM     10  C   UNL     1       8.220   9.114  48.660  1.00  0.00     0.009 C 
ATOM     11  C   UNL     1      10.260  10.327  47.696  1.00  0.00    -0.031 C 
ATOM     12  C   UNL     1      12.363   8.901  47.391  1.00  0.00     0.041 C 
ATOM     13  C   UNL     1      12.629   7.422  47.559  1.00  0.00     0.010 C 
ATOM     14  C   UNL     1       8.793  10.441  48.096  1.00  0.00     0.025 C 
ATOM     15  C   UNL     1      10.820  11.401  47.116  1.00  0.00     0.050 C 
ATOM     16  C   UNL     1       7.891  11.122  46.982  1.00  0.00    -0.013 C 
ATOM     17  C   UNL     1      10.025  12.575  46.747  1.00  0.00     0.159 C 
ATOM     18  C   UNL     1       8.533  12.485  46.502  1.00  0.00     0.070 C 
ATOM     19  C   UNL     1       7.734  10.172  45.758  1.00  0.00     0.042 C 
ATOM     20  C   UNL     1       6.490  11.406  47.618  1.00  0.00     0.013 C 
ATOM     21  O   UNL     1      10.615  13.678  46.584  1.00  0.00    -0.295 OA
ATOM     22  C   UNL     1       8.293  12.825  44.999  1.00  0.00     0.047 C 
ATOM     23  C   UNL     1       6.869  10.744  44.610  1.00  0.00     0.143 C 
ATOM     24  C   UNL     1       6.985  12.281  44.414  1.00  0.00     0.143 C 
BRANCH   9  25
ATOM     25  O   UNL     1      11.681   9.787  49.524  1.00  0.00    -0.385 OA
ATOM     26  H   UNL     1      11.969   9.042  50.117  1.00  0.00     0.211 HD
ENDBRANCH   9  25
BRANCH  23  27
ATOM     27  O   UNL     1       5.529  10.361  44.787  1.00  0.00    -0.390 OA
ATOM     28  H   UNL     1       5.230  10.732  45.661  1.00  0.00     0.211 HD
ENDBRANCH  23  27
BRANCH  24  29
ATOM     29  O   UNL     1       5.889  12.965  44.969  1.00  0.00    -0.390 OA
ATOM     30  H   UNL     1       6.136  13.219  45.900  1.00  0.00     0.211 HD
ENDBRANCH  24  29
ENDBRANCH   3   5
BRANCH   3  31
ATOM     31  O   UNL     1      11.579   4.549  46.927  1.00  0.00    -0.387 OA
ATOM     32  H   UNL     1      11.627   3.577  47.132  1.00  0.00     0.211 HD
ENDBRANCH   3  31
ENDBRANCH   2   3
BRANCH   2  33
ATOM     33  O   UNL     1      11.485   4.296  50.312  1.00  0.00    -0.390 OA
ATOM     34  H   UNL     1      12.163   3.968  50.962  1.00  0.00     0.211 HD
ENDBRANCH   2  33
ENDBRANCH   1   2
BRANCH   1  35
ATOM     35  C   UNL     1      14.681   4.672  48.640  1.00  0.00     0.037 C 
BRANCH  35  36
ATOM     36  C   UNL     1      15.406   4.463  47.277  1.00  0.00     0.059 C 
ATOM     37  C   UNL     1      16.580   3.474  47.415  1.00  0.00     0.042 C 
ATOM     38  C   UNL     1      15.922   5.798  46.695  1.00  0.00     0.042 C 
BRANCH  36  39
ATOM     39  O   UNL     1      14.488   3.899  46.361  1.00  0.00    -0.390 OA
ATOM     40  H   UNL     1      13.699   3.569  46.874  1.00  0.00     0.211 HD
ENDBRANCH  36  39
ENDBRANCH  35  36
ENDBRANCH   1  35
TORSDOF 11
ENDMDL
MODEL 6
REMARK VINA RESULT:    -6.804      3.006      5.443
REMARK INTER + INTRA:         -10.145
REMARK INTER:                  -9.924
REMARK INTRA:                  -0.221
REMARK UNBOUND:                -0.158
REMARK SMILES CC(C)(O)CC[C@H](O)[C@](C)(O)[C@@H]1CC[C@@]2(O)C3=CC(=O)[C@H]4C[C@H](O)[C@H](O)C[C@@]4(C)[C@H]3CC[C@@]12C
REMARK SMILES IDX 6 1 7 2 9 3 10 4 12 5 34 6 33 7 32 8 15 9 31 10 17 11 14 12
REMARK SMILES IDX 13 13 30 14 18 15 28 16 19 17 21 18 27 19 29 20 20 21 22 22
REMARK SMILES IDX 25 23 23 24 16 25 26 27 24 29 11 31 8 33 5 35 2 36 1 37 3 38
REMARK SMILES IDX 4 39
REMARK H PARENT 16 26 26 28 24 30 11 32 8 34 4 40
REMARK Flexibility Score: inf
ROOT
ATOM      1  C   UNL     1       5.344  12.638  47.082  1.00  0.00     0.038 C 
ENDROOT
BRANCH   1   2
ATOM      2  C   UNL     1       6.850  12.328  46.828  1.00  0.00     0.146 C 
BRANCH   2   3
ATOM      3  C   UNL     1       7.193  10.828  46.477  1.00  0.00     0.091 C 
ATOM      4  C   UNL     1       8.035  10.795  45.168  1.00  0.00     0.045 C 
BRANCH   3   5
ATOM      5  C   UNL     1       7.861  10.052  47.702  1.00  0.00     0.032 C 
ATOM      6  C   UNL     1       9.988  11.550  47.629  1.00  0.00     0.015 C 
ATOM      7  C   UNL     1       9.428  10.123  47.916  1.00  0.00     0.006 C 
ATOM      8  C   UNL     1      10.128   9.109  46.966  1.00  0.00     0.011 C 
ATOM      9  C   UNL     1       9.648   9.745  49.449  1.00  0.00     0.092 C 
ATOM     10  C   UNL     1      11.573   8.831  47.370  1.00  0.00     0.009 C 
ATOM     11  C   UNL     1      10.508   8.484  49.674  1.00  0.00    -0.031 C 
ATOM     12  C   UNL     1       8.218   9.572  50.019  1.00  0.00     0.041 C 
ATOM     13  C   UNL     1       7.281  10.303  49.084  1.00  0.00     0.010 C 
ATOM     14  C   UNL     1      11.693   8.168  48.767  1.00  0.00     0.025 C 
ATOM     15  C   UNL     1      10.481   7.883  50.874  1.00  0.00     0.050 C 
ATOM     16  C   UNL     1      12.057   6.624  48.729  1.00  0.00    -0.013 C 
ATOM     17  C   UNL     1      11.461   6.856  51.241  1.00  0.00     0.159 C 
ATOM     18  C   UNL     1      12.200   6.048  50.195  1.00  0.00     0.070 C 
ATOM     19  C   UNL     1      10.954   5.826  47.973  1.00  0.00     0.042 C 
ATOM     20  C   UNL     1      13.425   6.481  47.981  1.00  0.00     0.013 C 
ATOM     21  O   UNL     1      11.652   6.612  52.464  1.00  0.00    -0.295 OA
ATOM     22  C   UNL     1      11.753   4.564  50.359  1.00  0.00     0.047 C 
ATOM     23  C   UNL     1      11.215   4.303  47.879  1.00  0.00     0.143 C 
ATOM     24  C   UNL     1      11.935   3.692  49.113  1.00  0.00     0.143 C 
BRANCH   9  25
ATOM     25  O   UNL     1      10.283  10.807  50.129  1.00  0.00    -0.385 OA
ATOM     26  H   UNL     1       9.644  11.206  50.778  1.00  0.00     0.211 HD
ENDBRANCH   9  25
BRANCH  23  27
ATOM     27  O   UNL     1      11.914   4.013  46.695  1.00  0.00    -0.390 OA
ATOM     28  H   UNL     1      11.292   4.183  45.937  1.00  0.00     0.211 HD
ENDBRANCH  23  27
BRANCH  24  29
ATOM     29  O   UNL     1      13.303   3.480  48.871  1.00  0.00    -0.390 OA
ATOM     30  H   UNL     1      13.603   4.173  48.222  1.00  0.00     0.211 HD
ENDBRANCH  24  29
ENDBRANCH   3   5
BRANCH   3  31
ATOM     31  O   UNL     1       5.965  10.188  46.211  1.00  0.00    -0.387 OA
ATOM     32  H   UNL     1       6.081   9.544  45.461  1.00  0.00     0.211 HD
ENDBRANCH   3  31
ENDBRANCH   2   3
BRANCH   2  33
ATOM     33  O   UNL     1       7.352  13.186  45.832  1.00  0.00    -0.390 OA
ATOM     34  H   UNL     1       8.327  13.005  45.748  1.00  0.00     0.211 HD
ENDBRANCH   2  33
ENDBRANCH   1   2
BRANCH   1  35
ATOM     35  C   UNL     1       5.039  12.831  48.583  1.00  0.00     0.037 C 
BRANCH  35  36
ATOM     36  C   UNL     1       3.784  12.074  49.111  1.00  0.00     0.059 C 
ATOM     37  C   UNL     1       3.130  11.232  47.999  1.00  0.00     0.042 C 
ATOM     38  C   UNL     1       2.740  13.046  49.705  1.00  0.00     0.042 C 
BRANCH  36  39
ATOM     39  O   UNL     1       4.194  11.179  50.127  1.00  0.00    -0.390 OA
ATOM     40  H   UNL     1       4.338  10.284  49.714  1.00  0.00     0.211 HD
ENDBRANCH  36  39
ENDBRANCH  35  36
ENDBRANCH   1  35
TORSDOF 11
ENDMDL
MODEL 7
REMARK VINA RESULT:    -6.780      5.184      9.029
REMARK INTER + INTRA:         -10.109
REMARK INTER:                 -10.239
REMARK INTRA:                   0.130
REMARK UNBOUND:                -0.158
REMARK SMILES CC(C)(O)CC[C@H](O)[C@](C)(O)[C@@H]1CC[C@@]2(O)C3=CC(=O)[C@H]4C[C@H](O)[C@H](O)C[C@@]4(C)[C@H]3CC[C@@]12C
REMARK SMILES IDX 6 1 7 2 9 3 10 4 12 5 34 6 33 7 32 8 15 9 31 10 17 11 14 12
REMARK SMILES IDX 13 13 30 14 18 15 28 16 19 17 21 18 27 19 29 20 20 21 22 22
REMARK SMILES IDX 25 23 23 24 16 25 26 27 24 29 11 31 8 33 5 35 2 36 1 37 3 38
REMARK SMILES IDX 4 39
REMARK H PARENT 16 26 26 28 24 30 11 32 8 34 4 40
REMARK Flexibility Score: inf
ROOT
ATOM      1  C   UNL     1       8.427   3.344  53.319  1.00  0.00     0.038 C 
ENDROOT
BRANCH   1   2
ATOM      2  C   UNL     1       7.808   4.774  53.301  1.00  0.00     0.146 C 
BRANCH   2   3
ATOM      3  C   UNL     1       8.818   5.957  53.036  1.00  0.00     0.091 C 
ATOM      4  C   UNL     1      10.161   5.645  53.761  1.00  0.00     0.045 C 
BRANCH   3   5
ATOM      5  C   UNL     1       8.978   6.287  51.482  1.00  0.00     0.032 C 
ATOM      6  C   UNL     1      11.087   7.753  51.901  1.00  0.00     0.015 C 
ATOM      7  C   UNL     1       9.809   7.556  51.030  1.00  0.00     0.006 C 
ATOM      8  C   UNL     1       8.920   8.826  51.149  1.00  0.00     0.011 C 
ATOM      9  C   UNL     1      10.216   7.260  49.517  1.00  0.00     0.092 C 
ATOM     10  C   UNL     1       9.492  10.015  50.381  1.00  0.00     0.009 C 
ATOM     11  C   UNL     1       9.670   8.285  48.501  1.00  0.00    -0.031 C 
ATOM     12  C   UNL     1       9.679   5.834  49.238  1.00  0.00     0.041 C 
ATOM     13  C   UNL     1       9.480   5.170  50.582  1.00  0.00     0.010 C 
ATOM     14  C   UNL     1       9.572   9.765  48.852  1.00  0.00     0.025 C 
ATOM     15  C   UNL     1       9.656   7.964  47.197  1.00  0.00     0.050 C 
ATOM     16  C   UNL     1       8.475  10.538  48.005  1.00  0.00    -0.013 C 
ATOM     17  C   UNL     1       9.408   8.972  46.162  1.00  0.00     0.159 C 
ATOM     18  C   UNL     1       8.663  10.256  46.460  1.00  0.00     0.070 C 
ATOM     19  C   UNL     1       7.046  10.092  48.435  1.00  0.00     0.042 C 
ATOM     20  C   UNL     1       8.659  12.068  48.279  1.00  0.00     0.013 C 
ATOM     21  O   UNL     1       9.786   8.733  44.983  1.00  0.00    -0.295 OA
ATOM     22  C   UNL     1       7.339  10.222  45.638  1.00  0.00     0.047 C 
ATOM     23  C   UNL     1       5.898  10.789  47.666  1.00  0.00     0.143 C 
ATOM     24  C   UNL     1       6.217  11.113  46.181  1.00  0.00     0.143 C 
BRANCH   9  25
ATOM     25  O   UNL     1      11.622   7.250  49.382  1.00  0.00    -0.385 OA
ATOM     26  H   UNL     1      11.955   8.188  49.375  1.00  0.00     0.211 HD
ENDBRANCH   9  25
BRANCH  23  27
ATOM     27  O   UNL     1       5.496  11.945  48.357  1.00  0.00    -0.390 OA
ATOM     28  H   UNL     1       4.510  11.886  48.480  1.00  0.00     0.211 HD
ENDBRANCH  23  27
BRANCH  24  29
ATOM     29  O   UNL     1       6.550  12.467  45.998  1.00  0.00    -0.390 OA
ATOM     30  H   UNL     1       6.115  12.983  46.730  1.00  0.00     0.211 HD
ENDBRANCH  24  29
ENDBRANCH   3   5
BRANCH   3  31
ATOM     31  O   UNL     1       8.263   7.103  53.641  1.00  0.00    -0.387 OA
ATOM     32  H   UNL     1       8.883   7.444  54.339  1.00  0.00     0.211 HD
ENDBRANCH   3  31
ENDBRANCH   2   3
BRANCH   2  33
ATOM     33  O   UNL     1       6.749   4.824  52.376  1.00  0.00    -0.390 OA
ATOM     34  H   UNL     1       5.903   4.883  52.896  1.00  0.00     0.211 HD
ENDBRANCH   2  33
ENDBRANCH   1   2
BRANCH   1  35
ATOM     35  C   UNL     1       8.123   2.598  54.636  1.00  0.00     0.037 C 
BRANCH  35  36
ATOM     36  C   UNL     1       9.316   1.802  55.243  1.00  0.00     0.059 C 
ATOM     37  C   UNL     1       8.820   0.629  56.111  1.00  0.00     0.042 C 
ATOM     38  C   UNL     1      10.240   2.711  56.082  1.00  0.00     0.042 C 
BRANCH  36  39
ATOM     39  O   UNL     1      10.072   1.248  54.183  1.00  0.00    -0.390 OA
ATOM     40  H   UNL     1      10.904   0.855  54.567  1.00  0.00     0.211 HD
ENDBRANCH  36  39
ENDBRANCH  35  36
ENDBRANCH   1  35
TORSDOF 11
ENDMDL
MODEL 8
REMARK VINA RESULT:    -6.755      6.096     10.015
REMARK INTER + INTRA:         -10.073
REMARK INTER:                  -9.600
REMARK INTRA:                  -0.472
REMARK UNBOUND:                -0.158
REMARK SMILES CC(C)(O)CC[C@H](O)[C@](C)(O)[C@@H]1CC[C@@]2(O)C3=CC(=O)[C@H]4C[C@H](O)[C@H](O)C[C@@]4(C)[C@H]3CC[C@@]12C
REMARK SMILES IDX 6 1 7 2 9 3 10 4 12 5 34 6 33 7 32 8 15 9 31 10 17 11 14 12
REMARK SMILES IDX 13 13 30 14 18 15 28 16 19 17 21 18 27 19 29 20 20 21 22 22
REMARK SMILES IDX 25 23 23 24 16 25 26 27 24 29 11 31 8 33 5 35 2 36 1 37 3 38
REMARK SMILES IDX 4 39
REMARK H PARENT 16 26 26 28 24 30 11 32 8 34 4 40
REMARK Flexibility Score: inf
ROOT
ATOM      1  C   UNL     1      12.381   9.440  46.781  1.00  0.00     0.038 C 
ENDROOT
BRANCH   1   2
ATOM      2  C   UNL     1      12.797   8.983  48.212  1.00  0.00     0.146 C 
BRANCH   2   3
ATOM      3  C   UNL     1      12.985   7.428  48.408  1.00  0.00     0.091 C 
ATOM      4  C   UNL     1      14.314   7.173  49.179  1.00  0.00     0.045 C 
BRANCH   3   5
ATOM      5  C   UNL     1      11.706   6.737  49.067  1.00  0.00     0.032 C 
ATOM      6  C   UNL     1      11.232   8.804  50.575  1.00  0.00     0.015 C 
ATOM      7  C   UNL     1      11.168   7.250  50.464  1.00  0.00     0.006 C 
ATOM      8  C   UNL     1      12.020   6.630  51.608  1.00  0.00     0.011 C 
ATOM      9  C   UNL     1       9.653   6.758  50.524  1.00  0.00     0.092 C 
ATOM     10  C   UNL     1      11.346   6.752  52.971  1.00  0.00     0.009 C 
ATOM     11  C   UNL     1       9.343   5.798  51.692  1.00  0.00    -0.031 C 
ATOM     12  C   UNL     1       9.404   6.086  49.150  1.00  0.00     0.041 C 
ATOM     13  C   UNL     1      10.460   6.615  48.206  1.00  0.00     0.010 C 
ATOM     14  C   UNL     1      10.004   5.978  53.054  1.00  0.00     0.025 C 
ATOM     15  C   UNL     1       8.219   5.064  51.651  1.00  0.00     0.050 C 
ATOM     16  C   UNL     1      10.074   4.636  53.898  1.00  0.00    -0.013 C 
ATOM     17  C   UNL     1       7.730   4.344  52.830  1.00  0.00     0.159 C 
ATOM     18  C   UNL     1       8.654   3.943  53.961  1.00  0.00     0.070 C 
ATOM     19  C   UNL     1      11.096   3.649  53.261  1.00  0.00     0.042 C 
ATOM     20  C   UNL     1      10.531   5.013  55.346  1.00  0.00     0.013 C 
ATOM     21  O   UNL     1       6.514   4.011  52.874  1.00  0.00    -0.295 OA
ATOM     22  C   UNL     1       8.690   2.385  53.995  1.00  0.00     0.047 C 
ATOM     23  C   UNL     1      11.240   2.303  54.012  1.00  0.00     0.143 C 
ATOM     24  C   UNL     1       9.930   1.781  54.663  1.00  0.00     0.143 C 
BRANCH   9  25
ATOM     25  O   UNL     1       8.783   7.863  50.653  1.00  0.00    -0.385 OA
ATOM     26  H   UNL     1       9.260   8.687  50.368  1.00  0.00     0.211 HD
ENDBRANCH   9  25
BRANCH  23  27
ATOM     27  O   UNL     1      12.271   2.396  54.962  1.00  0.00    -0.390 OA
ATOM     28  H   UNL     1      12.019   1.812  55.727  1.00  0.00     0.211 HD
ENDBRANCH  23  27
BRANCH  24  29
ATOM     29  O   UNL     1       9.897   2.027  56.047  1.00  0.00    -0.390 OA
ATOM     30  H   UNL     1      10.759   1.704  56.428  1.00  0.00     0.211 HD
ENDBRANCH  24  29
ENDBRANCH   3   5
BRANCH   3  31
ATOM     31  O   UNL     1      13.128   6.876  47.118  1.00  0.00    -0.387 OA
ATOM     32  H   UNL     1      12.561   6.062  47.040  1.00  0.00     0.211 HD
ENDBRANCH   3  31
ENDBRANCH   2   3
BRANCH   2  33
ATOM     33  O   UNL     1      13.960   9.666  48.611  1.00  0.00    -0.390 OA
ATOM     34  H   UNL     1      14.377   9.139  49.344  1.00  0.00     0.211 HD
ENDBRANCH   2  33
ENDBRANCH   1   2
BRANCH   1  35
ATOM     35  C   UNL     1      10.917   9.929  46.734  1.00  0.00     0.037 C 
BRANCH  35  36
ATOM     36  C   UNL     1      10.112   9.505  45.469  1.00  0.00     0.059 C 
ATOM     37  C   UNL     1       8.635   9.234  45.812  1.00  0.00     0.042 C 
ATOM     38  C   UNL     1      10.724   8.256  44.796  1.00  0.00     0.042 C 
BRANCH  36  39
ATOM     39  O   UNL     1      10.138  10.573  44.541  1.00  0.00    -0.390 OA
ATOM     40  H   UNL     1       9.443  10.400  43.848  1.00  0.00     0.211 HD
ENDBRANCH  36  39
ENDBRANCH  35  36
ENDBRANCH   1  35
TORSDOF 11
ENDMDL
MODEL 9
REMARK VINA RESULT:    -6.681      3.160      6.281
REMARK INTER + INTRA:          -9.963
REMARK INTER:                  -9.919
REMARK INTRA:                  -0.044
REMARK UNBOUND:                -0.158
REMARK SMILES CC(C)(O)CC[C@H](O)[C@](C)(O)[C@@H]1CC[C@@]2(O)C3=CC(=O)[C@H]4C[C@H](O)[C@H](O)C[C@@]4(C)[C@H]3CC[C@@]12C
REMARK SMILES IDX 6 1 7 2 9 3 10 4 12 5 34 6 33 7 32 8 15 9 31 10 17 11 14 12
REMARK SMILES IDX 13 13 30 14 18 15 28 16 19 17 21 18 27 19 29 20 20 21 22 22
REMARK SMILES IDX 25 23 23 24 16 25 26 27 24 29 11 31 8 33 5 35 2 36 1 37 3 38
REMARK SMILES IDX 4 39
REMARK H PARENT 16 26 26 28 24 30 11 32 8 34 4 40
REMARK Flexibility Score: inf
ROOT
ATOM      1  C   UNL     1       6.061  10.788  47.905  1.00  0.00     0.038 C 
ENDROOT
BRANCH   1   2
ATOM      2  C   UNL     1       6.841  11.584  46.816  1.00  0.00     0.146 C 
BRANCH   2   3
ATOM      3  C   UNL     1       7.757  10.723  45.862  1.00  0.00     0.091 C 
ATOM      4  C   UNL     1       8.085  11.558  44.588  1.00  0.00     0.045 C 
BRANCH   3   5
ATOM      5  C   UNL     1       9.043  10.142  46.609  1.00  0.00     0.032 C 
ATOM      6  C   UNL     1       8.973   7.931  45.238  1.00  0.00     0.015 C 
ATOM      7  C   UNL     1       9.311   8.582  46.614  1.00  0.00     0.006 C 
ATOM      8  C   UNL     1       8.441   7.911  47.714  1.00  0.00     0.011 C 
ATOM      9  C   UNL     1      10.868   8.437  46.923  1.00  0.00     0.092 C 
ATOM     10  C   UNL     1       8.911   6.499  48.051  1.00  0.00     0.009 C 
ATOM     11  C   UNL     1      11.188   7.659  48.216  1.00  0.00    -0.031 C 
ATOM     12  C   UNL     1      11.394   9.893  46.984  1.00  0.00     0.041 C 
ATOM     13  C   UNL     1      10.389  10.753  46.253  1.00  0.00     0.010 C 
ATOM     14  C   UNL     1      10.344   6.465  48.646  1.00  0.00     0.025 C 
ATOM     15  C   UNL     1      12.416   7.762  48.751  1.00  0.00     0.050 C 
ATOM     16  C   UNL     1      10.397   6.189  50.207  1.00  0.00    -0.013 C 
ATOM     17  C   UNL     1      12.870   6.856  49.810  1.00  0.00     0.159 C 
ATOM     18  C   UNL     1      11.895   6.130  50.712  1.00  0.00     0.070 C 
ATOM     19  C   UNL     1       9.642   7.311  50.981  1.00  0.00     0.042 C 
ATOM     20  C   UNL     1       9.709   4.808  50.466  1.00  0.00     0.013 C 
ATOM     21  O   UNL     1      14.110   6.721  49.999  1.00  0.00    -0.295 OA
ATOM     22  C   UNL     1      12.118   6.668  52.158  1.00  0.00     0.047 C 
ATOM     23  C   UNL     1       9.636   7.135  52.519  1.00  0.00     0.143 C 
ATOM     24  C   UNL     1      10.924   6.495  53.103  1.00  0.00     0.143 C 
BRANCH   9  25
ATOM     25  O   UNL     1      11.517   7.765  45.864  1.00  0.00    -0.385 OA
ATOM     26  H   UNL     1      12.232   8.350  45.496  1.00  0.00     0.211 HD
ENDBRANCH   9  25
BRANCH  23  27
ATOM     27  O   UNL     1       8.494   6.415  52.910  1.00  0.00    -0.390 OA
ATOM     28  H   UNL     1       8.757   5.846  53.683  1.00  0.00     0.211 HD
ENDBRANCH  23  27
BRANCH  24  29
ATOM     29  O   UNL     1      10.744   5.133  53.404  1.00  0.00    -0.390 OA
ATOM     30  H   UNL     1       9.780   4.999  53.613  1.00  0.00     0.211 HD
ENDBRANCH  24  29
ENDBRANCH   3   5
BRANCH   3  31
ATOM     31  O   UNL     1       6.985   9.614  45.457  1.00  0.00    -0.387 OA
ATOM     32  H   UNL     1       7.316   8.794  45.913  1.00  0.00     0.211 HD
ENDBRANCH   3  31
ENDBRANCH   2   3
BRANCH   2  33
ATOM     33  O   UNL     1       5.945  12.360  46.058  1.00  0.00    -0.390 OA
ATOM     34  H   UNL     1       5.799  13.210  46.553  1.00  0.00     0.211 HD
ENDBRANCH   2  33
ENDBRANCH   1   2
BRANCH   1  35
ATOM     35  C   UNL     1       4.550  11.105  47.882  1.00  0.00     0.037 C 
BRANCH  35  36
ATOM     36  C   UNL     1       3.926  11.480  49.259  1.00  0.00     0.059 C 
ATOM     37  C   UNL     1       2.589  10.748  49.484  1.00  0.00     0.042 C 
ATOM     38  C   UNL     1       3.708  13.004  49.389  1.00  0.00     0.042 C 
BRANCH  36  39
ATOM     39  O   UNL     1       4.809  11.064  50.282  1.00  0.00    -0.390 OA
ATOM     40  H   UNL     1       4.324  10.422  50.870  1.00  0.00     0.211 HD
ENDBRANCH  36  39
ENDBRANCH  35  36
ENDBRANCH   1  35
TORSDOF 11
ENDMDL
