MODEL 1
REMARK VINA RESULT:    -3.845      0.000      0.000
REMARK INTER + INTRA:          -7.706
REMARK INTER:                  -5.868
REMARK INTRA:                  -1.838
REMARK UNBOUND:                -1.838
REMARK SMILES OC[C@@H]1O[C@](CO)(O[C@@H]2O[C@@H](CO)[C@@H](O)[C@H](O)[C@@H]2O)[C@H](O)[C@@H]1O
REMARK SMILES IDX 8 1 9 2 11 3 14 4 10 5 16 6 18 7 12 8 13 9 15 11 17 13 19 15
REMARK SMILES IDX 5 17 20 18 4 19 22 20 3 21 6 22 7 23 21 25 23 27 2 29 1 30
REMARK H PARENT 13 10 15 12 17 14 19 16 7 24 21 26 23 28 1 31
REMARK Flexibility Score: inf
ROOT
ATOM      1  O   UNL     1       5.123   4.442   5.025  1.00  0.00    -0.313 OA
ENDROOT
BRANCH   1   2
ATOM      2  C   UNL     1       3.793   4.820   4.678  1.00  0.00     0.285 C 
ATOM      3  C   UNL     1       3.937   3.692   2.617  1.00  0.00     0.178 C 
ATOM      4  C   UNL     1       3.877   4.996   1.787  1.00  0.00     0.177 C 
ATOM      5  O   UNL     1       3.216   3.836   3.832  1.00  0.00    -0.341 OA
ATOM      6  C   UNL     1       4.447   6.161   2.614  1.00  0.00     0.179 C 
ATOM      7  C   UNL     1       3.762   6.208   3.996  1.00  0.00     0.202 C 
BRANCH   3   8
ATOM      8  C   UNL     1       3.349   2.502   1.841  1.00  0.00     0.191 C 
BRANCH   8   9
ATOM      9  O   UNL     1       1.950   2.581   1.779  1.00  0.00    -0.394 OA
ATOM     10  H   UNL     1       1.714   2.691   0.822  1.00  0.00     0.210 HD
ENDBRANCH   8   9
ENDBRANCH   3   8
BRANCH   4  11
ATOM     11  O   UNL     1       2.547   5.271   1.426  1.00  0.00    -0.387 OA
ATOM     12  H   UNL     1       2.299   6.125   1.869  1.00  0.00     0.211 HD
ENDBRANCH   4  11
BRANCH   6  13
ATOM     13  O   UNL     1       5.838   5.997   2.753  1.00  0.00    -0.387 OA
ATOM     14  H   UNL     1       6.039   6.034   3.724  1.00  0.00     0.211 HD
ENDBRANCH   6  13
BRANCH   7  15
ATOM     15  O   UNL     1       4.370   7.170   4.817  1.00  0.00    -0.385 OA
ATOM     16  H   UNL     1       3.780   7.286   5.607  1.00  0.00     0.211 HD
ENDBRANCH   7  15
ENDBRANCH   1   2
BRANCH   1  17
ATOM     17  C   UNL     1       5.400   4.281   6.418  1.00  0.00     0.224 C 
ATOM     18  C   UNL     1       5.995   2.880   6.680  1.00  0.00     0.208 C 
ATOM     19  O   UNL     1       4.256   4.445   7.247  1.00  0.00    -0.337 OA
ATOM     20  C   UNL     1       5.513   2.557   8.085  1.00  0.00     0.180 C 
ATOM     21  C   UNL     1       4.331   3.522   8.318  1.00  0.00     0.179 C 
BRANCH  17  22
ATOM     22  C   UNL     1       6.416   5.391   6.773  1.00  0.00     0.225 C 
BRANCH  22  23
ATOM     23  O   UNL     1       6.941   6.008   5.627  1.00  0.00    -0.391 OA
ATOM     24  H   UNL     1       6.987   5.315   4.919  1.00  0.00     0.210 HD
ENDBRANCH  22  23
ENDBRANCH  17  22
BRANCH  18  25
ATOM     25  O   UNL     1       5.572   1.930   5.727  1.00  0.00    -0.385 OA
ATOM     26  H   UNL     1       5.046   2.399   5.030  1.00  0.00     0.211 HD
ENDBRANCH  18  25
BRANCH  20  27
ATOM     27  O   UNL     1       5.238   1.192   8.312  1.00  0.00    -0.387 OA
ATOM     28  H   UNL     1       5.127   0.729   7.444  1.00  0.00     0.211 HD
ENDBRANCH  20  27
BRANCH  21  29
ATOM     29  C   UNL     1       2.959   2.863   8.534  1.00  0.00     0.191 C 
BRANCH  29  30
ATOM     30  O   UNL     1       2.613   2.057   7.443  1.00  0.00    -0.394 OA
ATOM     31  H   UNL     1       1.674   1.775   7.595  1.00  0.00     0.210 HD
ENDBRANCH  29  30
ENDBRANCH  21  29
ENDBRANCH   1  17
TORSDOF 13
ENDMDL
MODEL 2
REMARK VINA RESULT:    -3.642      2.204      3.560
REMARK INTER + INTRA:          -7.396
REMARK INTER:                  -5.383
REMARK INTRA:                  -2.013
REMARK UNBOUND:                -1.838
REMARK SMILES OC[C@@H]1O[C@](CO)(O[C@@H]2O[C@@H](CO)[C@@H](O)[C@H](O)[C@@H]2O)[C@H](O)[C@@H]1O
REMARK SMILES IDX 8 1 9 2 11 3 14 4 10 5 16 6 18 7 12 8 13 9 15 11 17 13 19 15
REMARK SMILES IDX 5 17 20 18 4 19 22 20 3 21 6 22 7 23 21 25 23 27 2 29 1 30
REMARK H PARENT 13 10 15 12 17 14 19 16 7 24 21 26 23 28 1 31
REMARK Flexibility Score: inf
ROOT
ATOM      1  O   UNL     1       4.605   4.216   3.375  1.00  0.00    -0.313 OA
ENDROOT
BRANCH   1   2
ATOM      2  C   UNL     1       4.511   2.814   3.134  1.00  0.00     0.285 C 
ATOM      3  C   UNL     1       6.518   2.822   1.905  1.00  0.00     0.178 C 
ATOM      4  C   UNL     1       5.817   2.485   0.568  1.00  0.00     0.177 C 
ATOM      5  O   UNL     1       5.811   2.258   3.000  1.00  0.00    -0.341 OA
ATOM      6  C   UNL     1       4.371   3.008   0.599  1.00  0.00     0.179 C 
ATOM      7  C   UNL     1       3.661   2.515   1.877  1.00  0.00     0.202 C 
BRANCH   3   8
ATOM      8  C   UNL     1       7.961   2.291   1.934  1.00  0.00     0.191 C 
BRANCH   8   9
ATOM      9  O   UNL     1       7.997   0.948   2.334  1.00  0.00    -0.394 OA
ATOM     10  H   UNL     1       8.485   0.453   1.625  1.00  0.00     0.210 HD
ENDBRANCH   8   9
ENDBRANCH   3   8
BRANCH   4  11
ATOM     11  O   UNL     1       5.818   1.094   0.365  1.00  0.00    -0.387 OA
ATOM     12  H   UNL     1       5.680   0.674   1.255  1.00  0.00     0.211 HD
ENDBRANCH   4  11
BRANCH   6  13
ATOM     13  O   UNL     1       4.382   4.414   0.546  1.00  0.00    -0.387 OA
ATOM     14  H   UNL     1       3.516   4.726   0.917  1.00  0.00     0.211 HD
ENDBRANCH   6  13
BRANCH   7  15
ATOM     15  O   UNL     1       2.391   3.101   1.995  1.00  0.00    -0.385 OA
ATOM     16  H   UNL     1       2.442   3.987   1.551  1.00  0.00     0.211 HD
ENDBRANCH   7  15
ENDBRANCH   1   2
BRANCH   1  17
ATOM     17  C   UNL     1       3.984   4.704   4.567  1.00  0.00     0.224 C 
ATOM     18  C   UNL     1       5.055   4.995   5.640  1.00  0.00     0.208 C 
ATOM     19  O   UNL     1       3.029   3.805   5.118  1.00  0.00    -0.337 OA
ATOM     20  C   UNL     1       4.322   4.722   6.944  1.00  0.00     0.180 C 
ATOM     21  C   UNL     1       3.108   3.863   6.530  1.00  0.00     0.179 C 
BRANCH  17  22
ATOM     22  C   UNL     1       3.245   5.997   4.153  1.00  0.00     0.225 C 
BRANCH  22  23
ATOM     23  O   UNL     1       2.971   6.028   2.777  1.00  0.00    -0.391 OA
ATOM     24  H   UNL     1       3.408   5.232   2.376  1.00  0.00     0.210 HD
ENDBRANCH  22  23
ENDBRANCH  17  22
BRANCH  18  25
ATOM     25  O   UNL     1       6.205   4.192   5.484  1.00  0.00    -0.385 OA
ATOM     26  H   UNL     1       5.943   3.244   5.601  1.00  0.00     0.211 HD
ENDBRANCH  18  25
BRANCH  20  27
ATOM     27  O   UNL     1       5.128   4.186   7.970  1.00  0.00    -0.387 OA
ATOM     28  H   UNL     1       6.014   4.626   7.957  1.00  0.00     0.211 HD
ENDBRANCH  20  27
BRANCH  21  29
ATOM     29  C   UNL     1       3.065   2.441   7.112  1.00  0.00     0.191 C 
BRANCH  29  30
ATOM     30  O   UNL     1       4.073   1.642   6.560  1.00  0.00    -0.394 OA
ATOM     31  H   UNL     1       3.690   0.731   6.477  1.00  0.00     0.210 HD
ENDBRANCH  29  30
ENDBRANCH  21  29
ENDBRANCH   1  17
TORSDOF 13
ENDMDL
MODEL 3
REMARK VINA RESULT:    -3.445     12.827     14.949
REMARK INTER + INTRA:          -7.095
REMARK INTER:                  -5.580
REMARK INTRA:                  -1.515
REMARK UNBOUND:                -1.838
REMARK SMILES OC[C@@H]1O[C@](CO)(O[C@@H]2O[C@@H](CO)[C@@H](O)[C@H](O)[C@@H]2O)[C@H](O)[C@@H]1O
REMARK SMILES IDX 8 1 9 2 11 3 14 4 10 5 16 6 18 7 12 8 13 9 15 11 17 13 19 15
REMARK SMILES IDX 5 17 20 18 4 19 22 20 3 21 6 22 7 23 21 25 23 27 2 29 1 30
REMARK H PARENT 13 10 15 12 17 14 19 16 7 24 21 26 23 28 1 31
REMARK Flexibility Score: inf
ROOT
ATOM      1  O   UNL     1      -8.289  -2.433   0.615  1.00  0.00    -0.313 OA
ENDROOT
BRANCH   1   2
ATOM      2  C   UNL     1      -8.166  -3.853   0.629  1.00  0.00     0.285 C 
ATOM      3  C   UNL     1      -5.867  -3.727   0.142  1.00  0.00     0.178 C 
ATOM      4  C   UNL     1      -6.028  -4.361  -1.260  1.00  0.00     0.177 C 
ATOM      5  O   UNL     1      -6.855  -4.221   1.034  1.00  0.00    -0.341 OA
ATOM      6  C   UNL     1      -7.437  -4.063  -1.802  1.00  0.00     0.179 C 
ATOM      7  C   UNL     1      -8.497  -4.461  -0.754  1.00  0.00     0.202 C 
BRANCH   3   8
ATOM      8  C   UNL     1      -4.481  -4.024   0.738  1.00  0.00     0.191 C 
BRANCH   8   9
ATOM      9  O   UNL     1      -4.368  -3.503   2.035  1.00  0.00    -0.394 OA
ATOM     10  H   UNL     1      -5.160  -3.822   2.541  1.00  0.00     0.210 HD
ENDBRANCH   8   9
ENDBRANCH   3   8
BRANCH   4  11
ATOM     11  O   UNL     1      -5.830  -5.750  -1.181  1.00  0.00    -0.387 OA
ATOM     12  H   UNL     1      -5.422  -6.032  -2.042  1.00  0.00     0.211 HD
ENDBRANCH   4  11
BRANCH   6  13
ATOM     13  O   UNL     1      -7.536  -2.695  -2.116  1.00  0.00    -0.387 OA
ATOM     14  H   UNL     1      -8.503  -2.481  -2.178  1.00  0.00     0.211 HD
ENDBRANCH   6  13
BRANCH   7  15
ATOM     15  O   UNL     1      -9.777  -4.063  -1.169  1.00  0.00    -0.385 OA
ATOM     16  H   UNL     1     -10.105  -3.409  -0.498  1.00  0.00     0.211 HD
ENDBRANCH   7  15
ENDBRANCH   1   2
BRANCH   1  17
ATOM     17  C   UNL     1      -8.915  -1.833   1.752  1.00  0.00     0.224 C 
ATOM     18  C   UNL     1      -7.907  -0.928   2.493  1.00  0.00     0.208 C 
ATOM     19  O   UNL     1      -9.433  -2.779   2.679  1.00  0.00    -0.337 OA
ATOM     20  C   UNL     1      -8.360  -1.018   3.941  1.00  0.00     0.180 C 
ATOM     21  C   UNL     1      -9.234  -2.289   3.992  1.00  0.00     0.179 C 
BRANCH  17  22
ATOM     22  C   UNL     1     -10.096  -1.009   1.192  1.00  0.00     0.225 C 
BRANCH  22  23
ATOM     23  O   UNL     1      -9.762   0.344   1.028  1.00  0.00    -0.391 OA
ATOM     24  H   UNL     1      -9.484   0.684   1.918  1.00  0.00     0.210 HD
ENDBRANCH  22  23
ENDBRANCH  17  22
BRANCH  18  25
ATOM     25  O   UNL     1      -6.572  -1.348   2.312  1.00  0.00    -0.385 OA
ATOM     26  H   UNL     1      -6.560  -2.063   1.626  1.00  0.00     0.211 HD
ENDBRANCH  18  25
BRANCH  20  27
ATOM     27  O   UNL     1      -7.316  -0.957   4.888  1.00  0.00    -0.387 OA
ATOM     28  H   UNL     1      -7.663  -0.585   5.737  1.00  0.00     0.211 HD
ENDBRANCH  20  27
BRANCH  21  29
ATOM     29  C   UNL     1      -8.718  -3.421   4.896  1.00  0.00     0.191 C 
BRANCH  29  30
ATOM     30  O   UNL     1      -7.372  -3.700   4.631  1.00  0.00    -0.394 OA
ATOM     31  H   UNL     1      -7.180  -3.311   3.739  1.00  0.00     0.210 HD
ENDBRANCH  29  30
ENDBRANCH  21  29
ENDBRANCH   1  17
TORSDOF 13
ENDMDL
MODEL 4
REMARK VINA RESULT:    -3.388     11.980     13.828
REMARK INTER + INTRA:          -7.009
REMARK INTER:                  -5.566
REMARK INTRA:                  -1.442
REMARK UNBOUND:                -1.838
REMARK SMILES OC[C@@H]1O[C@](CO)(O[C@@H]2O[C@@H](CO)[C@@H](O)[C@H](O)[C@@H]2O)[C@H](O)[C@@H]1O
REMARK SMILES IDX 8 1 9 2 11 3 14 4 10 5 16 6 18 7 12 8 13 9 15 11 17 13 19 15
REMARK SMILES IDX 5 17 20 18 4 19 22 20 3 21 6 22 7 23 21 25 23 27 2 29 1 30
REMARK H PARENT 13 10 15 12 17 14 19 16 7 24 21 26 23 28 1 31
REMARK Flexibility Score: inf
ROOT
ATOM      1  O   UNL     1      -5.787  -5.396   2.445  1.00  0.00    -0.313 OA
ENDROOT
BRANCH   1   2
ATOM      2  C   UNL     1      -4.830  -4.416   2.052  1.00  0.00     0.285 C 
ATOM      3  C   UNL     1      -6.514  -3.023   1.179  1.00  0.00     0.178 C 
ATOM      4  C   UNL     1      -6.038  -3.197  -0.283  1.00  0.00     0.177 C 
ATOM      5  O   UNL     1      -5.421  -3.125   2.079  1.00  0.00    -0.341 OA
ATOM      6  C   UNL     1      -5.339  -4.558  -0.439  1.00  0.00     0.179 C 
ATOM      7  C   UNL     1      -4.256  -4.720   0.648  1.00  0.00     0.202 C 
BRANCH   3   8
ATOM      8  C   UNL     1      -7.194  -1.661   1.392  1.00  0.00     0.191 C 
BRANCH   8   9
ATOM      9  O   UNL     1      -6.787  -1.076   2.601  1.00  0.00    -0.394 OA
ATOM     10  H   UNL     1      -7.388  -0.302   2.759  1.00  0.00     0.210 HD
ENDBRANCH   8   9
ENDBRANCH   3   8
BRANCH   4  11
ATOM     11  O   UNL     1      -5.150  -2.161  -0.621  1.00  0.00    -0.387 OA
ATOM     12  H   UNL     1      -5.090  -2.146  -1.613  1.00  0.00     0.211 HD
ENDBRANCH   4  11
BRANCH   6  13
ATOM     13  O   UNL     1      -6.296  -5.586  -0.347  1.00  0.00    -0.387 OA
ATOM     14  H   UNL     1      -7.171  -5.153  -0.168  1.00  0.00     0.211 HD
ENDBRANCH   6  13
BRANCH   7  15
ATOM     15  O   UNL     1      -3.709  -6.012   0.613  1.00  0.00    -0.385 OA
ATOM     16  H   UNL     1      -3.194  -6.082  -0.232  1.00  0.00     0.211 HD
ENDBRANCH   7  15
ENDBRANCH   1   2
BRANCH   1  17
ATOM     17  C   UNL     1      -5.500  -6.128   3.640  1.00  0.00     0.224 C 
ATOM     18  C   UNL     1      -6.418  -5.650   4.786  1.00  0.00     0.208 C 
ATOM     19  O   UNL     1      -4.149  -6.009   4.067  1.00  0.00    -0.337 OA
ATOM     20  C   UNL     1      -5.561  -5.857   6.024  1.00  0.00     0.180 C 
ATOM     21  C   UNL     1      -4.120  -5.961   5.482  1.00  0.00     0.179 C 
BRANCH  17  22
ATOM     22  C   UNL     1      -5.767  -7.611   3.295  1.00  0.00     0.225 C 
BRANCH  22  23
ATOM     23  O   UNL     1      -5.832  -7.825   1.909  1.00  0.00    -0.391 OA
ATOM     24  H   UNL     1      -6.774  -8.052   1.694  1.00  0.00     0.210 HD
ENDBRANCH  22  23
ENDBRANCH  17  22
BRANCH  18  25
ATOM     25  O   UNL     1      -6.827  -4.310   4.623  1.00  0.00    -0.385 OA
ATOM     26  H   UNL     1      -6.723  -3.843   5.491  1.00  0.00     0.211 HD
ENDBRANCH  18  25
BRANCH  20  27
ATOM     27  O   UNL     1      -5.762  -4.902   7.043  1.00  0.00    -0.387 OA
ATOM     28  H   UNL     1      -6.732  -4.739   7.156  1.00  0.00     0.211 HD
ENDBRANCH  20  27
BRANCH  21  29
ATOM     29  C   UNL     1      -3.149  -4.862   5.945  1.00  0.00     0.191 C 
BRANCH  29  30
ATOM     30  O   UNL     1      -2.194  -5.377   6.829  1.00  0.00    -0.394 OA
ATOM     31  H   UNL     1      -1.312  -5.073   6.491  1.00  0.00     0.210 HD
ENDBRANCH  29  30
ENDBRANCH  21  29
ENDBRANCH   1  17
TORSDOF 13
ENDMDL
MODEL 5
REMARK VINA RESULT:    -3.357     12.009     14.302
REMARK INTER + INTRA:          -6.961
REMARK INTER:                  -5.599
REMARK INTRA:                  -1.362
REMARK UNBOUND:                -1.838
REMARK SMILES OC[C@@H]1O[C@](CO)(O[C@@H]2O[C@@H](CO)[C@@H](O)[C@H](O)[C@@H]2O)[C@H](O)[C@@H]1O
REMARK SMILES IDX 8 1 9 2 11 3 14 4 10 5 16 6 18 7 12 8 13 9 15 11 17 13 19 15
REMARK SMILES IDX 5 17 20 18 4 19 22 20 3 21 6 22 7 23 21 25 23 27 2 29 1 30
REMARK H PARENT 13 10 15 12 17 14 19 16 7 24 21 26 23 28 1 31
REMARK Flexibility Score: inf
ROOT
ATOM      1  O   UNL     1      -5.035  -4.862   4.219  1.00  0.00    -0.313 OA
ENDROOT
BRANCH   1   2
ATOM      2  C   UNL     1      -5.231  -5.911   5.165  1.00  0.00     0.285 C 
ATOM      3  C   UNL     1      -5.293  -4.380   6.951  1.00  0.00     0.178 C 
ATOM      4  C   UNL     1      -3.969  -4.892   7.567  1.00  0.00     0.177 C 
ATOM      5  O   UNL     1      -5.972  -5.428   6.276  1.00  0.00    -0.341 OA
ATOM      6  C   UNL     1      -3.079  -5.481   6.459  1.00  0.00     0.179 C 
ATOM      7  C   UNL     1      -3.882  -6.507   5.631  1.00  0.00     0.202 C 
BRANCH   3   8
ATOM      8  C   UNL     1      -6.230  -3.807   8.028  1.00  0.00     0.191 C 
BRANCH   8   9
ATOM      9  O   UNL     1      -5.501  -3.258   9.092  1.00  0.00    -0.394 OA
ATOM     10  H   UNL     1      -6.055  -3.376   9.907  1.00  0.00     0.210 HD
ENDBRANCH   8   9
ENDBRANCH   3   8
BRANCH   4  11
ATOM     11  O   UNL     1      -4.242  -5.874   8.535  1.00  0.00    -0.387 OA
ATOM     12  H   UNL     1      -3.489  -6.522   8.508  1.00  0.00     0.211 HD
ENDBRANCH   4  11
BRANCH   6  13
ATOM     13  O   UNL     1      -2.606  -4.440   5.638  1.00  0.00    -0.387 OA
ATOM     14  H   UNL     1      -2.414  -4.837   4.749  1.00  0.00     0.211 HD
ENDBRANCH   6  13
BRANCH   7  15
ATOM     15  O   UNL     1      -3.134  -6.946   4.528  1.00  0.00    -0.385 OA
ATOM     16  H   UNL     1      -3.783  -7.282   3.857  1.00  0.00     0.211 HD
ENDBRANCH   7  15
ENDBRANCH   1   2
BRANCH   1  17
ATOM     17  C   UNL     1      -5.907  -4.851   3.086  1.00  0.00     0.224 C 
ATOM     18  C   UNL     1      -5.174  -4.265   1.860  1.00  0.00     0.208 C 
ATOM     19  O   UNL     1      -7.099  -4.103   3.296  1.00  0.00    -0.337 OA
ATOM     20  C   UNL     1      -6.292  -3.602   1.072  1.00  0.00     0.180 C 
ATOM     21  C   UNL     1      -7.436  -3.434   2.094  1.00  0.00     0.179 C 
BRANCH  17  22
ATOM     22  C   UNL     1      -6.299  -6.327   2.847  1.00  0.00     0.225 C 
BRANCH  22  23
ATOM     23  O   UNL     1      -5.328  -7.015   2.104  1.00  0.00    -0.391 OA
ATOM     24  H   UNL     1      -5.802  -7.483   1.368  1.00  0.00     0.210 HD
ENDBRANCH  22  23
ENDBRANCH  17  22
BRANCH  18  25
ATOM     25  O   UNL     1      -4.154  -3.360   2.226  1.00  0.00    -0.385 OA
ATOM     26  H   UNL     1      -4.240  -3.167   3.194  1.00  0.00     0.211 HD
ENDBRANCH  18  25
BRANCH  20  27
ATOM     27  O   UNL     1      -5.912  -2.430   0.385  1.00  0.00    -0.387 OA
ATOM     28  H   UNL     1      -4.924  -2.389   0.325  1.00  0.00     0.211 HD
ENDBRANCH  20  27
BRANCH  21  29
ATOM     29  C   UNL     1      -7.850  -1.986   2.405  1.00  0.00     0.191 C 
BRANCH  29  30
ATOM     30  O   UNL     1      -6.730  -1.192   2.679  1.00  0.00    -0.394 OA
ATOM     31  H   UNL     1      -6.133  -1.744   3.247  1.00  0.00     0.210 HD
ENDBRANCH  29  30
ENDBRANCH  21  29
ENDBRANCH   1  17
TORSDOF 13
ENDMDL
MODEL 6
REMARK VINA RESULT:    -3.307     11.382     13.480
REMARK INTER + INTRA:          -6.885
REMARK INTER:                  -5.785
REMARK INTRA:                  -1.101
REMARK UNBOUND:                -1.838
REMARK SMILES OC[C@@H]1O[C@](CO)(O[C@@H]2O[C@@H](CO)[C@@H](O)[C@H](O)[C@@H]2O)[C@H](O)[C@@H]1O
REMARK SMILES IDX 8 1 9 2 11 3 14 4 10 5 16 6 18 7 12 8 13 9 15 11 17 13 19 15
REMARK SMILES IDX 5 17 20 18 4 19 22 20 3 21 6 22 7 23 21 25 23 27 2 29 1 30
REMARK H PARENT 13 10 15 12 17 14 19 16 7 24 21 26 23 28 1 31
REMARK Flexibility Score: inf
ROOT
ATOM      1  O   UNL     1      -5.747  -4.122   2.958  1.00  0.00    -0.313 OA
ENDROOT
BRANCH   1   2
ATOM      2  C   UNL     1      -6.561  -4.400   1.822  1.00  0.00     0.285 C 
ATOM      3  C   UNL     1      -5.253  -2.999   0.456  1.00  0.00     0.178 C 
ATOM      4  C   UNL     1      -6.388  -1.966   0.259  1.00  0.00     0.177 C 
ATOM      5  O   UNL     1      -5.786  -4.302   0.636  1.00  0.00    -0.341 OA
ATOM      6  C   UNL     1      -7.330  -1.997   1.474  1.00  0.00     0.179 C 
ATOM      7  C   UNL     1      -7.778  -3.448   1.754  1.00  0.00     0.202 C 
BRANCH   3   8
ATOM      8  C   UNL     1      -4.299  -3.025  -0.749  1.00  0.00     0.191 C 
BRANCH   8   9
ATOM      9  O   UNL     1      -3.984  -1.725  -1.172  1.00  0.00    -0.394 OA
ATOM     10  H   UNL     1      -3.624  -1.805  -2.094  1.00  0.00     0.210 HD
ENDBRANCH   8   9
ENDBRANCH   3   8
BRANCH   4  11
ATOM     11  O   UNL     1      -7.106  -2.264  -0.912  1.00  0.00    -0.387 OA
ATOM     12  H   UNL     1      -7.990  -2.616  -0.625  1.00  0.00     0.211 HD
ENDBRANCH   4  11
BRANCH   6  13
ATOM     13  O   UNL     1      -6.669  -1.456   2.592  1.00  0.00    -0.387 OA
ATOM     14  H   UNL     1      -5.719  -1.330   2.334  1.00  0.00     0.211 HD
ENDBRANCH   6  13
BRANCH   7  15
ATOM     15  O   UNL     1      -8.519  -3.516   2.944  1.00  0.00    -0.385 OA
ATOM     16  H   UNL     1      -8.234  -4.344   3.411  1.00  0.00     0.211 HD
ENDBRANCH   7  15
ENDBRANCH   1   2
BRANCH   1  17
ATOM     17  C   UNL     1      -5.391  -5.237   3.780  1.00  0.00     0.224 C 
ATOM     18  C   UNL     1      -6.348  -5.329   4.988  1.00  0.00     0.208 C 
ATOM     19  O   UNL     1      -4.056  -5.179   4.267  1.00  0.00    -0.337 OA
ATOM     20  C   UNL     1      -5.474  -5.931   6.076  1.00  0.00     0.180 C 
ATOM     21  C   UNL     1      -4.030  -5.689   5.588  1.00  0.00     0.179 C 
BRANCH  17  22
ATOM     22  C   UNL     1      -5.519  -6.482   2.872  1.00  0.00     0.225 C 
BRANCH  22  23
ATOM     23  O   UNL     1      -4.330  -6.750   2.177  1.00  0.00    -0.391 OA
ATOM     24  H   UNL     1      -4.067  -7.681   2.401  1.00  0.00     0.210 HD
ENDBRANCH  22  23
ENDBRANCH  17  22
BRANCH  18  25
ATOM     25  O   UNL     1      -6.880  -4.074   5.349  1.00  0.00    -0.385 OA
ATOM     26  H   UNL     1      -6.352  -3.368   4.898  1.00  0.00     0.211 HD
ENDBRANCH  18  25
BRANCH  20  27
ATOM     27  O   UNL     1      -5.761  -5.476   7.380  1.00  0.00    -0.387 OA
ATOM     28  H   UNL     1      -5.314  -6.063   8.040  1.00  0.00     0.211 HD
ENDBRANCH  20  27
BRANCH  21  29
ATOM     29  C   UNL     1      -3.165  -4.781   6.478  1.00  0.00     0.191 C 
BRANCH  29  30
ATOM     30  O   UNL     1      -2.239  -4.063   5.712  1.00  0.00    -0.394 OA
ATOM     31  H   UNL     1      -2.638  -3.166   5.565  1.00  0.00     0.210 HD
ENDBRANCH  29  30
ENDBRANCH  21  29
ENDBRANCH   1  17
TORSDOF 13
ENDMDL
MODEL 7
REMARK VINA RESULT:    -3.294     10.832     12.618
REMARK INTER + INTRA:          -6.866
REMARK INTER:                  -5.123
REMARK INTRA:                  -1.743
REMARK UNBOUND:                -1.838
REMARK SMILES OC[C@@H]1O[C@](CO)(O[C@@H]2O[C@@H](CO)[C@@H](O)[C@H](O)[C@@H]2O)[C@H](O)[C@@H]1O
REMARK SMILES IDX 8 1 9 2 11 3 14 4 10 5 16 6 18 7 12 8 13 9 15 11 17 13 19 15
REMARK SMILES IDX 5 17 20 18 4 19 22 20 3 21 6 22 7 23 21 25 23 27 2 29 1 30
REMARK H PARENT 13 10 15 12 17 14 19 16 7 24 21 26 23 28 1 31
REMARK Flexibility Score: inf
ROOT
ATOM      1  O   UNL     1       0.098   3.469  -6.459  1.00  0.00    -0.313 OA
ENDROOT
BRANCH   1   2
ATOM      2  C   UNL     1      -0.798   4.065  -5.524  1.00  0.00     0.285 C 
ATOM      3  C   UNL     1      -1.658   5.514  -7.167  1.00  0.00     0.178 C 
ATOM      4  C   UNL     1      -1.075   6.781  -6.497  1.00  0.00     0.177 C 
ATOM      5  O   UNL     1      -1.962   4.526  -6.194  1.00  0.00    -0.341 OA
ATOM      6  C   UNL     1       0.186   6.408  -5.699  1.00  0.00     0.179 C 
ATOM      7  C   UNL     1      -0.120   5.225  -4.757  1.00  0.00     0.202 C 
BRANCH   3   8
ATOM      8  C   UNL     1      -2.940   5.832  -7.954  1.00  0.00     0.191 C 
BRANCH   8   9
ATOM      9  O   UNL     1      -4.081   5.625  -7.166  1.00  0.00    -0.394 OA
ATOM     10  H   UNL     1      -3.800   5.744  -6.221  1.00  0.00     0.210 HD
ENDBRANCH   8   9
ENDBRANCH   3   8
BRANCH   4  11
ATOM     11  O   UNL     1      -2.033   7.351  -5.640  1.00  0.00    -0.387 OA
ATOM     12  H   UNL     1      -1.564   8.043  -5.104  1.00  0.00     0.211 HD
ENDBRANCH   4  11
BRANCH   6  13
ATOM     13  O   UNL     1       1.222   6.079  -6.592  1.00  0.00    -0.387 OA
ATOM     14  H   UNL     1       1.137   5.110  -6.790  1.00  0.00     0.211 HD
ENDBRANCH   6  13
BRANCH   7  15
ATOM     15  O   UNL     1       1.053   4.777  -4.129  1.00  0.00    -0.385 OA
ATOM     16  H   UNL     1       0.955   3.797  -4.007  1.00  0.00     0.211 HD
ENDBRANCH   7  15
ENDBRANCH   1   2
BRANCH   1  17
ATOM     17  C   UNL     1       0.475   2.113  -6.209  1.00  0.00     0.224 C 
ATOM     18  C   UNL     1      -0.170   1.183  -7.259  1.00  0.00     0.208 C 
ATOM     19  O   UNL     1       0.108   1.652  -4.915  1.00  0.00    -0.337 OA
ATOM     20  C   UNL     1      -0.371  -0.116  -6.495  1.00  0.00     0.180 C 
ATOM     21  C   UNL     1      -0.292   0.296  -5.009  1.00  0.00     0.179 C 
BRANCH  17  22
ATOM     22  C   UNL     1       2.017   2.084  -6.313  1.00  0.00     0.225 C 
BRANCH  22  23
ATOM     23  O   UNL     1       2.593   3.303  -5.926  1.00  0.00    -0.391 OA
ATOM     24  H   UNL     1       2.210   3.537  -5.041  1.00  0.00     0.210 HD
ENDBRANCH  22  23
ENDBRANCH  17  22
BRANCH  18  25
ATOM     25  O   UNL     1      -1.376   1.706  -7.772  1.00  0.00    -0.385 OA
ATOM     26  H   UNL     1      -2.127   1.168  -7.414  1.00  0.00     0.211 HD
ENDBRANCH  18  25
BRANCH  20  27
ATOM     27  O   UNL     1      -1.521  -0.844  -6.865  1.00  0.00    -0.387 OA
ATOM     28  H   UNL     1      -1.249  -1.702  -7.277  1.00  0.00     0.211 HD
ENDBRANCH  20  27
BRANCH  21  29
ATOM     29  C   UNL     1      -1.569   0.073  -4.183  1.00  0.00     0.191 C 
BRANCH  29  30
ATOM     30  O   UNL     1      -1.974  -1.266  -4.238  1.00  0.00    -0.394 OA
ATOM     31  H   UNL     1      -1.766  -1.654  -3.349  1.00  0.00     0.210 HD
ENDBRANCH  29  30
ENDBRANCH  21  29
ENDBRANCH   1  17
TORSDOF 13
ENDMDL
MODEL 8
REMARK VINA RESULT:    -3.276     12.587     14.752
REMARK INTER + INTRA:          -6.838
REMARK INTER:                  -5.391
REMARK INTRA:                  -1.447
REMARK UNBOUND:                -1.838
REMARK SMILES OC[C@@H]1O[C@](CO)(O[C@@H]2O[C@@H](CO)[C@@H](O)[C@H](O)[C@@H]2O)[C@H](O)[C@@H]1O
REMARK SMILES IDX 8 1 9 2 11 3 14 4 10 5 16 6 18 7 12 8 13 9 15 11 17 13 19 15
REMARK SMILES IDX 5 17 20 18 4 19 22 20 3 21 6 22 7 23 21 25 23 27 2 29 1 30
REMARK H PARENT 13 10 15 12 17 14 19 16 7 24 21 26 23 28 1 31
REMARK Flexibility Score: inf
ROOT
ATOM      1  O   UNL     1      -7.286  -3.232   1.433  1.00  0.00    -0.313 OA
ENDROOT
BRANCH   1   2
ATOM      2  C   UNL     1      -7.296  -1.825   1.204  1.00  0.00     0.285 C 
ATOM      3  C   UNL     1      -8.219  -1.415   3.329  1.00  0.00     0.178 C 
ATOM      4  C   UNL     1      -9.563  -0.906   2.756  1.00  0.00     0.177 C 
ATOM      5  O   UNL     1      -7.153  -1.132   2.435  1.00  0.00    -0.341 OA
ATOM      6  C   UNL     1      -9.822  -1.561   1.389  1.00  0.00     0.179 C 
ATOM      7  C   UNL     1      -8.588  -1.381   0.479  1.00  0.00     0.202 C 
BRANCH   3   8
ATOM      8  C   UNL     1      -7.902  -0.764   4.686  1.00  0.00     0.191 C 
BRANCH   8   9
ATOM      9  O   UNL     1      -7.359  -1.698   5.579  1.00  0.00    -0.394 OA
ATOM     10  H   UNL     1      -7.528  -2.596   5.191  1.00  0.00     0.210 HD
ENDBRANCH   8   9
ENDBRANCH   3   8
BRANCH   4  11
ATOM     11  O   UNL     1      -9.524   0.493   2.618  1.00  0.00    -0.387 OA
ATOM     12  H   UNL     1      -9.211   0.681   1.694  1.00  0.00     0.211 HD
ENDBRANCH   4  11
BRANCH   6  13
ATOM     13  O   UNL     1     -10.111  -2.926   1.573  1.00  0.00    -0.387 OA
ATOM     14  H   UNL     1      -9.438  -3.437   1.052  1.00  0.00     0.211 HD
ENDBRANCH   6  13
BRANCH   7  15
ATOM     15  O   UNL     1      -8.748  -2.097  -0.718  1.00  0.00    -0.385 OA
ATOM     16  H   UNL     1      -8.316  -2.980  -0.583  1.00  0.00     0.211 HD
ENDBRANCH   7  15
ENDBRANCH   1   2
BRANCH   1  17
ATOM     17  C   UNL     1      -6.590  -4.033   0.475  1.00  0.00     0.224 C 
ATOM     18  C   UNL     1      -5.224  -4.471   1.045  1.00  0.00     0.208 C 
ATOM     19  O   UNL     1      -6.367  -3.369  -0.763  1.00  0.00    -0.337 OA
ATOM     20  C   UNL     1      -4.348  -4.571  -0.192  1.00  0.00     0.180 C 
ATOM     21  C   UNL     1      -5.096  -3.745  -1.261  1.00  0.00     0.179 C 
BRANCH  17  22
ATOM     22  C   UNL     1      -7.501  -5.253   0.211  1.00  0.00     0.225 C 
BRANCH  22  23
ATOM     23  O   UNL     1      -8.761  -4.873  -0.276  1.00  0.00    -0.391 OA
ATOM     24  H   UNL     1      -8.605  -4.228  -1.014  1.00  0.00     0.210 HD
ENDBRANCH  22  23
ENDBRANCH  17  22
BRANCH  18  25
ATOM     25  O   UNL     1      -4.721  -3.560   1.998  1.00  0.00    -0.385 OA
ATOM     26  H   UNL     1      -4.660  -4.022   2.871  1.00  0.00     0.211 HD
ENDBRANCH  18  25
BRANCH  20  27
ATOM     27  O   UNL     1      -2.997  -4.219   0.014  1.00  0.00    -0.387 OA
ATOM     28  H   UNL     1      -2.752  -4.392   0.957  1.00  0.00     0.211 HD
ENDBRANCH  20  27
BRANCH  21  29
ATOM     29  C   UNL     1      -4.357  -2.505  -1.788  1.00  0.00     0.191 C 
BRANCH  29  30
ATOM     30  O   UNL     1      -4.179  -1.558  -0.773  1.00  0.00    -0.394 OA
ATOM     31  H   UNL     1      -4.006  -2.073   0.058  1.00  0.00     0.210 HD
ENDBRANCH  29  30
ENDBRANCH  21  29
ENDBRANCH   1  17
TORSDOF 13
ENDMDL
MODEL 9
REMARK VINA RESULT:    -3.259     10.961     12.900
REMARK INTER + INTRA:          -6.812
REMARK INTER:                  -4.995
REMARK INTRA:                  -1.817
REMARK UNBOUND:                -1.838
REMARK SMILES OC[C@@H]1O[C@](CO)(O[C@@H]2O[C@@H](CO)[C@@H](O)[C@H](O)[C@@H]2O)[C@H](O)[C@@H]1O
REMARK SMILES IDX 8 1 9 2 11 3 14 4 10 5 16 6 18 7 12 8 13 9 15 11 17 13 19 15
REMARK SMILES IDX 5 17 20 18 4 19 22 20 3 21 6 22 7 23 21 25 23 27 2 29 1 30
REMARK H PARENT 13 10 15 12 17 14 19 16 7 24 21 26 23 28 1 31
REMARK Flexibility Score: inf
ROOT
ATOM      1  O   UNL     1       1.011   3.100  -6.399  1.00  0.00    -0.313 OA
ENDROOT
BRANCH   1   2
ATOM      2  C   UNL     1      -0.077   2.300  -6.855  1.00  0.00     0.285 C 
ATOM      3  C   UNL     1      -0.704   1.772  -4.649  1.00  0.00     0.178 C 
ATOM      4  C   UNL     1      -0.334   0.277  -4.796  1.00  0.00     0.177 C 
ATOM      5  O   UNL     1      -1.123   2.311  -5.894  1.00  0.00    -0.341 OA
ATOM      6  C   UNL     1       0.777   0.122  -5.848  1.00  0.00     0.179 C 
ATOM      7  C   UNL     1       0.374   0.850  -7.148  1.00  0.00     0.202 C 
BRANCH   3   8
ATOM      8  C   UNL     1      -1.834   1.975  -3.626  1.00  0.00     0.191 C 
BRANCH   8   9
ATOM      9  O   UNL     1      -2.490   3.197  -3.834  1.00  0.00    -0.394 OA
ATOM     10  H   UNL     1      -1.906   3.736  -4.429  1.00  0.00     0.210 HD
ENDBRANCH   8   9
ENDBRANCH   3   8
BRANCH   4  11
ATOM     11  O   UNL     1      -1.467  -0.459  -5.184  1.00  0.00    -0.387 OA
ATOM     12  H   UNL     1      -2.238  -0.085  -4.681  1.00  0.00     0.211 HD
ENDBRANCH   4  11
BRANCH   6  13
ATOM     13  O   UNL     1       1.979   0.645  -5.337  1.00  0.00    -0.387 OA
ATOM     14  H   UNL     1       2.182   0.145  -4.503  1.00  0.00     0.211 HD
ENDBRANCH   6  13
BRANCH   7  15
ATOM     15  O   UNL     1       1.435   0.844  -8.067  1.00  0.00    -0.385 OA
ATOM     16  H   UNL     1       2.004   0.063  -7.842  1.00  0.00     0.211 HD
ENDBRANCH   7  15
ENDBRANCH   1   2
BRANCH   1  17
ATOM     17  C   UNL     1       0.963   4.491  -6.724  1.00  0.00     0.224 C 
ATOM     18  C   UNL     1       0.939   5.335  -5.431  1.00  0.00     0.208 C 
ATOM     19  O   UNL     1      -0.162   4.850  -7.516  1.00  0.00    -0.337 OA
ATOM     20  C   UNL     1       0.137   6.562  -5.834  1.00  0.00     0.180 C 
ATOM     21  C   UNL     1      -0.622   6.125  -7.106  1.00  0.00     0.179 C 
BRANCH  17  22
ATOM     22  C   UNL     1       2.241   4.771  -7.547  1.00  0.00     0.225 C 
BRANCH  22  23
ATOM     23  O   UNL     1       2.572   3.695  -8.385  1.00  0.00    -0.391 OA
ATOM     24  H   UNL     1       2.102   3.843  -9.247  1.00  0.00     0.210 HD
ENDBRANCH  22  23
ENDBRANCH  17  22
BRANCH  18  25
ATOM     25  O   UNL     1       0.364   4.640  -4.346  1.00  0.00    -0.385 OA
ATOM     26  H   UNL     1      -0.409   5.163  -4.014  1.00  0.00     0.211 HD
ENDBRANCH  18  25
BRANCH  20  27
ATOM     27  O   UNL     1      -0.661   7.106  -4.806  1.00  0.00    -0.387 OA
ATOM     28  H   UNL     1      -0.345   8.020  -4.593  1.00  0.00     0.211 HD
ENDBRANCH  20  27
BRANCH  21  29
ATOM     29  C   UNL     1      -2.156   6.117  -7.002  1.00  0.00     0.191 C 
BRANCH  29  30
ATOM     30  O   UNL     1      -2.592   5.128  -6.111  1.00  0.00    -0.394 OA
ATOM     31  H   UNL     1      -2.234   5.380  -5.221  1.00  0.00     0.210 HD
ENDBRANCH  29  30
ENDBRANCH  21  29
ENDBRANCH   1  17
TORSDOF 13
ENDMDL
