MODEL 1
REMARK VINA RESULT:    -4.237      0.000      0.000
REMARK INTER + INTRA:          -6.960
REMARK INTER:                  -6.466
REMARK INTRA:                  -0.494
REMARK UNBOUND:                -0.494
REMARK SMILES CC1=CCC[C@@H](C)C(=O)C[C@@H](C(C)C)C(=O)C1
REMARK SMILES IDX 8 1 9 2 6 3 7 4 5 5 4 6 3 7 2 8 1 9 10 11 11 12 15 13 16 14
REMARK SMILES IDX 17 15 12 17 13 18 14 19
REMARK H PARENT
REMARK Flexibility Score: 70.00
ROOT
ATOM      1  C   UNL     1      25.822  53.058  10.099  1.00  0.00     0.136 C 
ATOM      2  O   UNL     1      25.285  51.996  10.383  1.00  0.00    -0.299 OA
ENDROOT
BRANCH   1   3
ATOM      3  C   UNL     1      27.083  53.071   9.263  1.00  0.00     0.053 C 
ATOM      4  C   UNL     1      26.876  52.204   8.017  1.00  0.00     0.016 C 
BRANCH   3   5
ATOM      5  C   UNL     1      28.325  52.593  10.049  1.00  0.00     0.015 C 
BRANCH   5   6
ATOM      6  C   UNL     1      28.606  53.421  11.318  1.00  0.00     0.028 C 
BRANCH   6   7
ATOM      7  C   UNL     1      29.240  54.752  10.980  1.00  0.00    -0.028 C 
ATOM      8  C   UNL     1      28.692  55.974  11.177  1.00  0.00    -0.070 CG0
ATOM      9  C   UNL     1      29.487  57.182  10.747  1.00  0.00     0.039 C 
ATOM     10  G   UNL     1      27.359  56.196  11.859  1.00  0.00     0.000 G0
ENDBRANCH   6   7
ENDBRANCH   5   6
ENDBRANCH   3   5
ENDBRANCH   1   3
BRANCH   1  11
ATOM     11  C   UNL     1      25.194  54.354  10.556  1.00  0.00     0.087 C 
BRANCH  11  12
ATOM     12  C   UNL     1      25.786  55.588   9.831  1.00  0.00     0.066 C 
BRANCH  12  13
ATOM     13  C   UNL     1      26.293  56.585  10.857  1.00  0.00     0.140 C 
ATOM     14  O   UNL     1      25.852  57.725  10.861  1.00  0.00    -0.299 OA
BRANCH  13  15
ATOM     15  C   UNL     1      27.349  56.208  11.861  1.00  0.00     0.106 CG0
ATOM     16  G   UNL     1      28.672  55.966  11.165  1.00  0.00     0.000 G0
ENDBRANCH  13  15
ENDBRANCH  12  13
BRANCH  12  17
ATOM     17  C   UNL     1      24.751  56.270   8.881  1.00  0.00    -0.006 C 
ATOM     18  C   UNL     1      23.304  55.852   9.197  1.00  0.00     0.008 C 
ATOM     19  C   UNL     1      25.051  55.945   7.406  1.00  0.00     0.008 C 
ENDBRANCH  12  17
ENDBRANCH  11  12
ENDBRANCH   1  11
TORSDOF 1
ENDMDL
MODEL 2
REMARK VINA RESULT:    -4.154      7.387      8.745
REMARK INTER + INTRA:          -6.833
REMARK INTER:                  -6.445
REMARK INTRA:                  -0.388
REMARK UNBOUND:                -0.494
REMARK SMILES CC1=CCC[C@@H](C)C(=O)C[C@@H](C(C)C)C(=O)C1
REMARK SMILES IDX 8 1 9 2 6 3 7 4 5 5 4 6 3 7 2 8 1 9 10 11 11 12 15 13 16 14
REMARK SMILES IDX 17 15 12 17 13 18 14 19
REMARK H PARENT
REMARK Flexibility Score: 70.00
ROOT
ATOM      1  C   UNL     1      25.248  50.715  17.573  1.00  0.00     0.136 C 
ATOM      2  O   UNL     1      25.653  49.598  17.283  1.00  0.00    -0.299 OA
ENDROOT
BRANCH   1   3
ATOM      3  C   UNL     1      24.416  50.919  18.820  1.00  0.00     0.053 C 
ATOM      4  C   UNL     1      23.259  51.875  18.509  1.00  0.00     0.016 C 
BRANCH   3   5
ATOM      5  C   UNL     1      25.246  51.451  20.011  1.00  0.00     0.015 C 
BRANCH   5   6
ATOM      6  C   UNL     1      24.855  52.877  20.445  1.00  0.00     0.028 C 
BRANCH   6   7
ATOM      7  C   UNL     1      26.069  53.768  20.574  1.00  0.00    -0.028 C 
ATOM      8  C   UNL     1      26.628  54.508  19.587  1.00  0.00    -0.070 CG0
ATOM      9  C   UNL     1      27.857  55.317  19.921  1.00  0.00     0.039 C 
ATOM     10  G   UNL     1      26.052  54.618  18.191  1.00  0.00     0.000 G0
ENDBRANCH   6   7
ENDBRANCH   5   6
ENDBRANCH   3   5
ENDBRANCH   1   3
BRANCH   1  11
ATOM     11  C   UNL     1      25.620  51.890  16.700  1.00  0.00     0.087 C 
BRANCH  11  12
ATOM     12  C   UNL     1      27.023  52.455  17.031  1.00  0.00     0.066 C 
BRANCH  12  13
ATOM     13  C   UNL     1      26.945  53.966  17.160  1.00  0.00     0.140 C 
ATOM     14  O   UNL     1      27.640  54.670  16.441  1.00  0.00    -0.299 OA
BRANCH  13  15
ATOM     15  C   UNL     1      26.042  54.621  18.171  1.00  0.00     0.106 CG0
ATOM     16  G   UNL     1      26.647  54.521  19.555  1.00  0.00     0.000 G0
ENDBRANCH  13  15
ENDBRANCH  12  13
BRANCH  12  17
ATOM     17  C   UNL     1      28.090  52.059  15.962  1.00  0.00    -0.006 C 
ATOM     18  C   UNL     1      27.458  51.402  14.723  1.00  0.00     0.008 C 
ATOM     19  C   UNL     1      29.140  51.099  16.553  1.00  0.00     0.008 C 
ENDBRANCH  12  17
ENDBRANCH  11  12
ENDBRANCH   1  11
TORSDOF 1
ENDMDL
MODEL 3
REMARK VINA RESULT:    -4.102      6.858      8.658
REMARK INTER + INTRA:          -6.754
REMARK INTER:                  -6.425
REMARK INTRA:                  -0.329
REMARK UNBOUND:                -0.494
REMARK SMILES CC1=CCC[C@@H](C)C(=O)C[C@@H](C(C)C)C(=O)C1
REMARK SMILES IDX 8 1 9 2 6 3 7 4 5 5 4 6 3 7 2 8 1 9 10 11 11 12 15 13 16 14
REMARK SMILES IDX 17 15 12 17 13 18 14 19
REMARK H PARENT
REMARK Flexibility Score: 70.00
ROOT
ATOM      1  C   UNL     1      26.346  53.766  17.051  1.00  0.00     0.136 C 
ATOM      2  O   UNL     1      26.175  54.600  16.173  1.00  0.00    -0.299 OA
ENDROOT
BRANCH   1   3
ATOM      3  C   UNL     1      27.549  53.861  17.964  1.00  0.00     0.053 C 
ATOM      4  C   UNL     1      27.347  55.013  18.954  1.00  0.00     0.016 C 
BRANCH   3   5
ATOM      5  C   UNL     1      28.873  54.047  17.188  1.00  0.00     0.015 C 
BRANCH   5   6
ATOM      6  C   UNL     1      29.602  52.721  16.891  1.00  0.00     0.028 C 
BRANCH   6   7
ATOM      7  C   UNL     1      29.060  52.059  15.645  1.00  0.00    -0.028 C 
ATOM      8  C   UNL     1      28.329  50.921  15.595  1.00  0.00    -0.070 CG0
ATOM      9  C   UNL     1      27.902  50.414  14.240  1.00  0.00     0.039 C 
ATOM     10  G   UNL     1      27.864  50.168  16.824  1.00  0.00     0.000 G0
ENDBRANCH   6   7
ENDBRANCH   5   6
ENDBRANCH   3   5
ENDBRANCH   1   3
BRANCH   1  11
ATOM     11  C   UNL     1      25.327  52.667  17.241  1.00  0.00     0.087 C 
BRANCH  11  12
ATOM     12  C   UNL     1      25.896  51.460  18.028  1.00  0.00     0.066 C 
BRANCH  12  13
ATOM     13  C   UNL     1      26.373  50.398  17.054  1.00  0.00     0.140 C 
ATOM     14  O   UNL     1      25.554  49.713  16.458  1.00  0.00    -0.299 OA
BRANCH  13  15
ATOM     15  C   UNL     1      27.839  50.152  16.818  1.00  0.00     0.106 CG0
ATOM     16  G   UNL     1      28.313  50.926  15.607  1.00  0.00     0.000 G0
ENDBRANCH  13  15
ENDBRANCH  12  13
BRANCH  12  17
ATOM     17  C   UNL     1      24.854  50.854  19.020  1.00  0.00    -0.006 C 
ATOM     18  C   UNL     1      23.424  51.350  18.739  1.00  0.00     0.008 C 
ATOM     19  C   UNL     1      25.217  51.185  20.479  1.00  0.00     0.008 C 
ENDBRANCH  12  17
ENDBRANCH  11  12
ENDBRANCH   1  11
TORSDOF 1
ENDMDL
MODEL 4
REMARK VINA RESULT:    -4.040      1.524      2.712
REMARK INTER + INTRA:          -6.660
REMARK INTER:                  -6.283
REMARK INTRA:                  -0.377
REMARK UNBOUND:                -0.494
REMARK SMILES CC1=CCC[C@@H](C)C(=O)C[C@@H](C(C)C)C(=O)C1
REMARK SMILES IDX 8 1 9 2 6 3 7 4 5 5 4 6 3 7 2 8 1 9 10 11 11 12 15 13 16 14
REMARK SMILES IDX 17 15 12 17 13 18 14 19
REMARK H PARENT
REMARK Flexibility Score: 70.00
ROOT
ATOM      1  C   UNL     1      27.310  53.130  11.355  1.00  0.00     0.136 C 
ATOM      2  O   UNL     1      27.290  52.828  12.541  1.00  0.00    -0.299 OA
ENDROOT
BRANCH   1   3
ATOM      3  C   UNL     1      28.614  53.521  10.694  1.00  0.00     0.053 C 
ATOM      4  C   UNL     1      29.507  52.283  10.558  1.00  0.00     0.016 C 
BRANCH   3   5
ATOM      5  C   UNL     1      29.359  54.638  11.459  1.00  0.00     0.015 C 
BRANCH   5   6
ATOM      6  C   UNL     1      28.969  56.059  11.005  1.00  0.00     0.028 C 
BRANCH   6   7
ATOM      7  C   UNL     1      27.840  56.617  11.844  1.00  0.00    -0.028 C 
ATOM      8  C   UNL     1      26.595  56.921  11.410  1.00  0.00    -0.070 CG0
ATOM      9  C   UNL     1      25.619  57.490  12.409  1.00  0.00     0.039 C 
ATOM     10  G   UNL     1      26.111  56.662   9.999  1.00  0.00     0.000 G0
ENDBRANCH   6   7
ENDBRANCH   5   6
ENDBRANCH   3   5
ENDBRANCH   1   3
BRANCH   1  11
ATOM     11  C   UNL     1      26.033  53.070  10.552  1.00  0.00     0.087 C 
BRANCH  11  12
ATOM     12  C   UNL     1      26.003  54.112   9.407  1.00  0.00     0.066 C 
BRANCH  12  13
ATOM     13  C   UNL     1      25.340  55.387   9.897  1.00  0.00     0.140 C 
ATOM     14  O   UNL     1      24.159  55.370  10.215  1.00  0.00    -0.299 OA
BRANCH  13  15
ATOM     15  C   UNL     1      26.100  56.683   9.982  1.00  0.00     0.106 CG0
ATOM     16  G   UNL     1      26.588  56.914  11.397  1.00  0.00     0.000 G0
ENDBRANCH  13  15
ENDBRANCH  12  13
BRANCH  12  17
ATOM     17  C   UNL     1      25.270  53.577   8.136  1.00  0.00    -0.006 C 
ATOM     18  C   UNL     1      25.877  52.259   7.624  1.00  0.00     0.008 C 
ATOM     19  C   UNL     1      25.301  54.615   6.998  1.00  0.00     0.008 C 
ENDBRANCH  12  17
ENDBRANCH  11  12
ENDBRANCH   1  11
TORSDOF 1
ENDMDL
MODEL 5
REMARK VINA RESULT:    -4.026      2.354      4.320
REMARK INTER + INTRA:          -6.638
REMARK INTER:                  -6.615
REMARK INTRA:                  -0.024
REMARK UNBOUND:                -0.494
REMARK SMILES CC1=CCC[C@@H](C)C(=O)C[C@@H](C(C)C)C(=O)C1
REMARK SMILES IDX 8 1 9 2 6 3 7 4 5 5 4 6 3 7 2 8 1 9 10 11 11 12 15 13 16 14
REMARK SMILES IDX 17 15 12 17 13 18 14 19
REMARK H PARENT
REMARK Flexibility Score: 70.00
ROOT
ATOM      1  C   UNL     1      28.476  53.580  10.914  1.00  0.00     0.136 C 
ATOM      2  O   UNL     1      29.566  53.041  10.782  1.00  0.00    -0.299 OA
ENDROOT
BRANCH   1   3
ATOM      3  C   UNL     1      28.393  55.065  11.195  1.00  0.00     0.053 C 
ATOM      4  C   UNL     1      29.761  55.708  10.945  1.00  0.00     0.016 C 
BRANCH   3   5
ATOM      5  C   UNL     1      27.908  55.374  12.630  1.00  0.00     0.015 C 
BRANCH   5   6
ATOM      6  C   UNL     1      26.484  55.959  12.685  1.00  0.00     0.028 C 
BRANCH   6   7
ATOM      7  C   UNL     1      25.482  54.933  13.165  1.00  0.00    -0.028 C 
ATOM      8  C   UNL     1      24.530  54.331  12.415  1.00  0.00    -0.070 CG0
ATOM      9  C   UNL     1      23.612  53.346  13.096  1.00  0.00     0.039 C 
ATOM     10  G   UNL     1      24.376  54.543  10.924  1.00  0.00     0.000 G0
ENDBRANCH   6   7
ENDBRANCH   5   6
ENDBRANCH   3   5
ENDBRANCH   1   3
BRANCH   1  11
ATOM     11  C   UNL     1      27.218  52.760  10.754  1.00  0.00     0.087 C 
BRANCH  11  12
ATOM     12  C   UNL     1      26.293  53.305   9.637  1.00  0.00     0.066 C 
BRANCH  12  13
ATOM     13  C   UNL     1      24.864  53.367  10.146  1.00  0.00     0.140 C 
ATOM     14  O   UNL     1      24.096  52.446   9.906  1.00  0.00    -0.299 OA
BRANCH  13  15
ATOM     15  C   UNL     1      24.361  54.552  10.925  1.00  0.00     0.106 CG0
ATOM     16  G   UNL     1      24.548  54.321  12.410  1.00  0.00     0.000 G0
ENDBRANCH  13  15
ENDBRANCH  12  13
BRANCH  12  17
ATOM     17  C   UNL     1      26.365  52.445   8.335  1.00  0.00    -0.006 C 
ATOM     18  C   UNL     1      27.774  51.878   8.087  1.00  0.00     0.008 C 
ATOM     19  C   UNL     1      25.935  53.263   7.104  1.00  0.00     0.008 C 
ENDBRANCH  12  17
ENDBRANCH  11  12
ENDBRANCH   1  11
TORSDOF 1
ENDMDL
MODEL 6
REMARK VINA RESULT:    -4.022      2.882      4.955
REMARK INTER + INTRA:          -6.632
REMARK INTER:                  -6.215
REMARK INTRA:                  -0.417
REMARK UNBOUND:                -0.494
REMARK SMILES CC1=CCC[C@@H](C)C(=O)C[C@@H](C(C)C)C(=O)C1
REMARK SMILES IDX 8 1 9 2 6 3 7 4 5 5 4 6 3 7 2 8 1 9 10 11 11 12 15 13 16 14
REMARK SMILES IDX 17 15 12 17 13 18 14 19
REMARK H PARENT
REMARK Flexibility Score: 70.00
ROOT
ATOM      1  C   UNL     1      24.761  55.229   8.529  1.00  0.00     0.136 C 
ATOM      2  O   UNL     1      24.055  56.067   7.985  1.00  0.00    -0.299 OA
ENDROOT
BRANCH   1   3
ATOM      3  C   UNL     1      25.043  53.912   7.839  1.00  0.00     0.053 C 
ATOM      4  C   UNL     1      25.646  54.180   6.457  1.00  0.00     0.016 C 
BRANCH   3   5
ATOM      5  C   UNL     1      23.784  53.024   7.712  1.00  0.00     0.015 C 
BRANCH   5   6
ATOM      6  C   UNL     1      23.584  52.067   8.904  1.00  0.00     0.028 C 
BRANCH   6   7
ATOM      7  C   UNL     1      22.544  52.595   9.868  1.00  0.00    -0.028 C 
ATOM      8  C   UNL     1      22.728  52.850  11.184  1.00  0.00    -0.070 CG0
ATOM      9  C   UNL     1      21.548  53.353  11.977  1.00  0.00     0.039 C 
ATOM     10  G   UNL     1      24.063  52.718  11.887  1.00  0.00     0.000 G0
ENDBRANCH   6   7
ENDBRANCH   5   6
ENDBRANCH   3   5
ENDBRANCH   1   3
BRANCH   1  11
ATOM     11  C   UNL     1      25.378  55.536   9.872  1.00  0.00     0.087 C 
BRANCH  11  12
ATOM     12  C   UNL     1      25.803  54.258  10.636  1.00  0.00     0.066 C 
BRANCH  12  13
ATOM     13  C   UNL     1      24.849  54.017  11.793  1.00  0.00     0.140 C 
ATOM     14  O   UNL     1      24.723  54.870  12.660  1.00  0.00    -0.299 OA
BRANCH  13  15
ATOM     15  C   UNL     1      24.067  52.736  11.910  1.00  0.00     0.106 CG0
ATOM     16  G   UNL     1      22.745  52.861  11.182  1.00  0.00     0.000 G0
ENDBRANCH  13  15
ENDBRANCH  12  13
BRANCH  12  17
ATOM     17  C   UNL     1      27.273  54.338  11.157  1.00  0.00    -0.006 C 
ATOM     18  C   UNL     1      28.014  55.578  10.625  1.00  0.00     0.008 C 
ATOM     19  C   UNL     1      28.070  53.079  10.770  1.00  0.00     0.008 C 
ENDBRANCH  12  17
ENDBRANCH  11  12
ENDBRANCH   1  11
TORSDOF 1
ENDMDL
MODEL 7
REMARK VINA RESULT:    -3.984      6.858      8.672
REMARK INTER + INTRA:          -6.574
REMARK INTER:                  -6.227
REMARK INTRA:                  -0.347
REMARK UNBOUND:                -0.494
REMARK SMILES CC1=CCC[C@@H](C)C(=O)C[C@@H](C(C)C)C(=O)C1
REMARK SMILES IDX 8 1 9 2 6 3 7 4 5 5 4 6 3 7 2 8 1 9 10 11 11 12 15 13 16 14
REMARK SMILES IDX 17 15 12 17 13 18 14 19
REMARK H PARENT
REMARK Flexibility Score: 70.00
ROOT
ATOM      1  C   UNL     1      27.515  54.357  16.512  1.00  0.00     0.136 C 
ATOM      2  O   UNL     1      27.449  54.685  15.336  1.00  0.00    -0.299 OA
ENDROOT
BRANCH   1   3
ATOM      3  C   UNL     1      28.849  53.981  17.121  1.00  0.00     0.053 C 
ATOM      4  C   UNL     1      29.690  55.245  17.324  1.00  0.00     0.016 C 
BRANCH   3   5
ATOM      5  C   UNL     1      29.624  52.951  16.268  1.00  0.00     0.015 C 
BRANCH   5   6
ATOM      6  C   UNL     1      29.342  51.488  16.665  1.00  0.00     0.028 C 
BRANCH   6   7
ATOM      7  C   UNL     1      28.192  50.912  15.869  1.00  0.00    -0.028 C 
ATOM      8  C   UNL     1      26.980  50.558  16.355  1.00  0.00    -0.070 CG0
ATOM      9  C   UNL     1      25.975  49.978  15.392  1.00  0.00     0.039 C 
ATOM     10  G   UNL     1      26.557  50.770  17.794  1.00  0.00     0.000 G0
ENDBRANCH   6   7
ENDBRANCH   5   6
ENDBRANCH   3   5
ENDBRANCH   1   3
BRANCH   1  11
ATOM     11  C   UNL     1      26.265  54.369  17.359  1.00  0.00     0.087 C 
BRANCH  11  12
ATOM     12  C   UNL     1      26.294  53.297  18.476  1.00  0.00     0.066 C 
BRANCH  12  13
ATOM     13  C   UNL     1      25.706  51.999  17.950  1.00  0.00     0.140 C 
ATOM     14  O   UNL     1      24.521  51.949  17.656  1.00  0.00    -0.299 OA
BRANCH  13  15
ATOM     15  C   UNL     1      26.548  50.761  17.802  1.00  0.00     0.106 CG0
ATOM     16  G   UNL     1      26.975  50.586  16.360  1.00  0.00     0.000 G0
ENDBRANCH  13  15
ENDBRANCH  12  13
BRANCH  12  17
ATOM     17  C   UNL     1      25.529  53.755  19.758  1.00  0.00    -0.006 C 
ATOM     18  C   UNL     1      26.059  55.092  20.307  1.00  0.00     0.008 C 
ATOM     19  C   UNL     1      25.619  52.691  20.868  1.00  0.00     0.008 C 
ENDBRANCH  12  17
ENDBRANCH  11  12
ENDBRANCH   1  11
TORSDOF 1
ENDMDL
MODEL 8
REMARK VINA RESULT:    -3.831      3.157      4.701
REMARK INTER + INTRA:          -6.340
REMARK INTER:                  -6.759
REMARK INTRA:                   0.419
REMARK UNBOUND:                -0.494
REMARK SMILES CC1=CCC[C@@H](C)C(=O)C[C@@H](C(C)C)C(=O)C1
REMARK SMILES IDX 8 1 9 2 6 3 7 4 5 5 4 6 3 7 2 8 1 9 10 11 11 12 15 13 16 14
REMARK SMILES IDX 17 15 12 17 13 18 14 19
REMARK H PARENT
REMARK Flexibility Score: 70.00
ROOT
ATOM      1  C   UNL     1      26.950  52.649   8.756  1.00  0.00     0.136 C 
ATOM      2  O   UNL     1      27.922  52.023   8.357  1.00  0.00    -0.299 OA
ENDROOT
BRANCH   1   3
ATOM      3  C   UNL     1      27.004  53.366  10.088  1.00  0.00     0.053 C 
ATOM      4  C   UNL     1      28.395  53.190  10.705  1.00  0.00     0.016 C 
BRANCH   3   5
ATOM      5  C   UNL     1      25.915  52.879  11.072  1.00  0.00     0.015 C 
BRANCH   5   6
ATOM      6  C   UNL     1      24.974  54.002  11.551  1.00  0.00     0.028 C 
BRANCH   6   7
ATOM      7  C   UNL     1      23.562  53.496  11.743  1.00  0.00    -0.028 C 
ATOM      8  C   UNL     1      22.521  53.684  10.899  1.00  0.00    -0.070 CG0
ATOM      9  C   UNL     1      21.182  53.112  11.290  1.00  0.00     0.039 C 
ATOM     10  G   UNL     1      22.642  54.380   9.559  1.00  0.00     0.000 G0
ENDBRANCH   6   7
ENDBRANCH   5   6
ENDBRANCH   3   5
ENDBRANCH   1   3
BRANCH   1  11
ATOM     11  C   UNL     1      25.714  52.732   7.892  1.00  0.00     0.087 C 
BRANCH  11  12
ATOM     12  C   UNL     1      24.858  53.986   8.200  1.00  0.00     0.066 C 
BRANCH  12  13
ATOM     13  C   UNL     1      23.460  53.559   8.611  1.00  0.00     0.140 C 
ATOM     14  O   UNL     1      22.983  52.531   8.152  1.00  0.00    -0.299 OA
BRANCH  13  15
ATOM     15  C   UNL     1      22.635  54.386   9.559  1.00  0.00     0.106 CG0
ATOM     16  G   UNL     1      22.507  53.683  10.894  1.00  0.00     0.000 G0
ENDBRANCH  13  15
ENDBRANCH  12  13
BRANCH  12  17
ATOM     17  C   UNL     1      24.787  54.969   6.988  1.00  0.00    -0.006 C 
ATOM     18  C   UNL     1      25.640  54.491   5.800  1.00  0.00     0.008 C 
ATOM     19  C   UNL     1      25.245  56.383   7.392  1.00  0.00     0.008 C 
ENDBRANCH  12  17
ENDBRANCH  11  12
ENDBRANCH   1  11
TORSDOF 1
ENDMDL
MODEL 9
REMARK VINA RESULT:    -3.780      1.968      4.694
REMARK INTER + INTRA:          -6.263
REMARK INTER:                  -6.323
REMARK INTRA:                   0.060
REMARK UNBOUND:                -0.494
REMARK SMILES CC1=CCC[C@@H](C)C(=O)C[C@@H](C(C)C)C(=O)C1
REMARK SMILES IDX 8 1 9 2 6 3 7 4 5 5 4 6 3 7 2 8 1 9 10 11 11 12 15 13 16 14
REMARK SMILES IDX 17 15 12 17 13 18 14 19
REMARK H PARENT
REMARK Flexibility Score: 70.00
ROOT
ATOM      1  C   UNL     1      24.858  56.373  10.450  1.00  0.00     0.136 C 
ATOM      2  O   UNL     1      25.027  57.564  10.672  1.00  0.00    -0.299 OA
ENDROOT
BRANCH   1   3
ATOM      3  C   UNL     1      24.034  55.932   9.260  1.00  0.00     0.053 C 
ATOM      4  C   UNL     1      23.145  54.752   9.665  1.00  0.00     0.016 C 
BRANCH   3   5
ATOM      5  C   UNL     1      24.904  55.555   8.039  1.00  0.00     0.015 C 
BRANCH   5   6
ATOM      6  C   UNL     1      24.555  54.180   7.437  1.00  0.00     0.028 C 
BRANCH   6   7
ATOM      7  C   UNL     1      25.779  53.300   7.320  1.00  0.00    -0.028 C 
ATOM      8  C   UNL     1      26.455  52.728   8.344  1.00  0.00    -0.070 CG0
ATOM      9  C   UNL     1      27.671  51.900   8.011  1.00  0.00     0.039 C 
ATOM     10  G   UNL     1      26.023  52.822   9.792  1.00  0.00     0.000 G0
ENDBRANCH   6   7
ENDBRANCH   5   6
ENDBRANCH   3   5
ENDBRANCH   1   3
BRANCH   1  11
ATOM     11  C   UNL     1      25.510  55.350  11.350  1.00  0.00     0.087 C 
BRANCH  11  12
ATOM     12  C   UNL     1      26.954  55.007  10.909  1.00  0.00     0.066 C 
BRANCH  12  13
ATOM     13  C   UNL     1      27.055  53.520  10.614  1.00  0.00     0.140 C 
ATOM     14  O   UNL     1      28.008  52.884  11.040  1.00  0.00    -0.299 OA
BRANCH  13  15
ATOM     15  C   UNL     1      26.016  52.812   9.788  1.00  0.00     0.106 CG0
ATOM     16  G   UNL     1      26.466  52.721   8.345  1.00  0.00     0.000 G0
ENDBRANCH  13  15
ENDBRANCH  12  13
BRANCH  12  17
ATOM     17  C   UNL     1      28.015  55.419  11.977  1.00  0.00    -0.006 C 
ATOM     18  C   UNL     1      27.437  55.421  13.403  1.00  0.00     0.008 C 
ATOM     19  C   UNL     1      28.597  56.812  11.675  1.00  0.00     0.008 C 
ENDBRANCH  12  17
ENDBRANCH  11  12
ENDBRANCH   1  11
TORSDOF 1
ENDMDL
