MODEL 1
REMARK VINA RESULT:    -3.484      0.000      0.000
REMARK INTER + INTRA:          -5.884
REMARK INTER:                  -5.521
REMARK INTRA:                  -0.364
REMARK UNBOUND:                -0.364
REMARK SMILES CCCCCCCCCCCC(=O)[O-]
REMARK SMILES IDX 7 1 8 2 9 3 10 4 11 5 12 6 13 7 14 8 6 9 5 10 4 11 3 12 2 13
REMARK SMILES IDX 1 14
REMARK H PARENT
REMARK Flexibility Score: inf
ROOT
ATOM      1  C   UNL     1      59.932  24.660  50.741  1.00  0.00     0.000 C 
ENDROOT
BRANCH   1   2
ATOM      2  C   UNL     1      60.083  23.132  50.629  1.00  0.00     0.000 C 
BRANCH   2   3
ATOM      3  C   UNL     1      61.097  22.656  49.573  1.00  0.00     0.000 C 
BRANCH   3   4
ATOM      4  C   UNL     1      61.016  21.144  49.303  1.00  0.00     0.006 C 
BRANCH   4   5
ATOM      5  C   UNL     1      60.620  20.352  50.556  1.00  0.00     0.053 C 
BRANCH   5   6
ATOM      6  C   UNL     1      59.927  19.070  50.212  1.00  0.00     0.041 C 
ATOM      7  O   UNL     1      59.088  19.035  49.274  1.00  0.00    -0.550 OA
ATOM      8  O   UNL     1      60.186  17.919  50.947  1.00  0.00    -0.550 OA
ENDBRANCH   5   6
ENDBRANCH   4   5
ENDBRANCH   3   4
ENDBRANCH   2   3
ENDBRANCH   1   2
BRANCH   1   9
ATOM      9  C   UNL     1      58.751  25.208  49.921  1.00  0.00     0.000 C 
BRANCH   9  10
ATOM     10  C   UNL     1      57.537  25.554  50.808  1.00  0.00    -0.000 C 
BRANCH  10  11
ATOM     11  C   UNL     1      56.198  25.548  50.049  1.00  0.00    -0.000 C 
BRANCH  11  12
ATOM     12  C   UNL     1      55.249  26.668  50.504  1.00  0.00    -0.000 C 
BRANCH  12  13
ATOM     13  C   UNL     1      54.200  27.019  49.437  1.00  0.00    -0.003 C 
ATOM     14  C   UNL     1      54.069  25.945  48.357  1.00  0.00     0.004 C 
ENDBRANCH  12  13
ENDBRANCH  11  12
ENDBRANCH  10  11
ENDBRANCH   9  10
ENDBRANCH   1   9
TORSDOF 10
ENDMDL
MODEL 2
REMARK VINA RESULT:    -3.460     13.343     14.767
REMARK INTER + INTRA:          -5.845
REMARK INTER:                  -5.258
REMARK INTRA:                  -0.587
REMARK UNBOUND:                -0.364
REMARK SMILES CCCCCCCCCCCC(=O)[O-]
REMARK SMILES IDX 7 1 8 2 9 3 10 4 11 5 12 6 13 7 14 8 6 9 5 10 4 11 3 12 2 13
REMARK SMILES IDX 1 14
REMARK H PARENT
REMARK Flexibility Score: inf
ROOT
ATOM      1  C   UNL     1      64.314  30.507  59.622  1.00  0.00     0.000 C 
ENDROOT
BRANCH   1   2
ATOM      2  C   UNL     1      62.786  30.633  59.478  1.00  0.00     0.000 C 
BRANCH   2   3
ATOM      3  C   UNL     1      61.972  29.603  60.283  1.00  0.00     0.000 C 
BRANCH   3   4
ATOM      4  C   UNL     1      62.797  28.916  61.384  1.00  0.00     0.006 C 
BRANCH   4   5
ATOM      5  C   UNL     1      62.437  27.432  61.536  1.00  0.00     0.053 C 
BRANCH   5   6
ATOM      6  C   UNL     1      63.628  26.545  61.337  1.00  0.00     0.041 C 
ATOM      7  O   UNL     1      64.674  26.999  60.803  1.00  0.00    -0.550 OA
ATOM      8  O   UNL     1      63.571  25.209  61.714  1.00  0.00    -0.550 OA
ENDBRANCH   5   6
ENDBRANCH   4   5
ENDBRANCH   3   4
ENDBRANCH   2   3
ENDBRANCH   1   2
BRANCH   1   9
ATOM      9  C   UNL     1      64.973  31.785  60.170  1.00  0.00     0.000 C 
BRANCH   9  10
ATOM     10  C   UNL     1      64.195  33.057  59.773  1.00  0.00    -0.000 C 
BRANCH  10  11
ATOM     11  C   UNL     1      64.691  34.329  60.483  1.00  0.00    -0.000 C 
BRANCH  11  12
ATOM     12  C   UNL     1      63.586  35.383  60.660  1.00  0.00    -0.000 C 
BRANCH  12  13
ATOM     13  C   UNL     1      63.690  36.124  62.002  1.00  0.00    -0.003 C 
ATOM     14  C   UNL     1      65.007  35.852  62.730  1.00  0.00     0.004 C 
ENDBRANCH  12  13
ENDBRANCH  11  12
ENDBRANCH  10  11
ENDBRANCH   9  10
ENDBRANCH   1   9
TORSDOF 10
ENDMDL
MODEL 3
REMARK VINA RESULT:    -3.436     13.249     14.655
REMARK INTER + INTRA:          -5.808
REMARK INTER:                  -4.730
REMARK INTRA:                  -1.079
REMARK UNBOUND:                -0.364
REMARK SMILES CCCCCCCCCCCC(=O)[O-]
REMARK SMILES IDX 7 1 8 2 9 3 10 4 11 5 12 6 13 7 14 8 6 9 5 10 4 11 3 12 2 13
REMARK SMILES IDX 1 14
REMARK H PARENT
REMARK Flexibility Score: inf
ROOT
ATOM      1  C   UNL     1      61.953  29.680  59.998  1.00  0.00     0.000 C 
ENDROOT
BRANCH   1   2
ATOM      2  C   UNL     1      62.745  29.054  61.160  1.00  0.00     0.000 C 
BRANCH   2   3
ATOM      3  C   UNL     1      64.110  29.707  61.441  1.00  0.00     0.000 C 
BRANCH   3   4
ATOM      4  C   UNL     1      65.296  28.821  61.020  1.00  0.00     0.006 C 
BRANCH   4   5
ATOM      5  C   UNL     1      66.455  29.642  60.442  1.00  0.00     0.053 C 
BRANCH   5   6
ATOM      6  C   UNL     1      67.770  28.941  60.600  1.00  0.00     0.041 C 
ATOM      7  O   UNL     1      68.558  28.845  59.624  1.00  0.00    -0.550 OA
ATOM      8  O   UNL     1      68.110  28.366  61.819  1.00  0.00    -0.550 OA
ENDBRANCH   5   6
ENDBRANCH   4   5
ENDBRANCH   3   4
ENDBRANCH   2   3
ENDBRANCH   1   2
BRANCH   1   9
ATOM      9  C   UNL     1      62.832  30.523  59.057  1.00  0.00     0.000 C 
BRANCH   9  10
ATOM     10  C   UNL     1      62.184  31.881  58.715  1.00  0.00    -0.000 C 
BRANCH  10  11
ATOM     11  C   UNL     1      63.129  33.080  58.906  1.00  0.00    -0.000 C 
BRANCH  11  12
ATOM     12  C   UNL     1      64.536  32.665  59.365  1.00  0.00    -0.000 C 
BRANCH  12  13
ATOM     13  C   UNL     1      64.947  33.338  60.683  1.00  0.00    -0.003 C 
ATOM     14  C   UNL     1      64.296  34.708  60.879  1.00  0.00     0.004 C 
ENDBRANCH  12  13
ENDBRANCH  11  12
ENDBRANCH  10  11
ENDBRANCH   9  10
ENDBRANCH   1   9
TORSDOF 10
ENDMDL
MODEL 4
REMARK VINA RESULT:    -3.412      4.777      5.564
REMARK INTER + INTRA:          -5.770
REMARK INTER:                  -5.329
REMARK INTRA:                  -0.441
REMARK UNBOUND:                -0.364
REMARK SMILES CCCCCCCCCCCC(=O)[O-]
REMARK SMILES IDX 7 1 8 2 9 3 10 4 11 5 12 6 13 7 14 8 6 9 5 10 4 11 3 12 2 13
REMARK SMILES IDX 1 14
REMARK H PARENT
REMARK Flexibility Score: inf
ROOT
ATOM      1  C   UNL     1      58.569  25.218  49.926  1.00  0.00     0.000 C 
ENDROOT
BRANCH   1   2
ATOM      2  C   UNL     1      60.076  25.457  49.716  1.00  0.00     0.000 C 
BRANCH   2   3
ATOM      3  C   UNL     1      60.460  26.906  49.366  1.00  0.00     0.000 C 
BRANCH   3   4
ATOM      4  C   UNL     1      61.803  27.335  49.982  1.00  0.00     0.006 C 
BRANCH   4   5
ATOM      5  C   UNL     1      62.976  26.505  49.447  1.00  0.00     0.053 C 
BRANCH   5   6
ATOM      6  C   UNL     1      64.106  27.371  48.978  1.00  0.00     0.041 C 
ATOM      7  O   UNL     1      64.607  27.195  47.837  1.00  0.00    -0.550 OA
ATOM      8  O   UNL     1      64.624  28.352  49.814  1.00  0.00    -0.550 OA
ENDBRANCH   5   6
ENDBRANCH   4   5
ENDBRANCH   3   4
ENDBRANCH   2   3
ENDBRANCH   1   2
BRANCH   1   9
ATOM      9  C   UNL     1      58.129  25.403  51.388  1.00  0.00     0.000 C 
BRANCH   9  10
ATOM     10  C   UNL     1      56.608  25.629  51.513  1.00  0.00    -0.000 C 
BRANCH  10  11
ATOM     11  C   UNL     1      55.895  25.789  50.159  1.00  0.00    -0.000 C 
BRANCH  11  12
ATOM     12  C   UNL     1      54.889  26.951  50.147  1.00  0.00    -0.000 C 
BRANCH  12  13
ATOM     13  C   UNL     1      53.897  26.859  48.977  1.00  0.00    -0.003 C 
ATOM     14  C   UNL     1      53.968  25.519  48.243  1.00  0.00     0.004 C 
ENDBRANCH  12  13
ENDBRANCH  11  12
ENDBRANCH  10  11
ENDBRANCH   9  10
ENDBRANCH   1   9
TORSDOF 10
ENDMDL
MODEL 5
REMARK VINA RESULT:    -3.379     13.190     14.726
REMARK INTER + INTRA:          -5.719
REMARK INTER:                  -5.057
REMARK INTRA:                  -0.662
REMARK UNBOUND:                -0.364
REMARK SMILES CCCCCCCCCCCC(=O)[O-]
REMARK SMILES IDX 7 1 8 2 9 3 10 4 11 5 12 6 13 7 14 8 6 9 5 10 4 11 3 12 2 13
REMARK SMILES IDX 1 14
REMARK H PARENT
REMARK Flexibility Score: inf
ROOT
ATOM      1  C   UNL     1      61.598  31.304  58.803  1.00  0.00     0.000 C 
ENDROOT
BRANCH   1   2
ATOM      2  C   UNL     1      62.202  29.923  59.117  1.00  0.00     0.000 C 
BRANCH   2   3
ATOM      3  C   UNL     1      61.621  29.229  60.362  1.00  0.00     0.000 C 
BRANCH   3   4
ATOM      4  C   UNL     1      62.649  29.072  61.495  1.00  0.00     0.006 C 
BRANCH   4   5
ATOM      5  C   UNL     1      64.032  29.606  61.102  1.00  0.00     0.053 C 
BRANCH   5   6
ATOM      6  C   UNL     1      65.047  28.509  60.999  1.00  0.00     0.041 C 
ATOM      7  O   UNL     1      66.273  28.784  60.932  1.00  0.00    -0.550 OA
ATOM      8  O   UNL     1      64.635  27.183  60.947  1.00  0.00    -0.550 OA
ENDBRANCH   5   6
ENDBRANCH   4   5
ENDBRANCH   3   4
ENDBRANCH   2   3
ENDBRANCH   1   2
BRANCH   1   9
ATOM      9  C   UNL     1      62.622  32.287  58.210  1.00  0.00     0.000 C 
BRANCH   9  10
ATOM     10  C   UNL     1      63.541  32.893  59.292  1.00  0.00    -0.000 C 
BRANCH  10  11
ATOM     11  C   UNL     1      63.538  34.432  59.311  1.00  0.00    -0.000 C 
BRANCH  11  12
ATOM     12  C   UNL     1      63.631  35.012  60.732  1.00  0.00    -0.000 C 
BRANCH  12  13
ATOM     13  C   UNL     1      64.962  34.672  61.420  1.00  0.00    -0.003 C 
ATOM     14  C   UNL     1      65.381  35.719  62.453  1.00  0.00     0.004 C 
ENDBRANCH  12  13
ENDBRANCH  11  12
ENDBRANCH  10  11
ENDBRANCH   9  10
ENDBRANCH   1   9
TORSDOF 10
ENDMDL
MODEL 6
REMARK VINA RESULT:    -3.375     13.104     14.615
REMARK INTER + INTRA:          -5.712
REMARK INTER:                  -4.943
REMARK INTRA:                  -0.769
REMARK UNBOUND:                -0.364
REMARK SMILES CCCCCCCCCCCC(=O)[O-]
REMARK SMILES IDX 7 1 8 2 9 3 10 4 11 5 12 6 13 7 14 8 6 9 5 10 4 11 3 12 2 13
REMARK SMILES IDX 1 14
REMARK H PARENT
REMARK Flexibility Score: inf
ROOT
ATOM      1  C   UNL     1      65.002  30.428  59.058  1.00  0.00     0.000 C 
ENDROOT
BRANCH   1   2
ATOM      2  C   UNL     1      64.663  29.216  59.944  1.00  0.00     0.000 C 
BRANCH   2   3
ATOM      3  C   UNL     1      64.281  29.560  61.396  1.00  0.00     0.000 C 
BRANCH   3   4
ATOM      4  C   UNL     1      62.890  29.033  61.789  1.00  0.00     0.006 C 
BRANCH   4   5
ATOM      5  C   UNL     1      61.853  29.251  60.681  1.00  0.00     0.053 C 
BRANCH   5   6
ATOM      6  C   UNL     1      61.053  28.013  60.413  1.00  0.00     0.041 C 
ATOM      7  O   UNL     1      61.428  27.195  59.534  1.00  0.00    -0.550 OA
ATOM      8  O   UNL     1      59.875  27.780  61.113  1.00  0.00    -0.550 OA
ENDBRANCH   5   6
ENDBRANCH   4   5
ENDBRANCH   3   4
ENDBRANCH   2   3
ENDBRANCH   1   2
BRANCH   1   9
ATOM      9  C   UNL     1      64.794  31.773  59.775  1.00  0.00     0.000 C 
BRANCH   9  10
ATOM     10  C   UNL     1      63.585  32.551  59.214  1.00  0.00    -0.000 C 
BRANCH  10  11
ATOM     11  C   UNL     1      63.530  34.019  59.672  1.00  0.00    -0.000 C 
BRANCH  11  12
ATOM     12  C   UNL     1      64.614  34.363  60.705  1.00  0.00    -0.000 C 
BRANCH  12  13
ATOM     13  C   UNL     1      64.217  35.544  61.605  1.00  0.00    -0.003 C 
ATOM     14  C   UNL     1      65.255  35.841  62.687  1.00  0.00     0.004 C 
ENDBRANCH  12  13
ENDBRANCH  11  12
ENDBRANCH  10  11
ENDBRANCH   9  10
ENDBRANCH   1   9
TORSDOF 10
ENDMDL
MODEL 7
REMARK VINA RESULT:    -3.359     13.859     15.150
REMARK INTER + INTRA:          -5.687
REMARK INTER:                  -4.987
REMARK INTRA:                  -0.700
REMARK UNBOUND:                -0.364
REMARK SMILES CCCCCCCCCCCC(=O)[O-]
REMARK SMILES IDX 7 1 8 2 9 3 10 4 11 5 12 6 13 7 14 8 6 9 5 10 4 11 3 12 2 13
REMARK SMILES IDX 1 14
REMARK H PARENT
REMARK Flexibility Score: inf
ROOT
ATOM      1  C   UNL     1      65.430  31.057  60.406  1.00  0.00     0.000 C 
ENDROOT
BRANCH   1   2
ATOM      2  C   UNL     1      64.699  30.174  61.433  1.00  0.00     0.000 C 
BRANCH   2   3
ATOM      3  C   UNL     1      64.341  28.761  60.937  1.00  0.00     0.000 C 
BRANCH   3   4
ATOM      4  C   UNL     1      65.282  28.260  59.828  1.00  0.00     0.006 C 
BRANCH   4   5
ATOM      5  C   UNL     1      66.392  27.354  60.375  1.00  0.00     0.053 C 
BRANCH   5   6
ATOM      6  C   UNL     1      67.673  28.102  60.582  1.00  0.00     0.041 C 
ATOM      7  O   UNL     1      68.380  28.433  59.594  1.00  0.00    -0.550 OA
ATOM      8  O   UNL     1      68.102  28.405  61.868  1.00  0.00    -0.550 OA
ENDBRANCH   5   6
ENDBRANCH   4   5
ENDBRANCH   3   4
ENDBRANCH   2   3
ENDBRANCH   1   2
BRANCH   1   9
ATOM      9  C   UNL     1      64.907  32.503  60.375  1.00  0.00     0.000 C 
BRANCH   9  10
ATOM     10  C   UNL     1      63.876  32.726  59.249  1.00  0.00    -0.000 C 
BRANCH  10  11
ATOM     11  C   UNL     1      63.015  33.986  59.442  1.00  0.00    -0.000 C 
BRANCH  11  12
ATOM     12  C   UNL     1      63.838  35.212  59.870  1.00  0.00    -0.000 C 
BRANCH  12  13
ATOM     13  C   UNL     1      63.392  35.776  61.228  1.00  0.00    -0.003 C 
ATOM     14  C   UNL     1      64.522  35.804  62.259  1.00  0.00     0.004 C 
ENDBRANCH  12  13
ENDBRANCH  11  12
ENDBRANCH  10  11
ENDBRANCH   9  10
ENDBRANCH   1   9
TORSDOF 10
ENDMDL
MODEL 8
REMARK VINA RESULT:    -3.355     13.689     15.146
REMARK INTER + INTRA:          -5.680
REMARK INTER:                  -4.774
REMARK INTRA:                  -0.906
REMARK UNBOUND:                -0.364
REMARK SMILES CCCCCCCCCCCC(=O)[O-]
REMARK SMILES IDX 7 1 8 2 9 3 10 4 11 5 12 6 13 7 14 8 6 9 5 10 4 11 3 12 2 13
REMARK SMILES IDX 1 14
REMARK H PARENT
REMARK Flexibility Score: inf
ROOT
ATOM      1  C   UNL     1      65.294  32.683  58.887  1.00  0.00     0.000 C 
ENDROOT
BRANCH   1   2
ATOM      2  C   UNL     1      64.612  31.432  59.470  1.00  0.00     0.000 C 
BRANCH   2   3
ATOM      3  C   UNL     1      65.014  31.089  60.916  1.00  0.00     0.000 C 
BRANCH   3   4
ATOM      4  C   UNL     1      64.765  29.614  61.273  1.00  0.00     0.006 C 
BRANCH   4   5
ATOM      5  C   UNL     1      63.288  29.332  61.575  1.00  0.00     0.053 C 
BRANCH   5   6
ATOM      6  C   UNL     1      62.754  28.202  60.748  1.00  0.00     0.041 C 
ATOM      7  O   UNL     1      61.919  27.397  61.238  1.00  0.00    -0.550 OA
ATOM      8  O   UNL     1      63.203  28.020  59.445  1.00  0.00    -0.550 OA
ENDBRANCH   5   6
ENDBRANCH   4   5
ENDBRANCH   3   4
ENDBRANCH   2   3
ENDBRANCH   1   2
BRANCH   1   9
ATOM      9  C   UNL     1      64.292  33.765  58.449  1.00  0.00     0.000 C 
BRANCH   9  10
ATOM     10  C   UNL     1      63.240  34.059  59.538  1.00  0.00    -0.000 C 
BRANCH  10  11
ATOM     11  C   UNL     1      63.195  35.535  59.970  1.00  0.00    -0.000 C 
BRANCH  11  12
ATOM     12  C   UNL     1      63.585  35.738  61.443  1.00  0.00    -0.000 C 
BRANCH  12  13
ATOM     13  C   UNL     1      64.911  35.049  61.802  1.00  0.00    -0.003 C 
ATOM     14  C   UNL     1      66.135  35.893  61.443  1.00  0.00     0.004 C 
ENDBRANCH  12  13
ENDBRANCH  11  12
ENDBRANCH  10  11
ENDBRANCH   9  10
ENDBRANCH   1   9
TORSDOF 10
ENDMDL
MODEL 9
REMARK VINA RESULT:    -3.318     14.008     15.973
REMARK INTER + INTRA:          -5.622
REMARK INTER:                  -4.384
REMARK INTRA:                  -1.238
REMARK UNBOUND:                -0.364
REMARK SMILES CCCCCCCCCCCC(=O)[O-]
REMARK SMILES IDX 7 1 8 2 9 3 10 4 11 5 12 6 13 7 14 8 6 9 5 10 4 11 3 12 2 13
REMARK SMILES IDX 1 14
REMARK H PARENT
REMARK Flexibility Score: inf
ROOT
ATOM      1  C   UNL     1      61.922  30.966  58.277  1.00  0.00     0.000 C 
ENDROOT
BRANCH   1   2
ATOM      2  C   UNL     1      63.310  31.613  58.437  1.00  0.00     0.000 C 
BRANCH   2   3
ATOM      3  C   UNL     1      63.311  32.978  59.150  1.00  0.00     0.000 C 
BRANCH   3   4
ATOM      4  C   UNL     1      64.596  33.233  59.954  1.00  0.00     0.006 C 
BRANCH   4   5
ATOM      5  C   UNL     1      64.462  34.438  60.895  1.00  0.00     0.053 C 
BRANCH   5   6
ATOM      6  C   UNL     1      65.623  35.376  60.770  1.00  0.00     0.041 C 
ATOM      7  O   UNL     1      66.242  35.759  61.797  1.00  0.00    -0.550 OA
ATOM      8  O   UNL     1      66.001  35.853  59.520  1.00  0.00    -0.550 OA
ENDBRANCH   5   6
ENDBRANCH   4   5
ENDBRANCH   3   4
ENDBRANCH   2   3
ENDBRANCH   1   2
BRANCH   1   9
ATOM      9  C   UNL     1      61.498  30.142  59.505  1.00  0.00     0.000 C 
BRANCH   9  10
ATOM     10  C   UNL     1      62.578  29.122  59.923  1.00  0.00    -0.000 C 
BRANCH  10  11
ATOM     11  C   UNL     1      63.038  29.275  61.383  1.00  0.00    -0.000 C 
BRANCH  11  12
ATOM     12  C   UNL     1      64.486  29.777  61.504  1.00  0.00    -0.000 C 
BRANCH  12  13
ATOM     13  C   UNL     1      65.440  29.056  60.539  1.00  0.00    -0.003 C 
ATOM     14  C   UNL     1      66.435  30.005  59.869  1.00  0.00     0.004 C 
ENDBRANCH  12  13
ENDBRANCH  11  12
ENDBRANCH  10  11
ENDBRANCH   9  10
ENDBRANCH   1   9
TORSDOF 10
ENDMDL
