MODEL 1
REMARK VINA RESULT:    -3.585      0.000      0.000
REMARK INTER + INTRA:          -5.332
REMARK INTER:                  -4.842
REMARK INTRA:                  -0.489
REMARK UNBOUND:                -0.489
REMARK SMILES O=C[C@@H](O)[C@@H](O)[C@@H](O)CO
REMARK SMILES IDX 7 1 9 2 10 3 5 5 3 6 2 7 1 8 4 9 6 11 8 13
REMARK H PARENT 10 4 4 10 6 12 8 14
REMARK Flexibility Score: inf
ROOT
ATOM      1  C   UNL     1      22.141   9.832  -7.140  1.00  0.00     0.171 C 
ENDROOT
BRANCH   1   2
ATOM      2  C   UNL     1      23.587  10.088  -6.677  1.00  0.00     0.190 C 
BRANCH   2   3
ATOM      3  O   UNL     1      23.596  10.716  -5.424  1.00  0.00    -0.394 OA
ATOM      4  H   UNL     1      23.584  11.692  -5.604  1.00  0.00     0.210 HD
ENDBRANCH   2   3
ENDBRANCH   1   2
BRANCH   1   5
ATOM      5  C   UNL     1      21.496   8.561  -6.515  1.00  0.00     0.181 C 
BRANCH   5   6
ATOM      6  C   UNL     1      21.314   7.362  -7.481  1.00  0.00     0.209 C 
BRANCH   6   7
ATOM      7  C   UNL     1      21.893   6.089  -6.922  1.00  0.00     0.258 C 
ATOM      8  O   UNL     1      21.340   5.514  -5.997  1.00  0.00    -0.300 OA
ENDBRANCH   6   7
BRANCH   6   9
ATOM      9  O   UNL     1      19.957   7.187  -7.793  1.00  0.00    -0.383 OA
ATOM     10  H   UNL     1      19.563   8.093  -7.889  1.00  0.00     0.211 HD
ENDBRANCH   6   9
ENDBRANCH   5   6
BRANCH   5  11
ATOM     11  O   UNL     1      22.239   8.162  -5.391  1.00  0.00    -0.387 OA
ATOM     12  H   UNL     1      21.619   7.665  -4.796  1.00  0.00     0.211 HD
ENDBRANCH   5  11
ENDBRANCH   1   5
BRANCH   1  13
ATOM     13  O   UNL     1      21.366  10.952  -6.795  1.00  0.00    -0.388 OA
ATOM     14  H   UNL     1      20.786  10.683  -6.035  1.00  0.00     0.211 HD
ENDBRANCH   1  13
TORSDOF 8
ENDMDL
MODEL 2
REMARK VINA RESULT:    -3.556      1.775      2.982
REMARK INTER + INTRA:          -5.292
REMARK INTER:                  -4.775
REMARK INTRA:                  -0.517
REMARK UNBOUND:                -0.489
REMARK SMILES O=C[C@@H](O)[C@@H](O)[C@@H](O)CO
REMARK SMILES IDX 7 1 9 2 10 3 5 5 3 6 2 7 1 8 4 9 6 11 8 13
REMARK H PARENT 10 4 4 10 6 12 8 14
REMARK Flexibility Score: inf
ROOT
ATOM      1  C   UNL     1      21.611  10.998  -8.304  1.00  0.00     0.171 C 
ENDROOT
BRANCH   1   2
ATOM      2  C   UNL     1      22.652  11.979  -8.873  1.00  0.00     0.190 C 
BRANCH   2   3
ATOM      3  O   UNL     1      22.148  13.287  -8.865  1.00  0.00    -0.394 OA
ATOM      4  H   UNL     1      22.266  13.624  -7.940  1.00  0.00     0.210 HD
ENDBRANCH   2   3
ENDBRANCH   1   2
BRANCH   1   5
ATOM      5  C   UNL     1      22.221   9.670  -7.772  1.00  0.00     0.181 C 
BRANCH   5   6
ATOM      6  C   UNL     1      22.309   9.546  -6.229  1.00  0.00     0.209 C 
BRANCH   6   7
ATOM      7  C   UNL     1      22.684   8.155  -5.790  1.00  0.00     0.258 C 
ATOM      8  O   UNL     1      21.837   7.278  -5.729  1.00  0.00    -0.300 OA
ENDBRANCH   6   7
BRANCH   6   9
ATOM      9  O   UNL     1      23.219  10.484  -5.715  1.00  0.00    -0.383 OA
ATOM     10  H   UNL     1      22.849  11.384  -5.913  1.00  0.00     0.211 HD
ENDBRANCH   6   9
ENDBRANCH   5   6
BRANCH   5  11
ATOM     11  O   UNL     1      21.505   8.581  -8.299  1.00  0.00    -0.387 OA
ATOM     12  H   UNL     1      21.270   7.992  -7.534  1.00  0.00     0.211 HD
ENDBRANCH   5  11
ENDBRANCH   1   5
BRANCH   1  13
ATOM     13  O   UNL     1      20.931  11.639  -7.255  1.00  0.00    -0.388 OA
ATOM     14  H   UNL     1      20.087  11.138  -7.105  1.00  0.00     0.211 HD
ENDBRANCH   1  13
TORSDOF 8
ENDMDL
MODEL 3
REMARK VINA RESULT:    -3.494      1.171      2.377
REMARK INTER + INTRA:          -5.209
REMARK INTER:                  -4.754
REMARK INTRA:                  -0.455
REMARK UNBOUND:                -0.489
REMARK SMILES O=C[C@@H](O)[C@@H](O)[C@@H](O)CO
REMARK SMILES IDX 7 1 9 2 10 3 5 5 3 6 2 7 1 8 4 9 6 11 8 13
REMARK H PARENT 10 4 4 10 6 12 8 14
REMARK Flexibility Score: inf
ROOT
ATOM      1  C   UNL     1      22.004  10.002  -6.889  1.00  0.00     0.171 C 
ENDROOT
BRANCH   1   2
ATOM      2  C   UNL     1      22.014  10.836  -8.183  1.00  0.00     0.190 C 
BRANCH   2   3
ATOM      3  O   UNL     1      21.227  11.986  -8.029  1.00  0.00    -0.394 OA
ATOM      4  H   UNL     1      21.728  12.584  -7.417  1.00  0.00     0.210 HD
ENDBRANCH   2   3
ENDBRANCH   1   2
BRANCH   1   5
ATOM      5  C   UNL     1      22.149   8.471  -7.125  1.00  0.00     0.181 C 
BRANCH   5   6
ATOM      6  C   UNL     1      22.429   7.624  -5.857  1.00  0.00     0.209 C 
BRANCH   6   7
ATOM      7  C   UNL     1      22.291   6.146  -6.117  1.00  0.00     0.258 C 
ATOM      8  O   UNL     1      21.190   5.618  -6.104  1.00  0.00    -0.300 OA
ENDBRANCH   6   7
BRANCH   6   9
ATOM      9  O   UNL     1      23.704   7.913  -5.347  1.00  0.00    -0.383 OA
ATOM     10  H   UNL     1      23.760   8.900  -5.250  1.00  0.00     0.211 HD
ENDBRANCH   6   9
ENDBRANCH   5   6
BRANCH   5  11
ATOM     11  O   UNL     1      21.003   7.987  -7.780  1.00  0.00    -0.387 OA
ATOM     12  H   UNL     1      20.352   7.734  -7.074  1.00  0.00     0.211 HD
ENDBRANCH   5  11
ENDBRANCH   1   5
BRANCH   1  13
ATOM     13  O   UNL     1      23.064  10.440  -6.077  1.00  0.00    -0.388 OA
ATOM     14  H   UNL     1      23.407   9.644  -5.591  1.00  0.00     0.211 HD
ENDBRANCH   1  13
TORSDOF 8
ENDMDL
MODEL 4
REMARK VINA RESULT:    -3.400      2.155      4.008
REMARK INTER + INTRA:          -5.082
REMARK INTER:                  -4.557
REMARK INTRA:                  -0.525
REMARK UNBOUND:                -0.489
REMARK SMILES O=C[C@@H](O)[C@@H](O)[C@@H](O)CO
REMARK SMILES IDX 7 1 9 2 10 3 5 5 3 6 2 7 1 8 4 9 6 11 8 13
REMARK H PARENT 10 4 4 10 6 12 8 14
REMARK Flexibility Score: inf
ROOT
ATOM      1  C   UNL     1      23.395   5.880  -6.260  1.00  0.00     0.171 C 
ENDROOT
BRANCH   1   2
ATOM      2  C   UNL     1      23.421   4.340  -6.271  1.00  0.00     0.190 C 
BRANCH   2   3
ATOM      3  O   UNL     1      23.205   3.839  -4.980  1.00  0.00    -0.394 OA
ATOM      4  H   UNL     1      22.805   4.582  -4.458  1.00  0.00     0.210 HD
ENDBRANCH   2   3
ENDBRANCH   1   2
BRANCH   1   5
ATOM      5  C   UNL     1      21.969   6.485  -6.115  1.00  0.00     0.181 C 
BRANCH   5   6
ATOM      6  C   UNL     1      21.499   7.376  -7.294  1.00  0.00     0.209 C 
BRANCH   6   7
ATOM      7  C   UNL     1      20.385   6.737  -8.081  1.00  0.00     0.258 C 
ATOM      8  O   UNL     1      20.558   5.662  -8.635  1.00  0.00    -0.300 OA
ENDBRANCH   6   7
BRANCH   6   9
ATOM      9  O   UNL     1      21.105   8.639  -6.826  1.00  0.00    -0.383 OA
ATOM     10  H   UNL     1      21.866   9.257  -6.985  1.00  0.00     0.211 HD
ENDBRANCH   6   9
ENDBRANCH   5   6
BRANCH   5  11
ATOM     11  O   UNL     1      21.041   5.452  -5.897  1.00  0.00    -0.387 OA
ATOM     12  H   UNL     1      21.037   4.889  -6.715  1.00  0.00     0.211 HD
ENDBRANCH   5  11
ENDBRANCH   1   5
BRANCH   1  13
ATOM     13  O   UNL     1      24.189   6.324  -5.190  1.00  0.00    -0.388 OA
ATOM     14  H   UNL     1      24.494   5.517  -4.698  1.00  0.00     0.211 HD
ENDBRANCH   1  13
TORSDOF 8
ENDMDL
MODEL 5
REMARK VINA RESULT:    -3.371      1.580      2.311
REMARK INTER + INTRA:          -5.042
REMARK INTER:                  -4.584
REMARK INTRA:                  -0.458
REMARK UNBOUND:                -0.489
REMARK SMILES O=C[C@@H](O)[C@@H](O)[C@@H](O)CO
REMARK SMILES IDX 7 1 9 2 10 3 5 5 3 6 2 7 1 8 4 9 6 11 8 13
REMARK H PARENT 10 4 4 10 6 12 8 14
REMARK Flexibility Score: inf
ROOT
ATOM      1  C   UNL     1      22.184   8.380  -6.776  1.00  0.00     0.171 C 
ENDROOT
BRANCH   1   2
ATOM      2  C   UNL     1      22.312   9.782  -6.151  1.00  0.00     0.190 C 
BRANCH   2   3
ATOM      3  O   UNL     1      21.428  10.676  -6.771  1.00  0.00    -0.394 OA
ATOM      4  H   UNL     1      21.788  11.584  -6.599  1.00  0.00     0.210 HD
ENDBRANCH   2   3
ENDBRANCH   1   2
BRANCH   1   5
ATOM      5  C   UNL     1      22.735   7.236  -5.876  1.00  0.00     0.181 C 
BRANCH   5   6
ATOM      6  C   UNL     1      22.452   5.797  -6.379  1.00  0.00     0.209 C 
BRANCH   6   7
ATOM      7  C   UNL     1      23.543   4.834  -5.991  1.00  0.00     0.258 C 
ATOM      8  O   UNL     1      23.668   4.478  -4.829  1.00  0.00    -0.300 OA
ENDBRANCH   6   7
BRANCH   6   9
ATOM      9  O   UNL     1      21.211   5.347  -5.901  1.00  0.00    -0.383 OA
ATOM     10  H   UNL     1      21.301   5.242  -4.918  1.00  0.00     0.211 HD
ENDBRANCH   6   9
ENDBRANCH   5   6
BRANCH   5  11
ATOM     11  O   UNL     1      24.116   7.413  -5.685  1.00  0.00    -0.387 OA
ATOM     12  H   UNL     1      24.298   8.386  -5.772  1.00  0.00     0.211 HD
ENDBRANCH   5  11
ENDBRANCH   1   5
BRANCH   1  13
ATOM     13  O   UNL     1      20.826   8.139  -7.039  1.00  0.00    -0.388 OA
ATOM     14  H   UNL     1      20.782   7.569  -7.851  1.00  0.00     0.211 HD
ENDBRANCH   1  13
TORSDOF 8
ENDMDL
MODEL 6
REMARK VINA RESULT:    -3.327      1.553      2.617
REMARK INTER + INTRA:          -4.983
REMARK INTER:                  -4.220
REMARK INTRA:                  -0.764
REMARK UNBOUND:                -0.489
REMARK SMILES O=C[C@@H](O)[C@@H](O)[C@@H](O)CO
REMARK SMILES IDX 7 1 9 2 10 3 5 5 3 6 2 7 1 8 4 9 6 11 8 13
REMARK H PARENT 10 4 4 10 6 12 8 14
REMARK Flexibility Score: inf
ROOT
ATOM      1  C   UNL     1      23.194   8.316  -5.663  1.00  0.00     0.171 C 
ENDROOT
BRANCH   1   2
ATOM      2  C   UNL     1      22.737   9.688  -6.190  1.00  0.00     0.190 C 
BRANCH   2   3
ATOM      3  O   UNL     1      21.361   9.677  -6.454  1.00  0.00    -0.394 OA
ATOM      4  H   UNL     1      21.104  10.620  -6.622  1.00  0.00     0.210 HD
ENDBRANCH   2   3
ENDBRANCH   1   2
BRANCH   1   5
ATOM      5  C   UNL     1      22.906   7.138  -6.639  1.00  0.00     0.181 C 
BRANCH   5   6
ATOM      6  C   UNL     1      21.613   6.333  -6.350  1.00  0.00     0.209 C 
BRANCH   6   7
ATOM      7  C   UNL     1      20.658   6.353  -7.514  1.00  0.00     0.258 C 
ATOM      8  O   UNL     1      19.988   7.348  -7.746  1.00  0.00    -0.300 OA
ENDBRANCH   6   7
BRANCH   6   9
ATOM      9  O   UNL     1      21.928   5.011  -5.998  1.00  0.00    -0.383 OA
ATOM     10  H   UNL     1      21.260   4.725  -5.321  1.00  0.00     0.211 HD
ENDBRANCH   6   9
ENDBRANCH   5   6
BRANCH   5  11
ATOM     11  O   UNL     1      22.886   7.618  -7.960  1.00  0.00    -0.387 OA
ATOM     12  H   UNL     1      23.616   8.287  -8.036  1.00  0.00     0.211 HD
ENDBRANCH   5  11
ENDBRANCH   1   5
BRANCH   1  13
ATOM     13  O   UNL     1      24.577   8.378  -5.420  1.00  0.00    -0.388 OA
ATOM     14  H   UNL     1      24.695   8.755  -4.509  1.00  0.00     0.211 HD
ENDBRANCH   1  13
TORSDOF 8
ENDMDL
MODEL 7
REMARK VINA RESULT:    -3.245      1.157      4.345
REMARK INTER + INTRA:          -4.872
REMARK INTER:                  -4.373
REMARK INTRA:                  -0.499
REMARK UNBOUND:                -0.489
REMARK SMILES O=C[C@@H](O)[C@@H](O)[C@@H](O)CO
REMARK SMILES IDX 7 1 9 2 10 3 5 5 3 6 2 7 1 8 4 9 6 11 8 13
REMARK H PARENT 10 4 4 10 6 12 8 14
REMARK Flexibility Score: inf
ROOT
ATOM      1  C   UNL     1      22.261   6.226  -6.659  1.00  0.00     0.171 C 
ENDROOT
BRANCH   1   2
ATOM      2  C   UNL     1      22.311   5.765  -8.127  1.00  0.00     0.190 C 
BRANCH   2   3
ATOM      3  O   UNL     1      21.061   5.275  -8.529  1.00  0.00    -0.394 OA
ATOM      4  H   UNL     1      21.233   4.685  -9.308  1.00  0.00     0.210 HD
ENDBRANCH   2   3
ENDBRANCH   1   2
BRANCH   1   5
ATOM      5  C   UNL     1      21.649   7.643  -6.464  1.00  0.00     0.181 C 
BRANCH   5   6
ATOM      6  C   UNL     1      22.637   8.826  -6.640  1.00  0.00     0.209 C 
BRANCH   6   7
ATOM      7  C   UNL     1      22.159   9.819  -7.666  1.00  0.00     0.258 C 
ATOM      8  O   UNL     1      21.366  10.695  -7.355  1.00  0.00    -0.300 OA
ENDBRANCH   6   7
BRANCH   6   9
ATOM      9  O   UNL     1      22.860   9.464  -5.409  1.00  0.00    -0.383 OA
ATOM     10  H   UNL     1      23.763   9.190  -5.102  1.00  0.00     0.211 HD
ENDBRANCH   6   9
ENDBRANCH   5   6
BRANCH   5  11
ATOM     11  O   UNL     1      20.553   7.804  -7.329  1.00  0.00    -0.387 OA
ATOM     12  H   UNL     1      20.650   7.126  -8.049  1.00  0.00     0.211 HD
ENDBRANCH   5  11
ENDBRANCH   1   5
BRANCH   1  13
ATOM     13  O   UNL     1      21.496   5.297  -5.934  1.00  0.00    -0.388 OA
ATOM     14  H   UNL     1      20.591   5.282  -6.343  1.00  0.00     0.211 HD
ENDBRANCH   1  13
TORSDOF 8
ENDMDL
MODEL 8
REMARK VINA RESULT:    -3.235     21.417     22.244
REMARK INTER + INTRA:          -4.859
REMARK INTER:                  -4.280
REMARK INTRA:                  -0.580
REMARK UNBOUND:                -0.489
REMARK SMILES O=C[C@@H](O)[C@@H](O)[C@@H](O)CO
REMARK SMILES IDX 7 1 9 2 10 3 5 5 3 6 2 7 1 8 4 9 6 11 8 13
REMARK H PARENT 10 4 4 10 6 12 8 14
REMARK Flexibility Score: inf
ROOT
ATOM      1  C   UNL     1      10.611  20.515   9.183  1.00  0.00     0.171 C 
ENDROOT
BRANCH   1   2
ATOM      2  C   UNL     1      11.980  21.208   9.053  1.00  0.00     0.190 C 
BRANCH   2   3
ATOM      3  O   UNL     1      12.948  20.300   8.605  1.00  0.00    -0.394 OA
ATOM      4  H   UNL     1      13.818  20.775   8.655  1.00  0.00     0.210 HD
ENDBRANCH   2   3
ENDBRANCH   1   2
BRANCH   1   5
ATOM      5  C   UNL     1      10.031  20.008   7.831  1.00  0.00     0.181 C 
BRANCH   5   6
ATOM      6  C   UNL     1       8.487  19.881   7.773  1.00  0.00     0.209 C 
BRANCH   6   7
ATOM      7  C   UNL     1       8.038  18.835   6.787  1.00  0.00     0.258 C 
ATOM      8  O   UNL     1       8.834  18.018   6.349  1.00  0.00    -0.300 OA
ENDBRANCH   6   7
BRANCH   6   9
ATOM      9  O   UNL     1       7.971  19.604   9.049  1.00  0.00    -0.383 OA
ATOM     10  H   UNL     1       6.981  19.610   8.968  1.00  0.00     0.211 HD
ENDBRANCH   6   9
ENDBRANCH   5   6
BRANCH   5  11
ATOM     11  O   UNL     1      10.483  20.835   6.787  1.00  0.00    -0.387 OA
ATOM     12  H   UNL     1      10.064  21.725   6.922  1.00  0.00     0.211 HD
ENDBRANCH   5  11
ENDBRANCH   1   5
BRANCH   1  13
ATOM     13  O   UNL     1      10.754  19.423  10.055  1.00  0.00    -0.388 OA
ATOM     14  H   UNL     1      10.449  18.615   9.563  1.00  0.00     0.211 HD
ENDBRANCH   1  13
TORSDOF 8
ENDMDL
MODEL 9
REMARK VINA RESULT:    -3.154      1.472      4.141
REMARK INTER + INTRA:          -4.749
REMARK INTER:                  -4.002
REMARK INTRA:                  -0.747
REMARK UNBOUND:                -0.489
REMARK SMILES O=C[C@@H](O)[C@@H](O)[C@@H](O)CO
REMARK SMILES IDX 7 1 9 2 10 3 5 5 3 6 2 7 1 8 4 9 6 11 8 13
REMARK H PARENT 10 4 4 10 6 12 8 14
REMARK Flexibility Score: inf
ROOT
ATOM      1  C   UNL     1      22.620   5.548  -6.319  1.00  0.00     0.171 C 
ENDROOT
BRANCH   1   2
ATOM      2  C   UNL     1      22.760   4.850  -7.685  1.00  0.00     0.190 C 
BRANCH   2   3
ATOM      3  O   UNL     1      21.598   5.032  -8.448  1.00  0.00    -0.394 OA
ATOM      4  H   UNL     1      21.315   5.971  -8.301  1.00  0.00     0.210 HD
ENDBRANCH   2   3
ENDBRANCH   1   2
BRANCH   1   5
ATOM      5  C   UNL     1      22.935   7.071  -6.355  1.00  0.00     0.181 C 
BRANCH   5   6
ATOM      6  C   UNL     1      21.706   8.010  -6.239  1.00  0.00     0.209 C 
BRANCH   6   7
ATOM      7  C   UNL     1      22.102   9.462  -6.184  1.00  0.00     0.258 C 
ATOM      8  O   UNL     1      23.097   9.853  -6.776  1.00  0.00    -0.300 OA
ENDBRANCH   6   7
BRANCH   6   9
ATOM      9  O   UNL     1      20.817   7.785  -7.301  1.00  0.00    -0.383 OA
ATOM     10  H   UNL     1      21.350   7.828  -8.138  1.00  0.00     0.211 HD
ENDBRANCH   6   9
ENDBRANCH   5   6
BRANCH   5  11
ATOM     11  O   UNL     1      23.869   7.381  -5.351  1.00  0.00    -0.387 OA
ATOM     12  H   UNL     1      24.072   8.350  -5.433  1.00  0.00     0.211 HD
ENDBRANCH   5  11
ENDBRANCH   1   5
BRANCH   1  13
ATOM     13  O   UNL     1      21.302   5.366  -5.867  1.00  0.00    -0.388 OA
ATOM     14  H   UNL     1      20.834   6.236  -5.976  1.00  0.00     0.211 HD
ENDBRANCH   1  13
TORSDOF 8
ENDMDL
