MODEL 1
REMARK VINA RESULT:    -4.055      0.000      0.000
REMARK INTER + INTRA:          -7.169
REMARK INTER:                  -5.477
REMARK INTRA:                  -1.691
REMARK UNBOUND:                -1.691
REMARK SMILES CC(=O)CCC=C(C)CCC=C(C)C
REMARK SMILES IDX 7 1 6 2 8 3 9 4 10 5 11 6 13 7 12 8 14 9 5 10 4 11 2 12 3 13
REMARK SMILES IDX 1 14
REMARK H PARENT
REMARK Flexibility Score: inf
ROOT
ATOM      1  C   UNL     1       4.495  29.828  16.913  1.00  0.00    -0.077 C 
ATOM      2  C   UNL     1       4.078  28.703  16.286  1.00  0.00    -0.028 C 
ATOM      3  C   UNL     1       3.807  31.125  16.575  1.00  0.00     0.039 C 
ENDROOT
BRANCH   1   4
ATOM      4  C   UNL     1       5.578  29.840  17.980  1.00  0.00     0.034 C 
BRANCH   4   5
ATOM      5  C   UNL     1       6.637  30.917  17.706  1.00  0.00     0.032 C 
BRANCH   5   6
ATOM      6  C   UNL     1       7.967  30.319  17.315  1.00  0.00    -0.028 C 
ATOM      7  C   UNL     1       7.453  30.355  14.864  1.00  0.00     0.039 C 
ATOM      8  C   UNL     1       8.338  30.039  16.046  1.00  0.00    -0.080 C 
ATOM      9  C   UNL     1       9.682  29.396  15.818  1.00  0.00     0.039 C 
ENDBRANCH   5   6
ENDBRANCH   4   5
ENDBRANCH   1   4
BRANCH   2  10
ATOM     10  C   UNL     1       4.675  27.329  16.472  1.00  0.00     0.035 C 
BRANCH  10  11
ATOM     11  C   UNL     1       5.698  26.999  15.377  1.00  0.00     0.079 C 
BRANCH  11  12
ATOM     12  C   UNL     1       7.034  26.619  15.964  1.00  0.00     0.130 C 
ATOM     13  O   UNL     1       7.953  26.314  15.221  1.00  0.00    -0.300 OA
ATOM     14  C   UNL     1       7.257  26.607  17.448  1.00  0.00     0.087 C 
ENDBRANCH  11  12
ENDBRANCH  10  11
ENDBRANCH   2  10
TORSDOF 6
ENDMDL
MODEL 2
REMARK VINA RESULT:    -3.757      1.668      4.587
REMARK INTER + INTRA:          -6.766
REMARK INTER:                  -5.121
REMARK INTRA:                  -1.646
REMARK UNBOUND:                -1.691
REMARK SMILES CC(=O)CCC=C(C)CCC=C(C)C
REMARK SMILES IDX 7 1 6 2 8 3 9 4 10 5 11 6 13 7 12 8 14 9 5 10 4 11 2 12 3 13
REMARK SMILES IDX 1 14
REMARK H PARENT
REMARK Flexibility Score: inf
ROOT
ATOM      1  C   UNL     1       8.342  30.027  16.070  1.00  0.00    -0.077 C 
ATOM      2  C   UNL     1       7.940  30.395  17.309  1.00  0.00    -0.028 C 
ATOM      3  C   UNL     1       9.777  29.611  15.883  1.00  0.00     0.039 C 
ENDROOT
BRANCH   1   4
ATOM      4  C   UNL     1       7.406  29.956  14.874  1.00  0.00     0.034 C 
BRANCH   4   5
ATOM      5  C   UNL     1       7.319  28.535  14.300  1.00  0.00     0.032 C 
BRANCH   5   6
ATOM      6  C   UNL     1       6.226  27.725  14.954  1.00  0.00    -0.028 C 
ATOM      7  C   UNL     1       7.823  26.341  16.298  1.00  0.00     0.039 C 
ATOM      8  C   UNL     1       6.437  26.721  15.834  1.00  0.00    -0.080 C 
ATOM      9  C   UNL     1       5.243  25.971  16.365  1.00  0.00     0.039 C 
ENDBRANCH   5   6
ENDBRANCH   4   5
ENDBRANCH   1   4
BRANCH   2  10
ATOM     10  C   UNL     1       6.555  30.874  17.671  1.00  0.00     0.035 C 
BRANCH  10  11
ATOM     11  C   UNL     1       5.616  29.706  18.003  1.00  0.00     0.079 C 
BRANCH  11  12
ATOM     12  C   UNL     1       4.346  29.769  17.193  1.00  0.00     0.130 C 
ATOM     13  O   UNL     1       3.528  28.868  17.286  1.00  0.00    -0.300 OA
ATOM     14  C   UNL     1       4.067  30.919  16.270  1.00  0.00     0.087 C 
ENDBRANCH  11  12
ENDBRANCH  10  11
ENDBRANCH   2  10
TORSDOF 6
ENDMDL
MODEL 3
REMARK VINA RESULT:    -3.664     15.485     17.950
REMARK INTER + INTRA:          -6.640
REMARK INTER:                  -5.336
REMARK INTRA:                  -1.304
REMARK UNBOUND:                -1.691
REMARK SMILES CC(=O)CCC=C(C)CCC=C(C)C
REMARK SMILES IDX 7 1 6 2 8 3 9 4 10 5 11 6 13 7 12 8 14 9 5 10 4 11 2 12 3 13
REMARK SMILES IDX 1 14
REMARK H PARENT
REMARK Flexibility Score: inf
ROOT
ATOM      1  C   UNL     1      13.499  13.880  15.941  1.00  0.00    -0.077 C 
ATOM      2  C   UNL     1      13.560  15.209  15.691  1.00  0.00    -0.028 C 
ATOM      3  C   UNL     1      12.260  13.135  15.520  1.00  0.00     0.039 C 
ENDROOT
BRANCH   1   4
ATOM      4  C   UNL     1      14.639  13.094  16.569  1.00  0.00     0.034 C 
BRANCH   4   5
ATOM      5  C   UNL     1      14.770  11.692  15.957  1.00  0.00     0.032 C 
BRANCH   5   6
ATOM      6  C   UNL     1      16.059  11.528  15.187  1.00  0.00    -0.028 C 
ATOM      7  C   UNL     1      15.033  12.189  13.000  1.00  0.00     0.039 C 
ATOM      8  C   UNL     1      16.187  11.724  13.856  1.00  0.00    -0.080 C 
ATOM      9  C   UNL     1      17.530  11.472  13.221  1.00  0.00     0.039 C 
ENDBRANCH   5   6
ENDBRANCH   4   5
ENDBRANCH   1   4
BRANCH   2  10
ATOM     10  C   UNL     1      14.703  16.118  16.075  1.00  0.00     0.035 C 
BRANCH  10  11
ATOM     11  C   UNL     1      15.734  16.246  14.945  1.00  0.00     0.079 C 
BRANCH  11  12
ATOM     12  C   UNL     1      17.140  16.053  15.455  1.00  0.00     0.130 C 
ATOM     13  O   UNL     1      17.739  17.001  15.938  1.00  0.00    -0.300 OA
ATOM     14  C   UNL     1      17.819  14.718  15.380  1.00  0.00     0.087 C 
ENDBRANCH  11  12
ENDBRANCH  10  11
ENDBRANCH   2  10
TORSDOF 6
ENDMDL
MODEL 4
REMARK VINA RESULT:    -3.658     14.934     17.578
REMARK INTER + INTRA:          -6.632
REMARK INTER:                  -5.014
REMARK INTRA:                  -1.618
REMARK UNBOUND:                -1.691
REMARK SMILES CC(=O)CCC=C(C)CCC=C(C)C
REMARK SMILES IDX 7 1 6 2 8 3 9 4 10 5 11 6 13 7 12 8 14 9 5 10 4 11 2 12 3 13
REMARK SMILES IDX 1 14
REMARK H PARENT
REMARK Flexibility Score: inf
ROOT
ATOM      1  C   UNL     1      16.070  12.620  15.529  1.00  0.00    -0.077 C 
ATOM      2  C   UNL     1      16.791  13.662  15.053  1.00  0.00    -0.028 C 
ATOM      3  C   UNL     1      16.365  11.247  14.986  1.00  0.00     0.039 C 
ENDROOT
BRANCH   1   4
ATOM      4  C   UNL     1      15.023  12.758  16.622  1.00  0.00     0.034 C 
BRANCH   4   5
ATOM      5  C   UNL     1      13.726  12.017  16.267  1.00  0.00     0.032 C 
BRANCH   5   6
ATOM      6  C   UNL     1      12.622  12.966  15.865  1.00  0.00    -0.028 C 
ATOM      7  C   UNL     1      13.174  12.840  13.425  1.00  0.00     0.039 C 
ATOM      8  C   UNL     1      12.377  13.363  14.597  1.00  0.00    -0.080 C 
ATOM      9  C   UNL     1      11.268  14.356  14.358  1.00  0.00     0.039 C 
ENDBRANCH   5   6
ENDBRANCH   4   5
ENDBRANCH   1   4
BRANCH   2  10
ATOM     10  C   UNL     1      16.607  15.106  15.453  1.00  0.00     0.035 C 
BRANCH  10  11
ATOM     11  C   UNL     1      15.895  15.915  14.359  1.00  0.00     0.079 C 
BRANCH  11  12
ATOM     12  C   UNL     1      14.535  16.382  14.814  1.00  0.00     0.130 C 
ATOM     13  O   UNL     1      13.761  16.859  13.999  1.00  0.00    -0.300 OA
ATOM     14  C   UNL     1      14.114  16.273  16.249  1.00  0.00     0.087 C 
ENDBRANCH  11  12
ENDBRANCH  10  11
ENDBRANCH   2  10
TORSDOF 6
ENDMDL
MODEL 5
REMARK VINA RESULT:    -3.594      1.169      3.440
REMARK INTER + INTRA:          -6.546
REMARK INTER:                  -4.945
REMARK INTRA:                  -1.601
REMARK UNBOUND:                -1.691
REMARK SMILES CC(=O)CCC=C(C)CCC=C(C)C
REMARK SMILES IDX 7 1 6 2 8 3 9 4 10 5 11 6 13 7 12 8 14 9 5 10 4 11 2 12 3 13
REMARK SMILES IDX 1 14
REMARK H PARENT
REMARK Flexibility Score: inf
ROOT
ATOM      1  C   UNL     1       8.035  29.303  16.045  1.00  0.00    -0.077 C 
ATOM      2  C   UNL     1       7.836  27.990  15.782  1.00  0.00    -0.028 C 
ATOM      3  C   UNL     1       8.281  30.230  14.883  1.00  0.00     0.039 C 
ENDROOT
BRANCH   1   4
ATOM      4  C   UNL     1       7.964  29.897  17.442  1.00  0.00     0.034 C 
BRANCH   4   5
ATOM      5  C   UNL     1       6.685  30.720  17.649  1.00  0.00     0.032 C 
BRANCH   5   6
ATOM      6  C   UNL     1       5.463  29.843  17.788  1.00  0.00    -0.028 C 
ATOM      7  C   UNL     1       4.547  30.477  15.545  1.00  0.00     0.039 C 
ATOM      8  C   UNL     1       4.483  29.742  16.863  1.00  0.00    -0.080 C 
ATOM      9  C   UNL     1       3.299  28.861  17.167  1.00  0.00     0.039 C 
ENDBRANCH   5   6
ENDBRANCH   4   5
ENDBRANCH   1   4
BRANCH   2  10
ATOM     10  C   UNL     1       7.613  26.916  16.820  1.00  0.00     0.035 C 
BRANCH  10  11
ATOM     11  C   UNL     1       6.156  26.434  16.838  1.00  0.00     0.079 C 
BRANCH  11  12
ATOM     12  C   UNL     1       5.769  25.796  15.527  1.00  0.00     0.130 C 
ATOM     13  O   UNL     1       6.345  24.786  15.157  1.00  0.00    -0.300 OA
ATOM     14  C   UNL     1       4.687  26.380  14.667  1.00  0.00     0.087 C 
ENDBRANCH  11  12
ENDBRANCH  10  11
ENDBRANCH   2  10
TORSDOF 6
ENDMDL
MODEL 6
REMARK VINA RESULT:    -3.589     15.504     17.910
REMARK INTER + INTRA:          -6.540
REMARK INTER:                  -5.028
REMARK INTRA:                  -1.511
REMARK UNBOUND:                -1.691
REMARK SMILES CC(=O)CCC=C(C)CCC=C(C)C
REMARK SMILES IDX 7 1 6 2 8 3 9 4 10 5 11 6 13 7 12 8 14 9 5 10 4 11 2 12 3 13
REMARK SMILES IDX 1 14
REMARK H PARENT
REMARK Flexibility Score: inf
ROOT
ATOM      1  C   UNL     1      15.802  11.946  14.769  1.00  0.00    -0.077 C 
ATOM      2  C   UNL     1      15.247  12.205  15.976  1.00  0.00    -0.028 C 
ATOM      3  C   UNL     1      16.862  10.880  14.689  1.00  0.00     0.039 C 
ENDROOT
BRANCH   1   4
ATOM      4  C   UNL     1      15.367  12.633  13.484  1.00  0.00     0.034 C 
BRANCH   4   5
ATOM      5  C   UNL     1      16.359  13.724  13.056  1.00  0.00     0.032 C 
BRANCH   5   6
ATOM      6  C   UNL     1      16.028  15.064  13.670  1.00  0.00    -0.028 C 
ATOM      7  C   UNL     1      17.834  14.906  15.399  1.00  0.00     0.039 C 
ATOM      8  C   UNL     1      16.665  15.597  14.736  1.00  0.00    -0.080 C 
ATOM      9  C   UNL     1      16.188  16.924  15.267  1.00  0.00     0.039 C 
ENDBRANCH   5   6
ENDBRANCH   4   5
ENDBRANCH   1   4
BRANCH   2  10
ATOM     10  C   UNL     1      14.202  13.260  16.248  1.00  0.00     0.035 C 
BRANCH  10  11
ATOM     11  C   UNL     1      12.779  12.711  16.076  1.00  0.00     0.079 C 
BRANCH  11  12
ATOM     12  C   UNL     1      11.990  13.522  15.080  1.00  0.00     0.130 C 
ATOM     13  O   UNL     1      10.921  13.097  14.671  1.00  0.00    -0.300 OA
ATOM     14  C   UNL     1      12.493  14.844  14.579  1.00  0.00     0.087 C 
ENDBRANCH  11  12
ENDBRANCH  10  11
ENDBRANCH   2  10
TORSDOF 6
ENDMDL
MODEL 7
REMARK VINA RESULT:    -3.565      1.393      2.242
REMARK INTER + INTRA:          -6.507
REMARK INTER:                  -4.823
REMARK INTRA:                  -1.684
REMARK UNBOUND:                -1.691
REMARK SMILES CC(=O)CCC=C(C)CCC=C(C)C
REMARK SMILES IDX 7 1 6 2 8 3 9 4 10 5 11 6 13 7 12 8 14 9 5 10 4 11 2 12 3 13
REMARK SMILES IDX 1 14
REMARK H PARENT
REMARK Flexibility Score: inf
ROOT
ATOM      1  C   UNL     1       5.885  29.766  16.603  1.00  0.00    -0.077 C 
ATOM      2  C   UNL     1       5.993  28.676  17.400  1.00  0.00    -0.028 C 
ATOM      3  C   UNL     1       5.878  31.123  17.255  1.00  0.00     0.039 C 
ENDROOT
BRANCH   1   4
ATOM      4  C   UNL     1       5.830  29.691  15.086  1.00  0.00     0.034 C 
BRANCH   4   5
ATOM      5  C   UNL     1       7.063  30.335  14.437  1.00  0.00     0.032 C 
BRANCH   5   6
ATOM      6  C   UNL     1       8.239  29.388  14.390  1.00  0.00    -0.028 C 
ATOM      7  C   UNL     1       9.448  30.530  16.263  1.00  0.00     0.039 C 
ATOM      8  C   UNL     1       9.327  29.477  15.187  1.00  0.00    -0.080 C 
ATOM      9  C   UNL     1      10.444  28.486  14.987  1.00  0.00     0.039 C 
ENDBRANCH   5   6
ENDBRANCH   4   5
ENDBRANCH   1   4
BRANCH   2  10
ATOM     10  C   UNL     1       5.979  27.243  16.925  1.00  0.00     0.035 C 
BRANCH  10  11
ATOM     11  C   UNL     1       7.357  26.583  17.064  1.00  0.00     0.079 C 
BRANCH  11  12
ATOM     12  C   UNL     1       7.805  25.959  15.766  1.00  0.00     0.130 C 
ATOM     13  O   UNL     1       8.942  25.523  15.670  1.00  0.00    -0.300 OA
ATOM     14  C   UNL     1       6.881  25.862  14.589  1.00  0.00     0.087 C 
ENDBRANCH  11  12
ENDBRANCH  10  11
ENDBRANCH   2  10
TORSDOF 6
ENDMDL
MODEL 8
REMARK VINA RESULT:    -3.557      1.758      3.053
REMARK INTER + INTRA:          -6.496
REMARK INTER:                  -5.101
REMARK INTRA:                  -1.395
REMARK UNBOUND:                -1.691
REMARK SMILES CC(=O)CCC=C(C)CCC=C(C)C
REMARK SMILES IDX 7 1 6 2 8 3 9 4 10 5 11 6 13 7 12 8 14 9 5 10 4 11 2 12 3 13
REMARK SMILES IDX 1 14
REMARK H PARENT
REMARK Flexibility Score: inf
ROOT
ATOM      1  C   UNL     1       5.150  28.462  17.126  1.00  0.00    -0.077 C 
ATOM      2  C   UNL     1       6.111  27.597  16.725  1.00  0.00    -0.028 C 
ATOM      3  C   UNL     1       3.714  28.108  16.841  1.00  0.00     0.039 C 
ENDROOT
BRANCH   1   4
ATOM      4  C   UNL     1       5.442  29.738  17.898  1.00  0.00     0.034 C 
BRANCH   4   5
ATOM      5  C   UNL     1       5.147  30.992  17.063  1.00  0.00     0.032 C 
BRANCH   5   6
ATOM      6  C   UNL     1       5.953  31.026  15.786  1.00  0.00    -0.028 C 
ATOM      7  C   UNL     1       3.930  30.972  14.310  1.00  0.00     0.039 C 
ATOM      8  C   UNL     1       5.423  30.993  14.544  1.00  0.00    -0.080 C 
ATOM      9  C   UNL     1       6.361  30.984  13.364  1.00  0.00     0.039 C 
ENDBRANCH   5   6
ENDBRANCH   4   5
ENDBRANCH   1   4
BRANCH   2  10
ATOM     10  C   UNL     1       7.597  27.806  16.892  1.00  0.00     0.035 C 
BRANCH  10  11
ATOM     11  C   UNL     1       8.298  28.019  15.543  1.00  0.00     0.079 C 
BRANCH  11  12
ATOM     12  C   UNL     1       9.439  28.998  15.661  1.00  0.00     0.130 C 
ATOM     13  O   UNL     1      10.516  28.730  15.151  1.00  0.00    -0.300 OA
ATOM     14  C   UNL     1       9.278  30.297  16.393  1.00  0.00     0.087 C 
ENDBRANCH  11  12
ENDBRANCH  10  11
ENDBRANCH   2  10
TORSDOF 6
ENDMDL
