MODEL 1
REMARK VINA RESULT:    -3.477      0.000      0.000
REMARK INTER + INTRA:          -4.909
REMARK INTER:                  -4.493
REMARK INTRA:                  -0.415
REMARK UNBOUND:                -0.415
REMARK SMILES CCCCCCC(=O)[O-]
REMARK SMILES IDX 5 1 6 2 7 3 8 4 9 5 4 6 3 7 2 8 1 9
REMARK H PARENT
REMARK Flexibility Score: inf
ROOT
ATOM      1  C   UNL     1      13.893  16.979  24.174  1.00  0.00     0.006 C 
ENDROOT
BRANCH   1   2
ATOM      2  C   UNL     1      13.961  17.858  22.916  1.00  0.00     0.053 C 
BRANCH   2   3
ATOM      3  C   UNL     1      14.582  19.192  23.197  1.00  0.00     0.041 C 
ATOM      4  O   UNL     1      15.563  19.283  23.983  1.00  0.00    -0.550 OA
ATOM      5  O   UNL     1      14.100  20.331  22.565  1.00  0.00    -0.550 OA
ENDBRANCH   2   3
ENDBRANCH   1   2
BRANCH   1   6
ATOM      6  C   UNL     1      12.528  17.001  24.887  1.00  0.00     0.000 C 
BRANCH   6   7
ATOM      7  C   UNL     1      12.544  17.845  26.174  1.00  0.00    -0.000 C 
BRANCH   7   8
ATOM      8  C   UNL     1      12.055  19.282  25.941  1.00  0.00    -0.003 C 
ATOM      9  C   UNL     1      10.946  19.365  24.892  1.00  0.00     0.004 C 
ENDBRANCH   7   8
ENDBRANCH   6   7
ENDBRANCH   1   6
TORSDOF 5
ENDMDL
MODEL 2
REMARK VINA RESULT:    -3.475      7.347      8.171
REMARK INTER + INTRA:          -4.906
REMARK INTER:                  -4.696
REMARK INTRA:                  -0.210
REMARK UNBOUND:                -0.415
REMARK SMILES CCCCCCC(=O)[O-]
REMARK SMILES IDX 5 1 6 2 7 3 8 4 9 5 4 6 3 7 2 8 1 9
REMARK H PARENT
REMARK Flexibility Score: inf
ROOT
ATOM      1  C   UNL     1       7.622  14.003  22.600  1.00  0.00     0.006 C 
ENDROOT
BRANCH   1   2
ATOM      2  C   UNL     1       8.923  13.581  21.899  1.00  0.00     0.053 C 
BRANCH   2   3
ATOM      3  C   UNL     1      10.115  14.302  22.450  1.00  0.00     0.041 C 
ATOM      4  O   UNL     1      10.953  13.689  23.163  1.00  0.00    -0.550 OA
ATOM      5  O   UNL     1      10.319  15.642  22.147  1.00  0.00    -0.550 OA
ENDBRANCH   2   3
ENDBRANCH   1   2
BRANCH   1   6
ATOM      6  C   UNL     1       6.738  12.826  23.052  1.00  0.00     0.000 C 
BRANCH   6   7
ATOM      7  C   UNL     1       7.383  11.457  22.770  1.00  0.00    -0.000 C 
BRANCH   7   8
ATOM      8  C   UNL     1       6.344  10.332  22.643  1.00  0.00    -0.003 C 
ATOM      9  C   UNL     1       4.918  10.861  22.491  1.00  0.00     0.004 C 
ENDBRANCH   7   8
ENDBRANCH   6   7
ENDBRANCH   1   6
TORSDOF 5
ENDMDL
MODEL 3
REMARK VINA RESULT:    -3.420      8.354      9.076
REMARK INTER + INTRA:          -4.835
REMARK INTER:                  -4.584
REMARK INTRA:                  -0.250
REMARK UNBOUND:                -0.415
REMARK SMILES CCCCCCC(=O)[O-]
REMARK SMILES IDX 5 1 6 2 7 3 8 4 9 5 4 6 3 7 2 8 1 9
REMARK H PARENT
REMARK Flexibility Score: inf
ROOT
ATOM      1  C   UNL     1       8.867  12.555  22.357  1.00  0.00     0.006 C 
ENDROOT
BRANCH   1   2
ATOM      2  C   UNL     1       9.755  12.841  21.137  1.00  0.00     0.053 C 
BRANCH   2   3
ATOM      3  C   UNL     1       9.345  12.033  19.943  1.00  0.00     0.041 C 
ATOM      4  O   UNL     1      10.000  12.109  18.870  1.00  0.00    -0.550 OA
ATOM      5  O   UNL     1       8.261  11.169  20.028  1.00  0.00    -0.550 OA
ENDBRANCH   2   3
ENDBRANCH   1   2
BRANCH   1   6
ATOM      6  C   UNL     1       7.703  13.546  22.537  1.00  0.00     0.000 C 
BRANCH   6   7
ATOM      7  C   UNL     1       6.484  12.910  23.229  1.00  0.00    -0.000 C 
BRANCH   7   8
ATOM      8  C   UNL     1       6.410  11.391  23.012  1.00  0.00    -0.003 C 
ATOM      9  C   UNL     1       5.037  10.932  22.520  1.00  0.00     0.004 C 
ENDBRANCH   7   8
ENDBRANCH   6   7
ENDBRANCH   1   6
TORSDOF 5
ENDMDL
MODEL 4
REMARK VINA RESULT:    -3.381      8.186      8.930
REMARK INTER + INTRA:          -4.785
REMARK INTER:                  -4.454
REMARK INTRA:                  -0.331
REMARK UNBOUND:                -0.415
REMARK SMILES CCCCCCC(=O)[O-]
REMARK SMILES IDX 5 1 6 2 7 3 8 4 9 5 4 6 3 7 2 8 1 9
REMARK H PARENT
REMARK Flexibility Score: inf
ROOT
ATOM      1  C   UNL     1       8.058  12.191  21.081  1.00  0.00     0.006 C 
ENDROOT
BRANCH   1   2
ATOM      2  C   UNL     1       9.585  12.169  20.912  1.00  0.00     0.053 C 
BRANCH   2   3
ATOM      3  C   UNL     1      10.280  11.710  22.158  1.00  0.00     0.041 C 
ATOM      4  O   UNL     1       9.871  10.691  22.774  1.00  0.00    -0.550 OA
ATOM      5  O   UNL     1      11.400  12.389  22.619  1.00  0.00    -0.550 OA
ENDBRANCH   2   3
ENDBRANCH   1   2
BRANCH   1   6
ATOM      6  C   UNL     1       7.548  13.253  22.073  1.00  0.00     0.000 C 
BRANCH   6   7
ATOM      7  C   UNL     1       6.539  12.682  23.085  1.00  0.00    -0.000 C 
BRANCH   7   8
ATOM      8  C   UNL     1       6.341  11.166  22.928  1.00  0.00    -0.003 C 
ATOM      9  C   UNL     1       4.922  10.798  22.496  1.00  0.00     0.004 C 
ENDBRANCH   7   8
ENDBRANCH   6   7
ENDBRANCH   1   6
TORSDOF 5
ENDMDL
MODEL 5
REMARK VINA RESULT:    -3.337      1.413      1.882
REMARK INTER + INTRA:          -4.728
REMARK INTER:                  -4.294
REMARK INTRA:                  -0.434
REMARK UNBOUND:                -0.415
REMARK SMILES CCCCCCC(=O)[O-]
REMARK SMILES IDX 5 1 6 2 7 3 8 4 9 5 4 6 3 7 2 8 1 9
REMARK H PARENT
REMARK Flexibility Score: inf
ROOT
ATOM      1  C   UNL     1      14.692  18.806  24.023  1.00  0.00     0.006 C 
ENDROOT
BRANCH   1   2
ATOM      2  C   UNL     1      14.649  19.395  22.605  1.00  0.00     0.053 C 
BRANCH   2   3
ATOM      3  C   UNL     1      13.319  20.010  22.293  1.00  0.00     0.041 C 
ATOM      4  O   UNL     1      13.074  21.198  22.633  1.00  0.00    -0.550 OA
ATOM      5  O   UNL     1      12.363  19.283  21.596  1.00  0.00    -0.550 OA
ENDBRANCH   2   3
ENDBRANCH   1   2
BRANCH   1   6
ATOM      6  C   UNL     1      14.052  17.410  24.146  1.00  0.00     0.000 C 
BRANCH   6   7
ATOM      7  C   UNL     1      12.876  17.381  25.139  1.00  0.00    -0.000 C 
BRANCH   7   8
ATOM      8  C   UNL     1      12.531  18.777  25.682  1.00  0.00    -0.003 C 
ATOM      9  C   UNL     1      11.170  19.277  25.197  1.00  0.00     0.004 C 
ENDBRANCH   7   8
ENDBRANCH   6   7
ENDBRANCH   1   6
TORSDOF 5
ENDMDL
MODEL 6
REMARK VINA RESULT:    -3.267      9.216     10.310
REMARK INTER + INTRA:          -4.637
REMARK INTER:                  -4.264
REMARK INTRA:                  -0.374
REMARK UNBOUND:                -0.415
REMARK SMILES CCCCCCC(=O)[O-]
REMARK SMILES IDX 5 1 6 2 7 3 8 4 9 5 4 6 3 7 2 8 1 9
REMARK H PARENT
REMARK Flexibility Score: inf
ROOT
ATOM      1  C   UNL     1       7.435  13.014  21.824  1.00  0.00     0.006 C 
ENDROOT
BRANCH   1   2
ATOM      2  C   UNL     1       6.620  12.479  23.012  1.00  0.00     0.053 C 
BRANCH   2   3
ATOM      3  C   UNL     1       6.029  11.133  22.726  1.00  0.00     0.041 C 
ATOM      4  O   UNL     1       4.784  11.003  22.585  1.00  0.00    -0.550 OA
ATOM      5  O   UNL     1       6.857  10.027  22.579  1.00  0.00    -0.550 OA
ENDBRANCH   2   3
ENDBRANCH   1   2
BRANCH   1   6
ATOM      6  C   UNL     1       8.960  12.973  22.034  1.00  0.00     0.000 C 
BRANCH   6   7
ATOM      7  C   UNL     1       9.684  12.135  20.965  1.00  0.00    -0.000 C 
BRANCH   7   8
ATOM      8  C   UNL     1       8.761  11.743  19.801  1.00  0.00    -0.003 C 
ATOM      9  C   UNL     1       8.731  10.234  19.555  1.00  0.00     0.004 C 
ENDBRANCH   7   8
ENDBRANCH   6   7
ENDBRANCH   1   6
TORSDOF 5
ENDMDL
MODEL 7
REMARK VINA RESULT:    -3.264      2.299      3.602
REMARK INTER + INTRA:          -4.634
REMARK INTER:                  -4.222
REMARK INTRA:                  -0.412
REMARK UNBOUND:                -0.415
REMARK SMILES CCCCCCC(=O)[O-]
REMARK SMILES IDX 5 1 6 2 7 3 8 4 9 5 4 6 3 7 2 8 1 9
REMARK H PARENT
REMARK Flexibility Score: inf
ROOT
ATOM      1  C   UNL     1      13.963  17.424  23.897  1.00  0.00     0.006 C 
ENDROOT
BRANCH   1   2
ATOM      2  C   UNL     1      13.001  17.062  25.039  1.00  0.00     0.053 C 
BRANCH   2   3
ATOM      3  C   UNL     1      12.029  18.166  25.324  1.00  0.00     0.041 C 
ATOM      4  O   UNL     1      11.129  18.450  24.489  1.00  0.00    -0.550 OA
ATOM      5  O   UNL     1      12.095  18.857  26.527  1.00  0.00    -0.550 OA
ENDBRANCH   2   3
ENDBRANCH   1   2
BRANCH   1   6
ATOM      6  C   UNL     1      14.704  18.759  24.095  1.00  0.00     0.000 C 
BRANCH   6   7
ATOM      7  C   UNL     1      14.836  19.564  22.789  1.00  0.00    -0.000 C 
BRANCH   7   8
ATOM      8  C   UNL     1      13.474  19.880  22.153  1.00  0.00    -0.003 C 
ATOM      9  C   UNL     1      12.807  21.110  22.769  1.00  0.00     0.004 C 
ENDBRANCH   7   8
ENDBRANCH   6   7
ENDBRANCH   1   6
TORSDOF 5
ENDMDL
MODEL 8
REMARK VINA RESULT:    -3.240      1.358      2.304
REMARK INTER + INTRA:          -4.602
REMARK INTER:                  -4.174
REMARK INTRA:                  -0.428
REMARK UNBOUND:                -0.415
REMARK SMILES CCCCCCC(=O)[O-]
REMARK SMILES IDX 5 1 6 2 7 3 8 4 9 5 4 6 3 7 2 8 1 9
REMARK H PARENT
REMARK Flexibility Score: inf
ROOT
ATOM      1  C   UNL     1      11.834  20.145  23.879  1.00  0.00     0.006 C 
ENDROOT
BRANCH   1   2
ATOM      2  C   UNL     1      12.239  19.424  22.584  1.00  0.00     0.053 C 
BRANCH   2   3
ATOM      3  C   UNL     1      13.711  19.151  22.532  1.00  0.00     0.041 C 
ATOM      4  O   UNL     1      14.140  17.969  22.617  1.00  0.00    -0.550 OA
ATOM      5  O   UNL     1      14.607  20.197  22.354  1.00  0.00    -0.550 OA
ENDBRANCH   2   3
ENDBRANCH   1   2
BRANCH   1   6
ATOM      6  C   UNL     1      11.152  19.238  24.920  1.00  0.00     0.000 C 
BRANCH   6   7
ATOM      7  C   UNL     1      12.116  18.781  26.030  1.00  0.00    -0.000 C 
BRANCH   7   8
ATOM      8  C   UNL     1      12.672  17.370  25.782  1.00  0.00    -0.003 C 
ATOM      9  C   UNL     1      11.758  16.524  24.895  1.00  0.00     0.004 C 
ENDBRANCH   7   8
ENDBRANCH   6   7
ENDBRANCH   1   6
TORSDOF 5
ENDMDL
MODEL 9
REMARK VINA RESULT:    -3.175      1.755      2.740
REMARK INTER + INTRA:          -4.519
REMARK INTER:                  -4.188
REMARK INTRA:                  -0.330
REMARK UNBOUND:                -0.415
REMARK SMILES CCCCCCC(=O)[O-]
REMARK SMILES IDX 5 1 6 2 7 3 8 4 9 5 4 6 3 7 2 8 1 9
REMARK H PARENT
REMARK Flexibility Score: inf
ROOT
ATOM      1  C   UNL     1      13.240  18.869  24.882  1.00  0.00     0.006 C 
ENDROOT
BRANCH   1   2
ATOM      2  C   UNL     1      14.379  18.193  24.102  1.00  0.00     0.053 C 
BRANCH   2   3
ATOM      3  C   UNL     1      14.115  18.175  22.628  1.00  0.00     0.041 C 
ATOM      4  O   UNL     1      13.908  17.083  22.034  1.00  0.00    -0.550 OA
ATOM      5  O   UNL     1      14.062  19.366  21.916  1.00  0.00    -0.550 OA
ENDBRANCH   2   3
ENDBRANCH   1   2
BRANCH   1   6
ATOM      6  C   UNL     1      12.404  17.904  25.743  1.00  0.00     0.000 C 
BRANCH   6   7
ATOM      7  C   UNL     1      12.879  16.444  25.629  1.00  0.00    -0.000 C 
BRANCH   7   8
ATOM      8  C   UNL     1      11.932  15.582  24.781  1.00  0.00    -0.003 C 
ATOM      9  C   UNL     1      12.646  14.408  24.109  1.00  0.00     0.004 C 
ENDBRANCH   7   8
ENDBRANCH   6   7
ENDBRANCH   1   6
TORSDOF 5
ENDMDL
