MODEL 1
REMARK VINA RESULT:    -3.863      0.000      0.000
REMARK INTER + INTRA:          -5.853
REMARK INTER:                  -5.444
REMARK INTRA:                  -0.409
REMARK UNBOUND:                -0.409
REMARK SMILES C=CCCCCCCC(=O)[O-]
REMARK SMILES IDX 6 1 7 2 8 3 9 4 10 5 11 6 5 7 4 8 3 9 2 10 1 11
REMARK H PARENT
REMARK Flexibility Score: inf
ROOT
ATOM      1  C   UNL     1      30.947   8.153  28.466  1.00  0.00     0.000 C 
ENDROOT
BRANCH   1   2
ATOM      2  C   UNL     1      31.126   9.563  27.892  1.00  0.00     0.006 C 
BRANCH   2   3
ATOM      3  C   UNL     1      30.458  10.610  28.788  1.00  0.00     0.053 C 
BRANCH   3   4
ATOM      4  C   UNL     1      29.085  10.929  28.289  1.00  0.00     0.041 C 
ATOM      5  O   UNL     1      28.122  11.020  29.096  1.00  0.00    -0.550 OA
ATOM      6  O   UNL     1      28.858  11.077  26.927  1.00  0.00    -0.550 OA
ENDBRANCH   3   4
ENDBRANCH   2   3
ENDBRANCH   1   2
BRANCH   1   7
ATOM      7  C   UNL     1      31.636   8.022  29.831  1.00  0.00     0.000 C 
BRANCH   7   8
ATOM      8  C   UNL     1      30.865   7.060  30.746  1.00  0.00     0.004 C 
BRANCH   8   9
ATOM      9  C   UNL     1      29.702   6.372  30.017  1.00  0.00     0.027 C 
BRANCH   9  10
ATOM     10  C   UNL     1      29.749   4.873  30.144  1.00  0.00    -0.035 C 
ATOM     11  C   UNL     1      28.924   4.082  29.453  1.00  0.00     0.004 C 
ENDBRANCH   9  10
ENDBRANCH   8   9
ENDBRANCH   7   8
ENDBRANCH   1   7
TORSDOF 7
ENDMDL
MODEL 2
REMARK VINA RESULT:    -3.845      1.932      2.677
REMARK INTER + INTRA:          -5.828
REMARK INTER:                  -5.241
REMARK INTRA:                  -0.587
REMARK UNBOUND:                -0.409
REMARK SMILES C=CCCCCCCC(=O)[O-]
REMARK SMILES IDX 6 1 7 2 8 3 9 4 10 5 11 6 5 7 4 8 3 9 2 10 1 11
REMARK H PARENT
REMARK Flexibility Score: inf
ROOT
ATOM      1  C   UNL     1      29.816   9.959  27.610  1.00  0.00     0.000 C 
ENDROOT
BRANCH   1   2
ATOM      2  C   UNL     1      28.899  11.050  28.176  1.00  0.00     0.006 C 
BRANCH   2   3
ATOM      3  C   UNL     1      28.556  10.775  29.643  1.00  0.00     0.053 C 
BRANCH   3   4
ATOM      4  C   UNL     1      28.200  12.046  30.346  1.00  0.00     0.041 C 
ATOM      5  O   UNL     1      27.118  12.135  30.985  1.00  0.00    -0.550 OA
ATOM      6  O   UNL     1      29.039  13.149  30.255  1.00  0.00    -0.550 OA
ENDBRANCH   3   4
ENDBRANCH   2   3
ENDBRANCH   1   2
BRANCH   1   7
ATOM      7  C   UNL     1      31.064   9.781  28.484  1.00  0.00     0.000 C 
BRANCH   7   8
ATOM      8  C   UNL     1      31.512   8.313  28.511  1.00  0.00     0.004 C 
BRANCH   8   9
ATOM      9  C   UNL     1      30.325   7.347  28.646  1.00  0.00     0.027 C 
BRANCH   9  10
ATOM     10  C   UNL     1      29.965   7.076  30.082  1.00  0.00    -0.035 C 
ATOM     11  C   UNL     1      30.899   6.865  31.014  1.00  0.00     0.004 C 
ENDBRANCH   9  10
ENDBRANCH   8   9
ENDBRANCH   7   8
ENDBRANCH   1   7
TORSDOF 7
ENDMDL
MODEL 3
REMARK VINA RESULT:    -3.790      1.252      2.331
REMARK INTER + INTRA:          -5.750
REMARK INTER:                  -5.177
REMARK INTRA:                  -0.572
REMARK UNBOUND:                -0.409
REMARK SMILES C=CCCCCCCC(=O)[O-]
REMARK SMILES IDX 6 1 7 2 8 3 9 4 10 5 11 6 5 7 4 8 3 9 2 10 1 11
REMARK H PARENT
REMARK Flexibility Score: inf
ROOT
ATOM      1  C   UNL     1      31.400   9.388  28.130  1.00  0.00     0.000 C 
ENDROOT
BRANCH   1   2
ATOM      2  C   UNL     1      30.946  10.318  29.261  1.00  0.00     0.006 C 
BRANCH   2   3
ATOM      3  C   UNL     1      30.262  11.570  28.703  1.00  0.00     0.053 C 
BRANCH   3   4
ATOM      4  C   UNL     1      28.892  11.240  28.203  1.00  0.00     0.041 C 
ATOM      5  O   UNL     1      28.682  11.111  26.968  1.00  0.00    -0.550 OA
ATOM      6  O   UNL     1      27.836  11.123  29.097  1.00  0.00    -0.550 OA
ENDBRANCH   3   4
ENDBRANCH   2   3
ENDBRANCH   1   2
BRANCH   1   7
ATOM      7  C   UNL     1      31.402   7.924  28.588  1.00  0.00     0.000 C 
BRANCH   7   8
ATOM      8  C   UNL     1      30.178   7.620  29.464  1.00  0.00     0.004 C 
BRANCH   8   9
ATOM      9  C   UNL     1      30.472   6.542  30.517  1.00  0.00     0.027 C 
BRANCH   9  10
ATOM     10  C   UNL     1      31.393   7.035  31.601  1.00  0.00    -0.035 C 
ATOM     11  C   UNL     1      31.109   8.121  32.326  1.00  0.00     0.004 C 
ENDBRANCH   9  10
ENDBRANCH   8   9
ENDBRANCH   7   8
ENDBRANCH   1   7
TORSDOF 7
ENDMDL
MODEL 4
REMARK VINA RESULT:    -3.787      1.539      2.463
REMARK INTER + INTRA:          -5.746
REMARK INTER:                  -5.031
REMARK INTRA:                  -0.715
REMARK UNBOUND:                -0.409
REMARK SMILES C=CCCCCCCC(=O)[O-]
REMARK SMILES IDX 6 1 7 2 8 3 9 4 10 5 11 6 5 7 4 8 3 9 2 10 1 11
REMARK H PARENT
REMARK Flexibility Score: inf
ROOT
ATOM      1  C   UNL     1      31.705  10.410  30.080  1.00  0.00     0.000 C 
ENDROOT
BRANCH   1   2
ATOM      2  C   UNL     1      30.523  11.067  30.802  1.00  0.00     0.006 C 
BRANCH   2   3
ATOM      3  C   UNL     1      29.197  10.426  30.383  1.00  0.00     0.053 C 
BRANCH   3   4
ATOM      4  C   UNL     1      28.241  11.468  29.896  1.00  0.00     0.041 C 
ATOM      5  O   UNL     1      27.327  11.893  30.652  1.00  0.00    -0.550 OA
ATOM      6  O   UNL     1      28.328  11.935  28.591  1.00  0.00    -0.550 OA
ENDBRANCH   3   4
ENDBRANCH   2   3
ENDBRANCH   1   2
BRANCH   1   7
ATOM      7  C   UNL     1      31.261   9.790  28.749  1.00  0.00     0.000 C 
BRANCH   7   8
ATOM      8  C   UNL     1      31.650   8.307  28.676  1.00  0.00     0.004 C 
BRANCH   8   9
ATOM      9  C   UNL     1      30.422   7.389  28.592  1.00  0.00     0.027 C 
BRANCH   9  10
ATOM     10  C   UNL     1      30.023   6.837  29.934  1.00  0.00    -0.035 C 
ATOM     11  C   UNL     1      30.871   6.816  30.967  1.00  0.00     0.004 C 
ENDBRANCH   9  10
ENDBRANCH   8   9
ENDBRANCH   7   8
ENDBRANCH   1   7
TORSDOF 7
ENDMDL
MODEL 5
REMARK VINA RESULT:    -3.754      1.570      2.250
REMARK INTER + INTRA:          -5.700
REMARK INTER:                  -4.867
REMARK INTRA:                  -0.834
REMARK UNBOUND:                -0.409
REMARK SMILES C=CCCCCCCC(=O)[O-]
REMARK SMILES IDX 6 1 7 2 8 3 9 4 10 5 11 6 5 7 4 8 3 9 2 10 1 11
REMARK H PARENT
REMARK Flexibility Score: inf
ROOT
ATOM      1  C   UNL     1      32.160   8.763  28.068  1.00  0.00     0.000 C 
ENDROOT
BRANCH   1   2
ATOM      2  C   UNL     1      31.293   9.939  28.532  1.00  0.00     0.006 C 
BRANCH   2   3
ATOM      3  C   UNL     1      29.803   9.608  28.402  1.00  0.00     0.053 C 
BRANCH   3   4
ATOM      4  C   UNL     1      29.003  10.400  29.386  1.00  0.00     0.041 C 
ATOM      5  O   UNL     1      29.213  10.273  30.622  1.00  0.00    -0.550 OA
ATOM      6  O   UNL     1      27.991  11.241  28.943  1.00  0.00    -0.550 OA
ENDBRANCH   3   4
ENDBRANCH   2   3
ENDBRANCH   1   2
BRANCH   1   7
ATOM      7  C   UNL     1      33.284   8.477  29.072  1.00  0.00     0.000 C 
BRANCH   7   8
ATOM      8  C   UNL     1      32.863   8.870  30.496  1.00  0.00     0.004 C 
BRANCH   8   9
ATOM      9  C   UNL     1      32.515   7.646  31.356  1.00  0.00     0.027 C 
BRANCH   9  10
ATOM     10  C   UNL     1      31.036   7.370  31.391  1.00  0.00    -0.035 C 
ATOM     11  C   UNL     1      30.457   6.525  30.533  1.00  0.00     0.004 C 
ENDBRANCH   9  10
ENDBRANCH   8   9
ENDBRANCH   7   8
ENDBRANCH   1   7
TORSDOF 7
ENDMDL
MODEL 6
REMARK VINA RESULT:    -3.666      2.214      3.284
REMARK INTER + INTRA:          -5.576
REMARK INTER:                  -4.769
REMARK INTRA:                  -0.807
REMARK UNBOUND:                -0.409
REMARK SMILES C=CCCCCCCC(=O)[O-]
REMARK SMILES IDX 6 1 7 2 8 3 9 4 10 5 11 6 5 7 4 8 3 9 2 10 1 11
REMARK H PARENT
REMARK Flexibility Score: inf
ROOT
ATOM      1  C   UNL     1      30.769   8.232  28.471  1.00  0.00     0.000 C 
ENDROOT
BRANCH   1   2
ATOM      2  C   UNL     1      30.032   9.197  29.408  1.00  0.00     0.006 C 
BRANCH   2   3
ATOM      3  C   UNL     1      30.283  10.653  29.005  1.00  0.00     0.053 C 
BRANCH   3   4
ATOM      4  C   UNL     1      29.138  11.179  28.200  1.00  0.00     0.041 C 
ATOM      5  O   UNL     1      29.132  11.050  26.947  1.00  0.00    -0.550 OA
ATOM      6  O   UNL     1      28.100  11.855  28.827  1.00  0.00    -0.550 OA
ENDBRANCH   3   4
ENDBRANCH   2   3
ENDBRANCH   1   2
BRANCH   1   7
ATOM      7  C   UNL     1      32.100   8.830  28.000  1.00  0.00     0.000 C 
BRANCH   7   8
ATOM      8  C   UNL     1      33.269   8.307  28.847  1.00  0.00     0.004 C 
BRANCH   8   9
ATOM      9  C   UNL     1      33.738   9.334  29.887  1.00  0.00     0.027 C 
BRANCH   9  10
ATOM     10  C   UNL     1      33.299   8.980  31.283  1.00  0.00    -0.035 C 
ATOM     11  C   UNL     1      32.822   7.769  31.584  1.00  0.00     0.004 C 
ENDBRANCH   9  10
ENDBRANCH   8   9
ENDBRANCH   7   8
ENDBRANCH   1   7
TORSDOF 7
ENDMDL
MODEL 7
REMARK VINA RESULT:    -3.649      8.238     10.245
REMARK INTER + INTRA:          -5.552
REMARK INTER:                  -4.723
REMARK INTRA:                  -0.829
REMARK UNBOUND:                -0.409
REMARK SMILES C=CCCCCCCC(=O)[O-]
REMARK SMILES IDX 6 1 7 2 8 3 9 4 10 5 11 6 5 7 4 8 3 9 2 10 1 11
REMARK H PARENT
REMARK Flexibility Score: inf
ROOT
ATOM      1  C   UNL     1      22.688   1.105  26.761  1.00  0.00     0.000 C 
ENDROOT
BRANCH   1   2
ATOM      2  C   UNL     1      23.920   1.583  27.538  1.00  0.00     0.006 C 
BRANCH   2   3
ATOM      3  C   UNL     1      24.328   2.995  27.106  1.00  0.00     0.053 C 
BRANCH   3   4
ATOM      4  C   UNL     1      23.427   4.014  27.728  1.00  0.00     0.041 C 
ATOM      5  O   UNL     1      23.145   5.074  27.108  1.00  0.00    -0.550 OA
ATOM      6  O   UNL     1      22.937   3.818  29.013  1.00  0.00    -0.550 OA
ENDBRANCH   3   4
ENDBRANCH   2   3
ENDBRANCH   1   2
BRANCH   1   7
ATOM      7  C   UNL     1      23.082   0.571  25.378  1.00  0.00     0.000 C 
BRANCH   7   8
ATOM      8  C   UNL     1      22.494   1.448  24.262  1.00  0.00     0.004 C 
BRANCH   8   9
ATOM      9  C   UNL     1      21.328   2.315  24.760  1.00  0.00     0.027 C 
BRANCH   9  10
ATOM     10  C   UNL     1      21.467   3.756  24.346  1.00  0.00    -0.035 C 
ATOM     11  C   UNL     1      22.553   4.204  23.710  1.00  0.00     0.004 C 
ENDBRANCH   9  10
ENDBRANCH   8   9
ENDBRANCH   7   8
ENDBRANCH   1   7
TORSDOF 7
ENDMDL
MODEL 8
REMARK VINA RESULT:    -3.625      1.415      2.425
REMARK INTER + INTRA:          -5.518
REMARK INTER:                  -4.656
REMARK INTRA:                  -0.862
REMARK UNBOUND:                -0.409
REMARK SMILES C=CCCCCCCC(=O)[O-]
REMARK SMILES IDX 6 1 7 2 8 3 9 4 10 5 11 6 5 7 4 8 3 9 2 10 1 11
REMARK H PARENT
REMARK Flexibility Score: inf
ROOT
ATOM      1  C   UNL     1      31.156  10.420  31.282  1.00  0.00     0.000 C 
ENDROOT
BRANCH   1   2
ATOM      2  C   UNL     1      29.869  10.951  30.641  1.00  0.00     0.006 C 
BRANCH   2   3
ATOM      3  C   UNL     1      30.150  11.549  29.259  1.00  0.00     0.053 C 
BRANCH   3   4
ATOM      4  C   UNL     1      29.157  11.049  28.259  1.00  0.00     0.041 C 
ATOM      5  O   UNL     1      27.925  11.080  28.519  1.00  0.00    -0.550 OA
ATOM      6  O   UNL     1      29.594  10.502  27.060  1.00  0.00    -0.550 OA
ENDBRANCH   3   4
ENDBRANCH   2   3
ENDBRANCH   1   2
BRANCH   1   7
ATOM      7  C   UNL     1      32.230  10.150  30.221  1.00  0.00     0.000 C 
BRANCH   7   8
ATOM      8  C   UNL     1      32.423   8.643  30.003  1.00  0.00     0.004 C 
BRANCH   8   9
ATOM      9  C   UNL     1      31.753   8.154  28.711  1.00  0.00     0.027 C 
BRANCH   9  10
ATOM     10  C   UNL     1      30.382   7.582  28.954  1.00  0.00    -0.035 C 
ATOM     11  C   UNL     1      30.115   6.825  30.023  1.00  0.00     0.004 C 
ENDBRANCH   9  10
ENDBRANCH   8   9
ENDBRANCH   7   8
ENDBRANCH   1   7
TORSDOF 7
ENDMDL
MODEL 9
REMARK VINA RESULT:    -3.587      8.605     10.546
REMARK INTER + INTRA:          -5.464
REMARK INTER:                  -4.643
REMARK INTRA:                  -0.821
REMARK UNBOUND:                -0.409
REMARK SMILES C=CCCCCCCC(=O)[O-]
REMARK SMILES IDX 6 1 7 2 8 3 9 4 10 5 11 6 5 7 4 8 3 9 2 10 1 11
REMARK H PARENT
REMARK Flexibility Score: inf
ROOT
ATOM      1  C   UNL     1      22.409   0.359  26.019  1.00  0.00     0.000 C 
ENDROOT
BRANCH   1   2
ATOM      2  C   UNL     1      23.124   0.855  24.756  1.00  0.00     0.006 C 
BRANCH   2   3
ATOM      3  C   UNL     1      22.118   1.360  23.718  1.00  0.00     0.053 C 
BRANCH   3   4
ATOM      4  C   UNL     1      21.853   2.819  23.911  1.00  0.00     0.041 C 
ATOM      5  O   UNL     1      22.701   3.672  23.537  1.00  0.00    -0.550 OA
ATOM      6  O   UNL     1      20.692   3.236  24.548  1.00  0.00    -0.550 OA
ENDBRANCH   3   4
ENDBRANCH   2   3
ENDBRANCH   1   2
BRANCH   1   7
ATOM      7  C   UNL     1      22.662   1.303  27.201  1.00  0.00     0.000 C 
BRANCH   7   8
ATOM      8  C   UNL     1      24.123   1.775  27.227  1.00  0.00     0.004 C 
BRANCH   8   9
ATOM      9  C   UNL     1      24.235   3.304  27.319  1.00  0.00     0.027 C 
BRANCH   9  10
ATOM     10  C   UNL     1      22.890   3.975  27.406  1.00  0.00    -0.035 C 
ATOM     11  C   UNL     1      22.644   5.139  26.798  1.00  0.00     0.004 C 
ENDBRANCH   9  10
ENDBRANCH   8   9
ENDBRANCH   7   8
ENDBRANCH   1   7
TORSDOF 7
ENDMDL
