MODEL 1
REMARK VINA RESULT:    11.040      0.000      0.000
REMARK INTER + INTRA:          25.859
REMARK INTER:                  27.820
REMARK INTRA:                  -1.961
REMARK UNBOUND:                -1.961
REMARK SMILES CCCCCCCCCCCCCCCCCCCCCCCCCCCC(=O)[O-]
REMARK SMILES IDX 15 1 16 2 17 3 18 4 19 5 20 6 21 7 22 8 23 9 24 10 25 11
REMARK SMILES IDX 26 12 27 13 28 14 29 15 30 16 14 17 13 18 12 19 11 20 10 21
REMARK SMILES IDX 9 22 8 23 7 24 6 25 5 26 4 27 3 28 2 29 1 30
REMARK H PARENT
REMARK Flexibility Score: inf
ROOT
ATOM      1  C   UNL     1      -6.470  13.819 -11.091  1.00  0.00     0.000 C 
ENDROOT
BRANCH   1   2
ATOM      2  C   UNL     1      -7.228  14.240  -9.818  1.00  0.00     0.000 C 
BRANCH   2   3
ATOM      3  C   UNL     1      -6.328  14.609  -8.623  1.00  0.00     0.000 C 
BRANCH   3   4
ATOM      4  C   UNL     1      -5.799  13.385  -7.840  1.00  0.00     0.000 C 
BRANCH   4   5
ATOM      5  C   UNL     1      -6.391  13.226  -6.424  1.00  0.00     0.000 C 
BRANCH   5   6
ATOM      6  C   UNL     1      -5.956  11.952  -5.666  1.00  0.00     0.000 C 
BRANCH   6   7
ATOM      7  C   UNL     1      -7.083  11.207  -4.924  1.00  0.00     0.000 C 
BRANCH   7   8
ATOM      8  C   UNL     1      -8.084  10.472  -5.835  1.00  0.00     0.000 C 
BRANCH   8   9
ATOM      9  C   UNL     1      -9.510  10.450  -5.264  1.00  0.00     0.000 C 
BRANCH   9  10
ATOM     10  C   UNL     1     -10.121  11.858  -5.274  1.00  0.00     0.000 C 
BRANCH  10  11
ATOM     11  C   UNL     1      -9.616  12.726  -6.440  1.00  0.00     0.000 C 
BRANCH  11  12
ATOM     12  C   UNL     1     -10.682  13.087  -7.490  1.00  0.00     0.006 C 
BRANCH  12  13
ATOM     13  C   UNL     1     -11.739  14.064  -6.956  1.00  0.00     0.053 C 
BRANCH  13  14
ATOM     14  C   UNL     1     -11.955  15.186  -7.921  1.00  0.00     0.041 C 
ATOM     15  O   UNL     1     -12.469  16.267  -7.529  1.00  0.00    -0.550 OA
ATOM     16  O   UNL     1     -11.619  15.026  -9.259  1.00  0.00    -0.550 OA
ENDBRANCH  13  14
ENDBRANCH  12  13
ENDBRANCH  11  12
ENDBRANCH  10  11
ENDBRANCH   9  10
ENDBRANCH   8   9
ENDBRANCH   7   8
ENDBRANCH   6   7
ENDBRANCH   5   6
ENDBRANCH   4   5
ENDBRANCH   3   4
ENDBRANCH   2   3
ENDBRANCH   1   2
BRANCH   1  17
ATOM     17  C   UNL     1      -7.233  14.055 -12.410  1.00  0.00     0.000 C 
BRANCH  17  18
ATOM     18  C   UNL     1      -7.075  12.941 -13.465  1.00  0.00     0.000 C 
BRANCH  18  19
ATOM     19  C   UNL     1      -6.642  13.428 -14.859  1.00  0.00     0.000 C 
BRANCH  19  20
ATOM     20  C   UNL     1      -6.485  14.957 -14.933  1.00  0.00     0.000 C 
BRANCH  20  21
ATOM     21  C   UNL     1      -5.031  15.411 -14.736  1.00  0.00     0.000 C 
BRANCH  21  22
ATOM     22  C   UNL     1      -4.924  16.760 -14.002  1.00  0.00    -0.000 C 
BRANCH  22  23
ATOM     23  C   UNL     1      -4.884  17.957 -14.976  1.00  0.00    -0.000 C 
BRANCH  23  24
ATOM     24  C   UNL     1      -6.139  18.853 -14.926  1.00  0.00    -0.000 C 
BRANCH  24  25
ATOM     25  C   UNL     1      -6.151  19.900 -13.800  1.00  0.00    -0.000 C 
BRANCH  25  26
ATOM     26  C   UNL     1      -7.572  20.348 -13.414  1.00  0.00    -0.000 C 
BRANCH  26  27
ATOM     27  C   UNL     1      -8.393  19.217 -12.769  1.00  0.00    -0.000 C 
BRANCH  27  28
ATOM     28  C   UNL     1      -9.040  18.246 -13.774  1.00  0.00    -0.000 C 
BRANCH  28  29
ATOM     29  C   UNL     1      -9.194  16.826 -13.211  1.00  0.00    -0.003 C 
ATOM     30  C   UNL     1      -8.846  16.780 -11.726  1.00  0.00     0.004 C 
ENDBRANCH  28  29
ENDBRANCH  27  28
ENDBRANCH  26  27
ENDBRANCH  25  26
ENDBRANCH  24  25
ENDBRANCH  23  24
ENDBRANCH  22  23
ENDBRANCH  21  22
ENDBRANCH  20  21
ENDBRANCH  19  20
ENDBRANCH  18  19
ENDBRANCH  17  18
ENDBRANCH   1  17
TORSDOF 26
ENDMDL
MODEL 2
REMARK VINA RESULT:    11.492      1.699      8.845
REMARK INTER + INTRA:          26.998
REMARK INTER:                  27.824
REMARK INTRA:                  -0.826
REMARK UNBOUND:                -1.961
REMARK SMILES CCCCCCCCCCCCCCCCCCCCCCCCCCCC(=O)[O-]
REMARK SMILES IDX 15 1 16 2 17 3 18 4 19 5 20 6 21 7 22 8 23 9 24 10 25 11
REMARK SMILES IDX 26 12 27 13 28 14 29 15 30 16 14 17 13 18 12 19 11 20 10 21
REMARK SMILES IDX 9 22 8 23 7 24 6 25 5 26 4 27 3 28 2 29 1 30
REMARK H PARENT
REMARK Flexibility Score: inf
ROOT
ATOM      1  C   UNL     1      -7.953  14.673 -10.656  1.00  0.00     0.000 C 
ENDROOT
BRANCH   1   2
ATOM      2  C   UNL     1      -7.091  14.372 -11.896  1.00  0.00     0.000 C 
BRANCH   2   3
ATOM      3  C   UNL     1      -7.086  12.896 -12.336  1.00  0.00     0.000 C 
BRANCH   3   4
ATOM      4  C   UNL     1      -6.677  12.687 -13.812  1.00  0.00     0.000 C 
BRANCH   4   5
ATOM      5  C   UNL     1      -6.965  13.891 -14.734  1.00  0.00     0.000 C 
BRANCH   5   6
ATOM      6  C   UNL     1      -5.795  14.884 -14.908  1.00  0.00     0.000 C 
BRANCH   6   7
ATOM      7  C   UNL     1      -6.110  16.348 -14.545  1.00  0.00     0.000 C 
BRANCH   7   8
ATOM      8  C   UNL     1      -4.875  17.235 -14.299  1.00  0.00     0.000 C 
BRANCH   8   9
ATOM      9  C   UNL     1      -4.895  18.530 -15.125  1.00  0.00     0.000 C 
BRANCH   9  10
ATOM     10  C   UNL     1      -6.189  19.316 -14.873  1.00  0.00     0.000 C 
BRANCH  10  11
ATOM     11  C   UNL     1      -6.136  20.171 -13.595  1.00  0.00     0.000 C 
BRANCH  11  12
ATOM     12  C   UNL     1      -7.487  20.351 -12.878  1.00  0.00     0.006 C 
BRANCH  12  13
ATOM     13  C   UNL     1      -8.580  19.421 -13.422  1.00  0.00     0.053 C 
BRANCH  13  14
ATOM     14  C   UNL     1      -8.551  18.104 -12.714  1.00  0.00     0.041 C 
ATOM     15  O   UNL     1      -7.679  17.879 -11.833  1.00  0.00    -0.550 OA
ATOM     16  O   UNL     1      -9.464  17.112 -13.051  1.00  0.00    -0.550 OA
ENDBRANCH  13  14
ENDBRANCH  12  13
ENDBRANCH  11  12
ENDBRANCH  10  11
ENDBRANCH   9  10
ENDBRANCH   8   9
ENDBRANCH   7   8
ENDBRANCH   6   7
ENDBRANCH   5   6
ENDBRANCH   4   5
ENDBRANCH   3   4
ENDBRANCH   2   3
ENDBRANCH   1   2
BRANCH   1  17
ATOM     17  C   UNL     1      -7.773  13.687  -9.484  1.00  0.00     0.000 C 
BRANCH  17  18
ATOM     18  C   UNL     1      -6.601  14.007  -8.535  1.00  0.00     0.000 C 
BRANCH  18  19
ATOM     19  C   UNL     1      -6.144  12.832  -7.653  1.00  0.00     0.000 C 
BRANCH  19  20
ATOM     20  C   UNL     1      -6.087  13.196  -6.159  1.00  0.00     0.000 C 
BRANCH  20  21
ATOM     21  C   UNL     1      -7.176  12.490  -5.338  1.00  0.00     0.000 C 
BRANCH  21  22
ATOM     22  C   UNL     1      -7.540  11.104  -5.900  1.00  0.00    -0.000 C 
BRANCH  22  23
ATOM     23  C   UNL     1      -9.063  10.850  -5.894  1.00  0.00    -0.000 C 
BRANCH  23  24
ATOM     24  C   UNL     1      -9.862  11.841  -5.023  1.00  0.00    -0.000 C 
BRANCH  24  25
ATOM     25  C   UNL     1     -10.948  12.637  -5.766  1.00  0.00    -0.000 C 
BRANCH  25  26
ATOM     26  C   UNL     1     -10.383  13.494  -6.913  1.00  0.00    -0.000 C 
BRANCH  26  27
ATOM     27  C   UNL     1     -11.187  13.337  -8.217  1.00  0.00    -0.000 C 
BRANCH  27  28
ATOM     28  C   UNL     1     -12.163  14.491  -8.507  1.00  0.00    -0.000 C 
BRANCH  28  29
ATOM     29  C   UNL     1     -12.017  15.655  -7.516  1.00  0.00    -0.003 C 
ATOM     30  C   UNL     1     -12.265  15.193  -6.082  1.00  0.00     0.004 C 
ENDBRANCH  28  29
ENDBRANCH  27  28
ENDBRANCH  26  27
ENDBRANCH  25  26
ENDBRANCH  24  25
ENDBRANCH  23  24
ENDBRANCH  22  23
ENDBRANCH  21  22
ENDBRANCH  20  21
ENDBRANCH  19  20
ENDBRANCH  18  19
ENDBRANCH  17  18
ENDBRANCH   1  17
TORSDOF 26
ENDMDL
MODEL 3
REMARK VINA RESULT:    11.883      2.926      4.820
REMARK INTER + INTRA:          27.984
REMARK INTER:                  28.649
REMARK INTRA:                  -0.664
REMARK UNBOUND:                -1.961
REMARK SMILES CCCCCCCCCCCCCCCCCCCCCCCCCCCC(=O)[O-]
REMARK SMILES IDX 15 1 16 2 17 3 18 4 19 5 20 6 21 7 22 8 23 9 24 10 25 11
REMARK SMILES IDX 26 12 27 13 28 14 29 15 30 16 14 17 13 18 12 19 11 20 10 21
REMARK SMILES IDX 9 22 8 23 7 24 6 25 5 26 4 27 3 28 2 29 1 30
REMARK H PARENT
REMARK Flexibility Score: inf
ROOT
ATOM      1  C   UNL     1     -10.086  16.060 -10.647  1.00  0.00     0.000 C 
ENDROOT
BRANCH   1   2
ATOM      2  C   UNL     1     -10.316  14.674 -10.017  1.00  0.00     0.000 C 
BRANCH   2   3
ATOM      3  C   UNL     1     -11.636  14.531  -9.237  1.00  0.00     0.000 C 
BRANCH   3   4
ATOM      4  C   UNL     1     -11.446  14.087  -7.767  1.00  0.00     0.000 C 
BRANCH   4   5
ATOM      5  C   UNL     1     -10.273  13.112  -7.539  1.00  0.00     0.000 C 
BRANCH   5   6
ATOM      6  C   UNL     1      -9.952  12.799  -6.061  1.00  0.00     0.000 C 
BRANCH   6   7
ATOM      7  C   UNL     1      -9.327  11.415  -5.799  1.00  0.00     0.000 C 
BRANCH   7   8
ATOM      8  C   UNL     1      -8.385  10.908  -6.907  1.00  0.00     0.000 C 
BRANCH   8   9
ATOM      9  C   UNL     1      -7.047  11.662  -6.948  1.00  0.00     0.000 C 
BRANCH   9  10
ATOM     10  C   UNL     1      -6.796  12.395  -5.622  1.00  0.00     0.000 C 
BRANCH  10  11
ATOM     11  C   UNL     1      -5.537  11.900  -4.889  1.00  0.00     0.000 C 
BRANCH  11  12
ATOM     12  C   UNL     1      -5.727  11.627  -3.386  1.00  0.00     0.006 C 
BRANCH  12  13
ATOM     13  C   UNL     1      -7.157  11.192  -3.034  1.00  0.00     0.053 C 
BRANCH  13  14
ATOM     14  C   UNL     1      -7.274  10.902  -1.571  1.00  0.00     0.041 C 
ATOM     15  O   UNL     1      -6.334  10.324  -0.964  1.00  0.00    -0.550 OA
ATOM     16  O   UNL     1      -8.433  11.241  -0.886  1.00  0.00    -0.550 OA
ENDBRANCH  13  14
ENDBRANCH  12  13
ENDBRANCH  11  12
ENDBRANCH  10  11
ENDBRANCH   9  10
ENDBRANCH   8   9
ENDBRANCH   7   8
ENDBRANCH   6   7
ENDBRANCH   5   6
ENDBRANCH   4   5
ENDBRANCH   3   4
ENDBRANCH   2   3
ENDBRANCH   1   2
BRANCH   1  17
ATOM     17  C   UNL     1      -9.225  16.059 -11.926  1.00  0.00     0.000 C 
BRANCH  17  18
ATOM     18  C   UNL     1      -8.557  14.710 -12.263  1.00  0.00     0.000 C 
BRANCH  18  19
ATOM     19  C   UNL     1      -7.926  14.633 -13.664  1.00  0.00     0.000 C 
BRANCH  19  20
ATOM     20  C   UNL     1      -8.165  13.278 -14.351  1.00  0.00     0.000 C 
BRANCH  20  21
ATOM     21  C   UNL     1      -6.910  12.745 -15.059  1.00  0.00     0.000 C 
BRANCH  21  22
ATOM     22  C   UNL     1      -5.609  13.123 -14.327  1.00  0.00    -0.000 C 
BRANCH  22  23
ATOM     23  C   UNL     1      -4.908  14.340 -14.967  1.00  0.00    -0.000 C 
BRANCH  23  24
ATOM     24  C   UNL     1      -5.648  15.677 -14.753  1.00  0.00    -0.000 C 
BRANCH  24  25
ATOM     25  C   UNL     1      -4.978  16.645 -13.765  1.00  0.00    -0.000 C 
BRANCH  25  26
ATOM     26  C   UNL     1      -4.875  18.081 -14.310  1.00  0.00    -0.000 C 
BRANCH  26  27
ATOM     27  C   UNL     1      -6.115  18.493 -15.125  1.00  0.00    -0.000 C 
BRANCH  27  28
ATOM     28  C   UNL     1      -6.464  19.990 -15.041  1.00  0.00    -0.000 C 
BRANCH  28  29
ATOM     29  C   UNL     1      -7.816  20.246 -14.359  1.00  0.00    -0.003 C 
ATOM     30  C   UNL     1      -7.872  19.593 -12.981  1.00  0.00     0.004 C 
ENDBRANCH  28  29
ENDBRANCH  27  28
ENDBRANCH  26  27
ENDBRANCH  25  26
ENDBRANCH  24  25
ENDBRANCH  23  24
ENDBRANCH  22  23
ENDBRANCH  21  22
ENDBRANCH  20  21
ENDBRANCH  19  20
ENDBRANCH  18  19
ENDBRANCH  17  18
ENDBRANCH   1  17
TORSDOF 26
ENDMDL
MODEL 4
REMARK VINA RESULT:    12.092      2.076      3.406
REMARK INTER + INTRA:          28.511
REMARK INTER:                  28.982
REMARK INTRA:                  -0.471
REMARK UNBOUND:                -1.961
REMARK SMILES CCCCCCCCCCCCCCCCCCCCCCCCCCCC(=O)[O-]
REMARK SMILES IDX 15 1 16 2 17 3 18 4 19 5 20 6 21 7 22 8 23 9 24 10 25 11
REMARK SMILES IDX 26 12 27 13 28 14 29 15 30 16 14 17 13 18 12 19 11 20 10 21
REMARK SMILES IDX 9 22 8 23 7 24 6 25 5 26 4 27 3 28 2 29 1 30
REMARK H PARENT
REMARK Flexibility Score: inf
ROOT
ATOM      1  C   UNL     1      -5.947  13.626 -12.165  1.00  0.00     0.000 C 
ENDROOT
BRANCH   1   2
ATOM      2  C   UNL     1      -6.956  14.461 -11.357  1.00  0.00     0.000 C 
BRANCH   2   3
ATOM      3  C   UNL     1      -8.323  13.785 -11.136  1.00  0.00     0.000 C 
BRANCH   3   4
ATOM      4  C   UNL     1      -8.834  13.875  -9.679  1.00  0.00     0.000 C 
BRANCH   4   5
ATOM      5  C   UNL     1      -9.969  12.887  -9.336  1.00  0.00     0.000 C 
BRANCH   5   6
ATOM      6  C   UNL     1     -10.434  12.901  -7.863  1.00  0.00     0.000 C 
BRANCH   6   7
ATOM      7  C   UNL     1      -9.357  12.529  -6.826  1.00  0.00     0.000 C 
BRANCH   7   8
ATOM      8  C   UNL     1      -9.123  11.017  -6.646  1.00  0.00     0.000 C 
BRANCH   8   9
ATOM      9  C   UNL     1      -9.702  10.474  -5.331  1.00  0.00     0.000 C 
BRANCH   9  10
ATOM     10  C   UNL     1      -9.047  11.161  -4.124  1.00  0.00     0.000 C 
BRANCH  10  11
ATOM     11  C   UNL     1      -7.590  10.722  -3.898  1.00  0.00     0.000 C 
BRANCH  11  12
ATOM     12  C   UNL     1      -6.550  11.854  -3.990  1.00  0.00     0.006 C 
BRANCH  12  13
ATOM     13  C   UNL     1      -5.763  11.837  -5.308  1.00  0.00     0.053 C 
BRANCH  13  14
ATOM     14  C   UNL     1      -6.082  13.048  -6.126  1.00  0.00     0.041 C 
ATOM     15  O   UNL     1      -5.849  13.054  -7.364  1.00  0.00    -0.550 OA
ATOM     16  O   UNL     1      -6.604  14.182  -5.517  1.00  0.00    -0.550 OA
ENDBRANCH  13  14
ENDBRANCH  12  13
ENDBRANCH  11  12
ENDBRANCH  10  11
ENDBRANCH   9  10
ENDBRANCH   8   9
ENDBRANCH   7   8
ENDBRANCH   6   7
ENDBRANCH   5   6
ENDBRANCH   4   5
ENDBRANCH   3   4
ENDBRANCH   2   3
ENDBRANCH   1   2
BRANCH   1  17
ATOM     17  C   UNL     1      -6.566  12.483 -12.995  1.00  0.00     0.000 C 
BRANCH  17  18
ATOM     18  C   UNL     1      -7.441  12.936 -14.181  1.00  0.00     0.000 C 
BRANCH  18  19
ATOM     19  C   UNL     1      -7.102  14.330 -14.738  1.00  0.00     0.000 C 
BRANCH  19  20
ATOM     20  C   UNL     1      -5.603  14.661 -14.642  1.00  0.00     0.000 C 
BRANCH  20  21
ATOM     21  C   UNL     1      -5.315  16.156 -14.845  1.00  0.00     0.000 C 
BRANCH  21  22
ATOM     22  C   UNL     1      -6.598  17.001 -14.939  1.00  0.00    -0.000 C 
BRANCH  22  23
ATOM     23  C   UNL     1      -6.298  18.504 -15.124  1.00  0.00    -0.000 C 
BRANCH  23  24
ATOM     24  C   UNL     1      -5.010  18.980 -14.421  1.00  0.00    -0.000 C 
BRANCH  24  25
ATOM     25  C   UNL     1      -4.929  20.492 -14.154  1.00  0.00    -0.000 C 
BRANCH  25  26
ATOM     26  C   UNL     1      -5.980  20.978 -13.140  1.00  0.00    -0.000 C 
BRANCH  26  27
ATOM     27  C   UNL     1      -6.658  19.817 -12.391  1.00  0.00    -0.000 C 
BRANCH  27  28
ATOM     28  C   UNL     1      -8.136  19.596 -12.761  1.00  0.00    -0.000 C 
BRANCH  28  29
ATOM     29  C   UNL     1      -8.721  18.323 -12.133  1.00  0.00    -0.003 C 
ATOM     30  C   UNL     1      -9.099  17.303 -13.204  1.00  0.00     0.004 C 
ENDBRANCH  28  29
ENDBRANCH  27  28
ENDBRANCH  26  27
ENDBRANCH  25  26
ENDBRANCH  24  25
ENDBRANCH  23  24
ENDBRANCH  22  23
ENDBRANCH  21  22
ENDBRANCH  20  21
ENDBRANCH  19  20
ENDBRANCH  18  19
ENDBRANCH  17  18
ENDBRANCH   1  17
TORSDOF 26
ENDMDL
MODEL 5
REMARK VINA RESULT:    12.151      2.932      4.161
REMARK INTER + INTRA:          28.659
REMARK INTER:                  29.026
REMARK INTRA:                  -0.367
REMARK UNBOUND:                -1.961
REMARK SMILES CCCCCCCCCCCCCCCCCCCCCCCCCCCC(=O)[O-]
REMARK SMILES IDX 15 1 16 2 17 3 18 4 19 5 20 6 21 7 22 8 23 9 24 10 25 11
REMARK SMILES IDX 26 12 27 13 28 14 29 15 30 16 14 17 13 18 12 19 11 20 10 21
REMARK SMILES IDX 9 22 8 23 7 24 6 25 5 26 4 27 3 28 2 29 1 30
REMARK H PARENT
REMARK Flexibility Score: inf
ROOT
ATOM      1  C   UNL     1      -7.661  14.536 -11.662  1.00  0.00     0.000 C 
ENDROOT
BRANCH   1   2
ATOM      2  C   UNL     1      -8.170  14.487 -10.210  1.00  0.00     0.000 C 
BRANCH   2   3
ATOM      3  C   UNL     1      -9.172  13.355  -9.916  1.00  0.00     0.000 C 
BRANCH   3   4
ATOM      4  C   UNL     1     -10.387  13.803  -9.071  1.00  0.00     0.000 C 
BRANCH   4   5
ATOM      5  C   UNL     1     -10.699  12.894  -7.864  1.00  0.00     0.000 C 
BRANCH   5   6
ATOM      6  C   UNL     1      -9.731  13.027  -6.668  1.00  0.00     0.000 C 
BRANCH   6   7
ATOM      7  C   UNL     1      -9.333  11.703  -5.988  1.00  0.00     0.000 C 
BRANCH   7   8
ATOM      8  C   UNL     1      -8.541  10.728  -6.878  1.00  0.00     0.000 C 
BRANCH   8   9
ATOM      9  C   UNL     1      -7.023  10.815  -6.657  1.00  0.00     0.000 C 
BRANCH   9  10
ATOM     10  C   UNL     1      -6.593  12.265  -6.396  1.00  0.00     0.000 C 
BRANCH  10  11
ATOM     11  C   UNL     1      -6.301  12.550  -4.913  1.00  0.00     0.000 C 
BRANCH  11  12
ATOM     12  C   UNL     1      -6.320  11.310  -3.999  1.00  0.00     0.006 C 
BRANCH  12  13
ATOM     13  C   UNL     1      -7.542  11.272  -3.071  1.00  0.00     0.053 C 
BRANCH  13  14
ATOM     14  C   UNL     1      -7.125  10.987  -1.663  1.00  0.00     0.041 C 
ATOM     15  O   UNL     1      -5.920  10.732  -1.400  1.00  0.00    -0.550 OA
ATOM     16  O   UNL     1      -8.072  10.968  -0.647  1.00  0.00    -0.550 OA
ENDBRANCH  13  14
ENDBRANCH  12  13
ENDBRANCH  11  12
ENDBRANCH  10  11
ENDBRANCH   9  10
ENDBRANCH   8   9
ENDBRANCH   7   8
ENDBRANCH   6   7
ENDBRANCH   5   6
ENDBRANCH   4   5
ENDBRANCH   3   4
ENDBRANCH   2   3
ENDBRANCH   1   2
BRANCH   1  17
ATOM     17  C   UNL     1      -7.889  13.245 -12.475  1.00  0.00     0.000 C 
BRANCH  17  18
ATOM     18  C   UNL     1      -7.815  13.415 -14.006  1.00  0.00     0.000 C 
BRANCH  18  19
ATOM     19  C   UNL     1      -8.081  14.844 -14.511  1.00  0.00     0.000 C 
BRANCH  19  20
ATOM     20  C   UNL     1      -6.820  15.519 -15.079  1.00  0.00     0.000 C 
BRANCH  20  21
ATOM     21  C   UNL     1      -5.898  16.067 -13.980  1.00  0.00     0.000 C 
BRANCH  21  22
ATOM     22  C   UNL     1      -5.134  17.329 -14.419  1.00  0.00    -0.000 C 
BRANCH  22  23
ATOM     23  C   UNL     1      -6.077  18.433 -14.946  1.00  0.00    -0.000 C 
BRANCH  23  24
ATOM     24  C   UNL     1      -5.640  19.864 -14.573  1.00  0.00    -0.000 C 
BRANCH  24  25
ATOM     25  C   UNL     1      -6.627  20.974 -14.971  1.00  0.00    -0.000 C 
BRANCH  25  26
ATOM     26  C   UNL     1      -8.071  20.465 -15.125  1.00  0.00    -0.000 C 
BRANCH  26  27
ATOM     27  C   UNL     1      -8.630  19.870 -13.819  1.00  0.00    -0.000 C 
BRANCH  27  28
ATOM     28  C   UNL     1      -7.583  19.684 -12.705  1.00  0.00    -0.000 C 
BRANCH  28  29
ATOM     29  C   UNL     1      -7.729  18.342 -11.974  1.00  0.00    -0.003 C 
ATOM     30  C   UNL     1      -8.950  17.572 -12.471  1.00  0.00     0.004 C 
ENDBRANCH  28  29
ENDBRANCH  27  28
ENDBRANCH  26  27
ENDBRANCH  25  26
ENDBRANCH  24  25
ENDBRANCH  23  24
ENDBRANCH  22  23
ENDBRANCH  21  22
ENDBRANCH  20  21
ENDBRANCH  19  20
ENDBRANCH  18  19
ENDBRANCH  17  18
ENDBRANCH   1  17
TORSDOF 26
ENDMDL
