MODEL 1
REMARK VINA RESULT:    -7.540      0.000      0.000
REMARK INTER + INTRA:         -14.742
REMARK INTER:                 -12.389
REMARK INTRA:                  -2.353
REMARK UNBOUND:                -2.353
REMARK SMILES C[C@@H]1O[C@@H](OC[C@H]2O[C@H](Oc3c(-c4ccc(O)c(O)c4)oc4cc(O)cc(O)c4c3=O)[C@H](O)[C@H](O)[C@H]2O)[C@@H](O)[C@@H](O)[C@H]1O
REMARK SMILES IDX 7 1 36 2 34 3 32 4 9 5 8 6 6 7 5 8 4 9 1 10 2 11 42 12 3 13
REMARK SMILES IDX 40 14 38 15 43 16 41 18 39 20 37 22 35 24 10 26 11 27 12 28
REMARK SMILES IDX 30 29 21 30 29 31 31 32 22 33 27 34 23 35 26 36 24 37 13 38
REMARK SMILES IDX 20 39 14 40 18 41 15 42 16 43 19 44 17 46 28 48 25 50 33 52
REMARK H PARENT 43 17 41 19 39 21 37 23 35 25 19 45 17 47 28 49 25 51 33 53
REMARK Flexibility Score: inf
ROOT
ATOM      1  C   UNL     1       6.864  28.694  68.386  1.00  0.00     0.180 C 
ATOM      2  C   UNL     1       7.496  30.102  68.334  1.00  0.00     0.177 C 
ATOM      3  C   UNL     1       7.335  30.787  69.706  1.00  0.00     0.180 C 
ATOM      4  C   UNL     1       7.882  29.862  70.805  1.00  0.00     0.214 C 
ATOM      5  C   UNL     1       7.274  28.448  70.686  1.00  0.00     0.339 C 
ATOM      6  O   UNL     1       7.484  27.907  69.389  1.00  0.00    -0.332 OA
ENDROOT
BRANCH   1   7
ATOM      7  C   UNL     1       6.997  27.963  67.045  1.00  0.00     0.198 C 
BRANCH   7   8
ATOM      8  O   UNL     1       7.678  28.791  66.122  1.00  0.00    -0.347 OA
BRANCH   8   9
ATOM      9  C   UNL     1       6.874  29.112  64.995  1.00  0.00     0.281 C 
ATOM     10  C   UNL     1       7.924  26.347  62.802  1.00  0.00     0.041 C 
ATOM     11  C   UNL     1       8.088  27.613  63.644  1.00  0.00     0.150 C 
ATOM     12  C   UNL     1       8.724  28.747  62.800  1.00  0.00     0.174 C 
ATOM     13  O   UNL     1       6.805  27.987  64.132  1.00  0.00    -0.344 OA
ATOM     14  C   UNL     1       8.799  30.044  63.629  1.00  0.00     0.179 C 
ATOM     15  C   UNL     1       7.400  30.337  64.206  1.00  0.00     0.202 C 
BRANCH  12  16
ATOM     16  O   UNL     1      10.015  28.369  62.381  1.00  0.00    -0.388 OA
ATOM     17  H   UNL     1      10.009  27.380  62.297  1.00  0.00     0.211 HD
ENDBRANCH  12  16
BRANCH  14  18
ATOM     18  O   UNL     1       9.796  29.907  64.622  1.00  0.00    -0.387 OA
ATOM     19  H   UNL     1      10.691  29.982  64.197  1.00  0.00     0.211 HD
ENDBRANCH  14  18
BRANCH  15  20
ATOM     20  O   UNL     1       7.414  31.508  64.985  1.00  0.00    -0.385 OA
ATOM     21  H   UNL     1       8.281  31.959  64.813  1.00  0.00     0.211 HD
ENDBRANCH  15  20
ENDBRANCH   8   9
ENDBRANCH   7   8
ENDBRANCH   1   7
BRANCH   2  22
ATOM     22  O   UNL     1       8.871  29.989  68.036  1.00  0.00    -0.387 OA
ATOM     23  H   UNL     1       9.063  29.030  67.862  1.00  0.00     0.211 HD
ENDBRANCH   2  22
BRANCH   3  24
ATOM     24  O   UNL     1       5.990  31.094  69.963  1.00  0.00    -0.387 OA
ATOM     25  H   UNL     1       5.883  32.077  69.825  1.00  0.00     0.211 HD
ENDBRANCH   3  24
BRANCH   5  26
ATOM     26  O   UNL     1       5.882  28.465  71.026  1.00  0.00    -0.454 OA
BRANCH  26  27
ATOM     27  C   UNL     1       5.264  27.826  72.123  1.00  0.00     0.214 A 
ATOM     28  C   UNL     1       4.731  26.542  71.921  1.00  0.00     0.180 A 
ATOM     29  C   UNL     1       5.149  28.396  73.413  1.00  0.00     0.239 A 
ATOM     30  O   UNL     1       4.156  25.880  72.920  1.00  0.00    -0.452 OA
ATOM     31  C   UNL     1       4.582  27.641  74.463  1.00  0.00     0.111 A 
ATOM     32  O   UNL     1       5.531  29.576  73.621  1.00  0.00    -0.285 OA
ATOM     33  C   UNL     1       4.078  26.357  74.155  1.00  0.00     0.146 A 
ATOM     34  C   UNL     1       4.506  28.102  75.802  1.00  0.00     0.134 A 
ATOM     35  C   UNL     1       3.495  25.565  75.152  1.00  0.00     0.094 A 
ATOM     36  C   UNL     1       3.927  27.291  76.791  1.00  0.00     0.093 A 
ATOM     37  C   UNL     1       3.432  26.025  76.470  1.00  0.00     0.123 A 
BRANCH  28  38
ATOM     38  C   UNL     1       4.803  25.887  70.608  1.00  0.00     0.025 A 
ATOM     39  C   UNL     1       3.962  26.303  69.572  1.00  0.00     0.062 A 
ATOM     40  C   UNL     1       5.750  24.881  70.371  1.00  0.00     0.016 A 
ATOM     41  C   UNL     1       4.055  25.714  68.308  1.00  0.00     0.158 A 
ATOM     42  C   UNL     1       5.836  24.276  69.114  1.00  0.00     0.051 A 
ATOM     43  C   UNL     1       4.992  24.697  68.075  1.00  0.00     0.157 A 
BRANCH  41  44
ATOM     44  O   UNL     1       3.218  26.171  67.289  1.00  0.00    -0.504 OA
ATOM     45  H   UNL     1       2.227  26.334  67.432  1.00  0.00     0.293 HD
ENDBRANCH  41  44
BRANCH  43  46
ATOM     46  O   UNL     1       5.081  24.106  66.818  1.00  0.00    -0.504 OA
ATOM     47  H   UNL     1       4.427  24.329  66.077  1.00  0.00     0.293 HD
ENDBRANCH  43  46
ENDBRANCH  28  38
BRANCH  34  48
ATOM     48  O   UNL     1       5.020  29.353  76.162  1.00  0.00    -0.507 OA
ATOM     49  H   UNL     1       6.002  29.491  76.376  1.00  0.00     0.293 HD
ENDBRANCH  34  48
BRANCH  37  50
ATOM     50  O   UNL     1       2.875  25.229  77.473  1.00  0.00    -0.508 OA
ATOM     51  H   UNL     1       2.550  24.288  77.286  1.00  0.00     0.293 HD
ENDBRANCH  37  50
ENDBRANCH  26  27
ENDBRANCH   5  26
BRANCH   4  52
ATOM     52  O   UNL     1       7.623  30.402  72.072  1.00  0.00    -0.384 OA
ATOM     53  H   UNL     1       7.174  31.273  71.936  1.00  0.00     0.211 HD
ENDBRANCH   4  52
TORSDOF 16
ENDMDL
MODEL 2
REMARK VINA RESULT:    -7.029      2.759      7.923
REMARK INTER + INTRA:         -13.903
REMARK INTER:                 -11.101
REMARK INTRA:                  -2.802
REMARK UNBOUND:                -2.353
REMARK SMILES C[C@@H]1O[C@@H](OC[C@H]2O[C@H](Oc3c(-c4ccc(O)c(O)c4)oc4cc(O)cc(O)c4c3=O)[C@H](O)[C@H](O)[C@H]2O)[C@@H](O)[C@@H](O)[C@H]1O
REMARK SMILES IDX 7 1 36 2 34 3 32 4 9 5 8 6 6 7 5 8 4 9 1 10 2 11 42 12 3 13
REMARK SMILES IDX 40 14 38 15 43 16 41 18 39 20 37 22 35 24 10 26 11 27 12 28
REMARK SMILES IDX 30 29 21 30 29 31 31 32 22 33 27 34 23 35 26 36 24 37 13 38
REMARK SMILES IDX 20 39 14 40 18 41 15 42 16 43 19 44 17 46 28 48 25 50 33 52
REMARK H PARENT 43 17 41 19 39 21 37 23 35 25 19 45 17 47 28 49 25 51 33 53
REMARK Flexibility Score: inf
ROOT
ATOM      1  C   UNL     1       5.225  24.502  67.516  1.00  0.00     0.180 C 
ATOM      2  C   UNL     1       5.037  23.746  68.848  1.00  0.00     0.177 C 
ATOM      3  C   UNL     1       5.529  24.628  70.012  1.00  0.00     0.180 C 
ATOM      4  C   UNL     1       4.845  26.003  69.935  1.00  0.00     0.214 C 
ATOM      5  C   UNL     1       4.992  26.611  68.524  1.00  0.00     0.339 C 
ATOM      6  O   UNL     1       4.502  25.722  67.529  1.00  0.00    -0.332 OA
ENDROOT
BRANCH   1   7
ATOM      7  C   UNL     1       4.749  23.670  66.319  1.00  0.00     0.198 C 
BRANCH   7   8
ATOM      8  O   UNL     1       4.581  24.513  65.196  1.00  0.00    -0.347 OA
BRANCH   8   9
ATOM      9  C   UNL     1       3.213  24.676  64.848  1.00  0.00     0.281 C 
ATOM     10  C   UNL     1       3.274  22.875  61.636  1.00  0.00     0.041 C 
ATOM     11  C   UNL     1       3.641  23.966  62.644  1.00  0.00     0.150 C 
ATOM     12  C   UNL     1       3.374  25.370  62.044  1.00  0.00     0.174 C 
ATOM     13  O   UNL     1       2.875  23.753  63.824  1.00  0.00    -0.344 OA
ATOM     14  C   UNL     1       3.658  26.458  63.097  1.00  0.00     0.179 C 
ATOM     15  C   UNL     1       2.876  26.114  64.379  1.00  0.00     0.202 C 
BRANCH  12  16
ATOM     16  O   UNL     1       4.188  25.572  60.911  1.00  0.00    -0.388 OA
ATOM     17  H   UNL     1       4.758  24.765  60.822  1.00  0.00     0.211 HD
ENDBRANCH  12  16
BRANCH  14  18
ATOM     18  O   UNL     1       5.053  26.556  63.303  1.00  0.00    -0.387 OA
ATOM     19  H   UNL     1       5.359  25.777  63.840  1.00  0.00     0.211 HD
ENDBRANCH  14  18
BRANCH  15  20
ATOM     20  O   UNL     1       3.110  27.071  65.383  1.00  0.00    -0.385 OA
ATOM     21  H   UNL     1       2.267  27.161  65.899  1.00  0.00     0.211 HD
ENDBRANCH  15  20
ENDBRANCH   8   9
ENDBRANCH   7   8
ENDBRANCH   1   7
BRANCH   2  22
ATOM     22  O   UNL     1       3.667  23.460  69.037  1.00  0.00    -0.387 OA
ATOM     23  H   UNL     1       3.553  23.135  69.968  1.00  0.00     0.211 HD
ENDBRANCH   2  22
BRANCH   3  24
ATOM     24  O   UNL     1       6.923  24.784  69.974  1.00  0.00    -0.387 OA
ATOM     25  H   UNL     1       7.208  24.645  69.027  1.00  0.00     0.211 HD
ENDBRANCH   3  24
BRANCH   5  26
ATOM     26  O   UNL     1       6.353  26.980  68.270  1.00  0.00    -0.454 OA
BRANCH  26  27
ATOM     27  C   UNL     1       6.817  27.952  67.357  1.00  0.00     0.214 A 
ATOM     28  C   UNL     1       7.116  29.232  67.855  1.00  0.00     0.180 A 
ATOM     29  C   UNL     1       7.002  27.720  65.974  1.00  0.00     0.239 A 
ATOM     30  O   UNL     1       7.576  30.184  67.050  1.00  0.00    -0.452 OA
ATOM     31  C   UNL     1       7.545  28.738  65.160  1.00  0.00     0.111 A 
ATOM     32  O   UNL     1       6.666  26.620  65.465  1.00  0.00    -0.285 OA
ATOM     33  C   UNL     1       7.814  29.990  65.760  1.00  0.00     0.146 A 
ATOM     34  C   UNL     1       7.842  28.562  63.785  1.00  0.00     0.134 A 
ATOM     35  C   UNL     1       8.344  31.041  65.002  1.00  0.00     0.094 A 
ATOM     36  C   UNL     1       8.382  29.624  63.042  1.00  0.00     0.093 A 
ATOM     37  C   UNL     1       8.640  30.855  63.649  1.00  0.00     0.123 A 
BRANCH  28  38
ATOM     38  C   UNL     1       6.941  29.554  69.277  1.00  0.00     0.025 A 
ATOM     39  C   UNL     1       5.736  30.099  69.729  1.00  0.00     0.062 A 
ATOM     40  C   UNL     1       7.959  29.266  70.197  1.00  0.00     0.016 A 
ATOM     41  C   UNL     1       5.547  30.366  71.087  1.00  0.00     0.158 A 
ATOM     42  C   UNL     1       7.782  29.547  71.555  1.00  0.00     0.051 A 
ATOM     43  C   UNL     1       6.571  30.093  72.006  1.00  0.00     0.157 A 
BRANCH  41  44
ATOM     44  O   UNL     1       4.322  30.887  71.507  1.00  0.00    -0.504 OA
ATOM     45  H   UNL     1       4.105  31.045  72.485  1.00  0.00     0.293 HD
ENDBRANCH  41  44
BRANCH  43  46
ATOM     46  O   UNL     1       6.385  30.365  73.358  1.00  0.00    -0.504 OA
ATOM     47  H   UNL     1       6.456  31.305  73.728  1.00  0.00     0.293 HD
ENDBRANCH  43  46
ENDBRANCH  28  38
BRANCH  34  48
ATOM     48  O   UNL     1       7.623  27.332  63.154  1.00  0.00    -0.507 OA
ATOM     49  H   UNL     1       8.286  26.568  63.219  1.00  0.00     0.293 HD
ENDBRANCH  34  48
BRANCH  37  50
ATOM     50  O   UNL     1       9.193  31.892  62.895  1.00  0.00    -0.508 OA
ATOM     51  H   UNL     1       9.059  31.951  61.893  1.00  0.00     0.293 HD
ENDBRANCH  37  50
ENDBRANCH  26  27
ENDBRANCH   5  26
BRANCH   4  52
ATOM     52  O   UNL     1       5.377  26.869  70.900  1.00  0.00    -0.384 OA
ATOM     53  H   UNL     1       6.238  26.484  71.200  1.00  0.00     0.211 HD
ENDBRANCH   4  52
TORSDOF 16
ENDMDL
MODEL 3
REMARK VINA RESULT:    -6.808      2.859      8.067
REMARK INTER + INTRA:         -13.539
REMARK INTER:                 -10.893
REMARK INTRA:                  -2.645
REMARK UNBOUND:                -2.353
REMARK SMILES C[C@@H]1O[C@@H](OC[C@H]2O[C@H](Oc3c(-c4ccc(O)c(O)c4)oc4cc(O)cc(O)c4c3=O)[C@H](O)[C@H](O)[C@H]2O)[C@@H](O)[C@@H](O)[C@H]1O
REMARK SMILES IDX 7 1 36 2 34 3 32 4 9 5 8 6 6 7 5 8 4 9 1 10 2 11 42 12 3 13
REMARK SMILES IDX 40 14 38 15 43 16 41 18 39 20 37 22 35 24 10 26 11 27 12 28
REMARK SMILES IDX 30 29 21 30 29 31 31 32 22 33 27 34 23 35 26 36 24 37 13 38
REMARK SMILES IDX 20 39 14 40 18 41 15 42 16 43 19 44 17 46 28 48 25 50 33 52
REMARK H PARENT 43 17 41 19 39 21 37 23 35 25 19 45 17 47 28 49 25 51 33 53
REMARK Flexibility Score: inf
ROOT
ATOM      1  C   UNL     1       5.520  24.249  67.329  1.00  0.00     0.180 C 
ATOM      2  C   UNL     1       5.124  23.680  68.708  1.00  0.00     0.177 C 
ATOM      3  C   UNL     1       5.257  24.783  69.776  1.00  0.00     0.180 C 
ATOM      4  C   UNL     1       4.469  26.025  69.328  1.00  0.00     0.214 C 
ATOM      5  C   UNL     1       4.859  26.433  67.891  1.00  0.00     0.339 C 
ATOM      6  O   UNL     1       4.692  25.348  66.988  1.00  0.00    -0.332 OA
ENDROOT
BRANCH   1   7
ATOM      7  C   UNL     1       5.405  23.193  66.224  1.00  0.00     0.198 C 
BRANCH   7   8
ATOM      8  O   UNL     1       5.491  23.823  64.960  1.00  0.00    -0.347 OA
BRANCH   8   9
ATOM      9  C   UNL     1       5.308  22.904  63.891  1.00  0.00     0.281 C 
ATOM     10  C   UNL     1       8.083  24.038  61.752  1.00  0.00     0.041 C 
ATOM     11  C   UNL     1       6.762  24.145  62.515  1.00  0.00     0.150 C 
ATOM     12  C   UNL     1       5.623  24.600  61.568  1.00  0.00     0.174 C 
ATOM     13  O   UNL     1       6.481  22.875  63.091  1.00  0.00    -0.344 OA
ATOM     14  C   UNL     1       4.280  24.615  62.324  1.00  0.00     0.179 C 
ATOM     15  C   UNL     1       4.086  23.245  63.003  1.00  0.00     0.202 C 
BRANCH  12  16
ATOM     16  O   UNL     1       5.903  25.884  61.059  1.00  0.00    -0.388 OA
ATOM     17  H   UNL     1       5.416  25.961  60.198  1.00  0.00     0.211 HD
ENDBRANCH  12  16
BRANCH  14  18
ATOM     18  O   UNL     1       4.270  25.697  63.235  1.00  0.00    -0.387 OA
ATOM     19  H   UNL     1       5.056  25.622  63.838  1.00  0.00     0.211 HD
ENDBRANCH  14  18
BRANCH  15  20
ATOM     20  O   UNL     1       2.878  23.208  63.721  1.00  0.00    -0.385 OA
ATOM     21  H   UNL     1       3.113  23.092  64.678  1.00  0.00     0.211 HD
ENDBRANCH  15  20
ENDBRANCH   8   9
ENDBRANCH   7   8
ENDBRANCH   1   7
BRANCH   2  22
ATOM     22  O   UNL     1       3.782  23.241  68.666  1.00  0.00    -0.387 OA
ATOM     23  H   UNL     1       3.206  24.044  68.564  1.00  0.00     0.211 HD
ENDBRANCH   2  22
BRANCH   3  24
ATOM     24  O   UNL     1       6.602  25.120  69.990  1.00  0.00    -0.387 OA
ATOM     25  H   UNL     1       7.059  24.300  70.332  1.00  0.00     0.211 HD
ENDBRANCH   3  24
BRANCH   5  26
ATOM     26  O   UNL     1       6.197  26.943  67.853  1.00  0.00    -0.454 OA
BRANCH  26  27
ATOM     27  C   UNL     1       6.705  27.943  66.996  1.00  0.00     0.214 A 
ATOM     28  C   UNL     1       7.096  29.165  67.569  1.00  0.00     0.180 A 
ATOM     29  C   UNL     1       6.847  27.792  65.596  1.00  0.00     0.239 A 
ATOM     30  O   UNL     1       7.601  30.137  66.817  1.00  0.00    -0.452 OA
ATOM     31  C   UNL     1       7.439  28.826  64.838  1.00  0.00     0.111 A 
ATOM     32  O   UNL     1       6.430  26.752  65.024  1.00  0.00    -0.285 OA
ATOM     33  C   UNL     1       7.801  30.015  65.512  1.00  0.00     0.146 A 
ATOM     34  C   UNL     1       7.696  28.723  63.447  1.00  0.00     0.134 A 
ATOM     35  C   UNL     1       8.383  31.079  64.812  1.00  0.00     0.094 A 
ATOM     36  C   UNL     1       8.290  29.797  62.763  1.00  0.00     0.093 A 
ATOM     37  C   UNL     1       8.639  30.966  63.443  1.00  0.00     0.123 A 
BRANCH  28  38
ATOM     38  C   UNL     1       6.970  29.400  69.013  1.00  0.00     0.025 A 
ATOM     39  C   UNL     1       5.939  30.206  69.504  1.00  0.00     0.062 A 
ATOM     40  C   UNL     1       7.849  28.777  69.910  1.00  0.00     0.016 A 
ATOM     41  C   UNL     1       5.787  30.399  70.879  1.00  0.00     0.158 A 
ATOM     42  C   UNL     1       7.713  28.980  71.286  1.00  0.00     0.051 A 
ATOM     43  C   UNL     1       6.676  29.788  71.776  1.00  0.00     0.157 A 
BRANCH  41  44
ATOM     44  O   UNL     1       4.731  31.188  71.336  1.00  0.00    -0.504 OA
ATOM     45  H   UNL     1       4.752  32.202  71.296  1.00  0.00     0.293 HD
ENDBRANCH  41  44
BRANCH  43  46
ATOM     46  O   UNL     1       6.529  29.985  73.146  1.00  0.00    -0.504 OA
ATOM     47  H   UNL     1       5.622  29.945  73.596  1.00  0.00     0.293 HD
ENDBRANCH  43  46
ENDBRANCH  28  38
BRANCH  34  48
ATOM     48  O   UNL     1       7.386  27.555  62.742  1.00  0.00    -0.507 OA
ATOM     49  H   UNL     1       7.225  27.557  61.741  1.00  0.00     0.293 HD
ENDBRANCH  34  48
BRANCH  37  50
ATOM     50  O   UNL     1       9.243  32.013  62.746  1.00  0.00    -0.508 OA
ATOM     51  H   UNL     1       9.196  32.077  61.736  1.00  0.00     0.293 HD
ENDBRANCH  37  50
ENDBRANCH  26  27
ENDBRANCH   5  26
BRANCH   4  52
ATOM     52  O   UNL     1       4.686  27.088  70.216  1.00  0.00    -0.384 OA
ATOM     53  H   UNL     1       4.053  27.809  69.974  1.00  0.00     0.211 HD
ENDBRANCH   4  52
TORSDOF 16
ENDMDL
MODEL 4
REMARK VINA RESULT:    -6.794      1.745      9.109
REMARK INTER + INTRA:         -13.516
REMARK INTER:                 -10.828
REMARK INTRA:                  -2.688
REMARK UNBOUND:                -2.353
REMARK SMILES C[C@@H]1O[C@@H](OC[C@H]2O[C@H](Oc3c(-c4ccc(O)c(O)c4)oc4cc(O)cc(O)c4c3=O)[C@H](O)[C@H](O)[C@H]2O)[C@@H](O)[C@@H](O)[C@H]1O
REMARK SMILES IDX 7 1 36 2 34 3 32 4 9 5 8 6 6 7 5 8 4 9 1 10 2 11 42 12 3 13
REMARK SMILES IDX 40 14 38 15 43 16 41 18 39 20 37 22 35 24 10 26 11 27 12 28
REMARK SMILES IDX 30 29 21 30 29 31 31 32 22 33 27 34 23 35 26 36 24 37 13 38
REMARK SMILES IDX 20 39 14 40 18 41 15 42 16 43 19 44 17 46 28 48 25 50 33 52
REMARK H PARENT 43 17 41 19 39 21 37 23 35 25 19 45 17 47 28 49 25 51 33 53
REMARK Flexibility Score: inf
ROOT
ATOM      1  C   UNL     1       5.315  28.234  71.044  1.00  0.00     0.180 C 
ATOM      2  C   UNL     1       6.001  29.331  71.886  1.00  0.00     0.177 C 
ATOM      3  C   UNL     1       7.029  30.079  71.014  1.00  0.00     0.180 C 
ATOM      4  C   UNL     1       6.345  30.570  69.727  1.00  0.00     0.214 C 
ATOM      5  C   UNL     1       5.590  29.417  69.033  1.00  0.00     0.339 C 
ATOM      6  O   UNL     1       4.665  28.803  69.920  1.00  0.00    -0.332 OA
ENDROOT
BRANCH   1   7
ATOM      7  C   UNL     1       4.278  27.456  71.863  1.00  0.00     0.198 C 
BRANCH   7   8
ATOM      8  O   UNL     1       4.561  27.600  73.241  1.00  0.00    -0.347 OA
BRANCH   8   9
ATOM      9  C   UNL     1       3.390  27.498  74.041  1.00  0.00     0.281 C 
ATOM     10  C   UNL     1       3.201  31.009  75.137  1.00  0.00     0.041 C 
ATOM     11  C   UNL     1       3.804  29.610  74.998  1.00  0.00     0.150 C 
ATOM     12  C   UNL     1       4.123  29.016  76.393  1.00  0.00     0.174 C 
ATOM     13  O   UNL     1       2.875  28.798  74.289  1.00  0.00    -0.344 OA
ATOM     14  C   UNL     1       4.643  27.572  76.247  1.00  0.00     0.179 C 
ATOM     15  C   UNL     1       3.641  26.776  75.389  1.00  0.00     0.202 C 
BRANCH  12  16
ATOM     16  O   UNL     1       5.087  29.810  77.046  1.00  0.00    -0.388 OA
ATOM     17  H   UNL     1       5.447  29.264  77.792  1.00  0.00     0.211 HD
ENDBRANCH  12  16
BRANCH  14  18
ATOM     18  O   UNL     1       5.948  27.599  75.702  1.00  0.00    -0.387 OA
ATOM     19  H   UNL     1       6.582  27.203  76.356  1.00  0.00     0.211 HD
ENDBRANCH  14  18
BRANCH  15  20
ATOM     20  O   UNL     1       4.074  25.450  75.211  1.00  0.00    -0.385 OA
ATOM     21  H   UNL     1       4.214  25.319  74.237  1.00  0.00     0.211 HD
ENDBRANCH  15  20
ENDBRANCH   8   9
ENDBRANCH   7   8
ENDBRANCH   1   7
BRANCH   2  22
ATOM     22  O   UNL     1       5.030  30.250  72.340  1.00  0.00    -0.387 OA
ATOM     23  H   UNL     1       4.606  30.660  71.540  1.00  0.00     0.211 HD
ENDBRANCH   2  22
BRANCH   3  24
ATOM     24  O   UNL     1       8.117  29.254  70.693  1.00  0.00    -0.387 OA
ATOM     25  H   UNL     1       7.823  28.658  69.948  1.00  0.00     0.211 HD
ENDBRANCH   3  24
BRANCH   5  26
ATOM     26  O   UNL     1       6.510  28.460  68.493  1.00  0.00    -0.454 OA
BRANCH  26  27
ATOM     27  C   UNL     1       6.631  28.061  67.144  1.00  0.00     0.214 A 
ATOM     28  C   UNL     1       5.980  26.881  66.747  1.00  0.00     0.180 A 
ATOM     29  C   UNL     1       7.365  28.774  66.167  1.00  0.00     0.239 A 
ATOM     30  O   UNL     1       6.039  26.464  65.487  1.00  0.00    -0.452 OA
ATOM     31  C   UNL     1       7.358  28.330  64.826  1.00  0.00     0.111 A 
ATOM     32  O   UNL     1       8.037  29.787  66.492  1.00  0.00    -0.285 OA
ATOM     33  C   UNL     1       6.670  27.132  64.530  1.00  0.00     0.146 A 
ATOM     34  C   UNL     1       7.995  29.031  63.770  1.00  0.00     0.134 A 
ATOM     35  C   UNL     1       6.636  26.636  63.221  1.00  0.00     0.094 A 
ATOM     36  C   UNL     1       7.943  28.525  62.461  1.00  0.00     0.093 A 
ATOM     37  C   UNL     1       7.260  27.338  62.186  1.00  0.00     0.123 A 
BRANCH  28  38
ATOM     38  C   UNL     1       5.207  26.080  67.705  1.00  0.00     0.025 A 
ATOM     39  C   UNL     1       5.863  25.213  68.583  1.00  0.00     0.062 A 
ATOM     40  C   UNL     1       3.814  26.221  67.783  1.00  0.00     0.016 A 
ATOM     41  C   UNL     1       5.138  24.481  69.527  1.00  0.00     0.158 A 
ATOM     42  C   UNL     1       3.081  25.479  68.714  1.00  0.00     0.051 A 
ATOM     43  C   UNL     1       3.743  24.610  69.594  1.00  0.00     0.157 A 
BRANCH  41  44
ATOM     44  O   UNL     1       5.827  23.644  70.404  1.00  0.00    -0.504 OA
ATOM     45  H   UNL     1       6.837  23.670  70.501  1.00  0.00     0.293 HD
ENDBRANCH  41  44
BRANCH  43  46
ATOM     46  O   UNL     1       3.019  23.878  70.530  1.00  0.00    -0.504 OA
ATOM     47  H   UNL     1       3.240  22.911  70.737  1.00  0.00     0.293 HD
ENDBRANCH  43  46
ENDBRANCH  28  38
BRANCH  34  48
ATOM     48  O   UNL     1       8.662  30.238  64.008  1.00  0.00    -0.507 OA
ATOM     49  H   UNL     1       9.663  30.278  64.168  1.00  0.00     0.293 HD
ENDBRANCH  34  48
BRANCH  37  50
ATOM     50  O   UNL     1       7.208  26.862  60.875  1.00  0.00    -0.508 OA
ATOM     51  H   UNL     1       6.349  26.510  60.470  1.00  0.00     0.293 HD
ENDBRANCH  37  50
ENDBRANCH  26  27
ENDBRANCH   5  26
BRANCH   4  52
ATOM     52  O   UNL     1       7.288  31.133  68.856  1.00  0.00    -0.384 OA
ATOM     53  H   UNL     1       6.859  31.909  68.417  1.00  0.00     0.211 HD
ENDBRANCH   4  52
TORSDOF 16
ENDMDL
MODEL 5
REMARK VINA RESULT:    -6.740      3.359      7.004
REMARK INTER + INTRA:         -13.428
REMARK INTER:                 -11.531
REMARK INTRA:                  -1.898
REMARK UNBOUND:                -2.353
REMARK SMILES C[C@@H]1O[C@@H](OC[C@H]2O[C@H](Oc3c(-c4ccc(O)c(O)c4)oc4cc(O)cc(O)c4c3=O)[C@H](O)[C@H](O)[C@H]2O)[C@@H](O)[C@@H](O)[C@H]1O
REMARK SMILES IDX 7 1 36 2 34 3 32 4 9 5 8 6 6 7 5 8 4 9 1 10 2 11 42 12 3 13
REMARK SMILES IDX 40 14 38 15 43 16 41 18 39 20 37 22 35 24 10 26 11 27 12 28
REMARK SMILES IDX 30 29 21 30 29 31 31 32 22 33 27 34 23 35 26 36 24 37 13 38
REMARK SMILES IDX 20 39 14 40 18 41 15 42 16 43 19 44 17 46 28 48 25 50 33 52
REMARK H PARENT 43 17 41 19 39 21 37 23 35 25 19 45 17 47 28 49 25 51 33 53
REMARK Flexibility Score: inf
ROOT
ATOM      1  C   UNL     1       6.194  25.940  63.245  1.00  0.00     0.180 C 
ATOM      2  C   UNL     1       4.992  25.019  63.542  1.00  0.00     0.177 C 
ATOM      3  C   UNL     1       4.567  25.189  65.015  1.00  0.00     0.180 C 
ATOM      4  C   UNL     1       4.340  26.681  65.311  1.00  0.00     0.214 C 
ATOM      5  C   UNL     1       5.555  27.521  64.862  1.00  0.00     0.339 C 
ATOM      6  O   UNL     1       5.856  27.295  63.491  1.00  0.00    -0.332 OA
ENDROOT
BRANCH   1   7
ATOM      7  C   UNL     1       6.660  25.813  61.790  1.00  0.00     0.198 C 
BRANCH   7   8
ATOM      8  O   UNL     1       8.048  25.544  61.761  1.00  0.00    -0.347 OA
BRANCH   8   9
ATOM      9  C   UNL     1       8.563  25.249  63.053  1.00  0.00     0.281 C 
ATOM     10  C   UNL     1      11.823  26.927  62.708  1.00  0.00     0.041 C 
ATOM     11  C   UNL     1      10.725  25.910  62.392  1.00  0.00     0.150 C 
ATOM     12  C   UNL     1      11.285  24.467  62.461  1.00  0.00     0.174 C 
ATOM     13  O   UNL     1       9.666  26.100  63.324  1.00  0.00    -0.344 OA
ATOM     14  C   UNL     1      10.152  23.448  62.233  1.00  0.00     0.179 C 
ATOM     15  C   UNL     1       9.001  23.771  63.206  1.00  0.00     0.202 C 
BRANCH  12  16
ATOM     16  O   UNL     1      12.291  24.294  61.489  1.00  0.00    -0.388 OA
ATOM     17  H   UNL     1      11.829  24.213  60.614  1.00  0.00     0.211 HD
ENDBRANCH  12  16
BRANCH  14  18
ATOM     18  O   UNL     1       9.761  23.480  60.875  1.00  0.00    -0.387 OA
ATOM     19  H   UNL     1       9.706  24.426  60.574  1.00  0.00     0.211 HD
ENDBRANCH  14  18
BRANCH  15  20
ATOM     20  O   UNL     1       7.930  22.876  63.031  1.00  0.00    -0.385 OA
ATOM     21  H   UNL     1       7.095  23.392  63.178  1.00  0.00     0.211 HD
ENDBRANCH  15  20
ENDBRANCH   8   9
ENDBRANCH   7   8
ENDBRANCH   1   7
BRANCH   2  22
ATOM     22  O   UNL     1       3.910  25.375  62.709  1.00  0.00    -0.387 OA
ATOM     23  H   UNL     1       3.467  24.536  62.416  1.00  0.00     0.211 HD
ENDBRANCH   2  22
BRANCH   3  24
ATOM     24  O   UNL     1       5.538  24.670  65.884  1.00  0.00    -0.387 OA
ATOM     25  H   UNL     1       5.453  23.675  65.859  1.00  0.00     0.211 HD
ENDBRANCH   3  24
BRANCH   5  26
ATOM     26  O   UNL     1       6.690  27.257  65.696  1.00  0.00    -0.454 OA
BRANCH  26  27
ATOM     27  C   UNL     1       7.118  28.004  66.815  1.00  0.00     0.214 A 
ATOM     28  C   UNL     1       7.671  29.275  66.585  1.00  0.00     0.180 A 
ATOM     29  C   UNL     1       7.023  27.556  68.153  1.00  0.00     0.239 A 
ATOM     30  O   UNL     1       8.073  30.035  67.598  1.00  0.00    -0.452 OA
ATOM     31  C   UNL     1       7.408  28.414  69.207  1.00  0.00     0.111 A 
ATOM     32  O   UNL     1       6.617  26.392  68.405  1.00  0.00    -0.285 OA
ATOM     33  C   UNL     1       7.950  29.674  68.868  1.00  0.00     0.146 A 
ATOM     34  C   UNL     1       7.266  28.077  70.577  1.00  0.00     0.134 A 
ATOM     35  C   UNL     1       8.359  30.564  69.868  1.00  0.00     0.094 A 
ATOM     36  C   UNL     1       7.672  28.985  71.568  1.00  0.00     0.093 A 
ATOM     37  C   UNL     1       8.208  30.226  71.216  1.00  0.00     0.123 A 
BRANCH  28  38
ATOM     38  C   UNL     1       7.812  29.806  65.223  1.00  0.00     0.025 A 
ATOM     39  C   UNL     1       8.280  28.983  64.195  1.00  0.00     0.062 A 
ATOM     40  C   UNL     1       7.428  31.123  64.935  1.00  0.00     0.016 A 
ATOM     41  C   UNL     1       8.375  29.469  62.888  1.00  0.00     0.158 A 
ATOM     42  C   UNL     1       7.537  31.621  63.633  1.00  0.00     0.051 A 
ATOM     43  C   UNL     1       8.006  30.792  62.603  1.00  0.00     0.157 A 
BRANCH  41  44
ATOM     44  O   UNL     1       8.822  28.612  61.882  1.00  0.00    -0.504 OA
ATOM     45  H   UNL     1       9.797  28.347  61.786  1.00  0.00     0.293 HD
ENDBRANCH  41  44
BRANCH  43  46
ATOM     46  O   UNL     1       8.106  31.278  61.303  1.00  0.00    -0.504 OA
ATOM     47  H   UNL     1       9.003  31.422  60.855  1.00  0.00     0.293 HD
ENDBRANCH  43  46
ENDBRANCH  28  38
BRANCH  34  48
ATOM     48  O   UNL     1       6.705  26.854  70.963  1.00  0.00    -0.507 OA
ATOM     49  H   UNL     1       6.994  25.975  70.550  1.00  0.00     0.293 HD
ENDBRANCH  34  48
BRANCH  37  50
ATOM     50  O   UNL     1       8.590  31.120  72.218  1.00  0.00    -0.508 OA
ATOM     51  H   UNL     1       9.337  31.790  72.077  1.00  0.00     0.293 HD
ENDBRANCH  37  50
ENDBRANCH  26  27
ENDBRANCH   5  26
BRANCH   4  52
ATOM     52  O   UNL     1       4.087  26.875  66.675  1.00  0.00    -0.384 OA
ATOM     53  H   UNL     1       3.148  26.612  66.842  1.00  0.00     0.211 HD
ENDBRANCH   4  52
TORSDOF 16
ENDMDL
MODEL 6
REMARK VINA RESULT:    -6.682      1.668      9.547
REMARK INTER + INTRA:         -13.333
REMARK INTER:                 -11.228
REMARK INTRA:                  -2.104
REMARK UNBOUND:                -2.353
REMARK SMILES C[C@@H]1O[C@@H](OC[C@H]2O[C@H](Oc3c(-c4ccc(O)c(O)c4)oc4cc(O)cc(O)c4c3=O)[C@H](O)[C@H](O)[C@H]2O)[C@@H](O)[C@@H](O)[C@H]1O
REMARK SMILES IDX 7 1 36 2 34 3 32 4 9 5 8 6 6 7 5 8 4 9 1 10 2 11 42 12 3 13
REMARK SMILES IDX 40 14 38 15 43 16 41 18 39 20 37 22 35 24 10 26 11 27 12 28
REMARK SMILES IDX 30 29 21 30 29 31 31 32 22 33 27 34 23 35 26 36 24 37 13 38
REMARK SMILES IDX 20 39 14 40 18 41 15 42 16 43 19 44 17 46 28 48 25 50 33 52
REMARK H PARENT 43 17 41 19 39 21 37 23 35 25 19 45 17 47 28 49 25 51 33 53
REMARK Flexibility Score: inf
ROOT
ATOM      1  C   UNL     1       4.850  26.042  70.438  1.00  0.00     0.180 C 
ATOM      2  C   UNL     1       3.797  24.959  70.124  1.00  0.00     0.177 C 
ATOM      3  C   UNL     1       3.538  24.921  68.604  1.00  0.00     0.180 C 
ATOM      4  C   UNL     1       4.877  24.772  67.862  1.00  0.00     0.214 C 
ATOM      5  C   UNL     1       5.892  25.830  68.343  1.00  0.00     0.339 C 
ATOM      6  O   UNL     1       6.062  25.773  69.753  1.00  0.00    -0.332 OA
ENDROOT
BRANCH   1   7
ATOM      7  C   UNL     1       5.150  26.124  71.939  1.00  0.00     0.198 C 
BRANCH   7   8
ATOM      8  O   UNL     1       4.704  27.369  72.442  1.00  0.00    -0.347 OA
BRANCH   8   9
ATOM      9  C   UNL     1       3.324  27.345  72.783  1.00  0.00     0.281 C 
ATOM     10  C   UNL     1       3.084  30.730  74.214  1.00  0.00     0.041 C 
ATOM     11  C   UNL     1       3.568  29.284  74.097  1.00  0.00     0.150 C 
ATOM     12  C   UNL     1       3.327  28.522  75.425  1.00  0.00     0.174 C 
ATOM     13  O   UNL     1       2.875  28.672  73.016  1.00  0.00    -0.344 OA
ATOM     14  C   UNL     1       3.732  27.044  75.269  1.00  0.00     0.179 C 
ATOM     15  C   UNL     1       3.023  26.472  74.026  1.00  0.00     0.202 C 
BRANCH  12  16
ATOM     16  O   UNL     1       4.071  29.117  76.464  1.00  0.00    -0.388 OA
ATOM     17  H   UNL     1       4.108  30.089  76.267  1.00  0.00     0.211 HD
ENDBRANCH  12  16
BRANCH  14  18
ATOM     18  O   UNL     1       5.141  26.950  75.201  1.00  0.00    -0.387 OA
ATOM     19  H   UNL     1       5.389  26.215  74.580  1.00  0.00     0.211 HD
ENDBRANCH  14  18
BRANCH  15  20
ATOM     20  O   UNL     1       3.368  25.123  73.827  1.00  0.00    -0.385 OA
ATOM     21  H   UNL     1       2.612  24.699  73.344  1.00  0.00     0.211 HD
ENDBRANCH  15  20
ENDBRANCH   8   9
ENDBRANCH   7   8
ENDBRANCH   1   7
BRANCH   2  22
ATOM     22  O   UNL     1       4.283  23.699  70.537  1.00  0.00    -0.387 OA
ATOM     23  H   UNL     1       4.294  23.105  69.741  1.00  0.00     0.211 HD
ENDBRANCH   2  22
BRANCH   3  24
ATOM     24  O   UNL     1       2.879  26.083  68.175  1.00  0.00    -0.387 OA
ATOM     25  H   UNL     1       3.545  26.627  67.667  1.00  0.00     0.211 HD
ENDBRANCH   3  24
BRANCH   5  26
ATOM     26  O   UNL     1       5.499  27.140  67.916  1.00  0.00    -0.454 OA
BRANCH  26  27
ATOM     27  C   UNL     1       6.236  28.028  67.102  1.00  0.00     0.214 A 
ATOM     28  C   UNL     1       6.850  29.131  67.719  1.00  0.00     0.180 A 
ATOM     29  C   UNL     1       6.397  27.877  65.705  1.00  0.00     0.239 A 
ATOM     30  O   UNL     1       7.574  29.990  67.011  1.00  0.00    -0.452 OA
ATOM     31  C   UNL     1       7.220  28.778  64.994  1.00  0.00     0.111 A 
ATOM     32  O   UNL     1       5.796  26.957  65.092  1.00  0.00    -0.285 OA
ATOM     33  C   UNL     1       7.794  29.853  65.710  1.00  0.00     0.146 A 
ATOM     34  C   UNL     1       7.503  28.650  63.610  1.00  0.00     0.134 A 
ATOM     35  C   UNL     1       8.611  30.785  65.059  1.00  0.00     0.094 A 
ATOM     36  C   UNL     1       8.333  29.589  62.975  1.00  0.00     0.093 A 
ATOM     37  C   UNL     1       8.891  30.646  63.696  1.00  0.00     0.123 A 
BRANCH  28  38
ATOM     38  C   UNL     1       6.721  29.361  69.164  1.00  0.00     0.025 A 
ATOM     39  C   UNL     1       7.653  28.810  70.047  1.00  0.00     0.062 A 
ATOM     40  C   UNL     1       5.696  30.178  69.661  1.00  0.00     0.016 A 
ATOM     41  C   UNL     1       7.562  29.061  71.419  1.00  0.00     0.158 A 
ATOM     42  C   UNL     1       5.589  30.419  71.034  1.00  0.00     0.051 A 
ATOM     43  C   UNL     1       6.527  29.865  71.917  1.00  0.00     0.157 A 
BRANCH  41  44
ATOM     44  O   UNL     1       8.525  28.515  72.269  1.00  0.00    -0.504 OA
ATOM     45  H   UNL     1       9.466  28.889  72.335  1.00  0.00     0.293 HD
ENDBRANCH  41  44
BRANCH  43  46
ATOM     46  O   UNL     1       6.432  30.111  73.284  1.00  0.00    -0.504 OA
ATOM     47  H   UNL     1       6.661  29.402  73.971  1.00  0.00     0.293 HD
ENDBRANCH  43  46
ENDBRANCH  28  38
BRANCH  34  48
ATOM     48  O   UNL     1       6.984  27.585  62.866  1.00  0.00    -0.507 OA
ATOM     49  H   UNL     1       6.040  27.596  62.496  1.00  0.00     0.293 HD
ENDBRANCH  34  48
BRANCH  37  50
ATOM     50  O   UNL     1       9.725  31.558  63.047  1.00  0.00    -0.508 OA
ATOM     51  H   UNL     1      10.709  31.368  62.902  1.00  0.00     0.293 HD
ENDBRANCH  37  50
ENDBRANCH  26  27
ENDBRANCH   5  26
BRANCH   4  52
ATOM     52  O   UNL     1       4.681  24.872  66.477  1.00  0.00    -0.384 OA
ATOM     53  H   UNL     1       3.908  24.301  66.246  1.00  0.00     0.211 HD
ENDBRANCH   4  52
TORSDOF 16
ENDMDL
MODEL 7
REMARK VINA RESULT:    -6.214      1.748      4.440
REMARK INTER + INTRA:         -12.563
REMARK INTER:                 -10.002
REMARK INTRA:                  -2.560
REMARK UNBOUND:                -2.353
REMARK SMILES C[C@@H]1O[C@@H](OC[C@H]2O[C@H](Oc3c(-c4ccc(O)c(O)c4)oc4cc(O)cc(O)c4c3=O)[C@H](O)[C@H](O)[C@H]2O)[C@@H](O)[C@@H](O)[C@H]1O
REMARK SMILES IDX 7 1 36 2 34 3 32 4 9 5 8 6 6 7 5 8 4 9 1 10 2 11 42 12 3 13
REMARK SMILES IDX 40 14 38 15 43 16 41 18 39 20 37 22 35 24 10 26 11 27 12 28
REMARK SMILES IDX 30 29 21 30 29 31 31 32 22 33 27 34 23 35 26 36 24 37 13 38
REMARK SMILES IDX 20 39 14 40 18 41 15 42 16 43 19 44 17 46 28 48 25 50 33 52
REMARK H PARENT 43 17 41 19 39 21 37 23 35 25 19 45 17 47 28 49 25 51 33 53
REMARK Flexibility Score: inf
ROOT
ATOM      1  C   UNL     1       4.523  26.507  67.454  1.00  0.00     0.180 C 
ATOM      2  C   UNL     1       4.131  25.055  67.109  1.00  0.00     0.177 C 
ATOM      3  C   UNL     1       4.032  24.228  68.406  1.00  0.00     0.180 C 
ATOM      4  C   UNL     1       3.097  24.943  69.396  1.00  0.00     0.214 C 
ATOM      5  C   UNL     1       3.510  26.419  69.573  1.00  0.00     0.339 C 
ATOM      6  O   UNL     1       3.563  27.089  68.320  1.00  0.00    -0.332 OA
ENDROOT
BRANCH   1   7
ATOM      7  C   UNL     1       4.635  27.379  66.198  1.00  0.00     0.198 C 
BRANCH   7   8
ATOM      8  O   UNL     1       5.726  26.937  65.414  1.00  0.00    -0.347 OA
BRANCH   8   9
ATOM      9  C   UNL     1       5.689  27.471  64.096  1.00  0.00     0.281 C 
ATOM     10  C   UNL     1       4.780  24.383  62.308  1.00  0.00     0.041 C 
ATOM     11  C   UNL     1       5.642  25.306  63.171  1.00  0.00     0.150 C 
ATOM     12  C   UNL     1       7.066  25.433  62.573  1.00  0.00     0.174 C 
ATOM     13  O   UNL     1       4.996  26.571  63.244  1.00  0.00    -0.344 OA
ATOM     14  C   UNL     1       7.898  26.436  63.395  1.00  0.00     0.179 C 
ATOM     15  C   UNL     1       7.099  27.748  63.518  1.00  0.00     0.202 C 
BRANCH  12  16
ATOM     16  O   UNL     1       7.700  24.174  62.567  1.00  0.00    -0.388 OA
ATOM     17  H   UNL     1       8.078  24.041  63.475  1.00  0.00     0.211 HD
ENDBRANCH  12  16
BRANCH  14  18
ATOM     18  O   UNL     1       8.222  25.860  64.645  1.00  0.00    -0.387 OA
ATOM     19  H   UNL     1       7.606  26.218  65.338  1.00  0.00     0.211 HD
ENDBRANCH  14  18
BRANCH  15  20
ATOM     20  O   UNL     1       7.808  28.699  64.274  1.00  0.00    -0.385 OA
ATOM     21  H   UNL     1       7.959  29.483  63.684  1.00  0.00     0.211 HD
ENDBRANCH  15  20
ENDBRANCH   8   9
ENDBRANCH   7   8
ENDBRANCH   1   7
BRANCH   2  22
ATOM     22  O   UNL     1       2.875  25.049  66.464  1.00  0.00    -0.387 OA
ATOM     23  H   UNL     1       2.952  25.614  65.650  1.00  0.00     0.211 HD
ENDBRANCH   2  22
BRANCH   3  24
ATOM     24  O   UNL     1       5.296  24.045  68.987  1.00  0.00    -0.387 OA
ATOM     25  H   UNL     1       5.836  23.501  68.346  1.00  0.00     0.211 HD
ENDBRANCH   3  24
BRANCH   5  26
ATOM     26  O   UNL     1       4.757  26.518  70.271  1.00  0.00    -0.454 OA
BRANCH  26  27
ATOM     27  C   UNL     1       4.993  27.150  71.511  1.00  0.00     0.214 A 
ATOM     28  C   UNL     1       5.820  28.286  71.523  1.00  0.00     0.180 A 
ATOM     29  C   UNL     1       4.447  26.715  72.741  1.00  0.00     0.239 A 
ATOM     30  O   UNL     1       6.062  28.938  72.655  1.00  0.00    -0.452 OA
ATOM     31  C   UNL     1       4.681  27.466  73.915  1.00  0.00     0.111 A 
ATOM     32  O   UNL     1       3.772  25.655  72.797  1.00  0.00    -0.285 OA
ATOM     33  C   UNL     1       5.526  28.595  73.819  1.00  0.00     0.146 A 
ATOM     34  C   UNL     1       4.104  27.149  75.171  1.00  0.00     0.134 A 
ATOM     35  C   UNL     1       5.804  29.372  74.949  1.00  0.00     0.094 A 
ATOM     36  C   UNL     1       4.385  27.946  76.292  1.00  0.00     0.093 A 
ATOM     37  C   UNL     1       5.225  29.057  76.181  1.00  0.00     0.123 A 
BRANCH  28  38
ATOM     38  C   UNL     1       6.432  28.793  70.288  1.00  0.00     0.025 A 
ATOM     39  C   UNL     1       6.928  27.900  69.335  1.00  0.00     0.062 A 
ATOM     40  C   UNL     1       6.472  30.171  70.033  1.00  0.00     0.016 A 
ATOM     41  C   UNL     1       7.471  28.375  68.137  1.00  0.00     0.158 A 
ATOM     42  C   UNL     1       7.030  30.653  68.845  1.00  0.00     0.051 A 
ATOM     43  C   UNL     1       7.526  29.754  67.890  1.00  0.00     0.157 A 
BRANCH  41  44
ATOM     44  O   UNL     1       7.934  27.454  67.197  1.00  0.00    -0.504 OA
ATOM     45  H   UNL     1       7.780  27.570  66.200  1.00  0.00     0.293 HD
ENDBRANCH  41  44
BRANCH  43  46
ATOM     46  O   UNL     1       8.072  30.227  66.700  1.00  0.00    -0.504 OA
ATOM     47  H   UNL     1       7.671  29.993  65.799  1.00  0.00     0.293 HD
ENDBRANCH  43  46
ENDBRANCH  28  38
BRANCH  34  48
ATOM     48  O   UNL     1       3.235  26.061  75.309  1.00  0.00    -0.507 OA
ATOM     49  H   UNL     1       2.956  25.490  74.519  1.00  0.00     0.293 HD
ENDBRANCH  34  48
BRANCH  37  50
ATOM     50  O   UNL     1       5.478  29.843  77.306  1.00  0.00    -0.508 OA
ATOM     51  H   UNL     1       6.058  30.672  77.256  1.00  0.00     0.293 HD
ENDBRANCH  37  50
ENDBRANCH  26  27
ENDBRANCH   5  26
BRANCH   4  52
ATOM     52  O   UNL     1       3.098  24.282  70.633  1.00  0.00    -0.384 OA
ATOM     53  H   UNL     1       2.897  24.956  71.328  1.00  0.00     0.211 HD
ENDBRANCH   4  52
TORSDOF 16
ENDMDL
MODEL 8
REMARK VINA RESULT:    -6.076      2.728      5.230
REMARK INTER + INTRA:         -12.337
REMARK INTER:                  -9.640
REMARK INTRA:                  -2.696
REMARK UNBOUND:                -2.353
REMARK SMILES C[C@@H]1O[C@@H](OC[C@H]2O[C@H](Oc3c(-c4ccc(O)c(O)c4)oc4cc(O)cc(O)c4c3=O)[C@H](O)[C@H](O)[C@H]2O)[C@@H](O)[C@@H](O)[C@H]1O
REMARK SMILES IDX 7 1 36 2 34 3 32 4 9 5 8 6 6 7 5 8 4 9 1 10 2 11 42 12 3 13
REMARK SMILES IDX 40 14 38 15 43 16 41 18 39 20 37 22 35 24 10 26 11 27 12 28
REMARK SMILES IDX 30 29 21 30 29 31 31 32 22 33 27 34 23 35 26 36 24 37 13 38
REMARK SMILES IDX 20 39 14 40 18 41 15 42 16 43 19 44 17 46 28 48 25 50 33 52
REMARK H PARENT 43 17 41 19 39 21 37 23 35 25 19 45 17 47 28 49 25 51 33 53
REMARK Flexibility Score: inf
ROOT
ATOM      1  C   UNL     1       7.492  28.128  63.677  1.00  0.00     0.180 C 
ATOM      2  C   UNL     1       8.097  29.497  63.302  1.00  0.00     0.177 C 
ATOM      3  C   UNL     1       7.822  30.507  64.435  1.00  0.00     0.180 C 
ATOM      4  C   UNL     1       8.305  29.919  65.771  1.00  0.00     0.214 C 
ATOM      5  C   UNL     1       7.736  28.500  65.984  1.00  0.00     0.339 C 
ATOM      6  O   UNL     1       8.053  27.651  64.889  1.00  0.00    -0.332 OA
ENDROOT
BRANCH   1   7
ATOM      7  C   UNL     1       7.738  27.081  62.584  1.00  0.00     0.198 C 
BRANCH   7   8
ATOM      8  O   UNL     1       8.986  26.453  62.806  1.00  0.00    -0.347 OA
BRANCH   8   9
ATOM      9  C   UNL     1       8.839  25.124  63.289  1.00  0.00     0.281 C 
ATOM     10  C   UNL     1      12.062  24.851  65.050  1.00  0.00     0.041 C 
ATOM     11  C   UNL     1      11.123  25.028  63.855  1.00  0.00     0.150 C 
ATOM     12  C   UNL     1      11.445  23.987  62.754  1.00  0.00     0.174 C 
ATOM     13  O   UNL     1       9.785  24.892  64.322  1.00  0.00    -0.344 OA
ATOM     14  C   UNL     1      10.435  24.112  61.596  1.00  0.00     0.179 C 
ATOM     15  C   UNL     1       9.010  24.055  62.181  1.00  0.00     0.202 C 
BRANCH  12  16
ATOM     16  O   UNL     1      12.755  24.184  62.273  1.00  0.00    -0.388 OA
ATOM     17  H   UNL     1      13.365  24.037  63.042  1.00  0.00     0.211 HD
ENDBRANCH  12  16
BRANCH  14  18
ATOM     18  O   UNL     1      10.696  25.300  60.875  1.00  0.00    -0.387 OA
ATOM     19  H   UNL     1      10.059  26.005  61.167  1.00  0.00     0.211 HD
ENDBRANCH  14  18
BRANCH  15  20
ATOM     20  O   UNL     1       8.046  24.179  61.166  1.00  0.00    -0.385 OA
ATOM     21  H   UNL     1       7.621  23.288  61.060  1.00  0.00     0.211 HD
ENDBRANCH  15  20
ENDBRANCH   8   9
ENDBRANCH   7   8
ENDBRANCH   1   7
BRANCH   2  22
ATOM     22  O   UNL     1       9.493  29.364  63.136  1.00  0.00    -0.387 OA
ATOM     23  H   UNL     1       9.919  29.539  64.016  1.00  0.00     0.211 HD
ENDBRANCH   2  22
BRANCH   3  24
ATOM     24  O   UNL     1       6.456  30.818  64.514  1.00  0.00    -0.387 OA
ATOM     25  H   UNL     1       5.981  30.217  63.872  1.00  0.00     0.211 HD
ENDBRANCH   3  24
BRANCH   5  26
ATOM     26  O   UNL     1       6.322  28.550  66.215  1.00  0.00    -0.454 OA
BRANCH  26  27
ATOM     27  C   UNL     1       5.613  27.972  67.290  1.00  0.00     0.214 A 
ATOM     28  C   UNL     1       4.626  27.018  66.990  1.00  0.00     0.180 A 
ATOM     29  C   UNL     1       5.835  28.291  68.651  1.00  0.00     0.239 A 
ATOM     30  O   UNL     1       3.939  26.424  67.960  1.00  0.00    -0.452 OA
ATOM     31  C   UNL     1       5.125  27.597  69.656  1.00  0.00     0.111 A 
ATOM     32  O   UNL     1       6.645  29.200  68.966  1.00  0.00    -0.285 OA
ATOM     33  C   UNL     1       4.155  26.654  69.248  1.00  0.00     0.146 A 
ATOM     34  C   UNL     1       5.346  27.793  71.043  1.00  0.00     0.134 A 
ATOM     35  C   UNL     1       3.412  25.942  70.197  1.00  0.00     0.094 A 
ATOM     36  C   UNL     1       4.599  27.064  71.982  1.00  0.00     0.093 A 
ATOM     37  C   UNL     1       3.643  26.137  71.562  1.00  0.00     0.123 A 
BRANCH  28  38
ATOM     38  C   UNL     1       4.331  26.642  65.602  1.00  0.00     0.025 A 
ATOM     39  C   UNL     1       5.085  25.649  64.971  1.00  0.00     0.062 A 
ATOM     40  C   UNL     1       3.260  27.236  64.920  1.00  0.00     0.016 A 
ATOM     41  C   UNL     1       4.782  25.254  63.664  1.00  0.00     0.158 A 
ATOM     42  C   UNL     1       2.963  26.859  63.607  1.00  0.00     0.051 A 
ATOM     43  C   UNL     1       3.720  25.860  62.977  1.00  0.00     0.157 A 
BRANCH  41  44
ATOM     44  O   UNL     1       5.539  24.242  63.074  1.00  0.00    -0.504 OA
ATOM     45  H   UNL     1       5.717  23.356  63.536  1.00  0.00     0.293 HD
ENDBRANCH  41  44
BRANCH  43  46
ATOM     46  O   UNL     1       3.422  25.472  61.674  1.00  0.00    -0.504 OA
ATOM     47  H   UNL     1       2.525  25.675  61.250  1.00  0.00     0.293 HD
ENDBRANCH  43  46
ENDBRANCH  28  38
BRANCH  34  48
ATOM     48  O   UNL     1       6.318  28.693  71.496  1.00  0.00    -0.507 OA
ATOM     49  H   UNL     1       7.220  28.786  71.042  1.00  0.00     0.293 HD
ENDBRANCH  34  48
BRANCH  37  50
ATOM     50  O   UNL     1       2.923  25.412  72.513  1.00  0.00    -0.508 OA
ATOM     51  H   UNL     1       2.316  25.869  73.184  1.00  0.00     0.293 HD
ENDBRANCH  37  50
ENDBRANCH  26  27
ENDBRANCH   5  26
BRANCH   4  52
ATOM     52  O   UNL     1       7.943  30.758  66.834  1.00  0.00    -0.384 OA
ATOM     53  H   UNL     1       8.681  31.403  66.965  1.00  0.00     0.211 HD
ENDBRANCH   4  52
TORSDOF 16
ENDMDL
MODEL 9
REMARK VINA RESULT:    -5.933      1.722      9.588
REMARK INTER + INTRA:         -12.102
REMARK INTER:                 -10.332
REMARK INTRA:                  -1.771
REMARK UNBOUND:                -2.353
REMARK SMILES C[C@@H]1O[C@@H](OC[C@H]2O[C@H](Oc3c(-c4ccc(O)c(O)c4)oc4cc(O)cc(O)c4c3=O)[C@H](O)[C@H](O)[C@H]2O)[C@@H](O)[C@@H](O)[C@H]1O
REMARK SMILES IDX 7 1 36 2 34 3 32 4 9 5 8 6 6 7 5 8 4 9 1 10 2 11 42 12 3 13
REMARK SMILES IDX 40 14 38 15 43 16 41 18 39 20 37 22 35 24 10 26 11 27 12 28
REMARK SMILES IDX 30 29 21 30 29 31 31 32 22 33 27 34 23 35 26 36 24 37 13 38
REMARK SMILES IDX 20 39 14 40 18 41 15 42 16 43 19 44 17 46 28 48 25 50 33 52
REMARK H PARENT 43 17 41 19 39 21 37 23 35 25 19 45 17 47 28 49 25 51 33 53
REMARK Flexibility Score: inf
ROOT
ATOM      1  C   UNL     1       3.579  26.818  70.835  1.00  0.00     0.180 C 
ATOM      2  C   UNL     1       3.274  25.344  71.172  1.00  0.00     0.177 C 
ATOM      3  C   UNL     1       3.785  24.441  70.032  1.00  0.00     0.180 C 
ATOM      4  C   UNL     1       5.264  24.758  69.753  1.00  0.00     0.214 C 
ATOM      5  C   UNL     1       5.470  26.275  69.552  1.00  0.00     0.339 C 
ATOM      6  O   UNL     1       4.973  27.011  70.661  1.00  0.00    -0.332 OA
ENDROOT
BRANCH   1   7
ATOM      7  C   UNL     1       3.093  27.765  71.939  1.00  0.00     0.198 C 
BRANCH   7   8
ATOM      8  O   UNL     1       3.902  27.604  73.088  1.00  0.00    -0.347 OA
BRANCH   8   9
ATOM      9  C   UNL     1       3.142  27.649  74.288  1.00  0.00     0.281 C 
ATOM     10  C   UNL     1       3.693  31.193  75.121  1.00  0.00     0.041 C 
ATOM     11  C   UNL     1       4.074  29.736  74.855  1.00  0.00     0.150 C 
ATOM     12  C   UNL     1       4.872  29.157  76.050  1.00  0.00     0.174 C 
ATOM     13  O   UNL     1       2.877  29.002  74.626  1.00  0.00    -0.344 OA
ATOM     14  C   UNL     1       5.170  27.663  75.813  1.00  0.00     0.179 C 
ATOM     15  C   UNL     1       3.847  26.948  75.476  1.00  0.00     0.202 C 
BRANCH  12  16
ATOM     16  O   UNL     1       6.077  29.867  76.215  1.00  0.00    -0.388 OA
ATOM     17  H   UNL     1       6.230  30.368  75.372  1.00  0.00     0.211 HD
ENDBRANCH  12  16
BRANCH  14  18
ATOM     18  O   UNL     1       6.147  27.538  74.800  1.00  0.00    -0.387 OA
ATOM     19  H   UNL     1       5.992  28.235  74.109  1.00  0.00     0.211 HD
ENDBRANCH  14  18
BRANCH  15  20
ATOM     20  O   UNL     1       4.064  25.580  75.236  1.00  0.00    -0.385 OA
ATOM     21  H   UNL     1       4.472  25.203  76.059  1.00  0.00     0.211 HD
ENDBRANCH  15  20
ENDBRANCH   8   9
ENDBRANCH   7   8
ENDBRANCH   1   7
BRANCH   2  22
ATOM     22  O   UNL     1       3.934  24.989  72.369  1.00  0.00    -0.387 OA
ATOM     23  H   UNL     1       3.378  25.310  73.126  1.00  0.00     0.211 HD
ENDBRANCH   2  22
BRANCH   3  24
ATOM     24  O   UNL     1       3.027  24.622  68.865  1.00  0.00    -0.387 OA
ATOM     25  H   UNL     1       3.488  24.118  68.136  1.00  0.00     0.211 HD
ENDBRANCH   3  24
BRANCH   5  26
ATOM     26  O   UNL     1       4.872  26.710  68.324  1.00  0.00    -0.454 OA
BRANCH  26  27
ATOM     27  C   UNL     1       5.538  27.149  67.160  1.00  0.00     0.214 A 
ATOM     28  C   UNL     1       6.433  28.225  67.281  1.00  0.00     0.180 A 
ATOM     29  C   UNL     1       5.364  26.572  65.880  1.00  0.00     0.239 A 
ATOM     30  O   UNL     1       7.106  28.671  66.225  1.00  0.00    -0.452 OA
ATOM     31  C   UNL     1       6.139  27.036  64.793  1.00  0.00     0.111 A 
ATOM     32  O   UNL     1       4.511  25.665  65.703  1.00  0.00    -0.285 OA
ATOM     33  C   UNL     1       7.013  28.123  65.021  1.00  0.00     0.146 A 
ATOM     34  C   UNL     1       6.089  26.459  63.499  1.00  0.00     0.134 A 
ATOM     35  C   UNL     1       7.799  28.633  63.981  1.00  0.00     0.094 A 
ATOM     36  C   UNL     1       6.892  26.977  62.469  1.00  0.00     0.093 A 
ATOM     37  C   UNL     1       7.749  28.053  62.711  1.00  0.00     0.123 A 
BRANCH  28  38
ATOM     38  C   UNL     1       6.660  28.882  68.574  1.00  0.00     0.025 A 
ATOM     39  C   UNL     1       5.701  29.755  69.095  1.00  0.00     0.062 A 
ATOM     40  C   UNL     1       7.813  28.597  69.319  1.00  0.00     0.016 A 
ATOM     41  C   UNL     1       5.890  30.349  70.345  1.00  0.00     0.158 A 
ATOM     42  C   UNL     1       8.017  29.202  70.563  1.00  0.00     0.051 A 
ATOM     43  C   UNL     1       7.051  30.076  71.083  1.00  0.00     0.157 A 
BRANCH  41  44
ATOM     44  O   UNL     1       4.900  31.195  70.846  1.00  0.00    -0.504 OA
ATOM     45  H   UNL     1       3.960  31.218  70.464  1.00  0.00     0.293 HD
ENDBRANCH  41  44
BRANCH  43  46
ATOM     46  O   UNL     1       7.243  30.672  72.326  1.00  0.00    -0.504 OA
ATOM     47  H   UNL     1       6.647  30.460  73.117  1.00  0.00     0.293 HD
ENDBRANCH  43  46
ENDBRANCH  28  38
BRANCH  34  48
ATOM     48  O   UNL     1       5.264  25.361  63.232  1.00  0.00    -0.507 OA
ATOM     49  H   UNL     1       5.492  24.426  63.549  1.00  0.00     0.293 HD
ENDBRANCH  34  48
BRANCH  37  50
ATOM     50  O   UNL     1       8.549  28.541  61.676  1.00  0.00    -0.508 OA
ATOM     51  H   UNL     1       9.542  28.342  61.632  1.00  0.00     0.293 HD
ENDBRANCH  37  50
ENDBRANCH  26  27
ENDBRANCH   5  26
BRANCH   4  52
ATOM     52  O   UNL     1       5.713  24.048  68.631  1.00  0.00    -0.384 OA
ATOM     53  H   UNL     1       6.680  24.229  68.535  1.00  0.00     0.211 HD
ENDBRANCH   4  52
TORSDOF 16
ENDMDL
