MODEL 1
REMARK VINA RESULT:    -4.793      0.000      0.000
REMARK INTER + INTRA:          -4.793
REMARK INTER:                  -4.793
REMARK INTRA:                   0.000
REMARK UNBOUND:                 0.000
REMARK SMILES CC1=CC[C@H]2[C@@H](C1)C2(C)C
REMARK SMILES IDX 1 1 2 2 3 3 4 4 5 5 6 6 7 7 8 8 9 9 10 10
REMARK H PARENT
REMARK Flexibility Score: inf
ROOT
ATOM      1  C   UNL     1       3.515   4.875  12.649  1.00  0.00     0.039 C 
ATOM      2  C   UNL     1       4.605   5.908  12.556  1.00  0.00    -0.077 C 
ATOM      3  C   UNL     1       4.326   7.119  12.045  1.00  0.00    -0.028 C 
ATOM      4  C   UNL     1       5.379   8.184  11.924  1.00  0.00     0.031 C 
ATOM      5  C   UNL     1       6.343   8.179  13.128  1.00  0.00     0.003 C 
ATOM      6  C   UNL     1       6.676   6.790  13.719  1.00  0.00     0.003 C 
ATOM      7  C   UNL     1       6.002   5.582  13.030  1.00  0.00     0.034 C 
ATOM      8  C   UNL     1       7.761   7.599  12.991  1.00  0.00    -0.029 C 
ATOM      9  C   UNL     1       8.283   7.139  11.616  1.00  0.00     0.012 C 
ATOM     10  C   UNL     1       8.804   8.240  13.912  1.00  0.00     0.012 C 
ENDROOT
TORSDOF 0
ENDMDL
MODEL 2
REMARK VINA RESULT:    -4.198      1.061      2.171
REMARK INTER + INTRA:          -4.198
REMARK INTER:                  -4.198
REMARK INTRA:                   0.000
REMARK UNBOUND:                 0.000
REMARK SMILES CC1=CC[C@H]2[C@@H](C1)C2(C)C
REMARK SMILES IDX 1 1 2 2 3 3 4 4 5 5 6 6 7 7 8 8 9 9 10 10
REMARK H PARENT
REMARK Flexibility Score: inf
ROOT
ATOM      1  C   UNL     1       3.584   5.363  12.020  1.00  0.00     0.039 C 
ATOM      2  C   UNL     1       4.940   5.799  12.503  1.00  0.00    -0.077 C 
ATOM      3  C   UNL     1       5.886   4.875  12.737  1.00  0.00    -0.028 C 
ATOM      4  C   UNL     1       7.255   5.256  13.226  1.00  0.00     0.031 C 
ATOM      5  C   UNL     1       7.754   6.565  12.579  1.00  0.00     0.003 C 
ATOM      6  C   UNL     1       6.673   7.638  12.311  1.00  0.00     0.003 C 
ATOM      7  C   UNL     1       5.232   7.265  12.726  1.00  0.00     0.034 C 
ATOM      8  C   UNL     1       7.753   7.880  13.377  1.00  0.00    -0.029 C 
ATOM      9  C   UNL     1       7.385   7.881  14.873  1.00  0.00     0.012 C 
ATOM     10  C   UNL     1       8.844   8.875  12.965  1.00  0.00     0.012 C 
ENDROOT
TORSDOF 0
ENDMDL
MODEL 3
REMARK VINA RESULT:    -4.101      0.879      4.015
REMARK INTER + INTRA:          -4.101
REMARK INTER:                  -4.101
REMARK INTRA:                   0.000
REMARK UNBOUND:                 0.000
REMARK SMILES CC1=CC[C@H]2[C@@H](C1)C2(C)C
REMARK SMILES IDX 1 1 2 2 3 3 4 4 5 5 6 6 7 7 8 8 9 9 10 10
REMARK H PARENT
REMARK Flexibility Score: inf
ROOT
ATOM      1  C   UNL     1       9.123   8.623  14.624  1.00  0.00     0.039 C 
ATOM      2  C   UNL     1       8.148   7.891  13.744  1.00  0.00    -0.077 C 
ATOM      3  C   UNL     1       8.529   7.504  12.514  1.00  0.00    -0.028 C 
ATOM      4  C   UNL     1       7.592   6.775  11.593  1.00  0.00     0.031 C 
ATOM      5  C   UNL     1       6.699   5.774  12.355  1.00  0.00     0.003 C 
ATOM      6  C   UNL     1       6.250   6.212  13.768  1.00  0.00     0.003 C 
ATOM      7  C   UNL     1       6.751   7.596  14.239  1.00  0.00     0.034 C 
ATOM      8  C   UNL     1       5.221   6.100  12.631  1.00  0.00    -0.029 C 
ATOM      9  C   UNL     1       4.580   7.367  12.035  1.00  0.00     0.012 C 
ATOM     10  C   UNL     1       4.304   4.875  12.720  1.00  0.00     0.012 C 
ENDROOT
TORSDOF 0
ENDMDL
MODEL 4
REMARK VINA RESULT:    -3.000      1.075      4.064
REMARK INTER + INTRA:          -3.000
REMARK INTER:                  -3.000
REMARK INTRA:                   0.000
REMARK UNBOUND:                 0.000
REMARK SMILES CC1=CC[C@H]2[C@@H](C1)C2(C)C
REMARK SMILES IDX 1 1 2 2 3 3 4 4 5 5 6 6 7 7 8 8 9 9 10 10
REMARK H PARENT
REMARK Flexibility Score: inf
ROOT
ATOM      1  C   UNL     1       9.853   8.578  13.332  1.00  0.00     0.039 C 
ATOM      2  C   UNL     1       8.494   7.953  13.493  1.00  0.00    -0.077 C 
ATOM      3  C   UNL     1       7.761   8.238  14.582  1.00  0.00    -0.028 C 
ATOM      4  C   UNL     1       6.400   7.637  14.795  1.00  0.00     0.031 C 
ATOM      5  C   UNL     1       5.609   7.523  13.475  1.00  0.00     0.003 C 
ATOM      6  C   UNL     1       6.443   7.189  12.216  1.00  0.00     0.003 C 
ATOM      7  C   UNL     1       7.962   7.011  12.439  1.00  0.00     0.034 C 
ATOM      8  C   UNL     1       5.447   6.161  12.778  1.00  0.00    -0.029 C 
ATOM      9  C   UNL     1       5.954   4.875  13.456  1.00  0.00     0.012 C 
ATOM     10  C   UNL     1       4.157   6.013  11.962  1.00  0.00     0.012 C 
ENDROOT
TORSDOF 0
ENDMDL
MODEL 5
REMARK VINA RESULT:    -2.833      1.040      4.036
REMARK INTER + INTRA:          -2.833
REMARK INTER:                  -2.833
REMARK INTRA:                   0.000
REMARK UNBOUND:                 0.000
REMARK SMILES CC1=CC[C@H]2[C@@H](C1)C2(C)C
REMARK SMILES IDX 1 1 2 2 3 3 4 4 5 5 6 6 7 7 8 8 9 9 10 10
REMARK H PARENT
REMARK Flexibility Score: inf
ROOT
ATOM      1  C   UNL     1       9.753   8.412  13.888  1.00  0.00     0.039 C 
ATOM      2  C   UNL     1       8.483   7.843  13.316  1.00  0.00    -0.077 C 
ATOM      3  C   UNL     1       8.550   6.816  12.453  1.00  0.00    -0.028 C 
ATOM      4  C   UNL     1       7.313   6.214  11.849  1.00  0.00     0.031 C 
ATOM      5  C   UNL     1       6.149   6.155  12.860  1.00  0.00     0.003 C 
ATOM      6  C   UNL     1       6.060   7.336  13.854  1.00  0.00     0.003 C 
ATOM      7  C   UNL     1       7.146   8.426  13.709  1.00  0.00     0.034 C 
ATOM      8  C   UNL     1       4.985   7.157  12.769  1.00  0.00    -0.029 C 
ATOM      9  C   UNL     1       4.898   8.143  11.589  1.00  0.00     0.012 C 
ATOM     10  C   UNL     1       3.643   6.623  13.283  1.00  0.00     0.012 C 
ENDROOT
TORSDOF 0
ENDMDL
