MODEL 1
REMARK VINA RESULT:    -5.456      0.000      0.000
REMARK INTER + INTRA:         -15.126
REMARK INTER:                 -12.473
REMARK INTRA:                  -2.654
REMARK UNBOUND:                -2.654
REMARK SMILES CCCCCCCCCCCCCCCCCCCCCCCC(=O)[O-]
REMARK SMILES IDX 13 1 14 2 15 3 16 4 17 5 18 6 19 7 20 8 21 9 22 10 23 11
REMARK SMILES IDX 24 12 25 13 26 14 12 15 11 16 10 17 9 18 8 19 7 20 6 21 5 22
REMARK SMILES IDX 4 23 3 24 2 25 1 26
REMARK H PARENT
REMARK Flexibility Score: inf
ROOT
ATOM      1  C   UNL     1       9.026  23.160  -9.605  1.00  0.00     0.000 C 
ENDROOT
BRANCH   1   2
ATOM      2  C   UNL     1      10.432  22.710 -10.040  1.00  0.00     0.000 C 
BRANCH   2   3
ATOM      3  C   UNL     1      11.253  23.850 -10.663  1.00  0.00     0.000 C 
BRANCH   3   4
ATOM      4  C   UNL     1      11.945  24.724  -9.604  1.00  0.00     0.000 C 
BRANCH   4   5
ATOM      5  C   UNL     1      12.260  23.950  -8.313  1.00  0.00     0.000 C 
BRANCH   5   6
ATOM      6  C   UNL     1      13.649  24.296  -7.747  1.00  0.00     0.000 C 
BRANCH   6   7
ATOM      7  C   UNL     1      14.342  23.091  -7.091  1.00  0.00     0.000 C 
BRANCH   7   8
ATOM      8  C   UNL     1      15.731  23.435  -6.533  1.00  0.00     0.000 C 
BRANCH   8   9
ATOM      9  C   UNL     1      16.291  24.702  -7.193  1.00  0.00     0.000 C 
BRANCH   9  10
ATOM     10  C   UNL     1      16.721  25.726  -6.135  1.00  0.00     0.006 C 
BRANCH  10  11
ATOM     11  C   UNL     1      15.633  25.912  -5.073  1.00  0.00     0.053 C 
BRANCH  11  12
ATOM     12  C   UNL     1      16.240  25.981  -3.707  1.00  0.00     0.041 C 
ATOM     13  O   UNL     1      16.593  24.925  -3.118  1.00  0.00    -0.550 OA
ATOM     14  O   UNL     1      16.458  27.213  -3.102  1.00  0.00    -0.550 OA
ENDBRANCH  11  12
ENDBRANCH  10  11
ENDBRANCH   9  10
ENDBRANCH   8   9
ENDBRANCH   7   8
ENDBRANCH   6   7
ENDBRANCH   5   6
ENDBRANCH   4   5
ENDBRANCH   3   4
ENDBRANCH   2   3
ENDBRANCH   1   2
BRANCH   1  15
ATOM     15  C   UNL     1       7.920  22.584 -10.505  1.00  0.00     0.000 C 
BRANCH  15  16
ATOM     16  C   UNL     1       6.866  21.797  -9.710  1.00  0.00     0.000 C 
BRANCH  16  17
ATOM     17  C   UNL     1       5.429  22.266  -9.994  1.00  0.00     0.000 C 
BRANCH  17  18
ATOM     18  C   UNL     1       4.681  22.755  -8.736  1.00  0.00    -0.000 C 
BRANCH  18  19
ATOM     19  C   UNL     1       5.611  23.496  -7.761  1.00  0.00    -0.000 C 
BRANCH  19  20
ATOM     20  C   UNL     1       5.464  23.005  -6.312  1.00  0.00    -0.000 C 
BRANCH  20  21
ATOM     21  C   UNL     1       6.761  23.174  -5.502  1.00  0.00    -0.000 C 
BRANCH  21  22
ATOM     22  C   UNL     1       8.021  22.874  -6.332  1.00  0.00    -0.000 C 
BRANCH  22  23
ATOM     23  C   UNL     1       8.889  21.767  -5.707  1.00  0.00    -0.000 C 
BRANCH  23  24
ATOM     24  C   UNL     1      10.206  21.534  -6.470  1.00  0.00    -0.000 C 
BRANCH  24  25
ATOM     25  C   UNL     1      10.226  20.279  -7.361  1.00  0.00    -0.003 C 
ATOM     26  C   UNL     1      11.622  19.934  -7.880  1.00  0.00     0.004 C 
ENDBRANCH  24  25
ENDBRANCH  23  24
ENDBRANCH  22  23
ENDBRANCH  21  22
ENDBRANCH  20  21
ENDBRANCH  19  20
ENDBRANCH  18  19
ENDBRANCH  17  18
ENDBRANCH  16  17
ENDBRANCH  15  16
ENDBRANCH   1  15
TORSDOF 22
ENDMDL
MODEL 2
REMARK VINA RESULT:    -5.324      1.792      3.987
REMARK INTER + INTRA:         -14.824
REMARK INTER:                 -12.008
REMARK INTRA:                  -2.816
REMARK UNBOUND:                -2.654
REMARK SMILES CCCCCCCCCCCCCCCCCCCCCCCC(=O)[O-]
REMARK SMILES IDX 13 1 14 2 15 3 16 4 17 5 18 6 19 7 20 8 21 9 22 10 23 11
REMARK SMILES IDX 24 12 25 13 26 14 12 15 11 16 10 17 9 18 8 19 7 20 6 21 5 22
REMARK SMILES IDX 4 23 3 24 2 25 1 26
REMARK H PARENT
REMARK Flexibility Score: inf
ROOT
ATOM      1  C   UNL     1      12.322  21.978  -7.132  1.00  0.00     0.000 C 
ENDROOT
BRANCH   1   2
ATOM      2  C   UNL     1      12.376  23.314  -7.895  1.00  0.00     0.000 C 
BRANCH   2   3
ATOM      3  C   UNL     1      13.696  24.069  -7.674  1.00  0.00     0.000 C 
BRANCH   3   4
ATOM      4  C   UNL     1      14.805  23.163  -7.111  1.00  0.00     0.000 C 
BRANCH   4   5
ATOM      5  C   UNL     1      16.010  23.962  -6.586  1.00  0.00     0.000 C 
BRANCH   5   6
ATOM      6  C   UNL     1      15.689  25.457  -6.410  1.00  0.00     0.000 C 
BRANCH   6   7
ATOM      7  C   UNL     1      16.808  26.225  -5.688  1.00  0.00     0.000 C 
BRANCH   7   8
ATOM      8  C   UNL     1      16.629  26.243  -4.162  1.00  0.00     0.000 C 
BRANCH   8   9
ATOM      9  C   UNL     1      15.144  26.258  -3.782  1.00  0.00     0.000 C 
BRANCH   9  10
ATOM     10  C   UNL     1      14.882  25.373  -2.557  1.00  0.00     0.006 C 
BRANCH  10  11
ATOM     11  C   UNL     1      15.094  23.893  -2.890  1.00  0.00     0.053 C 
BRANCH  11  12
ATOM     12  C   UNL     1      13.794  23.155  -2.849  1.00  0.00     0.041 C 
ATOM     13  O   UNL     1      13.273  22.729  -3.914  1.00  0.00    -0.550 OA
ATOM     14  O   UNL     1      13.177  22.897  -1.631  1.00  0.00    -0.550 OA
ENDBRANCH  11  12
ENDBRANCH  10  11
ENDBRANCH   9  10
ENDBRANCH   8   9
ENDBRANCH   7   8
ENDBRANCH   6   7
ENDBRANCH   5   6
ENDBRANCH   4   5
ENDBRANCH   3   4
ENDBRANCH   2   3
ENDBRANCH   1   2
BRANCH   1  15
ATOM     15  C   UNL     1      11.507  20.908  -7.878  1.00  0.00     0.000 C 
BRANCH  15  16
ATOM     16  C   UNL     1      10.157  20.620  -7.202  1.00  0.00     0.000 C 
BRANCH  16  17
ATOM     17  C   UNL     1       9.652  21.795  -6.348  1.00  0.00     0.000 C 
BRANCH  17  18
ATOM     18  C   UNL     1       8.399  21.456  -5.513  1.00  0.00    -0.000 C 
BRANCH  18  19
ATOM     19  C   UNL     1       7.626  22.716  -5.091  1.00  0.00    -0.000 C 
BRANCH  19  20
ATOM     20  C   UNL     1       6.140  22.658  -5.479  1.00  0.00    -0.000 C 
BRANCH  20  21
ATOM     21  C   UNL     1       5.846  23.414  -6.787  1.00  0.00    -0.000 C 
BRANCH  21  22
ATOM     22  C   UNL     1       6.937  24.442  -7.134  1.00  0.00    -0.000 C 
BRANCH  22  23
ATOM     23  C   UNL     1       7.219  24.516  -8.645  1.00  0.00    -0.000 C 
BRANCH  23  24
ATOM     24  C   UNL     1       6.770  23.253  -9.402  1.00  0.00    -0.000 C 
BRANCH  24  25
ATOM     25  C   UNL     1       7.903  22.272  -9.756  1.00  0.00    -0.003 C 
ATOM     26  C   UNL     1       9.268  22.950  -9.874  1.00  0.00     0.004 C 
ENDBRANCH  24  25
ENDBRANCH  23  24
ENDBRANCH  22  23
ENDBRANCH  21  22
ENDBRANCH  20  21
ENDBRANCH  19  20
ENDBRANCH  18  19
ENDBRANCH  17  18
ENDBRANCH  16  17
ENDBRANCH  15  16
ENDBRANCH   1  15
TORSDOF 22
ENDMDL
MODEL 3
REMARK VINA RESULT:    -5.259      1.488      4.004
REMARK INTER + INTRA:         -14.677
REMARK INTER:                 -12.355
REMARK INTRA:                  -2.321
REMARK UNBOUND:                -2.654
REMARK SMILES CCCCCCCCCCCCCCCCCCCCCCCC(=O)[O-]
REMARK SMILES IDX 13 1 14 2 15 3 16 4 17 5 18 6 19 7 20 8 21 9 22 10 23 11
REMARK SMILES IDX 24 12 25 13 26 14 12 15 11 16 10 17 9 18 8 19 7 20 6 21 5 22
REMARK SMILES IDX 4 23 3 24 2 25 1 26
REMARK H PARENT
REMARK Flexibility Score: inf
ROOT
ATOM      1  C   UNL     1      11.014  23.966 -10.111  1.00  0.00     0.000 C 
ENDROOT
BRANCH   1   2
ATOM      2  C   UNL     1      12.136  24.495  -9.200  1.00  0.00     0.000 C 
BRANCH   2   3
ATOM      3  C   UNL     1      12.412  23.572  -8.002  1.00  0.00     0.000 C 
BRANCH   3   4
ATOM      4  C   UNL     1      13.779  23.845  -7.352  1.00  0.00     0.000 C 
BRANCH   4   5
ATOM      5  C   UNL     1      14.594  22.560  -7.129  1.00  0.00     0.000 C 
BRANCH   5   6
ATOM      6  C   UNL     1      16.094  22.844  -6.939  1.00  0.00     0.000 C 
BRANCH   6   7
ATOM      7  C   UNL     1      16.401  24.342  -6.781  1.00  0.00     0.000 C 
BRANCH   7   8
ATOM      8  C   UNL     1      17.019  24.682  -5.417  1.00  0.00     0.000 C 
BRANCH   8   9
ATOM      9  C   UNL     1      16.368  23.861  -4.297  1.00  0.00     0.000 C 
BRANCH   9  10
ATOM     10  C   UNL     1      15.279  24.672  -3.585  1.00  0.00     0.006 C 
BRANCH  10  11
ATOM     11  C   UNL     1      15.548  26.176  -3.698  1.00  0.00     0.053 C 
BRANCH  11  12
ATOM     12  C   UNL     1      15.065  26.889  -2.474  1.00  0.00     0.041 C 
ATOM     13  O   UNL     1      15.148  28.143  -2.399  1.00  0.00    -0.550 OA
ATOM     14  O   UNL     1      14.482  26.173  -1.435  1.00  0.00    -0.550 OA
ENDBRANCH  11  12
ENDBRANCH  10  11
ENDBRANCH   9  10
ENDBRANCH   8   9
ENDBRANCH   7   8
ENDBRANCH   6   7
ENDBRANCH   5   6
ENDBRANCH   4   5
ENDBRANCH   3   4
ENDBRANCH   2   3
ENDBRANCH   1   2
BRANCH   1  15
ATOM     15  C   UNL     1      10.577  22.540  -9.736  1.00  0.00     0.000 C 
BRANCH  15  16
ATOM     16  C   UNL     1       9.051  22.405  -9.617  1.00  0.00     0.000 C 
BRANCH  16  17
ATOM     17  C   UNL     1       8.440  23.387  -8.604  1.00  0.00     0.000 C 
BRANCH  17  18
ATOM     18  C   UNL     1       8.585  22.927  -7.137  1.00  0.00    -0.000 C 
BRANCH  18  19
ATOM     19  C   UNL     1       7.245  22.965  -6.384  1.00  0.00    -0.000 C 
BRANCH  19  20
ATOM     20  C   UNL     1       6.141  23.685  -7.175  1.00  0.00    -0.000 C 
BRANCH  20  21
ATOM     21  C   UNL     1       4.870  22.830  -7.318  1.00  0.00    -0.000 C 
BRANCH  21  22
ATOM     22  C   UNL     1       4.315  22.828  -8.753  1.00  0.00    -0.000 C 
BRANCH  22  23
ATOM     23  C   UNL     1       5.347  22.336  -9.783  1.00  0.00    -0.000 C 
BRANCH  23  24
ATOM     24  C   UNL     1       5.454  23.256 -11.013  1.00  0.00    -0.000 C 
BRANCH  24  25
ATOM     25  C   UNL     1       4.726  24.605 -10.878  1.00  0.00    -0.003 C 
ATOM     26  C   UNL     1       4.145  25.108 -12.201  1.00  0.00     0.004 C 
ENDBRANCH  24  25
ENDBRANCH  23  24
ENDBRANCH  22  23
ENDBRANCH  21  22
ENDBRANCH  20  21
ENDBRANCH  19  20
ENDBRANCH  18  19
ENDBRANCH  17  18
ENDBRANCH  16  17
ENDBRANCH  15  16
ENDBRANCH   1  15
TORSDOF 22
ENDMDL
MODEL 4
REMARK VINA RESULT:    -5.230      1.755      4.140
REMARK INTER + INTRA:         -14.610
REMARK INTER:                 -11.876
REMARK INTRA:                  -2.734
REMARK UNBOUND:                -2.654
REMARK SMILES CCCCCCCCCCCCCCCCCCCCCCCC(=O)[O-]
REMARK SMILES IDX 13 1 14 2 15 3 16 4 17 5 18 6 19 7 20 8 21 9 22 10 23 11
REMARK SMILES IDX 24 12 25 13 26 14 12 15 11 16 10 17 9 18 8 19 7 20 6 21 5 22
REMARK SMILES IDX 4 23 3 24 2 25 1 26
REMARK H PARENT
REMARK Flexibility Score: inf
ROOT
ATOM      1  C   UNL     1      12.152  24.389  -8.926  1.00  0.00     0.000 C 
ENDROOT
BRANCH   1   2
ATOM      2  C   UNL     1      12.662  23.410  -7.853  1.00  0.00     0.000 C 
BRANCH   2   3
ATOM      3  C   UNL     1      14.046  23.799  -7.307  1.00  0.00     0.000 C 
BRANCH   3   4
ATOM      4  C   UNL     1      14.930  22.573  -7.019  1.00  0.00     0.000 C 
BRANCH   4   5
ATOM      5  C   UNL     1      16.432  22.898  -7.098  1.00  0.00     0.000 C 
BRANCH   5   6
ATOM      6  C   UNL     1      16.697  24.408  -7.226  1.00  0.00     0.000 C 
BRANCH   6   7
ATOM      7  C   UNL     1      17.689  24.930  -6.174  1.00  0.00     0.000 C 
BRANCH   7   8
ATOM      8  C   UNL     1      17.445  24.332  -4.779  1.00  0.00     0.000 C 
BRANCH   8   9
ATOM      9  C   UNL     1      16.847  25.377  -3.830  1.00  0.00     0.000 C 
BRANCH   9  10
ATOM     10  C   UNL     1      15.327  25.207  -3.715  1.00  0.00     0.006 C 
BRANCH  10  11
ATOM     11  C   UNL     1      14.949  23.734  -3.532  1.00  0.00     0.053 C 
BRANCH  11  12
ATOM     12  C   UNL     1      13.736  23.608  -2.665  1.00  0.00     0.041 C 
ATOM     13  O   UNL     1      13.528  24.440  -1.743  1.00  0.00    -0.550 OA
ATOM     14  O   UNL     1      12.811  22.598  -2.902  1.00  0.00    -0.550 OA
ENDBRANCH  11  12
ENDBRANCH  10  11
ENDBRANCH   9  10
ENDBRANCH   8   9
ENDBRANCH   7   8
ENDBRANCH   6   7
ENDBRANCH   5   6
ENDBRANCH   4   5
ENDBRANCH   3   4
ENDBRANCH   2   3
ENDBRANCH   1   2
BRANCH   1  15
ATOM     15  C   UNL     1      10.775  23.987  -9.480  1.00  0.00     0.000 C 
BRANCH  15  16
ATOM     16  C   UNL     1      10.615  22.464  -9.610  1.00  0.00     0.000 C 
BRANCH  16  17
ATOM     17  C   UNL     1       9.407  21.920  -8.829  1.00  0.00     0.000 C 
BRANCH  17  18
ATOM     18  C   UNL     1       9.792  21.221  -7.508  1.00  0.00    -0.000 C 
BRANCH  18  19
ATOM     19  C   UNL     1       9.563  22.126  -6.286  1.00  0.00    -0.000 C 
BRANCH  19  20
ATOM     20  C   UNL     1       8.488  21.576  -5.335  1.00  0.00    -0.000 C 
BRANCH  20  21
ATOM     21  C   UNL     1       7.264  22.505  -5.235  1.00  0.00    -0.000 C 
BRANCH  21  22
ATOM     22  C   UNL     1       7.307  23.652  -6.260  1.00  0.00    -0.000 C 
BRANCH  22  23
ATOM     23  C   UNL     1       6.230  23.508  -7.350  1.00  0.00    -0.000 C 
BRANCH  23  24
ATOM     24  C   UNL     1       6.683  24.053  -8.717  1.00  0.00    -0.000 C 
BRANCH  24  25
ATOM     25  C   UNL     1       6.067  23.342  -9.935  1.00  0.00    -0.003 C 
ATOM     26  C   UNL     1       5.077  24.218 -10.703  1.00  0.00     0.004 C 
ENDBRANCH  24  25
ENDBRANCH  23  24
ENDBRANCH  22  23
ENDBRANCH  21  22
ENDBRANCH  20  21
ENDBRANCH  19  20
ENDBRANCH  18  19
ENDBRANCH  17  18
ENDBRANCH  16  17
ENDBRANCH  15  16
ENDBRANCH   1  15
TORSDOF 22
ENDMDL
MODEL 5
REMARK VINA RESULT:    -5.200      1.739      4.214
REMARK INTER + INTRA:         -14.543
REMARK INTER:                 -12.024
REMARK INTRA:                  -2.518
REMARK UNBOUND:                -2.654
REMARK SMILES CCCCCCCCCCCCCCCCCCCCCCCC(=O)[O-]
REMARK SMILES IDX 13 1 14 2 15 3 16 4 17 5 18 6 19 7 20 8 21 9 22 10 23 11
REMARK SMILES IDX 24 12 25 13 26 14 12 15 11 16 10 17 9 18 8 19 7 20 6 21 5 22
REMARK SMILES IDX 4 23 3 24 2 25 1 26
REMARK H PARENT
REMARK Flexibility Score: inf
ROOT
ATOM      1  C   UNL     1      12.535  22.898  -7.497  1.00  0.00     0.000 C 
ENDROOT
BRANCH   1   2
ATOM      2  C   UNL     1      13.856  22.447  -6.850  1.00  0.00     0.000 C 
BRANCH   2   3
ATOM      3  C   UNL     1      15.087  23.105  -7.494  1.00  0.00     0.000 C 
BRANCH   3   4
ATOM      4  C   UNL     1      16.314  22.176  -7.504  1.00  0.00     0.000 C 
BRANCH   4   5
ATOM      5  C   UNL     1      17.584  22.872  -6.989  1.00  0.00     0.000 C 
BRANCH   5   6
ATOM      6  C   UNL     1      17.720  24.310  -7.519  1.00  0.00     0.000 C 
BRANCH   6   7
ATOM      7  C   UNL     1      17.640  25.366  -6.405  1.00  0.00     0.000 C 
BRANCH   7   8
ATOM      8  C   UNL     1      16.470  26.344  -6.595  1.00  0.00     0.000 C 
BRANCH   8   9
ATOM      9  C   UNL     1      15.378  26.105  -5.545  1.00  0.00     0.000 C 
BRANCH   9  10
ATOM     10  C   UNL     1      15.991  25.858  -4.161  1.00  0.00     0.006 C 
BRANCH  10  11
ATOM     11  C   UNL     1      15.018  25.099  -3.254  1.00  0.00     0.053 C 
BRANCH  11  12
ATOM     12  C   UNL     1      15.027  23.639  -3.580  1.00  0.00     0.041 C 
ATOM     13  O   UNL     1      16.104  23.068  -3.896  1.00  0.00    -0.550 OA
ATOM     14  O   UNL     1      13.854  22.899  -3.494  1.00  0.00    -0.550 OA
ENDBRANCH  11  12
ENDBRANCH  10  11
ENDBRANCH   9  10
ENDBRANCH   8   9
ENDBRANCH   7   8
ENDBRANCH   6   7
ENDBRANCH   5   6
ENDBRANCH   4   5
ENDBRANCH   3   4
ENDBRANCH   2   3
ENDBRANCH   1   2
BRANCH   1  15
ATOM     15  C   UNL     1      12.675  24.231  -8.251  1.00  0.00     0.000 C 
BRANCH  15  16
ATOM     16  C   UNL     1      11.443  24.553  -9.111  1.00  0.00     0.000 C 
BRANCH  16  17
ATOM     17  C   UNL     1      11.237  23.552 -10.260  1.00  0.00     0.000 C 
BRANCH  17  18
ATOM     18  C   UNL     1      10.026  22.617 -10.052  1.00  0.00    -0.000 C 
BRANCH  18  19
ATOM     19  C   UNL     1       8.992  23.216  -9.083  1.00  0.00    -0.000 C 
BRANCH  19  20
ATOM     20  C   UNL     1       7.550  22.816  -9.435  1.00  0.00    -0.000 C 
BRANCH  20  21
ATOM     21  C   UNL     1       6.508  23.680  -8.701  1.00  0.00    -0.000 C 
BRANCH  21  22
ATOM     22  C   UNL     1       7.150  24.689  -7.734  1.00  0.00    -0.000 C 
BRANCH  22  23
ATOM     23  C   UNL     1       6.495  24.671  -6.342  1.00  0.00    -0.000 C 
BRANCH  23  24
ATOM     24  C   UNL     1       6.502  23.276  -5.692  1.00  0.00    -0.000 C 
BRANCH  24  25
ATOM     25  C   UNL     1       7.901  22.706  -5.395  1.00  0.00    -0.003 C 
ATOM     26  C   UNL     1       7.861  21.402  -4.598  1.00  0.00     0.004 C 
ENDBRANCH  24  25
ENDBRANCH  23  24
ENDBRANCH  22  23
ENDBRANCH  21  22
ENDBRANCH  20  21
ENDBRANCH  19  20
ENDBRANCH  18  19
ENDBRANCH  17  18
ENDBRANCH  16  17
ENDBRANCH  15  16
ENDBRANCH   1  15
TORSDOF 22
ENDMDL
MODEL 6
REMARK VINA RESULT:    -5.128      3.392      8.421
REMARK INTER + INTRA:         -14.377
REMARK INTER:                 -11.873
REMARK INTRA:                  -2.504
REMARK UNBOUND:                -2.654
REMARK SMILES CCCCCCCCCCCCCCCCCCCCCCCC(=O)[O-]
REMARK SMILES IDX 13 1 14 2 15 3 16 4 17 5 18 6 19 7 20 8 21 9 22 10 23 11
REMARK SMILES IDX 24 12 25 13 26 14 12 15 11 16 10 17 9 18 8 19 7 20 6 21 5 22
REMARK SMILES IDX 4 23 3 24 2 25 1 26
REMARK H PARENT
REMARK Flexibility Score: inf
ROOT
ATOM      1  C   UNL     1      12.965  22.392  -6.925  1.00  0.00     0.000 C 
ENDROOT
BRANCH   1   2
ATOM      2  C   UNL     1      12.837  21.112  -7.770  1.00  0.00     0.000 C 
BRANCH   2   3
ATOM      3  C   UNL     1      11.388  20.607  -7.864  1.00  0.00     0.000 C 
BRANCH   3   4
ATOM      4  C   UNL     1      10.443  21.345  -6.901  1.00  0.00     0.000 C 
BRANCH   4   5
ATOM      5  C   UNL     1       9.328  22.107  -7.636  1.00  0.00     0.000 C 
BRANCH   5   6
ATOM      6  C   UNL     1       9.856  22.884  -8.855  1.00  0.00     0.000 C 
BRANCH   6   7
ATOM      7  C   UNL     1       8.947  22.746 -10.087  1.00  0.00     0.000 C 
BRANCH   7   8
ATOM      8  C   UNL     1       7.578  22.133  -9.751  1.00  0.00     0.000 C 
BRANCH   8   9
ATOM      9  C   UNL     1       6.481  23.204  -9.754  1.00  0.00     0.000 C 
BRANCH   9  10
ATOM     10  C   UNL     1       5.950  23.449  -8.336  1.00  0.00     0.006 C 
BRANCH  10  11
ATOM     11  C   UNL     1       6.819  24.467  -7.590  1.00  0.00     0.053 C 
BRANCH  11  12
ATOM     12  C   UNL     1       6.635  24.331  -6.112  1.00  0.00     0.041 C 
ATOM     13  O   UNL     1       6.653  23.191  -5.574  1.00  0.00    -0.550 OA
ATOM     14  O   UNL     1       6.487  25.463  -5.320  1.00  0.00    -0.550 OA
ENDBRANCH  11  12
ENDBRANCH  10  11
ENDBRANCH   9  10
ENDBRANCH   8   9
ENDBRANCH   7   8
ENDBRANCH   6   7
ENDBRANCH   5   6
ENDBRANCH   4   5
ENDBRANCH   3   4
ENDBRANCH   2   3
ENDBRANCH   1   2
BRANCH   1  15
ATOM     15  C   UNL     1      13.278  23.632  -7.780  1.00  0.00     0.000 C 
BRANCH  15  16
ATOM     16  C   UNL     1      14.368  24.517  -7.154  1.00  0.00     0.000 C 
BRANCH  16  17
ATOM     17  C   UNL     1      15.591  23.715  -6.680  1.00  0.00     0.000 C 
BRANCH  17  18
ATOM     18  C   UNL     1      16.522  24.511  -5.741  1.00  0.00    -0.000 C 
BRANCH  18  19
ATOM     19  C   UNL     1      15.944  25.891  -5.386  1.00  0.00    -0.000 C 
BRANCH  19  20
ATOM     20  C   UNL     1      16.165  26.265  -3.911  1.00  0.00    -0.000 C 
BRANCH  20  21
ATOM     21  C   UNL     1      14.845  26.567  -3.179  1.00  0.00    -0.000 C 
BRANCH  21  22
ATOM     22  C   UNL     1      15.019  26.640  -1.653  1.00  0.00    -0.000 C 
BRANCH  22  23
ATOM     23  C   UNL     1      14.178  25.584  -0.913  1.00  0.00    -0.000 C 
BRANCH  23  24
ATOM     24  C   UNL     1      14.454  24.149  -1.396  1.00  0.00    -0.000 C 
BRANCH  24  25
ATOM     25  C   UNL     1      13.307  23.500  -2.191  1.00  0.00    -0.003 C 
ATOM     26  C   UNL     1      13.760  22.911  -3.527  1.00  0.00     0.004 C 
ENDBRANCH  24  25
ENDBRANCH  23  24
ENDBRANCH  22  23
ENDBRANCH  21  22
ENDBRANCH  20  21
ENDBRANCH  19  20
ENDBRANCH  18  19
ENDBRANCH  17  18
ENDBRANCH  16  17
ENDBRANCH  15  16
ENDBRANCH   1  15
TORSDOF 22
ENDMDL
MODEL 7
REMARK VINA RESULT:    -5.092      2.599      5.300
REMARK INTER + INTRA:         -14.294
REMARK INTER:                 -12.231
REMARK INTRA:                  -2.062
REMARK UNBOUND:                -2.654
REMARK SMILES CCCCCCCCCCCCCCCCCCCCCCCC(=O)[O-]
REMARK SMILES IDX 13 1 14 2 15 3 16 4 17 5 18 6 19 7 20 8 21 9 22 10 23 11
REMARK SMILES IDX 24 12 25 13 26 14 12 15 11 16 10 17 9 18 8 19 7 20 6 21 5 22
REMARK SMILES IDX 4 23 3 24 2 25 1 26
REMARK H PARENT
REMARK Flexibility Score: inf
ROOT
ATOM      1  C   UNL     1      13.731  22.592  -7.265  1.00  0.00     0.000 C 
ENDROOT
BRANCH   1   2
ATOM      2  C   UNL     1      14.112  22.866  -5.799  1.00  0.00     0.000 C 
BRANCH   2   3
ATOM      3  C   UNL     1      15.609  23.163  -5.622  1.00  0.00     0.000 C 
BRANCH   3   4
ATOM      4  C   UNL     1      16.097  24.300  -6.536  1.00  0.00     0.000 C 
BRANCH   4   5
ATOM      5  C   UNL     1      15.710  25.691  -6.005  1.00  0.00     0.000 C 
BRANCH   5   6
ATOM      6  C   UNL     1      16.132  25.896  -4.540  1.00  0.00     0.000 C 
BRANCH   6   7
ATOM      7  C   UNL     1      15.068  26.635  -3.712  1.00  0.00     0.000 C 
BRANCH   7   8
ATOM      8  C   UNL     1      14.885  26.037  -2.309  1.00  0.00     0.000 C 
BRANCH   8   9
ATOM      9  C   UNL     1      14.585  24.535  -2.386  1.00  0.00     0.000 C 
BRANCH   9  10
ATOM     10  C   UNL     1      13.942  24.037  -1.085  1.00  0.00     0.006 C 
BRANCH  10  11
ATOM     11  C   UNL     1      13.402  25.205  -0.255  1.00  0.00     0.053 C 
BRANCH  11  12
ATOM     12  C   UNL     1      13.354  24.839   1.195  1.00  0.00     0.041 C 
ATOM     13  O   UNL     1      12.551  23.957   1.600  1.00  0.00    -0.550 OA
ATOM     14  O   UNL     1      14.227  25.439   2.095  1.00  0.00    -0.550 OA
ENDBRANCH  11  12
ENDBRANCH  10  11
ENDBRANCH   9  10
ENDBRANCH   8   9
ENDBRANCH   7   8
ENDBRANCH   6   7
ENDBRANCH   5   6
ENDBRANCH   4   5
ENDBRANCH   3   4
ENDBRANCH   2   3
ENDBRANCH   1   2
BRANCH   1  15
ATOM     15  C   UNL     1      12.850  23.702  -7.861  1.00  0.00     0.000 C 
BRANCH  15  16
ATOM     16  C   UNL     1      11.524  23.164  -8.421  1.00  0.00     0.000 C 
BRANCH  16  17
ATOM     17  C   UNL     1      10.868  22.118  -7.505  1.00  0.00     0.000 C 
BRANCH  17  18
ATOM     18  C   UNL     1       9.370  21.894  -7.801  1.00  0.00    -0.000 C 
BRANCH  18  19
ATOM     19  C   UNL     1       8.790  22.989  -8.712  1.00  0.00    -0.000 C 
BRANCH  19  20
ATOM     20  C   UNL     1       8.004  22.415  -9.902  1.00  0.00    -0.000 C 
BRANCH  20  21
ATOM     21  C   UNL     1       6.511  22.787  -9.852  1.00  0.00    -0.000 C 
BRANCH  21  22
ATOM     22  C   UNL     1       6.155  23.640  -8.623  1.00  0.00    -0.000 C 
BRANCH  22  23
ATOM     23  C   UNL     1       5.064  22.992  -7.752  1.00  0.00    -0.000 C 
BRANCH  23  24
ATOM     24  C   UNL     1       5.364  23.088  -6.244  1.00  0.00    -0.000 C 
BRANCH  24  25
ATOM     25  C   UNL     1       6.675  23.811  -5.889  1.00  0.00    -0.003 C 
ATOM     26  C   UNL     1       6.461  25.259  -5.447  1.00  0.00     0.004 C 
ENDBRANCH  24  25
ENDBRANCH  23  24
ENDBRANCH  22  23
ENDBRANCH  21  22
ENDBRANCH  20  21
ENDBRANCH  19  20
ENDBRANCH  18  19
ENDBRANCH  17  18
ENDBRANCH  16  17
ENDBRANCH  15  16
ENDBRANCH   1  15
TORSDOF 22
ENDMDL
MODEL 8
REMARK VINA RESULT:    -5.058      3.909      6.694
REMARK INTER + INTRA:         -14.217
REMARK INTER:                 -12.425
REMARK INTRA:                  -1.792
REMARK UNBOUND:                -2.654
REMARK SMILES CCCCCCCCCCCCCCCCCCCCCCCC(=O)[O-]
REMARK SMILES IDX 13 1 14 2 15 3 16 4 17 5 18 6 19 7 20 8 21 9 22 10 23 11
REMARK SMILES IDX 24 12 25 13 26 14 12 15 11 16 10 17 9 18 8 19 7 20 6 21 5 22
REMARK SMILES IDX 4 23 3 24 2 25 1 26
REMARK H PARENT
REMARK Flexibility Score: inf
ROOT
ATOM      1  C   UNL     1       5.602  23.018  -9.257  1.00  0.00     0.000 C 
ENDROOT
BRANCH   1   2
ATOM      2  C   UNL     1       6.242  23.662  -8.015  1.00  0.00     0.000 C 
BRANCH   2   3
ATOM      3  C   UNL     1       7.775  23.728  -8.105  1.00  0.00     0.000 C 
BRANCH   3   4
ATOM      4  C   UNL     1       8.343  22.785  -9.179  1.00  0.00     0.000 C 
BRANCH   4   5
ATOM      5  C   UNL     1       9.358  21.781  -8.606  1.00  0.00     0.000 C 
BRANCH   5   6
ATOM      6  C   UNL     1      10.271  22.416  -7.543  1.00  0.00     0.000 C 
BRANCH   6   7
ATOM      7  C   UNL     1      11.737  22.512  -7.997  1.00  0.00     0.000 C 
BRANCH   7   8
ATOM      8  C   UNL     1      12.079  23.873  -8.621  1.00  0.00     0.000 C 
BRANCH   8   9
ATOM      9  C   UNL     1      13.315  24.489  -7.954  1.00  0.00     0.000 C 
BRANCH   9  10
ATOM     10  C   UNL     1      13.951  23.506  -6.964  1.00  0.00     0.006 C 
BRANCH  10  11
ATOM     11  C   UNL     1      15.453  23.355  -7.222  1.00  0.00     0.053 C 
BRANCH  11  12
ATOM     12  C   UNL     1      16.195  24.548  -6.709  1.00  0.00     0.041 C 
ATOM     13  O   UNL     1      17.169  25.015  -7.358  1.00  0.00    -0.550 OA
ATOM     14  O   UNL     1      15.786  25.173  -5.537  1.00  0.00    -0.550 OA
ENDBRANCH  11  12
ENDBRANCH  10  11
ENDBRANCH   9  10
ENDBRANCH   8   9
ENDBRANCH   7   8
ENDBRANCH   6   7
ENDBRANCH   5   6
ENDBRANCH   4   5
ENDBRANCH   3   4
ENDBRANCH   2   3
ENDBRANCH   1   2
BRANCH   1  15
ATOM     15  C   UNL     1       4.172  22.519  -8.990  1.00  0.00     0.000 C 
BRANCH  15  16
ATOM     16  C   UNL     1       3.792  22.592  -7.503  1.00  0.00     0.000 C 
BRANCH  16  17
ATOM     17  C   UNL     1       2.293  22.361  -7.256  1.00  0.00     0.000 C 
BRANCH  17  18
ATOM     18  C   UNL     1       1.675  21.287  -8.177  1.00  0.00    -0.000 C 
BRANCH  18  19
ATOM     19  C   UNL     1       1.048  20.132  -7.379  1.00  0.00    -0.000 C 
BRANCH  19  20
ATOM     20  C   UNL     1       0.870  18.858  -8.221  1.00  0.00    -0.000 C 
BRANCH  20  21
ATOM     21  C   UNL     1      -0.582  18.349  -8.213  1.00  0.00    -0.000 C 
BRANCH  21  22
ATOM     22  C   UNL     1      -1.323  18.653  -9.526  1.00  0.00    -0.000 C 
BRANCH  22  23
ATOM     23  C   UNL     1      -1.890  20.083  -9.567  1.00  0.00    -0.000 C 
BRANCH  23  24
ATOM     24  C   UNL     1      -1.684  20.772 -10.928  1.00  0.00    -0.000 C 
BRANCH  24  25
ATOM     25  C   UNL     1      -1.588  22.307 -10.870  1.00  0.00    -0.003 C 
ATOM     26  C   UNL     1      -1.420  22.844  -9.448  1.00  0.00     0.004 C 
ENDBRANCH  24  25
ENDBRANCH  23  24
ENDBRANCH  22  23
ENDBRANCH  21  22
ENDBRANCH  20  21
ENDBRANCH  19  20
ENDBRANCH  18  19
ENDBRANCH  17  18
ENDBRANCH  16  17
ENDBRANCH  15  16
ENDBRANCH   1  15
TORSDOF 22
ENDMDL
MODEL 9
REMARK VINA RESULT:    -5.040      1.491      4.168
REMARK INTER + INTRA:         -14.175
REMARK INTER:                 -11.554
REMARK INTRA:                  -2.620
REMARK UNBOUND:                -2.654
REMARK SMILES CCCCCCCCCCCCCCCCCCCCCCCC(=O)[O-]
REMARK SMILES IDX 13 1 14 2 15 3 16 4 17 5 18 6 19 7 20 8 21 9 22 10 23 11
REMARK SMILES IDX 24 12 25 13 26 14 12 15 11 16 10 17 9 18 8 19 7 20 6 21 5 22
REMARK SMILES IDX 4 23 3 24 2 25 1 26
REMARK H PARENT
REMARK Flexibility Score: inf
ROOT
ATOM      1  C   UNL     1      12.458  23.210  -7.834  1.00  0.00     0.000 C 
ENDROOT
BRANCH   1   2
ATOM      2  C   UNL     1      13.415  22.310  -7.034  1.00  0.00     0.000 C 
BRANCH   2   3
ATOM      3  C   UNL     1      14.423  23.113  -6.196  1.00  0.00     0.000 C 
BRANCH   3   4
ATOM      4  C   UNL     1      14.761  24.474  -6.828  1.00  0.00     0.000 C 
BRANCH   4   5
ATOM      5  C   UNL     1      16.276  24.715  -6.935  1.00  0.00     0.000 C 
BRANCH   5   6
ATOM      6  C   UNL     1      17.036  24.218  -5.693  1.00  0.00     0.000 C 
BRANCH   6   7
ATOM      7  C   UNL     1      17.070  25.256  -4.560  1.00  0.00     0.000 C 
BRANCH   7   8
ATOM      8  C   UNL     1      16.515  24.710  -3.235  1.00  0.00     0.000 C 
BRANCH   8   9
ATOM      9  C   UNL     1      15.181  25.377  -2.880  1.00  0.00     0.000 C 
BRANCH   9  10
ATOM     10  C   UNL     1      15.133  26.818  -3.402  1.00  0.00     0.006 C 
BRANCH  10  11
ATOM     11  C   UNL     1      15.173  27.825  -2.248  1.00  0.00     0.053 C 
BRANCH  11  12
ATOM     12  C   UNL     1      16.548  28.395  -2.097  1.00  0.00     0.041 C 
ATOM     13  O   UNL     1      16.749  29.623  -2.296  1.00  0.00    -0.550 OA
ATOM     14  O   UNL     1      17.600  27.581  -1.694  1.00  0.00    -0.550 OA
ENDBRANCH  11  12
ENDBRANCH  10  11
ENDBRANCH   9  10
ENDBRANCH   8   9
ENDBRANCH   7   8
ENDBRANCH   6   7
ENDBRANCH   5   6
ENDBRANCH   4   5
ENDBRANCH   3   4
ENDBRANCH   2   3
ENDBRANCH   1   2
BRANCH   1  15
ATOM     15  C   UNL     1      11.268  22.430  -8.418  1.00  0.00     0.000 C 
BRANCH  15  16
ATOM     16  C   UNL     1      11.189  20.991  -7.884  1.00  0.00     0.000 C 
BRANCH  16  17
ATOM     17  C   UNL     1       9.888  20.709  -7.115  1.00  0.00     0.000 C 
BRANCH  17  18
ATOM     18  C   UNL     1       9.558  21.776  -6.050  1.00  0.00    -0.000 C 
BRANCH  18  19
ATOM     19  C   UNL     1       8.184  21.541  -5.401  1.00  0.00    -0.000 C 
BRANCH  19  20
ATOM     20  C   UNL     1       7.444  22.851  -5.088  1.00  0.00    -0.000 C 
BRANCH  20  21
ATOM     21  C   UNL     1       6.475  23.259  -6.212  1.00  0.00    -0.000 C 
BRANCH  21  22
ATOM     22  C   UNL     1       6.891  24.566  -6.907  1.00  0.00    -0.000 C 
BRANCH  22  23
ATOM     23  C   UNL     1       6.892  24.444  -8.441  1.00  0.00    -0.000 C 
BRANCH  23  24
ATOM     24  C   UNL     1       7.832  23.338  -8.955  1.00  0.00    -0.000 C 
BRANCH  24  25
ATOM     25  C   UNL     1       7.219  22.408 -10.017  1.00  0.00    -0.003 C 
ATOM     26  C   UNL     1       5.698  22.531 -10.117  1.00  0.00     0.004 C 
ENDBRANCH  24  25
ENDBRANCH  23  24
ENDBRANCH  22  23
ENDBRANCH  21  22
ENDBRANCH  20  21
ENDBRANCH  19  20
ENDBRANCH  18  19
ENDBRANCH  17  18
ENDBRANCH  16  17
ENDBRANCH  15  16
ENDBRANCH   1  15
TORSDOF 22
ENDMDL
