MODEL 1
REMARK VINA RESULT:    -3.783      0.000      0.000
REMARK INTER + INTRA:          -5.959
REMARK INTER:                  -5.553
REMARK INTRA:                  -0.407
REMARK UNBOUND:                -0.407
REMARK SMILES O=C([O-])CCCCCCCC(=O)[O-]
REMARK SMILES IDX 7 1 6 2 5 3 4 4 2 5 1 6 3 7 8 8 9 9 10 10 11 11 12 12 13 13
REMARK H PARENT
REMARK Flexibility Score: inf
ROOT
ATOM      1  C   UNL     1     -35.562 -10.333   2.569  1.00  0.00     0.000 C 
ENDROOT
BRANCH   1   2
ATOM      2  C   UNL     1     -36.146  -9.044   1.968  1.00  0.00     0.000 C 
BRANCH   2   3
ATOM      3  C   UNL     1     -36.892  -9.290   0.645  1.00  0.00     0.006 C 
BRANCH   3   4
ATOM      4  C   UNL     1     -36.271  -8.512  -0.523  1.00  0.00     0.053 C 
BRANCH   4   5
ATOM      5  C   UNL     1     -36.315  -9.298  -1.798  1.00  0.00     0.041 C 
ATOM      6  O   UNL     1     -35.411 -10.133  -2.059  1.00  0.00    -0.550 OA
ATOM      7  O   UNL     1     -37.375  -9.132  -2.682  1.00  0.00    -0.550 OA
ENDBRANCH   4   5
ENDBRANCH   3   4
ENDBRANCH   2   3
ENDBRANCH   1   2
BRANCH   1   8
ATOM      8  C   UNL     1     -34.960 -11.261   1.500  1.00  0.00     0.000 C 
BRANCH   8   9
ATOM      9  C   UNL     1     -33.536 -11.731   1.854  1.00  0.00     0.006 C 
BRANCH   9  10
ATOM     10  C   UNL     1     -33.148 -11.523   3.327  1.00  0.00     0.053 C 
BRANCH  10  11
ATOM     11  C   UNL     1     -31.699 -11.178   3.482  1.00  0.00     0.041 C 
ATOM     12  O   UNL     1     -31.235 -10.885   4.616  1.00  0.00    -0.550 OA
ATOM     13  O   UNL     1     -30.853 -11.213   2.381  1.00  0.00    -0.550 OA
ENDBRANCH  10  11
ENDBRANCH   9  10
ENDBRANCH   8   9
ENDBRANCH   1   8
TORSDOF 8
ENDMDL
MODEL 2
REMARK VINA RESULT:    -3.745      1.164      6.553
REMARK INTER + INTRA:          -5.903
REMARK INTER:                  -5.548
REMARK INTRA:                  -0.355
REMARK UNBOUND:                -0.407
REMARK SMILES O=C([O-])CCCCCCCC(=O)[O-]
REMARK SMILES IDX 7 1 6 2 5 3 4 4 2 5 1 6 3 7 8 8 9 9 10 10 11 11 12 12 13 13
REMARK H PARENT
REMARK Flexibility Score: inf
ROOT
ATOM      1  C   UNL     1     -35.487 -10.023   2.616  1.00  0.00     0.000 C 
ENDROOT
BRANCH   1   2
ATOM      2  C   UNL     1     -34.912 -11.112   1.696  1.00  0.00     0.000 C 
BRANCH   2   3
ATOM      3  C   UNL     1     -34.034 -12.125   2.451  1.00  0.00     0.006 C 
BRANCH   3   4
ATOM      4  C   UNL     1     -32.539 -11.911   2.178  1.00  0.00     0.053 C 
BRANCH   4   5
ATOM      5  C   UNL     1     -31.834 -11.335   3.368  1.00  0.00     0.041 C 
ATOM      6  O   UNL     1     -32.451 -11.177   4.453  1.00  0.00    -0.550 OA
ATOM      7  O   UNL     1     -30.486 -11.006   3.287  1.00  0.00    -0.550 OA
ENDBRANCH   4   5
ENDBRANCH   3   4
ENDBRANCH   2   3
ENDBRANCH   1   2
BRANCH   1   8
ATOM      8  C   UNL     1     -36.550  -9.160   1.915  1.00  0.00     0.000 C 
BRANCH   8   9
ATOM      9  C   UNL     1     -36.574  -9.370   0.388  1.00  0.00     0.006 C 
BRANCH   9  10
ATOM     10  C   UNL     1     -36.307  -8.098  -0.431  1.00  0.00     0.053 C 
BRANCH  10  11
ATOM     11  C   UNL     1     -37.428  -7.791  -1.375  1.00  0.00     0.041 C 
ATOM     12  O   UNL     1     -37.766  -8.630  -2.252  1.00  0.00    -0.550 OA
ATOM     13  O   UNL     1     -38.124  -6.594  -1.264  1.00  0.00    -0.550 OA
ENDBRANCH  10  11
ENDBRANCH   9  10
ENDBRANCH   8   9
ENDBRANCH   1   8
TORSDOF 8
ENDMDL
MODEL 3
REMARK VINA RESULT:    -3.736      0.887      6.069
REMARK INTER + INTRA:          -5.889
REMARK INTER:                  -5.560
REMARK INTRA:                  -0.330
REMARK UNBOUND:                -0.407
REMARK SMILES O=C([O-])CCCCCCCC(=O)[O-]
REMARK SMILES IDX 7 1 6 2 5 3 4 4 2 5 1 6 3 7 8 8 9 9 10 10 11 11 12 12 13 13
REMARK H PARENT
REMARK Flexibility Score: inf
ROOT
ATOM      1  C   UNL     1     -35.868  -9.563   2.327  1.00  0.00     0.000 C 
ENDROOT
BRANCH   1   2
ATOM      2  C   UNL     1     -35.243 -10.899   1.893  1.00  0.00     0.000 C 
BRANCH   2   3
ATOM      3  C   UNL     1     -34.252 -11.457   2.928  1.00  0.00     0.006 C 
BRANCH   3   4
ATOM      4  C   UNL     1     -32.889 -11.788   2.306  1.00  0.00     0.053 C 
BRANCH   4   5
ATOM      5  C   UNL     1     -31.757 -11.287   3.150  1.00  0.00     0.041 C 
ATOM      6  O   UNL     1     -30.636 -11.049   2.630  1.00  0.00    -0.550 OA
ATOM      7  O   UNL     1     -31.952 -11.050   4.506  1.00  0.00    -0.550 OA
ENDBRANCH   4   5
ENDBRANCH   3   4
ENDBRANCH   2   3
ENDBRANCH   1   2
BRANCH   1   8
ATOM      8  C   UNL     1     -36.460  -8.778   1.145  1.00  0.00     0.000 C 
BRANCH   8   9
ATOM      9  C   UNL     1     -36.697  -9.659  -0.097  1.00  0.00     0.006 C 
BRANCH   9  10
ATOM     10  C   UNL     1     -36.327  -8.989  -1.430  1.00  0.00     0.053 C 
BRANCH  10  11
ATOM     11  C   UNL     1     -35.787  -9.972  -2.422  1.00  0.00     0.041 C 
ATOM     12  O   UNL     1     -36.241 -10.001  -3.597  1.00  0.00    -0.550 OA
ATOM     13  O   UNL     1     -34.759 -10.833  -2.060  1.00  0.00    -0.550 OA
ENDBRANCH  10  11
ENDBRANCH   9  10
ENDBRANCH   8   9
ENDBRANCH   1   8
TORSDOF 8
ENDMDL
MODEL 4
REMARK VINA RESULT:    -3.508     19.128     21.531
REMARK INTER + INTRA:          -5.555
REMARK INTER:                  -4.905
REMARK INTRA:                  -0.650
REMARK UNBOUND:                -0.407
REMARK SMILES O=C([O-])CCCCCCCC(=O)[O-]
REMARK SMILES IDX 7 1 6 2 5 3 4 4 2 5 1 6 3 7 8 8 9 9 10 10 11 11 12 12 13 13
REMARK H PARENT
REMARK Flexibility Score: inf
ROOT
ATOM      1  C   UNL     1     -21.196   5.074  10.739  1.00  0.00     0.000 C 
ENDROOT
BRANCH   1   2
ATOM      2  C   UNL     1     -20.706   3.820   9.998  1.00  0.00     0.000 C 
BRANCH   2   3
ATOM      3  C   UNL     1     -20.927   2.528  10.803  1.00  0.00     0.006 C 
BRANCH   3   4
ATOM      4  C   UNL     1     -22.221   1.809  10.401  1.00  0.00     0.053 C 
BRANCH   4   5
ATOM      5  C   UNL     1     -22.106   1.176   9.048  1.00  0.00     0.041 C 
ATOM      6  O   UNL     1     -22.948   1.441   8.151  1.00  0.00    -0.550 OA
ATOM      7  O   UNL     1     -21.048   0.319   8.767  1.00  0.00    -0.550 OA
ENDBRANCH   4   5
ENDBRANCH   3   4
ENDBRANCH   2   3
ENDBRANCH   1   2
BRANCH   1   8
ATOM      8  C   UNL     1     -21.093   4.933  12.267  1.00  0.00     0.000 C 
BRANCH   8   9
ATOM      9  C   UNL     1     -22.373   5.386  12.996  1.00  0.00     0.006 C 
BRANCH   9  10
ATOM     10  C   UNL     1     -23.679   4.939  12.319  1.00  0.00     0.053 C 
BRANCH  10  11
ATOM     11  C   UNL     1     -24.679   6.050  12.240  1.00  0.00     0.041 C 
ATOM     12  O   UNL     1     -24.328   7.237  12.472  1.00  0.00    -0.550 OA
ATOM     13  O   UNL     1     -25.993   5.780  11.877  1.00  0.00    -0.550 OA
ENDBRANCH  10  11
ENDBRANCH   9  10
ENDBRANCH   8   9
ENDBRANCH   1   8
TORSDOF 8
ENDMDL
MODEL 5
REMARK VINA RESULT:    -3.501      1.296      2.018
REMARK INTER + INTRA:          -5.544
REMARK INTER:                  -5.084
REMARK INTRA:                  -0.460
REMARK UNBOUND:                -0.407
REMARK SMILES O=C([O-])CCCCCCCC(=O)[O-]
REMARK SMILES IDX 7 1 6 2 5 3 4 4 2 5 1 6 3 7 8 8 9 9 10 10 11 11 12 12 13 13
REMARK H PARENT
REMARK Flexibility Score: inf
ROOT
ATOM      1  C   UNL     1     -34.651 -10.958   2.102  1.00  0.00     0.000 C 
ENDROOT
BRANCH   1   2
ATOM      2  C   UNL     1     -34.657 -11.539   0.679  1.00  0.00     0.000 C 
BRANCH   2   3
ATOM      3  C   UNL     1     -35.981 -11.284  -0.061  1.00  0.00     0.006 C 
BRANCH   3   4
ATOM      4  C   UNL     1     -36.638  -9.964   0.366  1.00  0.00     0.053 C 
BRANCH   4   5
ATOM      5  C   UNL     1     -36.512  -8.913  -0.694  1.00  0.00     0.041 C 
ATOM      6  O   UNL     1     -36.059  -7.774  -0.406  1.00  0.00    -0.550 OA
ATOM      7  O   UNL     1     -36.862  -9.203  -2.008  1.00  0.00    -0.550 OA
ENDBRANCH   4   5
ENDBRANCH   3   4
ENDBRANCH   2   3
ENDBRANCH   1   2
BRANCH   1   8
ATOM      8  C   UNL     1     -34.405 -12.032   3.175  1.00  0.00     0.000 C 
BRANCH   8   9
ATOM      9  C   UNL     1     -33.256 -11.664   4.134  1.00  0.00     0.006 C 
BRANCH   9  10
ATOM     10  C   UNL     1     -32.332 -10.550   3.618  1.00  0.00     0.053 C 
BRANCH  10  11
ATOM     11  C   UNL     1     -31.037 -11.092   3.096  1.00  0.00     0.041 C 
ATOM     12  O   UNL     1     -30.974 -11.576   1.934  1.00  0.00    -0.550 OA
ATOM     13  O   UNL     1     -29.891 -11.032   3.879  1.00  0.00    -0.550 OA
ENDBRANCH  10  11
ENDBRANCH   9  10
ENDBRANCH   8   9
ENDBRANCH   1   8
TORSDOF 8
ENDMDL
MODEL 6
REMARK VINA RESULT:    -3.470     19.094     21.366
REMARK INTER + INTRA:          -5.499
REMARK INTER:                  -4.855
REMARK INTRA:                  -0.645
REMARK UNBOUND:                -0.407
REMARK SMILES O=C([O-])CCCCCCCC(=O)[O-]
REMARK SMILES IDX 7 1 6 2 5 3 4 4 2 5 1 6 3 7 8 8 9 9 10 10 11 11 12 12 13 13
REMARK H PARENT
REMARK Flexibility Score: inf
ROOT
ATOM      1  C   UNL     1     -21.429   5.149  10.707  1.00  0.00     0.000 C 
ENDROOT
BRANCH   1   2
ATOM      2  C   UNL     1     -21.207   5.000  12.221  1.00  0.00     0.000 C 
BRANCH   2   3
ATOM      3  C   UNL     1     -22.480   5.274  13.039  1.00  0.00     0.006 C 
BRANCH   3   4
ATOM      4  C   UNL     1     -23.752   4.850  12.290  1.00  0.00     0.053 C 
BRANCH   4   5
ATOM      5  C   UNL     1     -24.731   5.978  12.179  1.00  0.00     0.041 C 
ATOM      6  O   UNL     1     -24.366   7.159  12.413  1.00  0.00    -0.550 OA
ATOM      7  O   UNL     1     -26.039   5.728  11.781  1.00  0.00    -0.550 OA
ENDBRANCH   4   5
ENDBRANCH   3   4
ENDBRANCH   2   3
ENDBRANCH   1   2
BRANCH   1   8
ATOM      8  C   UNL     1     -20.761   4.022   9.900  1.00  0.00     0.000 C 
BRANCH   8   9
ATOM      9  C   UNL     1     -20.826   2.659  10.615  1.00  0.00     0.006 C 
BRANCH   9  10
ATOM     10  C   UNL     1     -22.101   1.851  10.326  1.00  0.00     0.053 C 
BRANCH  10  11
ATOM     11  C   UNL     1     -22.043   1.168   8.995  1.00  0.00     0.041 C 
ATOM     12  O   UNL     1     -22.848   1.490   8.081  1.00  0.00    -0.550 OA
ATOM     13  O   UNL     1     -21.078   0.199   8.751  1.00  0.00    -0.550 OA
ENDBRANCH  10  11
ENDBRANCH   9  10
ENDBRANCH   8   9
ENDBRANCH   1   8
TORSDOF 8
ENDMDL
MODEL 7
REMARK VINA RESULT:    -3.443     19.692     21.534
REMARK INTER + INTRA:          -5.460
REMARK INTER:                  -5.102
REMARK INTRA:                  -0.358
REMARK UNBOUND:                -0.407
REMARK SMILES O=C([O-])CCCCCCCC(=O)[O-]
REMARK SMILES IDX 7 1 6 2 5 3 4 4 2 5 1 6 3 7 8 8 9 9 10 10 11 11 12 12 13 13
REMARK H PARENT
REMARK Flexibility Score: inf
ROOT
ATOM      1  C   UNL     1     -21.562   5.008  12.732  1.00  0.00     0.000 C 
ENDROOT
BRANCH   1   2
ATOM      2  C   UNL     1     -22.025   3.551  12.572  1.00  0.00     0.000 C 
BRANCH   2   3
ATOM      3  C   UNL     1     -21.257   2.801  11.470  1.00  0.00     0.006 C 
BRANCH   3   4
ATOM      4  C   UNL     1     -22.170   2.382  10.310  1.00  0.00     0.053 C 
BRANCH   4   5
ATOM      5  C   UNL     1     -21.383   1.887   9.135  1.00  0.00     0.041 C 
ATOM      6  O   UNL     1     -21.170   0.656   8.988  1.00  0.00    -0.550 OA
ATOM      7  O   UNL     1     -20.914   2.785   8.183  1.00  0.00    -0.550 OA
ENDBRANCH   4   5
ENDBRANCH   3   4
ENDBRANCH   2   3
ENDBRANCH   1   2
BRANCH   1   8
ATOM      8  C   UNL     1     -22.739   5.993  12.826  1.00  0.00     0.000 C 
BRANCH   8   9
ATOM      9  C   UNL     1     -24.079   5.361  12.399  1.00  0.00     0.006 C 
BRANCH   9  10
ATOM     10  C   UNL     1     -25.172   6.379  12.038  1.00  0.00     0.053 C 
BRANCH  10  11
ATOM     11  C   UNL     1     -26.541   5.774  12.086  1.00  0.00     0.041 C 
ATOM     12  O   UNL     1     -27.246   5.882  13.125  1.00  0.00    -0.550 OA
ATOM     13  O   UNL     1     -27.053   5.118  10.974  1.00  0.00    -0.550 OA
ENDBRANCH  10  11
ENDBRANCH   9  10
ENDBRANCH   8   9
ENDBRANCH   1   8
TORSDOF 8
ENDMDL
MODEL 8
REMARK VINA RESULT:    -3.394     20.092     22.366
REMARK INTER + INTRA:          -5.388
REMARK INTER:                  -4.610
REMARK INTRA:                  -0.778
REMARK UNBOUND:                -0.407
REMARK SMILES O=C([O-])CCCCCCCC(=O)[O-]
REMARK SMILES IDX 7 1 6 2 5 3 4 4 2 5 1 6 3 7 8 8 9 9 10 10 11 11 12 12 13 13
REMARK H PARENT
REMARK Flexibility Score: inf
ROOT
ATOM      1  C   UNL     1     -24.033   5.123  12.269  1.00  0.00     0.000 C 
ENDROOT
BRANCH   1   2
ATOM      2  C   UNL     1     -22.838   4.671  13.125  1.00  0.00     0.000 C 
BRANCH   2   3
ATOM      3  C   UNL     1     -22.080   3.484  12.506  1.00  0.00     0.006 C 
BRANCH   3   4
ATOM      4  C   UNL     1     -22.661   3.070  11.147  1.00  0.00     0.053 C 
BRANCH   4   5
ATOM      5  C   UNL     1     -21.730   2.166  10.399  1.00  0.00     0.041 C 
ATOM      6  O   UNL     1     -20.486   2.338  10.470  1.00  0.00    -0.550 OA
ATOM      7  O   UNL     1     -22.237   1.110   9.651  1.00  0.00    -0.550 OA
ENDBRANCH   4   5
ENDBRANCH   3   4
ENDBRANCH   2   3
ENDBRANCH   1   2
BRANCH   1   8
ATOM      8  C   UNL     1     -24.178   6.654  12.223  1.00  0.00     0.000 C 
BRANCH   8   9
ATOM      9  C   UNL     1     -22.820   7.378  12.143  1.00  0.00     0.006 C 
BRANCH   9  10
ATOM     10  C   UNL     1     -22.210   7.428  10.733  1.00  0.00     0.053 C 
BRANCH  10  11
ATOM     11  C   UNL     1     -21.035   6.510  10.597  1.00  0.00     0.041 C 
ATOM     12  O   UNL     1     -20.182   6.431  11.521  1.00  0.00    -0.550 OA
ATOM     13  O   UNL     1     -20.897   5.718   9.464  1.00  0.00    -0.550 OA
ENDBRANCH  10  11
ENDBRANCH   9  10
ENDBRANCH   8   9
ENDBRANCH   1   8
TORSDOF 8
ENDMDL
MODEL 9
REMARK VINA RESULT:    -3.380     19.629     21.829
REMARK INTER + INTRA:          -5.367
REMARK INTER:                  -5.006
REMARK INTRA:                  -0.361
REMARK UNBOUND:                -0.407
REMARK SMILES O=C([O-])CCCCCCCC(=O)[O-]
REMARK SMILES IDX 7 1 6 2 5 3 4 4 2 5 1 6 3 7 8 8 9 9 10 10 11 11 12 12 13 13
REMARK H PARENT
REMARK Flexibility Score: inf
ROOT
ATOM      1  C   UNL     1     -23.001   3.979  11.606  1.00  0.00     0.000 C 
ENDROOT
BRANCH   1   2
ATOM      2  C   UNL     1     -23.434   4.910  12.751  1.00  0.00     0.000 C 
BRANCH   2   3
ATOM      3  C   UNL     1     -24.499   5.931  12.315  1.00  0.00     0.006 C 
BRANCH   3   4
ATOM      4  C   UNL     1     -24.073   7.375  12.616  1.00  0.00     0.053 C 
BRANCH   4   5
ATOM      5  C   UNL     1     -22.751   7.705  11.995  1.00  0.00     0.041 C 
ATOM      6  O   UNL     1     -22.635   7.760  10.743  1.00  0.00    -0.550 OA
ATOM      7  O   UNL     1     -21.653   7.985  12.801  1.00  0.00    -0.550 OA
ENDBRANCH   4   5
ENDBRANCH   3   4
ENDBRANCH   2   3
ENDBRANCH   1   2
BRANCH   1   8
ATOM      8  C   UNL     1     -21.739   3.170  11.952  1.00  0.00     0.000 C 
BRANCH   8   9
ATOM      9  C   UNL     1     -21.130   2.463  10.725  1.00  0.00     0.006 C 
BRANCH   9  10
ATOM     10  C   UNL     1     -22.145   1.680   9.876  1.00  0.00     0.053 C 
BRANCH  10  11
ATOM     11  C   UNL     1     -21.787   1.689   8.423  1.00  0.00     0.041 C 
ATOM     12  O   UNL     1     -20.830   2.397   8.009  1.00  0.00    -0.550 OA
ATOM     13  O   UNL     1     -22.488   0.891   7.528  1.00  0.00    -0.550 OA
ENDBRANCH  10  11
ENDBRANCH   9  10
ENDBRANCH   8   9
ENDBRANCH   1   8
TORSDOF 8
ENDMDL
