MODEL 1
REMARK VINA RESULT:    -4.709      0.000      0.000
REMARK INTER + INTRA:          -5.006
REMARK INTER:                  -4.985
REMARK INTRA:                  -0.021
REMARK UNBOUND:                -0.021
REMARK SMILES O=C([O-])c1cccnc1
REMARK SMILES IDX 4 1 5 2 9 3 6 4 8 5 7 6 2 7 1 8 3 9
REMARK H PARENT
REMARK Flexibility Score: inf
ROOT
ATOM      1  C   UNL     1      16.544  34.968  12.558  1.00  0.00     0.016 A 
ATOM      2  C   UNL     1      15.676  36.024  12.243  1.00  0.00     0.013 A 
ATOM      3  C   UNL     1      17.660  34.749  11.730  1.00  0.00     0.120 A 
ATOM      4  C   UNL     1      15.926  36.830  11.132  1.00  0.00     0.021 A 
ATOM      5  N   UNL     1      17.881  35.551  10.653  1.00  0.00    -0.264 NA
ATOM      6  C   UNL     1      17.046  36.576  10.340  1.00  0.00     0.111 A 
ENDROOT
BRANCH   1   7
ATOM      7  C   UNL     1      16.289  34.105  13.733  1.00  0.00     0.073 C 
ATOM      8  O   UNL     1      16.580  32.880  13.704  1.00  0.00    -0.545 OA
ATOM      9  O   UNL     1      15.724  34.638  14.887  1.00  0.00    -0.545 OA
ENDBRANCH   1   7
TORSDOF 1
ENDMDL
MODEL 2
REMARK VINA RESULT:    -4.557      3.494      4.272
REMARK INTER + INTRA:          -4.844
REMARK INTER:                  -4.824
REMARK INTRA:                  -0.021
REMARK UNBOUND:                -0.021
REMARK SMILES O=C([O-])c1cccnc1
REMARK SMILES IDX 4 1 5 2 9 3 6 4 8 5 7 6 2 7 1 8 3 9
REMARK H PARENT
REMARK Flexibility Score: inf
ROOT
ATOM      1  C   UNL     1      17.776  35.758   9.855  1.00  0.00     0.016 A 
ATOM      2  C   UNL     1      16.750  36.627  10.257  1.00  0.00     0.013 A 
ATOM      3  C   UNL     1      18.246  34.807  10.778  1.00  0.00     0.120 A 
ATOM      4  C   UNL     1      16.218  36.537  11.544  1.00  0.00     0.021 A 
ATOM      5  N   UNL     1      17.710  34.740  12.027  1.00  0.00    -0.264 NA
ATOM      6  C   UNL     1      16.716  35.577  12.425  1.00  0.00     0.111 A 
ENDROOT
BRANCH   1   7
ATOM      7  C   UNL     1      18.348  35.843   8.494  1.00  0.00     0.073 C 
ATOM      8  O   UNL     1      18.696  34.801   7.878  1.00  0.00    -0.545 OA
ATOM      9  O   UNL     1      18.511  37.079   7.876  1.00  0.00    -0.545 OA
ENDBRANCH   1   7
TORSDOF 1
ENDMDL
MODEL 3
REMARK VINA RESULT:    -4.440      3.183      3.957
REMARK INTER + INTRA:          -4.720
REMARK INTER:                  -4.703
REMARK INTRA:                  -0.017
REMARK UNBOUND:                -0.021
REMARK SMILES O=C([O-])c1cccnc1
REMARK SMILES IDX 4 1 5 2 9 3 6 4 8 5 7 6 2 7 1 8 3 9
REMARK H PARENT
REMARK Flexibility Score: inf
ROOT
ATOM      1  C   UNL     1      18.319  34.946  10.328  1.00  0.00     0.016 A 
ATOM      2  C   UNL     1      18.097  34.774  11.703  1.00  0.00     0.013 A 
ATOM      3  C   UNL     1      17.557  35.910   9.643  1.00  0.00     0.120 A 
ATOM      4  C   UNL     1      17.141  35.549  12.362  1.00  0.00     0.021 A 
ATOM      5  N   UNL     1      16.632  36.652  10.310  1.00  0.00    -0.264 NA
ATOM      6  C   UNL     1      16.410  36.492  11.641  1.00  0.00     0.111 A 
ENDROOT
BRANCH   1   7
ATOM      7  C   UNL     1      19.329  34.131   9.618  1.00  0.00     0.073 C 
ATOM      8  O   UNL     1      20.555  34.262   9.876  1.00  0.00    -0.545 OA
ATOM      9  O   UNL     1      18.937  33.208   8.655  1.00  0.00    -0.545 OA
ENDBRANCH   1   7
TORSDOF 1
ENDMDL
MODEL 4
REMARK VINA RESULT:    -4.343      2.209      3.103
REMARK INTER + INTRA:          -4.618
REMARK INTER:                  -4.596
REMARK INTRA:                  -0.021
REMARK UNBOUND:                -0.021
REMARK SMILES O=C([O-])c1cccnc1
REMARK SMILES IDX 4 1 5 2 9 3 6 4 8 5 7 6 2 7 1 8 3 9
REMARK H PARENT
REMARK Flexibility Score: inf
ROOT
ATOM      1  C   UNL     1      17.514  35.548  11.033  1.00  0.00     0.016 A 
ATOM      2  C   UNL     1      18.529  34.743  11.573  1.00  0.00     0.013 A 
ATOM      3  C   UNL     1      17.546  35.832   9.656  1.00  0.00     0.120 A 
ATOM      4  C   UNL     1      19.539  34.244  10.750  1.00  0.00     0.021 A 
ATOM      5  N   UNL     1      18.543  35.332   8.877  1.00  0.00    -0.264 NA
ATOM      6  C   UNL     1      19.530  34.552   9.390  1.00  0.00     0.111 A 
ENDROOT
BRANCH   1   7
ATOM      7  C   UNL     1      16.437  36.084  11.894  1.00  0.00     0.073 C 
ATOM      8  O   UNL     1      16.009  35.419  12.875  1.00  0.00    -0.545 OA
ATOM      9  O   UNL     1      15.882  37.332  11.631  1.00  0.00    -0.545 OA
ENDBRANCH   1   7
TORSDOF 1
ENDMDL
MODEL 5
REMARK VINA RESULT:    -4.329      2.335      3.092
REMARK INTER + INTRA:          -4.603
REMARK INTER:                  -4.580
REMARK INTRA:                  -0.023
REMARK UNBOUND:                -0.021
REMARK SMILES O=C([O-])c1cccnc1
REMARK SMILES IDX 4 1 5 2 9 3 6 4 8 5 7 6 2 7 1 8 3 9
REMARK H PARENT
REMARK Flexibility Score: inf
ROOT
ATOM      1  C   UNL     1      17.425  35.724  10.651  1.00  0.00     0.016 A 
ATOM      2  C   UNL     1      17.425  36.203   9.332  1.00  0.00     0.013 A 
ATOM      3  C   UNL     1      18.393  34.771  11.017  1.00  0.00     0.120 A 
ATOM      4  C   UNL     1      18.368  35.734   8.416  1.00  0.00     0.021 A 
ATOM      5  N   UNL     1      19.301  34.332  10.104  1.00  0.00    -0.264 NA
ATOM      6  C   UNL     1      19.308  34.789   8.824  1.00  0.00     0.111 A 
ENDROOT
BRANCH   1   7
ATOM      7  C   UNL     1      16.431  36.213  11.632  1.00  0.00     0.073 C 
ATOM      8  O   UNL     1      15.853  37.319  11.462  1.00  0.00    -0.545 OA
ATOM      9  O   UNL     1      16.121  35.454  12.756  1.00  0.00    -0.545 OA
ENDBRANCH   1   7
TORSDOF 1
ENDMDL
MODEL 6
REMARK VINA RESULT:    -4.269      3.145      3.946
REMARK INTER + INTRA:          -4.539
REMARK INTER:                  -4.517
REMARK INTRA:                  -0.023
REMARK UNBOUND:                -0.021
REMARK SMILES O=C([O-])c1cccnc1
REMARK SMILES IDX 4 1 5 2 9 3 6 4 8 5 7 6 2 7 1 8 3 9
REMARK H PARENT
REMARK Flexibility Score: inf
ROOT
ATOM      1  C   UNL     1      18.516  34.879  10.340  1.00  0.00     0.016 A 
ATOM      2  C   UNL     1      17.715  35.783   9.625  1.00  0.00     0.013 A 
ATOM      3  C   UNL     1      18.308  34.752  11.725  1.00  0.00     0.120 A 
ATOM      4  C   UNL     1      16.739  36.531  10.287  1.00  0.00     0.021 A 
ATOM      5  N   UNL     1      17.350  35.493  12.345  1.00  0.00    -0.264 NA
ATOM      6  C   UNL     1      16.569  36.370  11.662  1.00  0.00     0.111 A 
ENDROOT
BRANCH   1   7
ATOM      7  C   UNL     1      19.553  34.081   9.651  1.00  0.00     0.073 C 
ATOM      8  O   UNL     1      20.472  33.521  10.306  1.00  0.00    -0.545 OA
ATOM      9  O   UNL     1      19.528  33.939   8.268  1.00  0.00    -0.545 OA
ENDBRANCH   1   7
TORSDOF 1
ENDMDL
MODEL 7
REMARK VINA RESULT:    -3.974     12.536     13.878
REMARK INTER + INTRA:          -4.227
REMARK INTER:                  -4.204
REMARK INTRA:                  -0.024
REMARK UNBOUND:                -0.021
REMARK SMILES O=C([O-])c1cccnc1
REMARK SMILES IDX 4 1 5 2 9 3 6 4 8 5 7 6 2 7 1 8 3 9
REMARK H PARENT
REMARK Flexibility Score: inf
ROOT
ATOM      1  C   UNL     1      16.309  34.910  25.529  1.00  0.00     0.016 A 
ATOM      2  C   UNL     1      14.964  35.308  25.476  1.00  0.00     0.013 A 
ATOM      3  C   UNL     1      16.775  34.283  26.699  1.00  0.00     0.120 A 
ATOM      4  C   UNL     1      14.122  35.080  26.565  1.00  0.00     0.021 A 
ATOM      5  N   UNL     1      15.932  34.073  27.746  1.00  0.00    -0.264 NA
ATOM      6  C   UNL     1      14.629  34.455  27.703  1.00  0.00     0.111 A 
ENDROOT
BRANCH   1   7
ATOM      7  C   UNL     1      17.213  35.145  24.382  1.00  0.00     0.073 C 
ATOM      8  O   UNL     1      18.425  34.808  24.440  1.00  0.00    -0.545 OA
ATOM      9  O   UNL     1      16.734  35.744  23.221  1.00  0.00    -0.545 OA
ENDBRANCH   1   7
TORSDOF 1
ENDMDL
MODEL 8
REMARK VINA RESULT:    -3.853     13.423     14.357
REMARK INTER + INTRA:          -4.099
REMARK INTER:                  -4.078
REMARK INTRA:                  -0.021
REMARK UNBOUND:                -0.021
REMARK SMILES O=C([O-])c1cccnc1
REMARK SMILES IDX 4 1 5 2 9 3 6 4 8 5 7 6 2 7 1 8 3 9
REMARK H PARENT
REMARK Flexibility Score: inf
ROOT
ATOM      1  C   UNL     1       6.382  42.203  18.294  1.00  0.00     0.016 A 
ATOM      2  C   UNL     1       7.206  42.102  19.426  1.00  0.00     0.013 A 
ATOM      3  C   UNL     1       5.451  43.256  18.237  1.00  0.00     0.120 A 
ATOM      4  C   UNL     1       7.094  43.031  20.461  1.00  0.00     0.021 A 
ATOM      5  N   UNL     1       5.362  44.148  19.260  1.00  0.00    -0.264 NA
ATOM      6  C   UNL     1       6.156  44.058  20.360  1.00  0.00     0.111 A 
ENDROOT
BRANCH   1   7
ATOM      7  C   UNL     1       6.491  41.224  17.190  1.00  0.00     0.073 C 
ATOM      8  O   UNL     1       7.614  40.769  16.846  1.00  0.00    -0.545 OA
ATOM      9  O   UNL     1       5.353  40.794  16.517  1.00  0.00    -0.545 OA
ENDBRANCH   1   7
TORSDOF 1
ENDMDL
MODEL 9
REMARK VINA RESULT:    -3.757     13.494     14.402
REMARK INTER + INTRA:          -3.997
REMARK INTER:                  -3.978
REMARK INTRA:                  -0.019
REMARK UNBOUND:                -0.021
REMARK SMILES O=C([O-])c1cccnc1
REMARK SMILES IDX 4 1 5 2 9 3 6 4 8 5 7 6 2 7 1 8 3 9
REMARK H PARENT
REMARK Flexibility Score: inf
ROOT
ATOM      1  C   UNL     1       5.833  42.319  17.740  1.00  0.00     0.016 A 
ATOM      2  C   UNL     1       5.481  43.507  18.399  1.00  0.00     0.013 A 
ATOM      3  C   UNL     1       6.801  41.488  18.331  1.00  0.00     0.120 A 
ATOM      4  C   UNL     1       6.086  43.843  19.610  1.00  0.00     0.021 A 
ATOM      5  N   UNL     1       7.376  41.839  19.514  1.00  0.00    -0.264 NA
ATOM      6  C   UNL     1       7.042  42.988  20.159  1.00  0.00     0.111 A 
ENDROOT
BRANCH   1   7
ATOM      7  C   UNL     1       5.199  41.951  16.455  1.00  0.00     0.073 C 
ATOM      8  O   UNL     1       4.708  40.804  16.287  1.00  0.00    -0.545 OA
ATOM      9  O   UNL     1       5.138  42.871  15.413  1.00  0.00    -0.545 OA
ENDBRANCH   1   7
TORSDOF 1
ENDMDL
