MODEL 1
REMARK VINA RESULT:    -4.109      0.000      0.000
REMARK INTER + INTRA:          -7.170
REMARK INTER:                  -6.271
REMARK INTRA:                  -0.899
REMARK UNBOUND:                -0.899
REMARK SMILES CC(=O)CCC=C(C)CCC=C(C)CCC=C(C)C
REMARK SMILES IDX 10 1 11 2 12 3 13 4 14 5 15 6 16 7 18 8 17 9 19 10 9 11 7 12
REMARK SMILES IDX 6 13 8 14 5 15 4 16 2 17 3 18 1 19
REMARK H PARENT
REMARK Flexibility Score: inf
ROOT
ATOM      1  C   UNL     1      76.167  76.429  82.350  1.00  0.00     0.032 C 
ENDROOT
BRANCH   1   2
ATOM      2  C   UNL     1      76.847  77.658  82.910  1.00  0.00    -0.028 C 
ATOM      3  C   UNL     1      76.256  78.865  83.068  1.00  0.00    -0.077 C 
ATOM      4  C   UNL     1      74.800  79.094  82.741  1.00  0.00     0.039 C 
BRANCH   3   5
ATOM      5  C   UNL     1      77.083  80.023  83.582  1.00  0.00     0.034 C 
BRANCH   5   6
ATOM      6  C   UNL     1      78.518  79.943  83.048  1.00  0.00     0.032 C 
BRANCH   6   7
ATOM      7  C   UNL     1      79.223  81.265  83.210  1.00  0.00    -0.028 C 
ATOM      8  C   UNL     1      81.497  80.221  83.321  1.00  0.00     0.039 C 
ATOM      9  C   UNL     1      80.564  81.408  83.309  1.00  0.00    -0.080 C 
ATOM     10  C   UNL     1      81.131  82.800  83.426  1.00  0.00     0.039 C 
ENDBRANCH   6   7
ENDBRANCH   5   6
ENDBRANCH   3   5
ENDBRANCH   1   2
BRANCH   1  11
ATOM     11  C   UNL     1      76.255  75.255  83.332  1.00  0.00     0.034 C 
BRANCH  11  12
ATOM     12  C   UNL     1      74.885  74.716  83.686  1.00  0.00    -0.077 C 
ATOM     13  C   UNL     1      74.675  73.380  83.640  1.00  0.00    -0.028 C 
ATOM     14  C   UNL     1      73.796  75.684  84.081  1.00  0.00     0.039 C 
BRANCH  13  15
ATOM     15  C   UNL     1      73.357  72.703  83.937  1.00  0.00     0.035 C 
BRANCH  15  16
ATOM     16  C   UNL     1      72.671  72.222  82.653  1.00  0.00     0.079 C 
BRANCH  16  17
ATOM     17  C   UNL     1      72.837  70.738  82.455  1.00  0.00     0.130 C 
ATOM     18  O   UNL     1      73.930  70.289  82.148  1.00  0.00    -0.300 OA
ATOM     19  C   UNL     1      71.680  69.798  82.621  1.00  0.00     0.087 C 
ENDBRANCH  16  17
ENDBRANCH  15  16
ENDBRANCH  13  15
ENDBRANCH  11  12
ENDBRANCH   1  11
TORSDOF 9
ENDMDL
MODEL 2
REMARK VINA RESULT:    -3.937      1.005      1.598
REMARK INTER + INTRA:          -6.907
REMARK INTER:                  -6.180
REMARK INTRA:                  -0.727
REMARK UNBOUND:                -0.899
REMARK SMILES CC(=O)CCC=C(C)CCC=C(C)CCC=C(C)C
REMARK SMILES IDX 10 1 11 2 12 3 13 4 14 5 15 6 16 7 18 8 17 9 19 10 9 11 7 12
REMARK SMILES IDX 6 13 8 14 5 15 4 16 2 17 3 18 1 19
REMARK H PARENT
REMARK Flexibility Score: inf
ROOT
ATOM      1  C   UNL     1      75.799  75.729  82.463  1.00  0.00     0.032 C 
ENDROOT
BRANCH   1   2
ATOM      2  C   UNL     1      76.864  76.652  83.009  1.00  0.00    -0.028 C 
ATOM      3  C   UNL     1      76.859  77.999  82.885  1.00  0.00    -0.077 C 
ATOM      4  C   UNL     1      75.726  78.739  82.216  1.00  0.00     0.039 C 
BRANCH   3   5
ATOM      5  C   UNL     1      78.030  78.789  83.428  1.00  0.00     0.034 C 
BRANCH   5   6
ATOM      6  C   UNL     1      77.837  80.288  83.174  1.00  0.00     0.032 C 
BRANCH   6   7
ATOM      7  C   UNL     1      79.165  81.002  83.158  1.00  0.00    -0.028 C 
ATOM      8  C   UNL     1      78.132  83.264  83.466  1.00  0.00     0.039 C 
ATOM      9  C   UNL     1      79.315  82.337  83.314  1.00  0.00    -0.080 C 
ATOM     10  C   UNL     1      80.710  82.907  83.317  1.00  0.00     0.039 C 
ENDBRANCH   6   7
ENDBRANCH   5   6
ENDBRANCH   3   5
ENDBRANCH   1   2
BRANCH   1  11
ATOM     11  C   UNL     1      74.644  75.571  83.458  1.00  0.00     0.034 C 
BRANCH  11  12
ATOM     12  C   UNL     1      74.283  74.115  83.673  1.00  0.00    -0.077 C 
ATOM     13  C   UNL     1      72.983  73.747  83.608  1.00  0.00    -0.028 C 
ATOM     14  C   UNL     1      75.384  73.121  83.950  1.00  0.00     0.039 C 
BRANCH  13  15
ATOM     15  C   UNL     1      72.473  72.342  83.829  1.00  0.00     0.035 C 
BRANCH  15  16
ATOM     16  C   UNL     1      72.175  71.638  82.500  1.00  0.00     0.079 C 
BRANCH  16  17
ATOM     17  C   UNL     1      72.881  70.311  82.402  1.00  0.00     0.130 C 
ATOM     18  O   UNL     1      74.087  70.282  82.210  1.00  0.00    -0.300 OA
ATOM     19  C   UNL     1      72.128  69.020  82.529  1.00  0.00     0.087 C 
ENDBRANCH  16  17
ENDBRANCH  15  16
ENDBRANCH  13  15
ENDBRANCH  11  12
ENDBRANCH   1  11
TORSDOF 9
ENDMDL
MODEL 3
REMARK VINA RESULT:    -3.495      5.916      9.583
REMARK INTER + INTRA:          -6.233
REMARK INTER:                  -5.448
REMARK INTRA:                  -0.785
REMARK UNBOUND:                -0.899
REMARK SMILES CC(=O)CCC=C(C)CCC=C(C)CCC=C(C)C
REMARK SMILES IDX 10 1 11 2 12 3 13 4 14 5 15 6 16 7 18 8 17 9 19 10 9 11 7 12
REMARK SMILES IDX 6 13 8 14 5 15 4 16 2 17 3 18 1 19
REMARK H PARENT
REMARK Flexibility Score: inf
ROOT
ATOM      1  C   UNL     1      75.002  74.903  78.949  1.00  0.00     0.032 C 
ENDROOT
BRANCH   1   2
ATOM      2  C   UNL     1      74.272  74.361  80.156  1.00  0.00    -0.028 C 
ATOM      3  C   UNL     1      74.560  74.676  81.440  1.00  0.00    -0.077 C 
ATOM      4  C   UNL     1      75.634  75.673  81.800  1.00  0.00     0.039 C 
BRANCH   3   5
ATOM      5  C   UNL     1      73.784  74.001  82.551  1.00  0.00     0.034 C 
BRANCH   5   6
ATOM      6  C   UNL     1      73.406  72.570  82.155  1.00  0.00     0.032 C 
BRANCH   6   7
ATOM      7  C   UNL     1      72.238  72.080  82.973  1.00  0.00    -0.028 C 
ATOM      8  C   UNL     1      72.631  69.676  82.390  1.00  0.00     0.039 C 
ATOM      9  C   UNL     1      71.892  70.780  83.108  1.00  0.00    -0.080 C 
ATOM     10  C   UNL     1      70.721  70.436  83.993  1.00  0.00     0.039 C 
ENDBRANCH   6   7
ENDBRANCH   5   6
ENDBRANCH   3   5
ENDBRANCH   1   2
BRANCH   1  11
ATOM     11  C   UNL     1      75.050  73.864  77.823  1.00  0.00     0.034 C 
BRANCH  11  12
ATOM     12  C   UNL     1      74.946  74.512  76.457  1.00  0.00    -0.077 C 
ATOM     13  C   UNL     1      73.818  74.335  75.733  1.00  0.00    -0.028 C 
ATOM     14  C   UNL     1      76.104  75.335  75.946  1.00  0.00     0.039 C 
BRANCH  13  15
ATOM     15  C   UNL     1      73.584  74.894  74.348  1.00  0.00     0.035 C 
BRANCH  15  16
ATOM     16  C   UNL     1      73.945  73.872  73.263  1.00  0.00     0.079 C 
BRANCH  16  17
ATOM     17  C   UNL     1      75.414  73.909  72.930  1.00  0.00     0.130 C 
ATOM     18  O   UNL     1      76.139  72.999  73.302  1.00  0.00    -0.300 OA
ATOM     19  C   UNL     1      76.007  75.048  72.155  1.00  0.00     0.087 C 
ENDBRANCH  16  17
ENDBRANCH  15  16
ENDBRANCH  13  15
ENDBRANCH  11  12
ENDBRANCH   1  11
TORSDOF 9
ENDMDL
MODEL 4
REMARK VINA RESULT:    -3.485      5.896      9.596
REMARK INTER + INTRA:          -6.217
REMARK INTER:                  -5.514
REMARK INTRA:                  -0.703
REMARK UNBOUND:                -0.899
REMARK SMILES CC(=O)CCC=C(C)CCC=C(C)CCC=C(C)C
REMARK SMILES IDX 10 1 11 2 12 3 13 4 14 5 15 6 16 7 18 8 17 9 19 10 9 11 7 12
REMARK SMILES IDX 6 13 8 14 5 15 4 16 2 17 3 18 1 19
REMARK H PARENT
REMARK Flexibility Score: inf
ROOT
ATOM      1  C   UNL     1      74.924  75.040  79.034  1.00  0.00     0.032 C 
ENDROOT
BRANCH   1   2
ATOM      2  C   UNL     1      74.210  74.454  80.230  1.00  0.00    -0.028 C 
ATOM      3  C   UNL     1      74.534  74.699  81.521  1.00  0.00    -0.077 C 
ATOM      4  C   UNL     1      75.638  75.655  81.903  1.00  0.00     0.039 C 
BRANCH   3   5
ATOM      5  C   UNL     1      73.769  73.987  82.615  1.00  0.00     0.034 C 
BRANCH   5   6
ATOM      6  C   UNL     1      73.428  72.554  82.194  1.00  0.00     0.032 C 
BRANCH   6   7
ATOM      7  C   UNL     1      72.271  72.020  83.000  1.00  0.00    -0.028 C 
ATOM      8  C   UNL     1      72.704  69.642  82.344  1.00  0.00     0.039 C 
ATOM      9  C   UNL     1      71.949  70.711  83.098  1.00  0.00    -0.080 C 
ATOM     10  C   UNL     1      70.788  70.321  83.977  1.00  0.00     0.039 C 
ENDBRANCH   6   7
ENDBRANCH   5   6
ENDBRANCH   3   5
ENDBRANCH   1   2
BRANCH   1  11
ATOM     11  C   UNL     1      75.329  73.942  78.043  1.00  0.00     0.034 C 
BRANCH  11  12
ATOM     12  C   UNL     1      75.012  74.332  76.613  1.00  0.00    -0.077 C 
ATOM     13  C   UNL     1      75.963  74.951  75.877  1.00  0.00    -0.028 C 
ATOM     14  C   UNL     1      73.646  74.017  76.054  1.00  0.00     0.039 C 
BRANCH  13  15
ATOM     15  C   UNL     1      75.781  75.422  74.453  1.00  0.00     0.035 C 
BRANCH  15  16
ATOM     16  C   UNL     1      75.839  74.253  73.463  1.00  0.00     0.079 C 
BRANCH  16  17
ATOM     17  C   UNL     1      74.574  74.148  72.651  1.00  0.00     0.130 C 
ATOM     18  O   UNL     1      74.367  73.145  71.985  1.00  0.00    -0.300 OA
ATOM     19  C   UNL     1      73.565  75.257  72.637  1.00  0.00     0.087 C 
ENDBRANCH  16  17
ENDBRANCH  15  16
ENDBRANCH  13  15
ENDBRANCH  11  12
ENDBRANCH   1  11
TORSDOF 9
ENDMDL
MODEL 5
REMARK VINA RESULT:    -3.443      3.090     10.647
REMARK INTER + INTRA:          -6.153
REMARK INTER:                  -5.457
REMARK INTRA:                  -0.696
REMARK UNBOUND:                -0.899
REMARK SMILES CC(=O)CCC=C(C)CCC=C(C)CCC=C(C)C
REMARK SMILES IDX 10 1 11 2 12 3 13 4 14 5 15 6 16 7 18 8 17 9 19 10 9 11 7 12
REMARK SMILES IDX 6 13 8 14 5 15 4 16 2 17 3 18 1 19
REMARK H PARENT
REMARK Flexibility Score: inf
ROOT
ATOM      1  C   UNL     1      73.906  74.185  82.981  1.00  0.00     0.032 C 
ENDROOT
BRANCH   1   2
ATOM      2  C   UNL     1      73.824  72.684  82.823  1.00  0.00    -0.028 C 
ATOM      3  C   UNL     1      72.783  71.920  83.226  1.00  0.00    -0.077 C 
ATOM      4  C   UNL     1      71.540  72.516  83.841  1.00  0.00     0.039 C 
BRANCH   3   5
ATOM      5  C   UNL     1      72.871  70.418  83.060  1.00  0.00     0.034 C 
BRANCH   5   6
ATOM      6  C   UNL     1      71.603  69.871  82.396  1.00  0.00     0.032 C 
BRANCH   6   7
ATOM      7  C   UNL     1      71.298  68.480  82.890  1.00  0.00    -0.028 C 
ATOM      8  C   UNL     1      68.869  68.968  83.254  1.00  0.00     0.039 C 
ATOM      9  C   UNL     1      70.069  68.051  83.255  1.00  0.00    -0.080 C 
ATOM     10  C   UNL     1      69.908  66.617  83.690  1.00  0.00     0.039 C 
ENDBRANCH   6   7
ENDBRANCH   5   6
ENDBRANCH   3   5
ENDBRANCH   1   2
BRANCH   1  11
ATOM     11  C   UNL     1      75.362  74.664  82.943  1.00  0.00     0.034 C 
BRANCH  11  12
ATOM     12  C   UNL     1      75.507  76.067  83.497  1.00  0.00    -0.077 C 
ATOM     13  C   UNL     1      76.710  76.679  83.420  1.00  0.00    -0.028 C 
ATOM     14  C   UNL     1      74.304  76.738  84.114  1.00  0.00     0.039 C 
BRANCH  13  15
ATOM     15  C   UNL     1      77.010  78.061  83.954  1.00  0.00     0.035 C 
BRANCH  15  16
ATOM     16  C   UNL     1      76.853  79.129  82.866  1.00  0.00     0.079 C 
BRANCH  16  17
ATOM     17  C   UNL     1      77.752  80.313  83.113  1.00  0.00     0.130 C 
ATOM     18  O   UNL     1      77.281  81.340  83.578  1.00  0.00    -0.300 OA
ATOM     19  C   UNL     1      79.215  80.258  82.792  1.00  0.00     0.087 C 
ENDBRANCH  16  17
ENDBRANCH  15  16
ENDBRANCH  13  15
ENDBRANCH  11  12
ENDBRANCH   1  11
TORSDOF 9
ENDMDL
MODEL 6
REMARK VINA RESULT:    -3.441      5.952      7.956
REMARK INTER + INTRA:          -6.150
REMARK INTER:                  -5.206
REMARK INTRA:                  -0.944
REMARK UNBOUND:                -0.899
REMARK SMILES CC(=O)CCC=C(C)CCC=C(C)CCC=C(C)C
REMARK SMILES IDX 10 1 11 2 12 3 13 4 14 5 15 6 16 7 18 8 17 9 19 10 9 11 7 12
REMARK SMILES IDX 6 13 8 14 5 15 4 16 2 17 3 18 1 19
REMARK H PARENT
REMARK Flexibility Score: inf
ROOT
ATOM      1  C   UNL     1      74.601  74.321  79.192  1.00  0.00     0.032 C 
ENDROOT
BRANCH   1   2
ATOM      2  C   UNL     1      75.448  74.609  77.974  1.00  0.00    -0.028 C 
ATOM      3  C   UNL     1      75.058  74.406  76.695  1.00  0.00    -0.077 C 
ATOM      4  C   UNL     1      73.676  73.908  76.346  1.00  0.00     0.039 C 
BRANCH   3   5
ATOM      5  C   UNL     1      76.042  74.679  75.578  1.00  0.00     0.034 C 
BRANCH   5   6
ATOM      6  C   UNL     1      75.713  73.829  74.346  1.00  0.00     0.032 C 
BRANCH   6   7
ATOM      7  C   UNL     1      75.880  74.633  73.081  1.00  0.00    -0.028 C 
ATOM      8  C   UNL     1      73.472  75.320  73.008  1.00  0.00     0.039 C 
ATOM      9  C   UNL     1      74.888  75.329  72.482  1.00  0.00    -0.080 C 
ATOM     10  C   UNL     1      75.214  76.122  71.242  1.00  0.00     0.039 C 
ENDBRANCH   6   7
ENDBRANCH   5   6
ENDBRANCH   3   5
ENDBRANCH   1   2
BRANCH   1  11
ATOM     11  C   UNL     1      75.040  75.179  80.384  1.00  0.00     0.034 C 
BRANCH  11  12
ATOM     12  C   UNL     1      74.695  74.524  81.705  1.00  0.00    -0.077 C 
ATOM     13  C   UNL     1      73.660  73.654  81.754  1.00  0.00    -0.028 C 
ATOM     14  C   UNL     1      75.516  74.860  82.926  1.00  0.00     0.039 C 
BRANCH  13  15
ATOM     15  C   UNL     1      73.183  72.949  83.003  1.00  0.00     0.035 C 
BRANCH  15  16
ATOM     16  C   UNL     1      72.445  71.648  82.666  1.00  0.00     0.079 C 
BRANCH  16  17
ATOM     17  C   UNL     1      73.401  70.498  82.482  1.00  0.00     0.130 C 
ATOM     18  O   UNL     1      73.017  69.479  81.926  1.00  0.00    -0.300 OA
ATOM     19  C   UNL     1      74.815  70.575  82.975  1.00  0.00     0.087 C 
ENDBRANCH  16  17
ENDBRANCH  15  16
ENDBRANCH  13  15
ENDBRANCH  11  12
ENDBRANCH   1  11
TORSDOF 9
ENDMDL
MODEL 7
REMARK VINA RESULT:    -3.371      1.225      2.336
REMARK INTER + INTRA:          -6.044
REMARK INTER:                  -5.239
REMARK INTRA:                  -0.804
REMARK UNBOUND:                -0.899
REMARK SMILES CC(=O)CCC=C(C)CCC=C(C)CCC=C(C)C
REMARK SMILES IDX 10 1 11 2 12 3 13 4 14 5 15 6 16 7 18 8 17 9 19 10 9 11 7 12
REMARK SMILES IDX 6 13 8 14 5 15 4 16 2 17 3 18 1 19
REMARK H PARENT
REMARK Flexibility Score: inf
ROOT
ATOM      1  C   UNL     1      76.743  78.128  82.628  1.00  0.00     0.032 C 
ENDROOT
BRANCH   1   2
ATOM      2  C   UNL     1      77.245  79.552  82.708  1.00  0.00    -0.028 C 
ATOM      3  C   UNL     1      78.340  79.949  83.395  1.00  0.00    -0.077 C 
ATOM      4  C   UNL     1      79.228  78.970  84.125  1.00  0.00     0.039 C 
BRANCH   3   5
ATOM      5  C   UNL     1      78.683  81.422  83.438  1.00  0.00     0.034 C 
BRANCH   5   6
ATOM      6  C   UNL     1      80.038  81.643  84.118  1.00  0.00     0.032 C 
BRANCH   6   7
ATOM      7  C   UNL     1      80.831  82.705  83.397  1.00  0.00    -0.028 C 
ATOM      8  C   UNL     1      82.906  81.306  83.285  1.00  0.00     0.039 C 
ATOM      9  C   UNL     1      82.113  82.558  82.994  1.00  0.00    -0.080 C 
ATOM     10  C   UNL     1      82.764  83.694  82.246  1.00  0.00     0.039 C 
ENDBRANCH   6   7
ENDBRANCH   5   6
ENDBRANCH   3   5
ENDBRANCH   1   2
BRANCH   1  11
ATOM     11  C   UNL     1      75.638  77.875  83.659  1.00  0.00     0.034 C 
BRANCH  11  12
ATOM     12  C   UNL     1      75.355  76.396  83.828  1.00  0.00    -0.077 C 
ATOM     13  C   UNL     1      74.070  75.977  83.879  1.00  0.00    -0.028 C 
ATOM     14  C   UNL     1      76.515  75.435  83.931  1.00  0.00     0.039 C 
BRANCH  13  15
ATOM     15  C   UNL     1      73.638  74.541  84.072  1.00  0.00     0.035 C 
BRANCH  15  16
ATOM     16  C   UNL     1      73.511  73.809  82.731  1.00  0.00     0.079 C 
BRANCH  16  17
ATOM     17  C   UNL     1      73.514  72.313  82.912  1.00  0.00     0.130 C 
ATOM     18  O   UNL     1      74.527  71.756  83.308  1.00  0.00    -0.300 OA
ATOM     19  C   UNL     1      72.298  71.491  82.607  1.00  0.00     0.087 C 
ENDBRANCH  16  17
ENDBRANCH  15  16
ENDBRANCH  13  15
ENDBRANCH  11  12
ENDBRANCH   1  11
TORSDOF 9
ENDMDL
MODEL 8
REMARK VINA RESULT:    -3.325      5.870      7.254
REMARK INTER + INTRA:          -5.974
REMARK INTER:                  -5.115
REMARK INTRA:                  -0.859
REMARK UNBOUND:                -0.899
REMARK SMILES CC(=O)CCC=C(C)CCC=C(C)CCC=C(C)C
REMARK SMILES IDX 10 1 11 2 12 3 13 4 14 5 15 6 16 7 18 8 17 9 19 10 9 11 7 12
REMARK SMILES IDX 6 13 8 14 5 15 4 16 2 17 3 18 1 19
REMARK H PARENT
REMARK Flexibility Score: inf
ROOT
ATOM      1  C   UNL     1      74.392  74.635  79.125  1.00  0.00     0.032 C 
ENDROOT
BRANCH   1   2
ATOM      2  C   UNL     1      75.070  75.013  80.422  1.00  0.00    -0.028 C 
ATOM      3  C   UNL     1      74.717  74.550  81.643  1.00  0.00    -0.077 C 
ATOM      4  C   UNL     1      73.614  73.537  81.829  1.00  0.00     0.039 C 
BRANCH   3   5
ATOM      5  C   UNL     1      75.448  75.070  82.862  1.00  0.00     0.034 C 
BRANCH   5   6
ATOM      6  C   UNL     1      75.250  76.583  83.008  1.00  0.00     0.032 C 
BRANCH   6   7
ATOM      7  C   UNL     1      76.577  77.283  83.156  1.00  0.00    -0.028 C 
ATOM      8  C   UNL     1      75.718  79.448  82.233  1.00  0.00     0.039 C 
ATOM      9  C   UNL     1      76.796  78.578  82.835  1.00  0.00    -0.080 C 
ATOM     10  C   UNL     1      78.168  79.156  83.076  1.00  0.00     0.039 C 
ENDBRANCH   6   7
ENDBRANCH   5   6
ENDBRANCH   3   5
ENDBRANCH   1   2
BRANCH   1  11
ATOM     11  C   UNL     1      75.407  74.096  78.110  1.00  0.00     0.034 C 
BRANCH  11  12
ATOM     12  C   UNL     1      75.005  74.423  76.687  1.00  0.00    -0.077 C 
ATOM     13  C   UNL     1      75.937  74.916  75.840  1.00  0.00    -0.028 C 
ATOM     14  C   UNL     1      73.577  74.188  76.256  1.00  0.00     0.039 C 
BRANCH  13  15
ATOM     15  C   UNL     1      75.676  75.314  74.405  1.00  0.00     0.035 C 
BRANCH  15  16
ATOM     16  C   UNL     1      75.692  74.096  73.474  1.00  0.00     0.079 C 
BRANCH  16  17
ATOM     17  C   UNL     1      74.434  74.010  72.648  1.00  0.00     0.130 C 
ATOM     18  O   UNL     1      74.238  73.027  71.950  1.00  0.00    -0.300 OA
ATOM     19  C   UNL     1      73.419  75.113  72.661  1.00  0.00     0.087 C 
ENDBRANCH  16  17
ENDBRANCH  15  16
ENDBRANCH  13  15
ENDBRANCH  11  12
ENDBRANCH   1  11
TORSDOF 9
ENDMDL
