MODEL 1
REMARK VINA RESULT:    -3.351      0.000      0.000
REMARK INTER + INTRA:          -4.057
REMARK INTER:                  -3.939
REMARK INTRA:                  -0.119
REMARK UNBOUND:                -0.119
REMARK SMILES O=C([O-])CCC(=O)[O-]
REMARK SMILES IDX 4 1 2 2 1 3 3 4 5 5 6 6 7 7 8 8
REMARK H PARENT
REMARK Flexibility Score: inf
ROOT
ATOM      1  C   UNL     1      46.708  -3.338  15.718  1.00  0.00     0.059 C 
ENDROOT
BRANCH   1   2
ATOM      2  C   UNL     1      47.977  -3.573  16.479  1.00  0.00     0.042 C 
ATOM      3  O   UNL     1      48.794  -2.631  16.657  1.00  0.00    -0.550 OA
ATOM      4  O   UNL     1      48.237  -4.823  17.028  1.00  0.00    -0.550 OA
ENDBRANCH   1   2
BRANCH   1   5
ATOM      5  C   UNL     1      46.648  -1.918  15.146  1.00  0.00     0.059 C 
BRANCH   5   6
ATOM      6  C   UNL     1      45.627  -1.080  15.854  1.00  0.00     0.042 C 
ATOM      7  O   UNL     1      44.715  -0.508  15.202  1.00  0.00    -0.550 OA
ATOM      8  O   UNL     1      45.707  -0.900  17.229  1.00  0.00    -0.550 OA
ENDBRANCH   5   6
ENDBRANCH   1   5
TORSDOF 3
ENDMDL
MODEL 2
REMARK VINA RESULT:    -3.324      1.658      3.938
REMARK INTER + INTRA:          -4.026
REMARK INTER:                  -3.980
REMARK INTRA:                  -0.046
REMARK UNBOUND:                -0.119
REMARK SMILES O=C([O-])CCC(=O)[O-]
REMARK SMILES IDX 4 1 2 2 1 3 3 4 5 5 6 6 7 7 8 8
REMARK H PARENT
REMARK Flexibility Score: inf
ROOT
ATOM      1  C   UNL     1      45.921  -3.104  14.884  1.00  0.00     0.059 C 
ENDROOT
BRANCH   1   2
ATOM      2  C   UNL     1      44.463  -2.759  14.842  1.00  0.00     0.042 C 
ATOM      3  O   UNL     1      44.005  -1.850  15.582  1.00  0.00    -0.550 OA
ATOM      4  O   UNL     1      43.619  -3.415  13.954  1.00  0.00    -0.550 OA
ENDBRANCH   1   2
BRANCH   1   5
ATOM      5  C   UNL     1      46.663  -2.289  15.948  1.00  0.00     0.059 C 
BRANCH   5   6
ATOM      6  C   UNL     1      47.797  -3.065  16.545  1.00  0.00     0.042 C 
ATOM      7  O   UNL     1      48.951  -2.565  16.589  1.00  0.00    -0.550 OA
ATOM      8  O   UNL     1      47.587  -4.354  17.016  1.00  0.00    -0.550 OA
ENDBRANCH   5   6
ENDBRANCH   1   5
TORSDOF 3
ENDMDL
MODEL 3
REMARK VINA RESULT:    -3.310      1.096      4.181
REMARK INTER + INTRA:          -4.010
REMARK INTER:                  -3.974
REMARK INTRA:                  -0.035
REMARK UNBOUND:                -0.119
REMARK SMILES O=C([O-])CCC(=O)[O-]
REMARK SMILES IDX 4 1 2 2 1 3 3 4 5 5 6 6 7 7 8 8
REMARK H PARENT
REMARK Flexibility Score: inf
ROOT
ATOM      1  C   UNL     1      46.307  -1.548  15.938  1.00  0.00     0.059 C 
ENDROOT
BRANCH   1   2
ATOM      2  C   UNL     1      44.950  -1.242  15.380  1.00  0.00     0.042 C 
ATOM      3  O   UNL     1      44.047  -2.119  15.390  1.00  0.00    -0.550 OA
ATOM      4  O   UNL     1      44.671   0.027  14.887  1.00  0.00    -0.550 OA
ENDBRANCH   1   2
BRANCH   1   5
ATOM      5  C   UNL     1      46.692  -3.013  15.712  1.00  0.00     0.059 C 
BRANCH   5   6
ATOM      6  C   UNL     1      47.901  -3.395  16.510  1.00  0.00     0.042 C 
ATOM      7  O   UNL     1      48.849  -2.579  16.654  1.00  0.00    -0.550 OA
ATOM      8  O   UNL     1      47.999  -4.667  17.061  1.00  0.00    -0.550 OA
ENDBRANCH   5   6
ENDBRANCH   1   5
TORSDOF 3
ENDMDL
MODEL 4
REMARK VINA RESULT:    -3.293      1.645      2.025
REMARK INTER + INTRA:          -3.989
REMARK INTER:                  -3.940
REMARK INTRA:                  -0.049
REMARK UNBOUND:                -0.119
REMARK SMILES O=C([O-])CCC(=O)[O-]
REMARK SMILES IDX 4 1 2 2 1 3 3 4 5 5 6 6 7 7 8 8
REMARK H PARENT
REMARK Flexibility Score: inf
ROOT
ATOM      1  C   UNL     1      46.724  -2.236  15.854  1.00  0.00     0.059 C 
ENDROOT
BRANCH   1   2
ATOM      2  C   UNL     1      47.812  -3.019  16.524  1.00  0.00     0.042 C 
ATOM      3  O   UNL     1      48.974  -2.543  16.612  1.00  0.00    -0.550 OA
ATOM      4  O   UNL     1      47.531  -4.256  17.090  1.00  0.00    -0.550 OA
ENDBRANCH   1   2
BRANCH   1   5
ATOM      5  C   UNL     1      45.953  -3.092  14.844  1.00  0.00     0.059 C 
BRANCH   5   6
ATOM      6  C   UNL     1      44.502  -2.721  14.800  1.00  0.00     0.042 C 
ATOM      7  O   UNL     1      44.068  -1.778  15.511  1.00  0.00    -0.550 OA
ATOM      8  O   UNL     1      43.623  -3.443  14.003  1.00  0.00    -0.550 OA
ENDBRANCH   5   6
ENDBRANCH   1   5
TORSDOF 3
ENDMDL
MODEL 5
REMARK VINA RESULT:    -3.237     11.140     12.437
REMARK INTER + INTRA:          -3.923
REMARK INTER:                  -3.780
REMARK INTRA:                  -0.143
REMARK UNBOUND:                -0.119
REMARK SMILES O=C([O-])CCC(=O)[O-]
REMARK SMILES IDX 4 1 2 2 1 3 3 4 5 5 6 6 7 7 8 8
REMARK H PARENT
REMARK Flexibility Score: inf
ROOT
ATOM      1  C   UNL     1      47.677   8.527  22.880  1.00  0.00     0.059 C 
ENDROOT
BRANCH   1   2
ATOM      2  C   UNL     1      47.705   7.247  22.102  1.00  0.00     0.042 C 
ATOM      3  O   UNL     1      48.211   6.210  22.605  1.00  0.00    -0.550 OA
ATOM      4  O   UNL     1      47.133   7.190  20.837  1.00  0.00    -0.550 OA
ENDBRANCH   1   2
BRANCH   1   5
ATOM      5  C   UNL     1      46.396   9.323  22.610  1.00  0.00     0.059 C 
BRANCH   5   6
ATOM      6  C   UNL     1      45.219   8.734  23.326  1.00  0.00     0.042 C 
ATOM      7  O   UNL     1      45.277   8.509  24.563  1.00  0.00    -0.550 OA
ATOM      8  O   UNL     1      44.072   8.396  22.619  1.00  0.00    -0.550 OA
ENDBRANCH   5   6
ENDBRANCH   1   5
TORSDOF 3
ENDMDL
MODEL 6
REMARK VINA RESULT:    -3.216     11.180     12.849
REMARK INTER + INTRA:          -3.899
REMARK INTER:                  -3.755
REMARK INTRA:                  -0.144
REMARK UNBOUND:                -0.119
REMARK SMILES O=C([O-])CCC(=O)[O-]
REMARK SMILES IDX 4 1 2 2 1 3 3 4 5 5 6 6 7 7 8 8
REMARK H PARENT
REMARK Flexibility Score: inf
ROOT
ATOM      1  C   UNL     1      46.347   9.336  22.619  1.00  0.00     0.059 C 
ENDROOT
BRANCH   1   2
ATOM      2  C   UNL     1      45.173   8.780  23.365  1.00  0.00     0.042 C 
ATOM      3  O   UNL     1      44.129   8.444  22.746  1.00  0.00    -0.550 OA
ATOM      4  O   UNL     1      45.247   8.593  24.740  1.00  0.00    -0.550 OA
ENDBRANCH   1   2
BRANCH   1   5
ATOM      5  C   UNL     1      47.620   8.525  22.885  1.00  0.00     0.059 C 
BRANCH   5   6
ATOM      6  C   UNL     1      47.652   7.265  22.074  1.00  0.00     0.042 C 
ATOM      7  O   UNL     1      48.209   6.234  22.531  1.00  0.00    -0.550 OA
ATOM      8  O   UNL     1      47.101   7.244  20.800  1.00  0.00    -0.550 OA
ENDBRANCH   5   6
ENDBRANCH   1   5
TORSDOF 3
ENDMDL
MODEL 7
REMARK VINA RESULT:    -3.189      1.647      2.358
REMARK INTER + INTRA:          -3.867
REMARK INTER:                  -3.750
REMARK INTRA:                  -0.117
REMARK UNBOUND:                -0.119
REMARK SMILES O=C([O-])CCC(=O)[O-]
REMARK SMILES IDX 4 1 2 2 1 3 3 4 5 5 6 6 7 7 8 8
REMARK H PARENT
REMARK Flexibility Score: inf
ROOT
ATOM      1  C   UNL     1      46.258  -1.246  16.131  1.00  0.00     0.059 C 
ENDROOT
BRANCH   1   2
ATOM      2  C   UNL     1      46.803  -2.620  15.886  1.00  0.00     0.042 C 
ATOM      3  O   UNL     1      46.071  -3.513  15.385  1.00  0.00    -0.550 OA
ATOM      4  O   UNL     1      48.133  -2.901  16.173  1.00  0.00    -0.550 OA
ENDBRANCH   1   2
BRANCH   1   5
ATOM      5  C   UNL     1      46.108  -0.457  14.826  1.00  0.00     0.059 C 
BRANCH   5   6
ATOM      6  C   UNL     1      44.681  -0.078  14.571  1.00  0.00     0.042 C 
ATOM      7  O   UNL     1      43.773  -0.947  14.639  1.00  0.00    -0.550 OA
ATOM      8  O   UNL     1      44.360   1.227  14.220  1.00  0.00    -0.550 OA
ENDBRANCH   5   6
ENDBRANCH   1   5
TORSDOF 3
ENDMDL
MODEL 8
REMARK VINA RESULT:    -3.177      9.858     11.379
REMARK INTER + INTRA:          -3.852
REMARK INTER:                  -3.809
REMARK INTRA:                  -0.043
REMARK UNBOUND:                -0.119
REMARK SMILES O=C([O-])CCC(=O)[O-]
REMARK SMILES IDX 4 1 2 2 1 3 3 4 5 5 6 6 7 7 8 8
REMARK H PARENT
REMARK Flexibility Score: inf
ROOT
ATOM      1  C   UNL     1      46.770   6.918  20.172  1.00  0.00     0.059 C 
ENDROOT
BRANCH   1   2
ATOM      2  C   UNL     1      46.436   7.434  18.805  1.00  0.00     0.042 C 
ATOM      3  O   UNL     1      46.265   8.667  18.616  1.00  0.00    -0.550 OA
ATOM      4  O   UNL     1      46.354   6.555  17.732  1.00  0.00    -0.550 OA
ENDBRANCH   1   2
BRANCH   1   5
ATOM      5  C   UNL     1      46.581   7.997  21.243  1.00  0.00     0.059 C 
BRANCH   5   6
ATOM      6  C   UNL     1      47.535   7.815  22.384  1.00  0.00     0.042 C 
ATOM      7  O   UNL     1      47.810   8.783  23.140  1.00  0.00    -0.550 OA
ATOM      8  O   UNL     1      48.151   6.587  22.587  1.00  0.00    -0.550 OA
ENDBRANCH   5   6
ENDBRANCH   1   5
TORSDOF 3
ENDMDL
MODEL 9
REMARK VINA RESULT:    -3.154     10.363     11.162
REMARK INTER + INTRA:          -3.825
REMARK INTER:                  -3.794
REMARK INTRA:                  -0.031
REMARK UNBOUND:                -0.119
REMARK SMILES O=C([O-])CCC(=O)[O-]
REMARK SMILES IDX 4 1 2 2 1 3 3 4 5 5 6 6 7 7 8 8
REMARK H PARENT
REMARK Flexibility Score: inf
ROOT
ATOM      1  C   UNL     1      46.683   7.828  21.317  1.00  0.00     0.059 C 
ENDROOT
BRANCH   1   2
ATOM      2  C   UNL     1      47.781   7.494  22.281  1.00  0.00     0.042 C 
ATOM      3  O   UNL     1      48.161   6.302  22.422  1.00  0.00    -0.550 OA
ATOM      4  O   UNL     1      48.414   8.506  22.992  1.00  0.00    -0.550 OA
ENDBRANCH   1   2
BRANCH   1   5
ATOM      5  C   UNL     1      46.788   6.998  20.034  1.00  0.00     0.059 C 
BRANCH   5   6
ATOM      6  C   UNL     1      46.199   7.720  18.860  1.00  0.00     0.042 C 
ATOM      7  O   UNL     1      45.071   8.270  18.957  1.00  0.00    -0.550 OA
ATOM      8  O   UNL     1      46.878   7.749  17.649  1.00  0.00    -0.550 OA
ENDBRANCH   5   6
ENDBRANCH   1   5
TORSDOF 3
ENDMDL
