MODEL 1
REMARK VINA RESULT:    -3.220      0.000      0.000
REMARK INTER + INTRA:          -4.056
REMARK INTER:                  -3.973
REMARK INTRA:                  -0.084
REMARK UNBOUND:                -0.084
REMARK SMILES CCCCCC(=O)[O-]
REMARK SMILES IDX 4 1 5 2 6 3 7 4 8 5 3 6 2 7 1 8
REMARK H PARENT
REMARK Flexibility Score: inf
ROOT
ATOM      1  C   UNL     1      -7.161  34.167 -16.855  1.00  0.00     0.006 C 
ENDROOT
BRANCH   1   2
ATOM      2  C   UNL     1      -8.005  33.647 -15.684  1.00  0.00     0.053 C 
BRANCH   2   3
ATOM      3  C   UNL     1      -8.226  32.168 -15.773  1.00  0.00     0.041 C 
ATOM      4  O   UNL     1      -8.497  31.504 -14.739  1.00  0.00    -0.550 OA
ATOM      5  O   UNL     1      -8.104  31.518 -16.994  1.00  0.00    -0.550 OA
ENDBRANCH   2   3
ENDBRANCH   1   2
BRANCH   1   6
ATOM      6  C   UNL     1      -5.888  34.888 -16.379  1.00  0.00     0.000 C 
BRANCH   6   7
ATOM      7  C   UNL     1      -5.875  36.376 -16.762  1.00  0.00    -0.003 C 
ATOM      8  C   UNL     1      -6.054  36.603 -18.262  1.00  0.00     0.004 C 
ENDBRANCH   6   7
ENDBRANCH   1   6
TORSDOF 4
ENDMDL
MODEL 2
REMARK VINA RESULT:    -2.437     12.874     13.828
REMARK INTER + INTRA:          -3.090
REMARK INTER:                  -3.014
REMARK INTRA:                  -0.077
REMARK UNBOUND:                -0.084
REMARK SMILES CCCCCC(=O)[O-]
REMARK SMILES IDX 4 1 5 2 6 3 7 4 8 5 3 6 2 7 1 8
REMARK H PARENT
REMARK Flexibility Score: inf
ROOT
ATOM      1  C   UNL     1     -15.752  24.160 -20.317  1.00  0.00     0.006 C 
ENDROOT
BRANCH   1   2
ATOM      2  C   UNL     1     -15.245  22.890 -21.014  1.00  0.00     0.053 C 
BRANCH   2   3
ATOM      3  C   UNL     1     -14.180  23.198 -22.023  1.00  0.00     0.041 C 
ATOM      4  O   UNL     1     -14.484  23.725 -23.125  1.00  0.00    -0.550 OA
ATOM      5  O   UNL     1     -12.856  22.875 -21.756  1.00  0.00    -0.550 OA
ENDBRANCH   2   3
ENDBRANCH   1   2
BRANCH   1   6
ATOM      6  C   UNL     1     -16.370  23.859 -18.941  1.00  0.00     0.000 C 
BRANCH   6   7
ATOM      7  C   UNL     1     -16.754  25.135 -18.176  1.00  0.00    -0.003 C 
ATOM      8  C   UNL     1     -16.804  26.371 -19.073  1.00  0.00     0.004 C 
ENDBRANCH   6   7
ENDBRANCH   1   6
TORSDOF 4
ENDMDL
MODEL 3
REMARK VINA RESULT:    -2.205      2.883      4.547
REMARK INTER + INTRA:          -2.804
REMARK INTER:                  -2.679
REMARK INTRA:                  -0.125
REMARK UNBOUND:                -0.084
REMARK SMILES CCCCCC(=O)[O-]
REMARK SMILES IDX 4 1 5 2 6 3 7 4 8 5 3 6 2 7 1 8
REMARK H PARENT
REMARK Flexibility Score: inf
ROOT
ATOM      1  C   UNL     1      -7.284  34.161 -15.875  1.00  0.00     0.006 C 
ENDROOT
BRANCH   1   2
ATOM      2  C   UNL     1      -5.876  34.598 -16.298  1.00  0.00     0.053 C 
BRANCH   2   3
ATOM      3  C   UNL     1      -5.912  35.806 -17.185  1.00  0.00     0.041 C 
ATOM      4  O   UNL     1      -5.875  36.960 -16.685  1.00  0.00    -0.550 OA
ATOM      5  O   UNL     1      -6.017  35.655 -18.562  1.00  0.00    -0.550 OA
ENDBRANCH   2   3
ENDBRANCH   1   2
BRANCH   1   6
ATOM      6  C   UNL     1      -7.930  33.211 -16.899  1.00  0.00     0.000 C 
BRANCH   6   7
ATOM      7  C   UNL     1      -8.424  31.904 -16.261  1.00  0.00    -0.003 C 
ATOM      8  C   UNL     1      -8.389  31.940 -14.734  1.00  0.00     0.004 C 
ENDBRANCH   6   7
ENDBRANCH   1   6
TORSDOF 4
ENDMDL
MODEL 4
REMARK VINA RESULT:    -1.896     13.074     13.661
REMARK INTER + INTRA:          -2.422
REMARK INTER:                  -2.366
REMARK INTRA:                  -0.056
REMARK UNBOUND:                -0.084
REMARK SMILES CCCCCC(=O)[O-]
REMARK SMILES IDX 4 1 5 2 6 3 7 4 8 5 3 6 2 7 1 8
REMARK H PARENT
REMARK Flexibility Score: inf
ROOT
ATOM      1  C   UNL     1     -15.642  24.218 -20.348  1.00  0.00     0.006 C 
ENDROOT
BRANCH   1   2
ATOM      2  C   UNL     1     -16.357  24.031 -19.003  1.00  0.00     0.053 C 
BRANCH   2   3
ATOM      3  C   UNL     1     -16.756  25.343 -18.400  1.00  0.00     0.041 C 
ATOM      4  O   UNL     1     -17.105  25.406 -17.192  1.00  0.00    -0.550 OA
ATOM      5  O   UNL     1     -16.771  26.492 -19.180  1.00  0.00    -0.550 OA
ENDBRANCH   2   3
ENDBRANCH   1   2
BRANCH   1   6
ATOM      6  C   UNL     1     -15.295  22.875 -21.013  1.00  0.00     0.000 C 
BRANCH   6   7
ATOM      7  C   UNL     1     -14.485  23.049 -22.306  1.00  0.00    -0.003 C 
ATOM      8  C   UNL     1     -12.982  22.875 -22.092  1.00  0.00     0.004 C 
ENDBRANCH   6   7
ENDBRANCH   1   6
TORSDOF 4
ENDMDL
