MODEL 1
REMARK VINA RESULT:    -4.968      0.000      0.000
REMARK INTER + INTRA:         -11.488
REMARK INTER:                  -9.035
REMARK INTRA:                  -2.453
REMARK UNBOUND:                -2.453
REMARK SMILES CCCCCC=CCC=CCCCCCCCC(=O)[O-]
REMARK SMILES IDX 11 1 12 2 13 3 14 4 15 5 16 6 17 7 18 8 19 9 20 10 10 11
REMARK SMILES IDX 9 12 8 13 7 14 6 15 5 16 4 17 3 18 2 19 1 20
REMARK H PARENT
REMARK Flexibility Score: inf
ROOT
ATOM      1  C   UNL     1     -20.194 -23.772  14.009  1.00  0.00     0.027 C 
ENDROOT
BRANCH   1   2
ATOM      2  C   UNL     1     -19.375 -23.382  12.769  1.00  0.00     0.004 C 
BRANCH   2   3
ATOM      3  C   UNL     1     -18.764 -24.605  12.070  1.00  0.00     0.000 C 
BRANCH   3   4
ATOM      4  C   UNL     1     -17.388 -24.946  12.661  1.00  0.00     0.000 C 
BRANCH   4   5
ATOM      5  C   UNL     1     -17.165 -26.460  12.828  1.00  0.00     0.000 C 
BRANCH   5   6
ATOM      6  C   UNL     1     -17.386 -26.999  14.256  1.00  0.00     0.006 C 
BRANCH   6   7
ATOM      7  C   UNL     1     -17.134 -25.972  15.372  1.00  0.00     0.053 C 
BRANCH   7   8
ATOM      8  C   UNL     1     -15.882 -26.272  16.138  1.00  0.00     0.041 C 
ATOM      9  O   UNL     1     -15.118 -25.337  16.494  1.00  0.00    -0.550 OA
ATOM     10  O   UNL     1     -15.577 -27.581  16.488  1.00  0.00    -0.550 OA
ENDBRANCH   7   8
ENDBRANCH   6   7
ENDBRANCH   5   6
ENDBRANCH   4   5
ENDBRANCH   3   4
ENDBRANCH   2   3
ENDBRANCH   1   2
BRANCH   1  11
ATOM     11  C   UNL     1     -20.656 -25.203  13.959  1.00  0.00    -0.031 C 
ATOM     12  C   UNL     1     -20.839 -25.923  15.076  1.00  0.00    -0.027 C 
BRANCH  12  13
ATOM     13  C   UNL     1     -21.316 -27.346  15.021  1.00  0.00     0.054 C 
BRANCH  13  14
ATOM     14  C   UNL     1     -20.654 -28.182  16.088  1.00  0.00    -0.027 C 
ATOM     15  C   UNL     1     -21.323 -28.770  17.096  1.00  0.00    -0.031 C 
BRANCH  15  16
ATOM     16  C   UNL     1     -22.821 -28.710  17.283  1.00  0.00     0.027 C 
BRANCH  16  17
ATOM     17  C   UNL     1     -23.204 -27.776  18.438  1.00  0.00     0.004 C 
BRANCH  17  18
ATOM     18  C   UNL     1     -23.419 -26.331  17.967  1.00  0.00     0.000 C 
BRANCH  18  19
ATOM     19  C   UNL     1     -24.498 -26.261  16.880  1.00  0.00    -0.003 C 
ATOM     20  C   UNL     1     -24.325 -25.019  16.013  1.00  0.00     0.004 C 
ENDBRANCH  18  19
ENDBRANCH  17  18
ENDBRANCH  16  17
ENDBRANCH  15  16
ENDBRANCH  13  14
ENDBRANCH  12  13
ENDBRANCH   1  11
TORSDOF 14
ENDMDL
MODEL 2
REMARK VINA RESULT:    -4.939      3.904      6.952
REMARK INTER + INTRA:         -11.434
REMARK INTER:                  -9.307
REMARK INTRA:                  -2.127
REMARK UNBOUND:                -2.453
REMARK SMILES CCCCCC=CCC=CCCCCCCCC(=O)[O-]
REMARK SMILES IDX 11 1 12 2 13 3 14 4 15 5 16 6 17 7 18 8 19 9 20 10 10 11
REMARK SMILES IDX 9 12 8 13 7 14 6 15 5 16 4 17 3 18 2 19 1 20
REMARK H PARENT
REMARK Flexibility Score: inf
ROOT
ATOM      1  C   UNL     1     -19.269 -25.494  15.365  1.00  0.00     0.027 C 
ENDROOT
BRANCH   1   2
ATOM      2  C   UNL     1     -17.758 -25.767  15.312  1.00  0.00     0.004 C 
BRANCH   2   3
ATOM      3  C   UNL     1     -17.353 -26.540  14.049  1.00  0.00     0.000 C 
BRANCH   3   4
ATOM      4  C   UNL     1     -16.406 -25.705  13.174  1.00  0.00     0.000 C 
BRANCH   4   5
ATOM      5  C   UNL     1     -17.116 -25.054  11.973  1.00  0.00     0.000 C 
BRANCH   5   6
ATOM      6  C   UNL     1     -17.952 -26.019  11.108  1.00  0.00     0.006 C 
BRANCH   6   7
ATOM      7  C   UNL     1     -18.203 -25.532   9.671  1.00  0.00     0.053 C 
BRANCH   7   8
ATOM      8  C   UNL     1     -17.127 -25.981   8.730  1.00  0.00     0.041 C 
ATOM      9  O   UNL     1     -17.056 -25.494   7.571  1.00  0.00    -0.550 OA
ATOM     10  O   UNL     1     -16.182 -26.910   9.146  1.00  0.00    -0.550 OA
ENDBRANCH   7   8
ENDBRANCH   6   7
ENDBRANCH   5   6
ENDBRANCH   4   5
ENDBRANCH   3   4
ENDBRANCH   2   3
ENDBRANCH   1   2
BRANCH   1  11
ATOM     11  C   UNL     1     -19.655 -24.270  14.577  1.00  0.00    -0.031 C 
ATOM     12  C   UNL     1     -20.336 -24.361  13.426  1.00  0.00    -0.027 C 
BRANCH  12  13
ATOM     13  C   UNL     1     -20.732 -23.135  12.652  1.00  0.00     0.054 C 
BRANCH  13  14
ATOM     14  C   UNL     1     -19.575 -22.175  12.527  1.00  0.00    -0.027 C 
ATOM     15  C   UNL     1     -19.083 -21.751  11.349  1.00  0.00    -0.031 C 
BRANCH  15  16
ATOM     16  C   UNL     1     -19.633 -22.142   9.997  1.00  0.00     0.027 C 
BRANCH  16  17
ATOM     17  C   UNL     1     -20.416 -20.990   9.356  1.00  0.00     0.004 C 
BRANCH  17  18
ATOM     18  C   UNL     1     -21.312 -21.468   8.204  1.00  0.00     0.000 C 
BRANCH  18  19
ATOM     19  C   UNL     1     -22.406 -22.414   8.714  1.00  0.00    -0.003 C 
ATOM     20  C   UNL     1     -23.756 -22.083   8.086  1.00  0.00     0.004 C 
ENDBRANCH  18  19
ENDBRANCH  17  18
ENDBRANCH  16  17
ENDBRANCH  15  16
ENDBRANCH  13  14
ENDBRANCH  12  13
ENDBRANCH   1  11
TORSDOF 14
ENDMDL
MODEL 3
REMARK VINA RESULT:    -4.916      3.712      7.345
REMARK INTER + INTRA:         -11.392
REMARK INTER:                  -8.502
REMARK INTRA:                  -2.890
REMARK UNBOUND:                -2.453
REMARK SMILES CCCCCC=CCC=CCCCCCCCC(=O)[O-]
REMARK SMILES IDX 11 1 12 2 13 3 14 4 15 5 16 6 17 7 18 8 19 9 20 10 10 11
REMARK SMILES IDX 9 12 8 13 7 14 6 15 5 16 4 17 3 18 2 19 1 20
REMARK H PARENT
REMARK Flexibility Score: inf
ROOT
ATOM      1  C   UNL     1     -20.937 -28.816  14.897  1.00  0.00     0.027 C 
ENDROOT
BRANCH   1   2
ATOM      2  C   UNL     1     -22.099 -29.373  15.734  1.00  0.00     0.004 C 
BRANCH   2   3
ATOM      3  C   UNL     1     -21.983 -28.986  17.216  1.00  0.00     0.000 C 
BRANCH   3   4
ATOM      4  C   UNL     1     -23.189 -28.145  17.659  1.00  0.00     0.000 C 
BRANCH   4   5
ATOM      5  C   UNL     1     -22.783 -26.804  18.297  1.00  0.00     0.000 C 
BRANCH   5   6
ATOM      6  C   UNL     1     -23.405 -25.554  17.642  1.00  0.00     0.006 C 
BRANCH   6   7
ATOM      7  C   UNL     1     -23.980 -25.790  16.236  1.00  0.00     0.053 C 
BRANCH   7   8
ATOM      8  C   UNL     1     -25.449 -25.503  16.174  1.00  0.00     0.041 C 
ATOM      9  O   UNL     1     -26.227 -25.998  17.031  1.00  0.00    -0.550 OA
ATOM     10  O   UNL     1     -25.954 -24.661  15.191  1.00  0.00    -0.550 OA
ENDBRANCH   7   8
ENDBRANCH   6   7
ENDBRANCH   5   6
ENDBRANCH   4   5
ENDBRANCH   3   4
ENDBRANCH   2   3
ENDBRANCH   1   2
BRANCH   1  11
ATOM     11  C   UNL     1     -20.996 -27.318  14.766  1.00  0.00    -0.031 C 
ATOM     12  C   UNL     1     -20.165 -26.519  15.451  1.00  0.00    -0.027 C 
BRANCH  12  13
ATOM     13  C   UNL     1     -20.217 -25.025  15.304  1.00  0.00     0.054 C 
BRANCH  13  14
ATOM     14  C   UNL     1     -21.187 -24.620  14.221  1.00  0.00    -0.027 C 
ATOM     15  C   UNL     1     -20.858 -23.827  13.186  1.00  0.00    -0.031 C 
BRANCH  15  16
ATOM     16  C   UNL     1     -19.479 -23.263  12.939  1.00  0.00     0.027 C 
BRANCH  16  17
ATOM     17  C   UNL     1     -18.702 -24.106  11.920  1.00  0.00     0.004 C 
BRANCH  17  18
ATOM     18  C   UNL     1     -17.601 -24.947  12.582  1.00  0.00     0.000 C 
BRANCH  18  19
ATOM     19  C   UNL     1     -17.954 -26.439  12.548  1.00  0.00    -0.003 C 
ATOM     20  C   UNL     1     -19.079 -26.715  11.556  1.00  0.00     0.004 C 
ENDBRANCH  18  19
ENDBRANCH  17  18
ENDBRANCH  16  17
ENDBRANCH  15  16
ENDBRANCH  13  14
ENDBRANCH  12  13
ENDBRANCH   1  11
TORSDOF 14
ENDMDL
MODEL 4
REMARK VINA RESULT:    -4.895      3.400      6.579
REMARK INTER + INTRA:         -11.355
REMARK INTER:                  -9.336
REMARK INTRA:                  -2.019
REMARK UNBOUND:                -2.453
REMARK SMILES CCCCCC=CCC=CCCCCCCCC(=O)[O-]
REMARK SMILES IDX 11 1 12 2 13 3 14 4 15 5 16 6 17 7 18 8 19 9 20 10 10 11
REMARK SMILES IDX 9 12 8 13 7 14 6 15 5 16 4 17 3 18 2 19 1 20
REMARK H PARENT
REMARK Flexibility Score: inf
ROOT
ATOM      1  C   UNL     1     -21.704 -30.815  13.875  1.00  0.00     0.027 C 
ENDROOT
BRANCH   1   2
ATOM      2  C   UNL     1     -22.397 -31.169  15.200  1.00  0.00     0.004 C 
BRANCH   2   3
ATOM      3  C   UNL     1     -21.686 -30.546  16.410  1.00  0.00     0.000 C 
BRANCH   3   4
ATOM      4  C   UNL     1     -22.521 -29.405  17.010  1.00  0.00     0.000 C 
BRANCH   4   5
ATOM      5  C   UNL     1     -21.801 -28.045  16.962  1.00  0.00     0.000 C 
BRANCH   5   6
ATOM      6  C   UNL     1     -22.373 -27.040  15.942  1.00  0.00     0.006 C 
BRANCH   6   7
ATOM      7  C   UNL     1     -22.830 -25.704  16.550  1.00  0.00     0.053 C 
BRANCH   7   8
ATOM      8  C   UNL     1     -23.792 -25.903  17.681  1.00  0.00     0.041 C 
ATOM      9  O   UNL     1     -23.508 -25.486  18.834  1.00  0.00    -0.550 OA
ATOM     10  O   UNL     1     -25.017 -26.517  17.453  1.00  0.00    -0.550 OA
ENDBRANCH   7   8
ENDBRANCH   6   7
ENDBRANCH   5   6
ENDBRANCH   4   5
ENDBRANCH   3   4
ENDBRANCH   2   3
ENDBRANCH   1   2
BRANCH   1  11
ATOM     11  C   UNL     1     -20.916 -29.536  13.968  1.00  0.00    -0.031 C 
ATOM     12  C   UNL     1     -20.176 -29.090  12.943  1.00  0.00    -0.027 C 
BRANCH  12  13
ATOM     13  C   UNL     1     -19.404 -27.804  13.036  1.00  0.00     0.054 C 
BRANCH  13  14
ATOM     14  C   UNL     1     -18.831 -27.615  14.419  1.00  0.00    -0.027 C 
ATOM     15  C   UNL     1     -18.473 -26.418  14.920  1.00  0.00    -0.031 C 
BRANCH  15  16
ATOM     16  C   UNL     1     -18.625 -25.102  14.193  1.00  0.00     0.027 C 
BRANCH  16  17
ATOM     17  C   UNL     1     -19.808 -24.294  14.739  1.00  0.00     0.004 C 
BRANCH  17  18
ATOM     18  C   UNL     1     -20.641 -23.657  13.618  1.00  0.00     0.000 C 
BRANCH  18  19
ATOM     19  C   UNL     1     -19.834 -23.564  12.318  1.00  0.00    -0.003 C 
ATOM     20  C   UNL     1     -19.542 -22.112  11.954  1.00  0.00     0.004 C 
ENDBRANCH  18  19
ENDBRANCH  17  18
ENDBRANCH  16  17
ENDBRANCH  15  16
ENDBRANCH  13  14
ENDBRANCH  12  13
ENDBRANCH   1  11
TORSDOF 14
ENDMDL
MODEL 5
REMARK VINA RESULT:    -4.881      6.741     10.321
REMARK INTER + INTRA:         -11.329
REMARK INTER:                  -9.894
REMARK INTRA:                  -1.436
REMARK UNBOUND:                -2.453
REMARK SMILES CCCCCC=CCC=CCCCCCCCC(=O)[O-]
REMARK SMILES IDX 11 1 12 2 13 3 14 4 15 5 16 6 17 7 18 8 19 9 20 10 10 11
REMARK SMILES IDX 9 12 8 13 7 14 6 15 5 16 4 17 3 18 2 19 1 20
REMARK H PARENT
REMARK Flexibility Score: inf
ROOT
ATOM      1  C   UNL     1     -28.961 -24.569  13.393  1.00  0.00     0.027 C 
ENDROOT
BRANCH   1   2
ATOM      2  C   UNL     1     -30.454 -24.459  13.739  1.00  0.00     0.004 C 
BRANCH   2   3
ATOM      3  C   UNL     1     -30.718 -23.427  14.845  1.00  0.00     0.000 C 
BRANCH   3   4
ATOM      4  C   UNL     1     -31.219 -24.110  16.126  1.00  0.00     0.000 C 
BRANCH   4   5
ATOM      5  C   UNL     1     -30.353 -23.787  17.357  1.00  0.00     0.000 C 
BRANCH   5   6
ATOM      6  C   UNL     1     -29.348 -22.633  17.163  1.00  0.00     0.006 C 
BRANCH   6   7
ATOM      7  C   UNL     1     -29.508 -21.473  18.160  1.00  0.00     0.053 C 
BRANCH   7   8
ATOM      8  C   UNL     1     -29.977 -20.219  17.490  1.00  0.00     0.041 C 
ATOM      9  O   UNL     1     -30.747 -20.282  16.496  1.00  0.00    -0.550 OA
ATOM     10  O   UNL     1     -29.593 -18.979  17.986  1.00  0.00    -0.550 OA
ENDBRANCH   7   8
ENDBRANCH   6   7
ENDBRANCH   5   6
ENDBRANCH   4   5
ENDBRANCH   3   4
ENDBRANCH   2   3
ENDBRANCH   1   2
BRANCH   1  11
ATOM     11  C   UNL     1     -28.176 -25.264  14.473  1.00  0.00    -0.031 C 
ATOM     12  C   UNL     1     -27.129 -24.677  15.070  1.00  0.00    -0.027 C 
BRANCH  12  13
ATOM     13  C   UNL     1     -26.359 -25.370  16.158  1.00  0.00     0.054 C 
BRANCH  13  14
ATOM     14  C   UNL     1     -24.887 -25.049  16.070  1.00  0.00    -0.027 C 
ATOM     15  C   UNL     1     -23.951 -25.625  16.845  1.00  0.00    -0.031 C 
BRANCH  15  16
ATOM     16  C   UNL     1     -24.229 -26.691  17.880  1.00  0.00     0.027 C 
BRANCH  16  17
ATOM     17  C   UNL     1     -23.041 -27.649  18.030  1.00  0.00     0.004 C 
BRANCH  17  18
ATOM     18  C   UNL     1     -22.651 -28.302  16.696  1.00  0.00     0.000 C 
BRANCH  18  19
ATOM     19  C   UNL     1     -22.168 -29.741  16.909  1.00  0.00    -0.003 C 
ATOM     20  C   UNL     1     -21.801 -30.400  15.583  1.00  0.00     0.004 C 
ENDBRANCH  18  19
ENDBRANCH  17  18
ENDBRANCH  16  17
ENDBRANCH  15  16
ENDBRANCH  13  14
ENDBRANCH  12  13
ENDBRANCH   1  11
TORSDOF 14
ENDMDL
MODEL 6
REMARK VINA RESULT:    -4.855      3.165      4.618
REMARK INTER + INTRA:         -11.282
REMARK INTER:                  -9.423
REMARK INTRA:                  -1.860
REMARK UNBOUND:                -2.453
REMARK SMILES CCCCCC=CCC=CCCCCCCCC(=O)[O-]
REMARK SMILES IDX 11 1 12 2 13 3 14 4 15 5 16 6 17 7 18 8 19 9 20 10 10 11
REMARK SMILES IDX 9 12 8 13 7 14 6 15 5 16 4 17 3 18 2 19 1 20
REMARK H PARENT
REMARK Flexibility Score: inf
ROOT
ATOM      1  C   UNL     1     -18.796 -27.180  15.120  1.00  0.00     0.027 C 
ENDROOT
BRANCH   1   2
ATOM      2  C   UNL     1     -19.202 -25.776  15.593  1.00  0.00     0.004 C 
BRANCH   2   3
ATOM      3  C   UNL     1     -19.106 -24.735  14.467  1.00  0.00     0.000 C 
BRANCH   3   4
ATOM      4  C   UNL     1     -20.502 -24.301  13.999  1.00  0.00     0.000 C 
BRANCH   4   5
ATOM      5  C   UNL     1     -20.472 -23.052  13.099  1.00  0.00     0.000 C 
BRANCH   5   6
ATOM      6  C   UNL     1     -19.189 -22.883  12.261  1.00  0.00     0.006 C 
BRANCH   6   7
ATOM      7  C   UNL     1     -19.417 -22.309  10.853  1.00  0.00     0.053 C 
BRANCH   7   8
ATOM      8  C   UNL     1     -19.480 -20.812  10.861  1.00  0.00     0.041 C 
ATOM      9  O   UNL     1     -18.935 -20.161  11.790  1.00  0.00    -0.550 OA
ATOM     10  O   UNL     1     -20.112 -20.136   9.824  1.00  0.00    -0.550 OA
ENDBRANCH   7   8
ENDBRANCH   6   7
ENDBRANCH   5   6
ENDBRANCH   4   5
ENDBRANCH   3   4
ENDBRANCH   2   3
ENDBRANCH   1   2
BRANCH   1  11
ATOM     11  C   UNL     1     -19.704 -28.250  15.664  1.00  0.00    -0.031 C 
ATOM     12  C   UNL     1     -20.787 -28.664  14.990  1.00  0.00    -0.027 C 
BRANCH  12  13
ATOM     13  C   UNL     1     -21.680 -29.743  15.530  1.00  0.00     0.054 C 
BRANCH  13  14
ATOM     14  C   UNL     1     -21.493 -29.909  17.018  1.00  0.00    -0.027 C 
ATOM     15  C   UNL     1     -22.170 -29.197  17.937  1.00  0.00    -0.031 C 
BRANCH  15  16
ATOM     16  C   UNL     1     -23.228 -28.168  17.619  1.00  0.00     0.027 C 
BRANCH  16  17
ATOM     17  C   UNL     1     -22.824 -26.775  18.118  1.00  0.00     0.004 C 
BRANCH  17  18
ATOM     18  C   UNL     1     -22.376 -25.856  16.973  1.00  0.00     0.000 C 
BRANCH  18  19
ATOM     19  C   UNL     1     -23.314 -25.983  15.767  1.00  0.00    -0.003 C 
ATOM     20  C   UNL     1     -24.615 -25.221  16.000  1.00  0.00     0.004 C 
ENDBRANCH  18  19
ENDBRANCH  17  18
ENDBRANCH  16  17
ENDBRANCH  15  16
ENDBRANCH  13  14
ENDBRANCH  12  13
ENDBRANCH   1  11
TORSDOF 14
ENDMDL
MODEL 7
REMARK VINA RESULT:    -4.839     11.429     13.171
REMARK INTER + INTRA:         -11.253
REMARK INTER:                  -9.161
REMARK INTRA:                  -2.092
REMARK UNBOUND:                -2.453
REMARK SMILES CCCCCC=CCC=CCCCCCCCC(=O)[O-]
REMARK SMILES IDX 11 1 12 2 13 3 14 4 15 5 16 6 17 7 18 8 19 9 20 10 10 11
REMARK SMILES IDX 9 12 8 13 7 14 6 15 5 16 4 17 3 18 2 19 1 20
REMARK H PARENT
REMARK Flexibility Score: inf
ROOT
ATOM      1  C   UNL     1     -21.835 -29.042   2.234  1.00  0.00     0.027 C 
ENDROOT
BRANCH   1   2
ATOM      2  C   UNL     1     -20.334 -28.761   2.398  1.00  0.00     0.004 C 
BRANCH   2   3
ATOM      3  C   UNL     1     -20.005 -27.267   2.261  1.00  0.00     0.000 C 
BRANCH   3   4
ATOM      4  C   UNL     1     -20.099 -26.816   0.796  1.00  0.00     0.000 C 
BRANCH   4   5
ATOM      5  C   UNL     1     -20.634 -25.380   0.643  1.00  0.00     0.000 C 
BRANCH   5   6
ATOM      6  C   UNL     1     -22.167 -25.241   0.738  1.00  0.00     0.006 C 
BRANCH   6   7
ATOM      7  C   UNL     1     -22.676 -24.704   2.086  1.00  0.00     0.053 C 
BRANCH   7   8
ATOM      8  C   UNL     1     -22.925 -23.227   2.044  1.00  0.00     0.041 C 
ATOM      9  O   UNL     1     -22.296 -22.503   1.228  1.00  0.00    -0.550 OA
ATOM     10  O   UNL     1     -23.874 -22.657   2.882  1.00  0.00    -0.550 OA
ENDBRANCH   7   8
ENDBRANCH   6   7
ENDBRANCH   5   6
ENDBRANCH   4   5
ENDBRANCH   3   4
ENDBRANCH   2   3
ENDBRANCH   1   2
BRANCH   1  11
ATOM     11  C   UNL     1     -22.661 -28.369   3.297  1.00  0.00    -0.031 C 
ATOM     12  C   UNL     1     -23.943 -28.702   3.509  1.00  0.00    -0.027 C 
BRANCH  12  13
ATOM     13  C   UNL     1     -24.757 -28.038   4.583  1.00  0.00     0.054 C 
BRANCH  13  14
ATOM     14  C   UNL     1     -25.563 -29.052   5.356  1.00  0.00    -0.027 C 
ATOM     15  C   UNL     1     -25.056 -29.810   6.344  1.00  0.00    -0.031 C 
BRANCH  15  16
ATOM     16  C   UNL     1     -23.631 -29.734   6.841  1.00  0.00     0.027 C 
BRANCH  16  17
ATOM     17  C   UNL     1     -23.043 -31.130   7.075  1.00  0.00     0.004 C 
BRANCH  17  18
ATOM     18  C   UNL     1     -23.175 -32.029   5.837  1.00  0.00     0.000 C 
BRANCH  18  19
ATOM     19  C   UNL     1     -22.114 -31.677   4.787  1.00  0.00    -0.003 C 
ATOM     20  C   UNL     1     -22.357 -32.434   3.485  1.00  0.00     0.004 C 
ENDBRANCH  18  19
ENDBRANCH  17  18
ENDBRANCH  16  17
ENDBRANCH  15  16
ENDBRANCH  13  14
ENDBRANCH  12  13
ENDBRANCH   1  11
TORSDOF 14
ENDMDL
MODEL 8
REMARK VINA RESULT:    -4.779      3.343      6.637
REMARK INTER + INTRA:         -11.143
REMARK INTER:                  -9.018
REMARK INTRA:                  -2.125
REMARK UNBOUND:                -2.453
REMARK SMILES CCCCCC=CCC=CCCCCCCCC(=O)[O-]
REMARK SMILES IDX 11 1 12 2 13 3 14 4 15 5 16 6 17 7 18 8 19 9 20 10 10 11
REMARK SMILES IDX 9 12 8 13 7 14 6 15 5 16 4 17 3 18 2 19 1 20
REMARK H PARENT
REMARK Flexibility Score: inf
ROOT
ATOM      1  C   UNL     1     -20.713 -26.140  15.959  1.00  0.00     0.027 C 
ENDROOT
BRANCH   1   2
ATOM      2  C   UNL     1     -21.773 -27.103  15.403  1.00  0.00     0.004 C 
BRANCH   2   3
ATOM      3  C   UNL     1     -22.304 -28.063  16.477  1.00  0.00     0.000 C 
BRANCH   3   4
ATOM      4  C   UNL     1     -21.514 -29.380  16.476  1.00  0.00     0.000 C 
BRANCH   4   5
ATOM      5  C   UNL     1     -22.053 -30.402  15.458  1.00  0.00     0.000 C 
BRANCH   5   6
ATOM      6  C   UNL     1     -21.374 -30.365  14.074  1.00  0.00     0.006 C 
BRANCH   6   7
ATOM      7  C   UNL     1     -22.064 -31.225  13.002  1.00  0.00     0.053 C 
BRANCH   7   8
ATOM      8  C   UNL     1     -21.087 -31.766  12.003  1.00  0.00     0.041 C 
ATOM      9  O   UNL     1     -19.918 -31.304  11.946  1.00  0.00    -0.550 OA
ATOM     10  O   UNL     1     -21.459 -32.804  11.158  1.00  0.00    -0.550 OA
ENDBRANCH   7   8
ENDBRANCH   6   7
ENDBRANCH   5   6
ENDBRANCH   4   5
ENDBRANCH   3   4
ENDBRANCH   2   3
ENDBRANCH   1   2
BRANCH   1  11
ATOM     11  C   UNL     1     -19.357 -26.370  15.349  1.00  0.00    -0.031 C 
ATOM     12  C   UNL     1     -19.166 -27.274  14.377  1.00  0.00    -0.027 C 
BRANCH  12  13
ATOM     13  C   UNL     1     -17.812 -27.488  13.762  1.00  0.00     0.054 C 
BRANCH  13  14
ATOM     14  C   UNL     1     -16.982 -26.230  13.826  1.00  0.00    -0.027 C 
ATOM     15  C   UNL     1     -16.855 -25.368  12.802  1.00  0.00    -0.031 C 
BRANCH  15  16
ATOM     16  C   UNL     1     -17.545 -25.513  11.466  1.00  0.00     0.027 C 
BRANCH  16  17
ATOM     17  C   UNL     1     -18.865 -24.733  11.429  1.00  0.00     0.004 C 
BRANCH  17  18
ATOM     18  C   UNL     1     -18.762 -23.385  12.156  1.00  0.00     0.000 C 
BRANCH  18  19
ATOM     19  C   UNL     1     -19.613 -23.381  13.431  1.00  0.00    -0.003 C 
ATOM     20  C   UNL     1     -21.084 -23.628  13.111  1.00  0.00     0.004 C 
ENDBRANCH  18  19
ENDBRANCH  17  18
ENDBRANCH  16  17
ENDBRANCH  15  16
ENDBRANCH  13  14
ENDBRANCH  12  13
ENDBRANCH   1  11
TORSDOF 14
ENDMDL
MODEL 9
REMARK VINA RESULT:    -4.769      7.805     10.424
REMARK INTER + INTRA:         -11.125
REMARK INTER:                 -10.204
REMARK INTRA:                  -0.922
REMARK UNBOUND:                -2.453
REMARK SMILES CCCCCC=CCC=CCCCCCCCC(=O)[O-]
REMARK SMILES IDX 11 1 12 2 13 3 14 4 15 5 16 6 17 7 18 8 19 9 20 10 10 11
REMARK SMILES IDX 9 12 8 13 7 14 6 15 5 16 4 17 3 18 2 19 1 20
REMARK H PARENT
REMARK Flexibility Score: inf
ROOT
ATOM      1  C   UNL     1     -27.438 -25.056   9.807  1.00  0.00     0.027 C 
ENDROOT
BRANCH   1   2
ATOM      2  C   UNL     1     -28.193 -24.637  11.078  1.00  0.00     0.004 C 
BRANCH   2   3
ATOM      3  C   UNL     1     -27.351 -24.841  12.346  1.00  0.00     0.000 C 
BRANCH   3   4
ATOM      4  C   UNL     1     -28.248 -24.985  13.584  1.00  0.00     0.000 C 
BRANCH   4   5
ATOM      5  C   UNL     1     -27.644 -24.333  14.841  1.00  0.00     0.000 C 
BRANCH   5   6
ATOM      6  C   UNL     1     -26.695 -25.236  15.654  1.00  0.00     0.006 C 
BRANCH   6   7
ATOM      7  C   UNL     1     -25.230 -24.769  15.672  1.00  0.00     0.053 C 
BRANCH   7   8
ATOM      8  C   UNL     1     -24.325 -25.784  16.302  1.00  0.00     0.041 C 
ATOM      9  O   UNL     1     -23.263 -26.131  15.723  1.00  0.00    -0.550 OA
ATOM     10  O   UNL     1     -24.639 -26.320  17.544  1.00  0.00    -0.550 OA
ENDBRANCH   7   8
ENDBRANCH   6   7
ENDBRANCH   5   6
ENDBRANCH   4   5
ENDBRANCH   3   4
ENDBRANCH   2   3
ENDBRANCH   1   2
BRANCH   1  11
ATOM     11  C   UNL     1     -27.376 -26.551   9.647  1.00  0.00    -0.031 C 
ATOM     12  C   UNL     1     -26.336 -27.152   9.052  1.00  0.00    -0.027 C 
BRANCH  12  13
ATOM     13  C   UNL     1     -26.272 -28.647   8.910  1.00  0.00     0.054 C 
BRANCH  13  14
ATOM     14  C   UNL     1     -27.291 -29.141   7.913  1.00  0.00    -0.027 C 
ATOM     15  C   UNL     1     -26.990 -29.481   6.647  1.00  0.00    -0.031 C 
BRANCH  15  16
ATOM     16  C   UNL     1     -25.600 -29.454   6.056  1.00  0.00     0.027 C 
BRANCH  16  17
ATOM     17  C   UNL     1     -25.354 -28.165   5.262  1.00  0.00     0.004 C 
BRANCH  17  18
ATOM     18  C   UNL     1     -24.026 -28.204   4.492  1.00  0.00     0.000 C 
BRANCH  18  19
ATOM     19  C   UNL     1     -24.065 -29.263   3.384  1.00  0.00    -0.003 C 
ATOM     20  C   UNL     1     -22.905 -30.245   3.523  1.00  0.00     0.004 C 
ENDBRANCH  18  19
ENDBRANCH  17  18
ENDBRANCH  16  17
ENDBRANCH  15  16
ENDBRANCH  13  14
ENDBRANCH  12  13
ENDBRANCH   1  11
TORSDOF 14
ENDMDL
