MODEL 1
REMARK VINA RESULT:    -4.973      0.000      0.000
REMARK INTER + INTRA:          -8.289
REMARK INTER:                  -7.009
REMARK INTRA:                  -1.280
REMARK UNBOUND:                -1.280
REMARK SMILES OCC1=C[C@@H](O)[C@H]2C=CO[C@@H](O[C@H]3O[C@@H](CO)[C@H](O)[C@@H](O)[C@@H]3O)[C@@H]12
REMARK SMILES IDX 12 1 11 2 8 3 9 4 7 5 10 6 24 7 5 8 3 9 4 10 6 11 2 13 1 14
REMARK SMILES IDX 13 16 22 17 14 18 20 19 15 20 18 21 23 22 21 24 16 26 17 27
REMARK SMILES IDX 19 29
REMARK H PARENT 6 12 1 15 23 23 21 25 17 28 19 30
REMARK Flexibility Score: inf
ROOT
ATOM      1  O   UNL     1     -10.899  -7.054   0.583  1.00  0.00    -0.310 OA
ENDROOT
BRANCH   1   2
ATOM      2  C   UNL     1     -10.731  -6.059  -0.414  1.00  0.00     0.316 C 
ATOM      3  C   UNL     1     -11.249  -4.475  -2.700  1.00  0.00     0.018 C 
ATOM      4  C   UNL     1     -12.098  -4.460  -1.671  1.00  0.00     0.186 C 
ATOM      5  C   UNL     1     -10.177  -5.540  -2.865  1.00  0.00     0.061 C 
ATOM      6  O   UNL     1     -11.962  -5.378  -0.629  1.00  0.00    -0.472 OA
ATOM      7  C   UNL     1     -10.192  -6.628  -1.749  1.00  0.00     0.096 C 
ATOM      8  C   UNL     1     -10.388  -6.341  -4.169  1.00  0.00     0.145 C 
ATOM      9  C   UNL     1     -10.949  -7.761  -2.393  1.00  0.00    -0.036 C 
ATOM     10  C   UNL     1     -11.037  -7.596  -3.710  1.00  0.00     0.007 C 
BRANCH   8  11
ATOM     11  O   UNL     1     -11.200  -5.677  -5.108  1.00  0.00    -0.388 OA
ATOM     12  H   UNL     1     -10.586  -5.181  -5.718  1.00  0.00     0.211 HD
ENDBRANCH   8  11
BRANCH   9  13
ATOM     13  C   UNL     1     -11.248  -9.092  -1.753  1.00  0.00     0.187 C 
BRANCH  13  14
ATOM     14  O   UNL     1     -10.084  -9.656  -1.201  1.00  0.00    -0.392 OA
ATOM     15  H   UNL     1     -10.363 -10.291  -0.496  1.00  0.00     0.211 HD
ENDBRANCH  13  14
ENDBRANCH   9  13
ENDBRANCH   1   2
BRANCH   1  16
ATOM     16  C   UNL     1     -11.082  -6.479   1.879  1.00  0.00     0.286 C 
ATOM     17  C   UNL     1      -9.885  -5.580   2.266  1.00  0.00     0.202 C 
ATOM     18  O   UNL     1     -11.359  -7.472   2.853  1.00  0.00    -0.341 OA
ATOM     19  C   UNL     1      -8.630  -6.393   2.648  1.00  0.00     0.179 C 
ATOM     20  C   UNL     1     -10.266  -8.331   3.156  1.00  0.00     0.178 C 
ATOM     21  C   UNL     1      -8.966  -7.582   3.569  1.00  0.00     0.177 C 
BRANCH  17  22
ATOM     22  O   UNL     1     -10.269  -4.774   3.353  1.00  0.00    -0.385 OA
ATOM     23  H   UNL     1      -9.434  -4.486   3.801  1.00  0.00     0.211 HD
ENDBRANCH  17  22
BRANCH  19  24
ATOM     24  O   UNL     1      -7.881  -6.795   1.527  1.00  0.00    -0.387 OA
ATOM     25  H   UNL     1      -7.106  -6.189   1.425  1.00  0.00     0.211 HD
ENDBRANCH  19  24
BRANCH  20  26
ATOM     26  C   UNL     1     -10.064  -9.428   2.086  1.00  0.00     0.191 C 
BRANCH  26  27
ATOM     27  O   UNL     1      -8.788  -9.334   1.502  1.00  0.00    -0.394 OA
ATOM     28  H   UNL     1      -8.131  -9.363   2.244  1.00  0.00     0.210 HD
ENDBRANCH  26  27
ENDBRANCH  20  26
BRANCH  21  29
ATOM     29  O   UNL     1      -9.122  -7.116   4.888  1.00  0.00    -0.387 OA
ATOM     30  H   UNL     1      -8.742  -6.197   4.922  1.00  0.00     0.211 HD
ENDBRANCH  21  29
ENDBRANCH   1  16
TORSDOF 10
ENDMDL
MODEL 2
REMARK VINA RESULT:    -4.853      1.533      6.463
REMARK INTER + INTRA:          -8.119
REMARK INTER:                  -7.413
REMARK INTRA:                  -0.706
REMARK UNBOUND:                -1.280
REMARK SMILES OCC1=C[C@@H](O)[C@H]2C=CO[C@@H](O[C@H]3O[C@@H](CO)[C@H](O)[C@@H](O)[C@@H]3O)[C@@H]12
REMARK SMILES IDX 12 1 11 2 8 3 9 4 7 5 10 6 24 7 5 8 3 9 4 10 6 11 2 13 1 14
REMARK SMILES IDX 13 16 22 17 14 18 20 19 15 20 18 21 23 22 21 24 16 26 17 27
REMARK SMILES IDX 19 29
REMARK H PARENT 6 12 1 15 23 23 21 25 17 28 19 30
REMARK Flexibility Score: inf
ROOT
ATOM      1  O   UNL     1     -10.076  -6.478  -0.402  1.00  0.00    -0.310 OA
ENDROOT
BRANCH   1   2
ATOM      2  C   UNL     1      -9.525  -7.627   0.220  1.00  0.00     0.316 C 
ATOM      3  C   UNL     1      -9.176  -9.731   2.079  1.00  0.00     0.018 C 
ATOM      4  C   UNL     1     -10.297  -9.653   1.361  1.00  0.00     0.186 C 
ATOM      5  C   UNL     1      -8.199  -8.573   2.203  1.00  0.00     0.061 C 
ATOM      6  O   UNL     1     -10.568  -8.522   0.591  1.00  0.00    -0.472 OA
ATOM      7  C   UNL     1      -8.649  -7.284   1.450  1.00  0.00     0.096 C 
ATOM      8  C   UNL     1      -8.063  -8.118   3.673  1.00  0.00     0.145 C 
ATOM      9  C   UNL     1      -9.262  -6.451   2.547  1.00  0.00    -0.036 C 
ATOM     10  C   UNL     1      -8.924  -6.910   3.749  1.00  0.00     0.007 C 
BRANCH   8  11
ATOM     11  O   UNL     1      -8.486  -9.088   4.600  1.00  0.00    -0.388 OA
ATOM     12  H   UNL     1      -9.342  -9.464   4.251  1.00  0.00     0.211 HD
ENDBRANCH   8  11
BRANCH   9  13
ATOM     13  C   UNL     1      -9.854  -5.076   2.376  1.00  0.00     0.187 C 
BRANCH  13  14
ATOM     14  O   UNL     1     -10.305  -4.567   3.607  1.00  0.00    -0.392 OA
ATOM     15  H   UNL     1      -9.729  -4.945   4.317  1.00  0.00     0.211 HD
ENDBRANCH  13  14
ENDBRANCH   9  13
ENDBRANCH   1   2
BRANCH   1  16
ATOM     16  C   UNL     1     -11.072  -6.825  -1.367  1.00  0.00     0.286 C 
ATOM     17  C   UNL     1     -10.445  -7.057  -2.760  1.00  0.00     0.202 C 
ATOM     18  O   UNL     1     -12.125  -5.875  -1.391  1.00  0.00    -0.341 OA
ATOM     19  C   UNL     1     -10.031  -5.741  -3.453  1.00  0.00     0.179 C 
ATOM     20  C   UNL     1     -11.765  -4.600  -1.910  1.00  0.00     0.178 C 
ATOM     21  C   UNL     1     -11.112  -4.651  -3.322  1.00  0.00     0.177 C 
BRANCH  17  22
ATOM     22  O   UNL     1     -11.383  -7.733  -3.563  1.00  0.00    -0.385 OA
ATOM     23  H   UNL     1     -10.875  -8.141  -4.308  1.00  0.00     0.211 HD
ENDBRANCH  17  22
BRANCH  19  24
ATOM     24  O   UNL     1      -8.770  -5.280  -3.034  1.00  0.00    -0.387 OA
ATOM     25  H   UNL     1      -8.694  -4.318  -3.249  1.00  0.00     0.211 HD
ENDBRANCH  19  24
BRANCH  20  26
ATOM     26  C   UNL     1     -11.002  -3.737  -0.879  1.00  0.00     0.191 C 
BRANCH  26  27
ATOM     27  O   UNL     1     -11.821  -2.711  -0.375  1.00  0.00    -0.394 OA
ATOM     28  H   UNL     1     -11.780  -1.966  -1.026  1.00  0.00     0.210 HD
ENDBRANCH  26  27
ENDBRANCH  20  26
BRANCH  21  29
ATOM     29  O   UNL     1     -12.124  -4.886  -4.271  1.00  0.00    -0.387 OA
ATOM     30  H   UNL     1     -12.844  -4.220  -4.105  1.00  0.00     0.211 HD
ENDBRANCH  21  29
ENDBRANCH   1  16
TORSDOF 10
ENDMDL
MODEL 3
REMARK VINA RESULT:    -4.744      0.816      2.392
REMARK INTER + INTRA:          -7.966
REMARK INTER:                  -6.966
REMARK INTRA:                  -1.000
REMARK UNBOUND:                -1.280
REMARK SMILES OCC1=C[C@@H](O)[C@H]2C=CO[C@@H](O[C@H]3O[C@@H](CO)[C@H](O)[C@@H](O)[C@@H]3O)[C@@H]12
REMARK SMILES IDX 12 1 11 2 8 3 9 4 7 5 10 6 24 7 5 8 3 9 4 10 6 11 2 13 1 14
REMARK SMILES IDX 13 16 22 17 14 18 20 19 15 20 18 21 23 22 21 24 16 26 17 27
REMARK SMILES IDX 19 29
REMARK H PARENT 6 12 1 15 23 23 21 25 17 28 19 30
REMARK Flexibility Score: inf
ROOT
ATOM      1  O   UNL     1     -10.412  -7.058   0.716  1.00  0.00    -0.310 OA
ENDROOT
BRANCH   1   2
ATOM      2  C   UNL     1     -10.317  -6.062  -0.290  1.00  0.00     0.316 C 
ATOM      3  C   UNL     1     -11.046  -4.404  -2.463  1.00  0.00     0.018 C 
ATOM      4  C   UNL     1     -11.726  -4.341  -1.317  1.00  0.00     0.186 C 
ATOM      5  C   UNL     1     -10.100  -5.546  -2.795  1.00  0.00     0.061 C 
ATOM      6  O   UNL     1     -11.509  -5.284  -0.312  1.00  0.00    -0.472 OA
ATOM      7  C   UNL     1     -10.033  -6.649  -1.694  1.00  0.00     0.096 C 
ATOM      8  C   UNL     1     -10.568  -6.306  -4.055  1.00  0.00     0.145 C 
ATOM      9  C   UNL     1     -10.966  -7.708  -2.222  1.00  0.00    -0.036 C 
ATOM     10  C   UNL     1     -11.238  -7.514  -3.510  1.00  0.00     0.007 C 
BRANCH   8  11
ATOM     11  O   UNL     1     -11.457  -5.565  -4.856  1.00  0.00    -0.388 OA
ATOM     12  H   UNL     1     -11.021  -5.463  -5.748  1.00  0.00     0.211 HD
ENDBRANCH   8  11
BRANCH   9  13
ATOM     13  C   UNL     1     -11.270  -9.023  -1.551  1.00  0.00     0.187 C 
BRANCH  13  14
ATOM     14  O   UNL     1     -10.135  -9.854  -1.537  1.00  0.00    -0.392 OA
ATOM     15  H   UNL     1      -9.876 -10.024  -2.477  1.00  0.00     0.211 HD
ENDBRANCH  13  14
ENDBRANCH   9  13
ENDBRANCH   1   2
BRANCH   1  16
ATOM     16  C   UNL     1      -9.124  -7.540   1.106  1.00  0.00     0.286 C 
ATOM     17  C   UNL     1      -9.227  -8.928   1.779  1.00  0.00     0.202 C 
ATOM     18  O   UNL     1      -8.436  -6.592   1.905  1.00  0.00    -0.341 OA
ATOM     19  C   UNL     1      -9.790  -8.853   3.214  1.00  0.00     0.179 C 
ATOM     20  C   UNL     1      -8.987  -6.394   3.202  1.00  0.00     0.178 C 
ATOM     21  C   UNL     1      -9.160  -7.703   4.025  1.00  0.00     0.177 C 
BRANCH  17  22
ATOM     22  O   UNL     1      -7.943  -9.503   1.809  1.00  0.00    -0.385 OA
ATOM     23  H   UNL     1      -7.736  -9.684   2.761  1.00  0.00     0.211 HD
ENDBRANCH  17  22
BRANCH  19  24
ATOM     24  O   UNL     1     -11.195  -8.807   3.245  1.00  0.00    -0.387 OA
ATOM     25  H   UNL     1     -11.551  -9.489   2.624  1.00  0.00     0.211 HD
ENDBRANCH  19  24
BRANCH  20  26
ATOM     26  C   UNL     1     -10.232  -5.479   3.179  1.00  0.00     0.191 C 
BRANCH  26  27
ATOM     27  O   UNL     1     -10.024  -4.363   2.349  1.00  0.00    -0.394 OA
ATOM     28  H   UNL     1     -10.860  -3.831   2.369  1.00  0.00     0.210 HD
ENDBRANCH  26  27
ENDBRANCH  20  26
BRANCH  21  29
ATOM     29  O   UNL     1      -7.895  -8.105   4.493  1.00  0.00    -0.387 OA
ATOM     30  H   UNL     1      -7.941  -9.084   4.660  1.00  0.00     0.211 HD
ENDBRANCH  21  29
ENDBRANCH   1  16
TORSDOF 10
ENDMDL
MODEL 4
REMARK VINA RESULT:    -4.396      6.667      9.875
REMARK INTER + INTRA:          -7.474
REMARK INTER:                  -6.254
REMARK INTRA:                  -1.221
REMARK UNBOUND:                -1.280
REMARK SMILES OCC1=C[C@@H](O)[C@H]2C=CO[C@@H](O[C@H]3O[C@@H](CO)[C@H](O)[C@@H](O)[C@@H]3O)[C@@H]12
REMARK SMILES IDX 12 1 11 2 8 3 9 4 7 5 10 6 24 7 5 8 3 9 4 10 6 11 2 13 1 14
REMARK SMILES IDX 13 16 22 17 14 18 20 19 15 20 18 21 23 22 21 24 16 26 17 27
REMARK SMILES IDX 19 29
REMARK H PARENT 6 12 1 15 23 23 21 25 17 28 19 30
REMARK Flexibility Score: inf
ROOT
ATOM      1  O   UNL     1     -10.071  -2.276   7.178  1.00  0.00    -0.310 OA
ENDROOT
BRANCH   1   2
ATOM      2  C   UNL     1      -9.163  -3.137   6.511  1.00  0.00     0.316 C 
ATOM      3  C   UNL     1      -7.971  -5.524   5.566  1.00  0.00     0.018 C 
ATOM      4  C   UNL     1      -9.212  -5.204   5.195  1.00  0.00     0.186 C 
ATOM      5  C   UNL     1      -7.264  -4.850   6.731  1.00  0.00     0.061 C 
ATOM      6  O   UNL     1      -9.882  -4.142   5.804  1.00  0.00    -0.472 OA
ATOM      7  C   UNL     1      -8.134  -3.787   7.469  1.00  0.00     0.096 C 
ATOM      8  C   UNL     1      -6.912  -5.873   7.833  1.00  0.00     0.145 C 
ATOM      9  C   UNL     1      -8.658  -4.550   8.659  1.00  0.00    -0.036 C 
ATOM     10  C   UNL     1      -7.975  -5.676   8.850  1.00  0.00     0.007 C 
BRANCH   8  11
ATOM     11  O   UNL     1      -6.904  -7.205   7.377  1.00  0.00    -0.388 OA
ATOM     12  H   UNL     1      -6.052  -7.613   7.701  1.00  0.00     0.211 HD
ENDBRANCH   8  11
BRANCH   9  13
ATOM     13  C   UNL     1      -9.555  -3.991   9.733  1.00  0.00     0.187 C 
BRANCH  13  14
ATOM     14  O   UNL     1      -9.142  -2.700  10.110  1.00  0.00    -0.392 OA
ATOM     15  H   UNL     1      -8.404  -2.799  10.761  1.00  0.00     0.211 HD
ENDBRANCH  13  14
ENDBRANCH   9  13
ENDBRANCH   1   2
BRANCH   1  16
ATOM     16  C   UNL     1     -10.963  -1.637   6.263  1.00  0.00     0.286 C 
ATOM     17  C   UNL     1     -10.239  -0.540   5.449  1.00  0.00     0.202 C 
ATOM     18  O   UNL     1     -12.124  -1.156   6.920  1.00  0.00    -0.341 OA
ATOM     19  C   UNL     1      -9.958   0.730   6.281  1.00  0.00     0.179 C 
ATOM     20  C   UNL     1     -11.901  -0.058   7.797  1.00  0.00     0.178 C 
ATOM     21  C   UNL     1     -11.174   1.147   7.133  1.00  0.00     0.177 C 
BRANCH  17  22
ATOM     22  O   UNL     1     -11.042  -0.206   4.342  1.00  0.00    -0.385 OA
ATOM     23  H   UNL     1     -11.883  -0.719   4.438  1.00  0.00     0.211 HD
ENDBRANCH  17  22
BRANCH  19  24
ATOM     24  O   UNL     1      -8.789   0.624   7.055  1.00  0.00    -0.387 OA
ATOM     25  H   UNL     1      -8.063   1.124   6.608  1.00  0.00     0.211 HD
ENDBRANCH  19  24
BRANCH  20  26
ATOM     26  C   UNL     1     -11.307  -0.498   9.154  1.00  0.00     0.191 C 
BRANCH  26  27
ATOM     27  O   UNL     1     -11.931  -1.668   9.623  1.00  0.00    -0.394 OA
ATOM     28  H   UNL     1     -11.953  -2.305   8.863  1.00  0.00     0.210 HD
ENDBRANCH  26  27
ENDBRANCH  20  26
BRANCH  21  29
ATOM     29  O   UNL     1     -12.097   1.829   6.318  1.00  0.00    -0.387 OA
ATOM     30  H   UNL     1     -11.733   2.741   6.161  1.00  0.00     0.211 HD
ENDBRANCH  21  29
ENDBRANCH   1  16
TORSDOF 10
ENDMDL
MODEL 5
REMARK VINA RESULT:    -4.162      1.425      3.252
REMARK INTER + INTRA:          -7.146
REMARK INTER:                  -5.697
REMARK INTRA:                  -1.449
REMARK UNBOUND:                -1.280
REMARK SMILES OCC1=C[C@@H](O)[C@H]2C=CO[C@@H](O[C@H]3O[C@@H](CO)[C@H](O)[C@@H](O)[C@@H]3O)[C@@H]12
REMARK SMILES IDX 12 1 11 2 8 3 9 4 7 5 10 6 24 7 5 8 3 9 4 10 6 11 2 13 1 14
REMARK SMILES IDX 13 16 22 17 14 18 20 19 15 20 18 21 23 22 21 24 16 26 17 27
REMARK SMILES IDX 19 29
REMARK H PARENT 6 12 1 15 23 23 21 25 17 28 19 30
REMARK Flexibility Score: inf
ROOT
ATOM      1  O   UNL     1     -11.133  -7.761  -0.070  1.00  0.00    -0.310 OA
ENDROOT
BRANCH   1   2
ATOM      2  C   UNL     1     -11.426  -8.090  -1.418  1.00  0.00     0.316 C 
ATOM      3  C   UNL     1     -11.139  -8.293  -4.226  1.00  0.00     0.018 C 
ATOM      4  C   UNL     1     -10.252  -8.877  -3.419  1.00  0.00     0.186 C 
ATOM      5  C   UNL     1     -12.125  -7.243  -3.738  1.00  0.00     0.061 C 
ATOM      6  O   UNL     1     -10.266  -8.622  -2.048  1.00  0.00    -0.472 OA
ATOM      7  C   UNL     1     -11.972  -6.888  -2.227  1.00  0.00     0.096 C 
ATOM      8  C   UNL     1     -11.903  -5.896  -4.461  1.00  0.00     0.145 C 
ATOM      9  C   UNL     1     -11.151  -5.624  -2.260  1.00  0.00    -0.036 C 
ATOM     10  C   UNL     1     -11.133  -5.091  -3.479  1.00  0.00     0.007 C 
BRANCH   8  11
ATOM     11  O   UNL     1     -11.189  -6.021  -5.668  1.00  0.00    -0.388 OA
ATOM     12  H   UNL     1     -10.287  -5.626  -5.509  1.00  0.00     0.211 HD
ENDBRANCH   8  11
BRANCH   9  13
ATOM     13  C   UNL     1     -10.716  -4.830  -1.056  1.00  0.00     0.187 C 
BRANCH  13  14
ATOM     14  O   UNL     1     -11.544  -5.098   0.049  1.00  0.00    -0.392 OA
ATOM     15  H   UNL     1     -12.483  -5.028  -0.256  1.00  0.00     0.211 HD
ENDBRANCH  13  14
ENDBRANCH   9  13
ENDBRANCH   1   2
BRANCH   1  16
ATOM     16  C   UNL     1     -11.021  -8.928   0.747  1.00  0.00     0.286 C 
ATOM     17  C   UNL     1     -11.943  -8.835   1.985  1.00  0.00     0.202 C 
ATOM     18  O   UNL     1      -9.671  -9.195   1.088  1.00  0.00    -0.341 OA
ATOM     19  C   UNL     1     -11.405  -7.862   3.055  1.00  0.00     0.179 C 
ATOM     20  C   UNL     1      -9.084  -8.256   1.982  1.00  0.00     0.178 C 
ATOM     21  C   UNL     1      -9.892  -8.039   3.294  1.00  0.00     0.177 C 
BRANCH  17  22
ATOM     22  O   UNL     1     -12.068 -10.121   2.542  1.00  0.00    -0.385 OA
ATOM     23  H   UNL     1     -11.151 -10.489   2.613  1.00  0.00     0.211 HD
ENDBRANCH  17  22
BRANCH  19  24
ATOM     24  O   UNL     1     -11.738  -6.522   2.788  1.00  0.00    -0.387 OA
ATOM     25  H   UNL     1     -12.599  -6.497   2.303  1.00  0.00     0.211 HD
ENDBRANCH  19  24
BRANCH  20  26
ATOM     26  C   UNL     1      -8.653  -6.954   1.269  1.00  0.00     0.191 C 
BRANCH  26  27
ATOM     27  O   UNL     1      -9.144  -5.822   1.946  1.00  0.00    -0.394 OA
ATOM     28  H   UNL     1      -9.190  -5.089   1.280  1.00  0.00     0.210 HD
ENDBRANCH  26  27
ENDBRANCH  20  26
BRANCH  21  29
ATOM     29  O   UNL     1      -9.683  -9.150   4.133  1.00  0.00    -0.387 OA
ATOM     30  H   UNL     1      -8.892  -8.946   4.700  1.00  0.00     0.211 HD
ENDBRANCH  21  29
ENDBRANCH   1  16
TORSDOF 10
ENDMDL
MODEL 6
REMARK VINA RESULT:    -3.935      1.765      6.064
REMARK INTER + INTRA:          -6.826
REMARK INTER:                  -5.408
REMARK INTRA:                  -1.418
REMARK UNBOUND:                -1.280
REMARK SMILES OCC1=C[C@@H](O)[C@H]2C=CO[C@@H](O[C@H]3O[C@@H](CO)[C@H](O)[C@@H](O)[C@@H]3O)[C@@H]12
REMARK SMILES IDX 12 1 11 2 8 3 9 4 7 5 10 6 24 7 5 8 3 9 4 10 6 11 2 13 1 14
REMARK SMILES IDX 13 16 22 17 14 18 20 19 15 20 18 21 23 22 21 24 16 26 17 27
REMARK SMILES IDX 19 29
REMARK H PARENT 6 12 1 15 23 23 21 25 17 28 19 30
REMARK Flexibility Score: inf
ROOT
ATOM      1  O   UNL     1     -11.051  -7.101  -1.492  1.00  0.00    -0.310 OA
ENDROOT
BRANCH   1   2
ATOM      2  C   UNL     1     -10.822  -6.671  -0.161  1.00  0.00     0.316 C 
ATOM      3  C   UNL     1      -9.771  -6.603   2.465  1.00  0.00     0.018 C 
ATOM      4  C   UNL     1      -8.957  -6.473   1.416  1.00  0.00     0.186 C 
ATOM      5  C   UNL     1     -11.197  -7.113   2.339  1.00  0.00     0.061 C 
ATOM      6  O   UNL     1      -9.427  -6.701   0.123  1.00  0.00    -0.472 OA
ATOM      7  C   UNL     1     -11.601  -7.505   0.885  1.00  0.00     0.096 C 
ATOM      8  C   UNL     1     -11.393  -8.416   3.145  1.00  0.00     0.145 C 
ATOM      9  C   UNL     1     -11.417  -9.001   0.877  1.00  0.00    -0.036 C 
ATOM     10  C   UNL     1     -11.317  -9.482   2.114  1.00  0.00     0.007 C 
BRANCH   8  11
ATOM     11  O   UNL     1     -10.412  -8.614   4.135  1.00  0.00    -0.388 OA
ATOM     12  H   UNL     1     -10.190  -7.713   4.501  1.00  0.00     0.211 HD
ENDBRANCH   8  11
BRANCH   9  13
ATOM     13  C   UNL     1     -11.684  -9.911  -0.294  1.00  0.00     0.187 C 
BRANCH  13  14
ATOM     14  O   UNL     1     -10.514 -10.115  -1.048  1.00  0.00    -0.392 OA
ATOM     15  H   UNL     1      -9.935  -9.323  -0.924  1.00  0.00     0.211 HD
ENDBRANCH  13  14
ENDBRANCH   9  13
ENDBRANCH   1   2
BRANCH   1  16
ATOM     16  C   UNL     1      -9.885  -6.952  -2.305  1.00  0.00     0.286 C 
ATOM     17  C   UNL     1      -9.828  -5.548  -2.949  1.00  0.00     0.202 C 
ATOM     18  O   UNL     1      -9.780  -7.997  -3.258  1.00  0.00    -0.341 OA
ATOM     19  C   UNL     1     -10.830  -5.385  -4.111  1.00  0.00     0.179 C 
ATOM     20  C   UNL     1     -10.759  -7.965  -4.289  1.00  0.00     0.178 C 
ATOM     21  C   UNL     1     -10.837  -6.609  -5.048  1.00  0.00     0.177 C 
BRANCH  17  22
ATOM     22  O   UNL     1      -8.521  -5.331  -3.425  1.00  0.00    -0.385 OA
ATOM     23  H   UNL     1      -8.352  -4.358  -3.353  1.00  0.00     0.211 HD
ENDBRANCH  17  22
BRANCH  19  24
ATOM     24  O   UNL     1     -12.125  -5.058  -3.670  1.00  0.00    -0.387 OA
ATOM     25  H   UNL     1     -12.196  -5.264  -2.705  1.00  0.00     0.211 HD
ENDBRANCH  19  24
BRANCH  20  26
ATOM     26  C   UNL     1     -12.125  -8.519  -3.823  1.00  0.00     0.191 C 
BRANCH  26  27
ATOM     27  O   UNL     1     -12.068  -9.913  -3.642  1.00  0.00    -0.394 OA
ATOM     28  H   UNL     1     -12.462 -10.102  -2.752  1.00  0.00     0.210 HD
ENDBRANCH  26  27
ENDBRANCH  20  26
BRANCH  21  29
ATOM     29  O   UNL     1      -9.738  -6.527  -5.924  1.00  0.00    -0.387 OA
ATOM     30  H   UNL     1      -9.917  -7.149  -6.679  1.00  0.00     0.211 HD
ENDBRANCH  21  29
ENDBRANCH   1  16
TORSDOF 10
ENDMDL
MODEL 7
REMARK VINA RESULT:    -3.913      1.323      3.555
REMARK INTER + INTRA:          -6.794
REMARK INTER:                  -5.768
REMARK INTRA:                  -1.026
REMARK UNBOUND:                -1.280
REMARK SMILES OCC1=C[C@@H](O)[C@H]2C=CO[C@@H](O[C@H]3O[C@@H](CO)[C@H](O)[C@@H](O)[C@@H]3O)[C@@H]12
REMARK SMILES IDX 12 1 11 2 8 3 9 4 7 5 10 6 24 7 5 8 3 9 4 10 6 11 2 13 1 14
REMARK SMILES IDX 13 16 22 17 14 18 20 19 15 20 18 21 23 22 21 24 16 26 17 27
REMARK SMILES IDX 19 29
REMARK H PARENT 6 12 1 15 23 23 21 25 17 28 19 30
REMARK Flexibility Score: inf
ROOT
ATOM      1  O   UNL     1     -10.484  -7.648   0.885  1.00  0.00    -0.310 OA
ENDROOT
BRANCH   1   2
ATOM      2  C   UNL     1     -10.993  -8.503  -0.125  1.00  0.00     0.316 C 
ATOM      3  C   UNL     1     -11.194  -9.878  -2.590  1.00  0.00     0.018 C 
ATOM      4  C   UNL     1     -10.154 -10.100  -1.784  1.00  0.00     0.186 C 
ATOM      5  C   UNL     1     -12.123  -8.687  -2.423  1.00  0.00     0.061 C 
ATOM      6  O   UNL     1      -9.939  -9.292  -0.667  1.00  0.00    -0.472 OA
ATOM      7  C   UNL     1     -11.724  -7.735  -1.254  1.00  0.00     0.096 C 
ATOM      8  C   UNL     1     -12.089  -7.778  -3.671  1.00  0.00     0.145 C 
ATOM      9  C   UNL     1     -10.976  -6.632  -1.959  1.00  0.00    -0.036 C 
ATOM     10  C   UNL     1     -11.194  -6.662  -3.271  1.00  0.00     0.007 C 
BRANCH   8  11
ATOM     11  O   UNL     1     -11.592  -8.424  -4.819  1.00  0.00    -0.388 OA
ATOM     12  H   UNL     1     -11.467  -9.383  -4.576  1.00  0.00     0.211 HD
ENDBRANCH   8  11
BRANCH   9  13
ATOM     13  C   UNL     1     -10.371  -5.421  -1.297  1.00  0.00     0.187 C 
BRANCH  13  14
ATOM     14  O   UNL     1     -11.255  -4.872  -0.350  1.00  0.00    -0.392 OA
ATOM     15  H   UNL     1     -11.839  -4.228  -0.822  1.00  0.00     0.211 HD
ENDBRANCH  13  14
ENDBRANCH   9  13
ENDBRANCH   1   2
BRANCH   1  16
ATOM     16  C   UNL     1      -9.154  -8.010   1.264  1.00  0.00     0.286 C 
ATOM     17  C   UNL     1      -9.155  -9.231   2.211  1.00  0.00     0.202 C 
ATOM     18  O   UNL     1      -8.447  -6.903   1.797  1.00  0.00    -0.341 OA
ATOM     19  C   UNL     1      -9.616  -8.875   3.641  1.00  0.00     0.179 C 
ATOM     20  C   UNL     1      -8.911  -6.453   3.065  1.00  0.00     0.178 C 
ATOM     21  C   UNL     1      -8.975  -7.568   4.148  1.00  0.00     0.177 C 
BRANCH  17  22
ATOM     22  O   UNL     1      -7.851  -9.758   2.258  1.00  0.00    -0.385 OA
ATOM     23  H   UNL     1      -7.275  -9.052   2.647  1.00  0.00     0.211 HD
ENDBRANCH  17  22
BRANCH  19  24
ATOM     24  O   UNL     1     -11.016  -8.855   3.771  1.00  0.00    -0.387 OA
ATOM     25  H   UNL     1     -11.386  -8.176   3.154  1.00  0.00     0.211 HD
ENDBRANCH  19  24
BRANCH  20  26
ATOM     26  C   UNL     1     -10.189  -5.591   2.953  1.00  0.00     0.191 C 
BRANCH  26  27
ATOM     27  O   UNL     1      -9.927  -4.385   2.278  1.00  0.00    -0.394 OA
ATOM     28  H   UNL     1      -8.960  -4.199   2.391  1.00  0.00     0.210 HD
ENDBRANCH  26  27
ENDBRANCH  20  26
BRANCH  21  29
ATOM     29  O   UNL     1      -7.665  -7.835   4.588  1.00  0.00    -0.387 OA
ATOM     30  H   UNL     1      -7.737  -8.439   5.375  1.00  0.00     0.211 HD
ENDBRANCH  21  29
ENDBRANCH   1  16
TORSDOF 10
ENDMDL
MODEL 8
REMARK VINA RESULT:    -3.907      1.467      2.724
REMARK INTER + INTRA:          -6.786
REMARK INTER:                  -6.131
REMARK INTRA:                  -0.655
REMARK UNBOUND:                -1.280
REMARK SMILES OCC1=C[C@@H](O)[C@H]2C=CO[C@@H](O[C@H]3O[C@@H](CO)[C@H](O)[C@@H](O)[C@@H]3O)[C@@H]12
REMARK SMILES IDX 12 1 11 2 8 3 9 4 7 5 10 6 24 7 5 8 3 9 4 10 6 11 2 13 1 14
REMARK SMILES IDX 13 16 22 17 14 18 20 19 15 20 18 21 23 22 21 24 16 26 17 27
REMARK SMILES IDX 19 29
REMARK H PARENT 6 12 1 15 23 23 21 25 17 28 19 30
REMARK Flexibility Score: inf
ROOT
ATOM      1  O   UNL     1      -9.981  -7.384  -0.674  1.00  0.00    -0.310 OA
ENDROOT
BRANCH   1   2
ATOM      2  C   UNL     1     -10.829  -8.028  -1.611  1.00  0.00     0.316 C 
ATOM      3  C   UNL     1     -11.678  -9.294  -3.994  1.00  0.00     0.018 C 
ATOM      4  C   UNL     1     -10.720  -9.847  -3.248  1.00  0.00     0.186 C 
ATOM      5  C   UNL     1     -12.124  -7.851  -3.819  1.00  0.00     0.061 C 
ATOM      6  O   UNL     1     -10.156  -9.143  -2.185  1.00  0.00    -0.472 OA
ATOM      7  C   UNL     1     -11.334  -7.075  -2.722  1.00  0.00     0.096 C 
ATOM      8  C   UNL     1     -11.875  -7.034  -5.106  1.00  0.00     0.145 C 
ATOM      9  C   UNL     1     -10.308  -6.313  -3.522  1.00  0.00    -0.036 C 
ATOM     10  C   UNL     1     -10.623  -6.290  -4.814  1.00  0.00     0.007 C 
BRANCH   8  11
ATOM     11  O   UNL     1     -11.720  -7.833  -6.255  1.00  0.00    -0.388 OA
ATOM     12  H   UNL     1     -12.557  -7.731  -6.789  1.00  0.00     0.211 HD
ENDBRANCH   8  11
BRANCH   9  13
ATOM     13  C   UNL     1      -9.275  -5.374  -2.954  1.00  0.00     0.187 C 
BRANCH  13  14
ATOM     14  O   UNL     1      -8.087  -5.421  -3.706  1.00  0.00    -0.392 OA
ATOM     15  H   UNL     1      -7.338  -5.557  -3.076  1.00  0.00     0.211 HD
ENDBRANCH  13  14
ENDBRANCH   9  13
ENDBRANCH   1   2
BRANCH   1  16
ATOM     16  C   UNL     1     -10.716  -6.868   0.438  1.00  0.00     0.286 C 
ATOM     17  C   UNL     1      -9.840  -5.933   1.302  1.00  0.00     0.202 C 
ATOM     18  O   UNL     1     -11.314  -7.910   1.192  1.00  0.00    -0.341 OA
ATOM     19  C   UNL     1      -8.811  -6.703   2.157  1.00  0.00     0.179 C 
ATOM     20  C   UNL     1     -10.398  -8.731   1.907  1.00  0.00     0.178 C 
ATOM     21  C   UNL     1      -9.430  -7.941   2.836  1.00  0.00     0.177 C 
BRANCH  17  22
ATOM     22  O   UNL     1     -10.685  -5.187   2.145  1.00  0.00    -0.385 OA
ATOM     23  H   UNL     1     -10.834  -4.317   1.698  1.00  0.00     0.211 HD
ENDBRANCH  17  22
BRANCH  19  24
ATOM     24  O   UNL     1      -7.644  -7.027   1.443  1.00  0.00    -0.387 OA
ATOM     25  H   UNL     1      -7.053  -7.567   2.023  1.00  0.00     0.211 HD
ENDBRANCH  19  24
BRANCH  20  26
ATOM     26  C   UNL     1      -9.709  -9.775   1.000  1.00  0.00     0.191 C 
BRANCH  26  27
ATOM     27  O   UNL     1      -8.353  -9.925   1.342  1.00  0.00    -0.394 OA
ATOM     28  H   UNL     1      -8.061  -9.064   1.737  1.00  0.00     0.210 HD
ENDBRANCH  26  27
ENDBRANCH  20  26
BRANCH  21  29
ATOM     29  O   UNL     1     -10.145  -7.534   3.979  1.00  0.00    -0.387 OA
ATOM     30  H   UNL     1      -9.516  -7.014   4.548  1.00  0.00     0.211 HD
ENDBRANCH  21  29
ENDBRANCH   1  16
TORSDOF 10
ENDMDL
MODEL 9
REMARK VINA RESULT:    -3.881      2.033      6.571
REMARK INTER + INTRA:          -6.750
REMARK INTER:                  -5.499
REMARK INTRA:                  -1.250
REMARK UNBOUND:                -1.280
REMARK SMILES OCC1=C[C@@H](O)[C@H]2C=CO[C@@H](O[C@H]3O[C@@H](CO)[C@H](O)[C@@H](O)[C@@H]3O)[C@@H]12
REMARK SMILES IDX 12 1 11 2 8 3 9 4 7 5 10 6 24 7 5 8 3 9 4 10 6 11 2 13 1 14
REMARK SMILES IDX 13 16 22 17 14 18 20 19 15 20 18 21 23 22 21 24 16 26 17 27
REMARK SMILES IDX 19 29
REMARK H PARENT 6 12 1 15 23 23 21 25 17 28 19 30
REMARK Flexibility Score: inf
ROOT
ATOM      1  O   UNL     1      -9.784  -7.131   1.606  1.00  0.00    -0.310 OA
ENDROOT
BRANCH   1   2
ATOM      2  C   UNL     1      -8.854  -7.725   2.497  1.00  0.00     0.316 C 
ATOM      3  C   UNL     1      -7.774  -8.805   4.878  1.00  0.00     0.018 C 
ATOM      4  C   UNL     1      -8.832  -9.379   4.304  1.00  0.00     0.186 C 
ATOM      5  C   UNL     1      -7.300  -7.407   4.515  1.00  0.00     0.061 C 
ATOM      6  O   UNL     1      -9.494  -8.750   3.249  1.00  0.00    -0.472 OA
ATOM      7  C   UNL     1      -8.187  -6.699   3.445  1.00  0.00     0.096 C 
ATOM      8  C   UNL     1      -7.366  -6.464   5.736  1.00  0.00     0.145 C 
ATOM      9  C   UNL     1      -9.082  -5.820   4.280  1.00  0.00    -0.036 C 
ATOM     10  C   UNL     1      -8.616  -5.693   5.519  1.00  0.00     0.007 C 
BRANCH   8  11
ATOM     11  O   UNL     1      -7.411  -7.146   6.967  1.00  0.00    -0.388 OA
ATOM     12  H   UNL     1      -6.916  -6.582   7.625  1.00  0.00     0.211 HD
ENDBRANCH   8  11
BRANCH   9  13
ATOM     13  C   UNL     1     -10.142  -4.890   3.747  1.00  0.00     0.187 C 
BRANCH  13  14
ATOM     14  O   UNL     1      -9.711  -4.264   2.563  1.00  0.00    -0.392 OA
ATOM     15  H   UNL     1      -8.740  -4.094   2.649  1.00  0.00     0.211 HD
ENDBRANCH  13  14
ENDBRANCH   9  13
ENDBRANCH   1   2
BRANCH   1  16
ATOM     16  C   UNL     1      -9.505  -7.471   0.246  1.00  0.00     0.286 C 
ATOM     17  C   UNL     1      -9.951  -6.345  -0.715  1.00  0.00     0.202 C 
ATOM     18  O   UNL     1     -10.054  -8.733  -0.096  1.00  0.00    -0.341 OA
ATOM     19  C   UNL     1     -11.483  -6.288  -0.895  1.00  0.00     0.179 C 
ATOM     20  C   UNL     1     -11.475  -8.768  -0.158  1.00  0.00     0.178 C 
ATOM     21  C   UNL     1     -12.097  -7.689  -1.091  1.00  0.00     0.177 C 
BRANCH  17  22
ATOM     22  O   UNL     1      -9.341  -6.560  -1.964  1.00  0.00    -0.385 OA
ATOM     23  H   UNL     1      -8.478  -7.011  -1.784  1.00  0.00     0.211 HD
ENDBRANCH  17  22
BRANCH  19  24
ATOM     24  O   UNL     1     -12.125  -5.576   0.134  1.00  0.00    -0.387 OA
ATOM     25  H   UNL     1     -13.096  -5.760   0.093  1.00  0.00     0.211 HD
ENDBRANCH  19  24
BRANCH  20  26
ATOM     26  C   UNL     1     -12.124  -8.859   1.242  1.00  0.00     0.191 C 
BRANCH  26  27
ATOM     27  O   UNL     1     -11.570  -9.915   1.988  1.00  0.00    -0.394 OA
ATOM     28  H   UNL     1     -11.982 -10.750   1.650  1.00  0.00     0.210 HD
ENDBRANCH  26  27
ENDBRANCH  20  26
BRANCH  21  29
ATOM     29  O   UNL     1     -11.908  -8.094  -2.426  1.00  0.00    -0.387 OA
ATOM     30  H   UNL     1     -11.282  -8.867  -2.413  1.00  0.00     0.211 HD
ENDBRANCH  21  29
ENDBRANCH   1  16
TORSDOF 10
ENDMDL
