MODEL 1
REMARK VINA RESULT:    -7.638      0.000      0.000
REMARK INTER + INTRA:         -11.639
REMARK INTER:                 -10.094
REMARK INTRA:                  -1.545
REMARK UNBOUND:                -1.545
REMARK SMILES CC[C@H](C=C[C@@H](C)[C@@H]1CC[C@H]2[C@H]3CC[C@H]4C[C@@H](O)CC[C@@]4(C)[C@H]3CC[C@]21C)C(C)C
REMARK SMILES IDX 6 1 7 2 5 3 4 4 3 5 2 6 1 7 28 8 29 9 30 10 8 11 9 12 26 13
REMARK SMILES IDX 10 14 11 15 25 16 27 17 12 18 24 19 23 20 13 21 21 22 14 23
REMARK SMILES IDX 15 24 20 25 22 26 16 27 19 28 17 29 18 30
REMARK H PARENT 18 31
REMARK Flexibility Score: inf
ROOT
ATOM      1  C   UNL     1      -2.608  25.593  48.799  1.00  0.00     0.012 C 
ATOM      2  C   UNL     1      -1.631  26.586  48.141  1.00  0.00     0.012 C 
ENDROOT
BRANCH   1   3
ATOM      3  C   UNL     1      -2.478  25.734  50.304  1.00  0.00    -0.028 C 
ATOM      4  C   UNL     1      -2.401  24.657  51.103  1.00  0.00    -0.027 C 
BRANCH   4   5
ATOM      5  C   UNL     1      -2.344  24.784  52.612  1.00  0.00     0.014 C 
BRANCH   5   6
ATOM      6  C   UNL     1      -1.127  24.002  53.165  1.00  0.00     0.004 C 
ATOM      7  C   UNL     1      -0.553  23.026  52.133  1.00  0.00     0.004 C 
ENDBRANCH   5   6
BRANCH   5   8
ATOM      8  C   UNL     1      -2.365  26.287  53.028  1.00  0.00    -0.011 C 
ATOM      9  C   UNL     1      -1.072  26.748  53.723  1.00  0.00     0.008 C 
ATOM     10  C   UNL     1      -3.586  26.627  53.899  1.00  0.00     0.008 C 
ENDBRANCH   5   8
ENDBRANCH   4   5
ENDBRANCH   1   3
BRANCH   1  11
ATOM     11  C   UNL     1      -2.418  24.095  48.372  1.00  0.00     0.002 C 
ATOM     12  C   UNL     1      -1.090  23.772  47.690  1.00  0.00     0.005 C 
ATOM     13  C   UNL     1      -3.535  23.399  47.504  1.00  0.00    -0.026 C 
ATOM     14  C   UNL     1      -1.308  22.393  47.101  1.00  0.00     0.005 C 
ATOM     15  C   UNL     1      -2.739  22.431  46.562  1.00  0.00    -0.001 C 
ATOM     16  C   UNL     1      -4.527  22.632  48.434  1.00  0.00     0.007 C 
ATOM     17  C   UNL     1      -4.361  24.377  46.628  1.00  0.00     0.012 C 
ATOM     18  C   UNL     1      -3.416  21.046  46.312  1.00  0.00    -0.004 C 
ATOM     19  C   UNL     1      -4.018  21.238  48.821  1.00  0.00     0.005 C 
ATOM     20  C   UNL     1      -3.986  20.315  47.581  1.00  0.00    -0.001 C 
ATOM     21  C   UNL     1      -2.576  20.147  45.390  1.00  0.00     0.004 C 
ATOM     22  C   UNL     1      -3.437  18.856  47.845  1.00  0.00    -0.026 C 
ATOM     23  C   UNL     1      -3.237  18.786  45.192  1.00  0.00     0.004 C 
ATOM     24  C   UNL     1      -3.560  18.017  46.512  1.00  0.00    -0.002 C 
ATOM     25  C   UNL     1      -1.971  18.860  48.384  1.00  0.00     0.010 C 
ATOM     26  C   UNL     1      -4.340  18.189  48.926  1.00  0.00     0.012 C 
ATOM     27  C   UNL     1      -2.821  16.653  46.573  1.00  0.00     0.036 C 
ATOM     28  C   UNL     1      -1.337  17.461  48.442  1.00  0.00     0.032 C 
ATOM     29  C   UNL     1      -1.380  16.760  47.082  1.00  0.00     0.114 C 
BRANCH  29  30
ATOM     30  O   UNL     1      -0.588  17.451  46.147  1.00  0.00    -0.393 OA
ATOM     31  H   UNL     1      -0.312  18.304  46.570  1.00  0.00     0.210 HD
ENDBRANCH  29  30
ENDBRANCH   1  11
TORSDOF 6
ENDMDL
MODEL 2
REMARK VINA RESULT:    -7.394      4.128      6.563
REMARK INTER + INTRA:         -11.317
REMARK INTER:                 -10.922
REMARK INTRA:                  -0.394
REMARK UNBOUND:                -1.545
REMARK SMILES CC[C@H](C=C[C@@H](C)[C@@H]1CC[C@H]2[C@H]3CC[C@H]4C[C@@H](O)CC[C@@]4(C)[C@H]3CC[C@]21C)C(C)C
REMARK SMILES IDX 6 1 7 2 5 3 4 4 3 5 2 6 1 7 28 8 29 9 30 10 8 11 9 12 26 13
REMARK SMILES IDX 10 14 11 15 25 16 27 17 12 18 24 19 23 20 13 21 21 22 14 23
REMARK SMILES IDX 15 24 20 25 22 26 16 27 19 28 17 29 18 30
REMARK H PARENT 18 31
REMARK Flexibility Score: inf
ROOT
ATOM      1  C   UNL     1      -5.640  28.373  47.568  1.00  0.00     0.012 C 
ATOM      2  C   UNL     1      -5.341  29.046  48.922  1.00  0.00     0.012 C 
ENDROOT
BRANCH   1   3
ATOM      3  C   UNL     1      -7.142  28.386  47.359  1.00  0.00    -0.028 C 
ATOM      4  C   UNL     1      -7.756  29.420  46.760  1.00  0.00    -0.027 C 
BRANCH   4   5
ATOM      5  C   UNL     1      -9.263  29.479  46.610  1.00  0.00     0.014 C 
BRANCH   5   6
ATOM      6  C   UNL     1      -9.644  30.450  45.466  1.00  0.00     0.004 C 
ATOM      7  C   UNL     1      -8.712  31.664  45.405  1.00  0.00     0.004 C 
ENDBRANCH   5   6
BRANCH   5   8
ATOM      8  C   UNL     1      -9.843  28.043  46.433  1.00  0.00    -0.011 C 
ATOM      9  C   UNL     1     -10.253  27.721  44.986  1.00  0.00     0.008 C 
ATOM     10  C   UNL     1     -11.017  27.773  47.389  1.00  0.00     0.008 C 
ENDBRANCH   5   8
ENDBRANCH   4   5
ENDBRANCH   1   3
BRANCH   1  11
ATOM     11  C   UNL     1      -5.079  26.916  47.414  1.00  0.00     0.002 C 
ATOM     12  C   UNL     1      -5.386  26.234  46.082  1.00  0.00     0.005 C 
ATOM     13  C   UNL     1      -5.394  25.852  48.532  1.00  0.00    -0.026 C 
ATOM     14  C   UNL     1      -5.038  24.780  46.328  1.00  0.00     0.005 C 
ATOM     15  C   UNL     1      -5.540  24.504  47.746  1.00  0.00    -0.001 C 
ATOM     16  C   UNL     1      -4.224  25.807  49.566  1.00  0.00     0.007 C 
ATOM     17  C   UNL     1      -6.708  26.118  49.311  1.00  0.00     0.012 C 
ATOM     18  C   UNL     1      -4.934  23.253  48.459  1.00  0.00    -0.004 C 
ATOM     19  C   UNL     1      -3.062  24.918  49.105  1.00  0.00     0.005 C 
ATOM     20  C   UNL     1      -3.500  23.436  49.075  1.00  0.00    -0.001 C 
ATOM     21  C   UNL     1      -5.104  21.970  47.627  1.00  0.00     0.004 C 
ATOM     22  C   UNL     1      -2.396  22.420  48.575  1.00  0.00    -0.026 C 
ATOM     23  C   UNL     1      -4.470  20.771  48.324  1.00  0.00     0.004 C 
ATOM     24  C   UNL     1      -2.964  20.951  48.695  1.00  0.00    -0.002 C 
ATOM     25  C   UNL     1      -1.917  22.730  47.120  1.00  0.00     0.010 C 
ATOM     26  C   UNL     1      -1.162  22.545  49.519  1.00  0.00     0.012 C 
ATOM     27  C   UNL     1      -2.073  19.887  47.998  1.00  0.00     0.036 C 
ATOM     28  C   UNL     1      -1.011  21.638  46.529  1.00  0.00     0.032 C 
ATOM     29  C   UNL     1      -1.681  20.261  46.565  1.00  0.00     0.114 C 
BRANCH  29  30
ATOM     30  O   UNL     1      -2.816  20.245  45.735  1.00  0.00    -0.393 OA
ATOM     31  H   UNL     1      -2.500  20.079  44.810  1.00  0.00     0.210 HD
ENDBRANCH  29  30
ENDBRANCH   1  11
TORSDOF 6
ENDMDL
MODEL 3
REMARK VINA RESULT:    -7.367      3.837      6.029
REMARK INTER + INTRA:         -11.281
REMARK INTER:                 -10.199
REMARK INTRA:                  -1.082
REMARK UNBOUND:                -1.545
REMARK SMILES CC[C@H](C=C[C@@H](C)[C@@H]1CC[C@H]2[C@H]3CC[C@H]4C[C@@H](O)CC[C@@]4(C)[C@H]3CC[C@]21C)C(C)C
REMARK SMILES IDX 6 1 7 2 5 3 4 4 3 5 2 6 1 7 28 8 29 9 30 10 8 11 9 12 26 13
REMARK SMILES IDX 10 14 11 15 25 16 27 17 12 18 24 19 23 20 13 21 21 22 14 23
REMARK SMILES IDX 15 24 20 25 22 26 16 27 19 28 17 29 18 30
REMARK H PARENT 18 31
REMARK Flexibility Score: inf
ROOT
ATOM      1  C   UNL     1      -6.223  26.919  49.019  1.00  0.00     0.012 C 
ATOM      2  C   UNL     1      -7.345  27.074  50.065  1.00  0.00     0.012 C 
ENDROOT
BRANCH   1   3
ATOM      3  C   UNL     1      -6.801  27.259  47.659  1.00  0.00    -0.028 C 
ATOM      4  C   UNL     1      -7.748  28.200  47.517  1.00  0.00    -0.027 C 
BRANCH   4   5
ATOM      5  C   UNL     1      -8.385  28.498  46.174  1.00  0.00     0.014 C 
BRANCH   5   6
ATOM      6  C   UNL     1      -9.841  27.970  46.149  1.00  0.00     0.004 C 
ATOM      7  C   UNL     1     -10.407  27.772  47.559  1.00  0.00     0.004 C 
ENDBRANCH   5   6
BRANCH   5   8
ATOM      8  C   UNL     1      -8.264  30.017  45.846  1.00  0.00    -0.011 C 
ATOM      9  C   UNL     1      -7.594  30.834  46.963  1.00  0.00     0.008 C 
ATOM     10  C   UNL     1      -9.622  30.638  45.476  1.00  0.00     0.008 C 
ENDBRANCH   5   8
ENDBRANCH   4   5
ENDBRANCH   1   3
BRANCH   1  11
ATOM     11  C   UNL     1      -5.538  25.508  48.987  1.00  0.00     0.002 C 
ATOM     12  C   UNL     1      -5.523  24.756  50.316  1.00  0.00     0.005 C 
ATOM     13  C   UNL     1      -4.083  25.377  48.395  1.00  0.00    -0.026 C 
ATOM     14  C   UNL     1      -4.541  23.626  50.086  1.00  0.00     0.005 C 
ATOM     15  C   UNL     1      -3.414  24.262  49.270  1.00  0.00    -0.001 C 
ATOM     16  C   UNL     1      -4.157  24.977  46.888  1.00  0.00     0.007 C 
ATOM     17  C   UNL     1      -3.234  26.671  48.504  1.00  0.00     0.012 C 
ATOM     18  C   UNL     1      -2.488  23.275  48.490  1.00  0.00    -0.004 C 
ATOM     19  C   UNL     1      -4.331  23.467  46.684  1.00  0.00     0.005 C 
ATOM     20  C   UNL     1      -3.058  22.715  47.137  1.00  0.00    -0.001 C 
ATOM     21  C   UNL     1      -1.875  22.204  49.408  1.00  0.00     0.004 C 
ATOM     22  C   UNL     1      -3.130  21.141  47.015  1.00  0.00    -0.026 C 
ATOM     23  C   UNL     1      -1.008  21.228  48.618  1.00  0.00     0.004 C 
ATOM     24  C   UNL     1      -1.729  20.533  47.421  1.00  0.00    -0.002 C 
ATOM     25  C   UNL     1      -4.287  20.528  47.869  1.00  0.00     0.010 C 
ATOM     26  C   UNL     1      -3.402  20.784  45.522  1.00  0.00     0.012 C 
ATOM     27  C   UNL     1      -1.752  18.990  47.586  1.00  0.00     0.036 C 
ATOM     28  C   UNL     1      -4.247  18.994  47.944  1.00  0.00     0.032 C 
ATOM     29  C   UNL     1      -2.900  18.485  48.467  1.00  0.00     0.114 C 
BRANCH  29  30
ATOM     30  O   UNL     1      -2.703  18.894  49.798  1.00  0.00    -0.393 OA
ATOM     31  H   UNL     1      -1.874  18.456  50.120  1.00  0.00     0.210 HD
ENDBRANCH  29  30
ENDBRANCH   1  11
TORSDOF 6
ENDMDL
MODEL 4
REMARK VINA RESULT:    -7.345      3.168      8.083
REMARK INTER + INTRA:         -11.252
REMARK INTER:                 -11.452
REMARK INTRA:                   0.200
REMARK UNBOUND:                -1.545
REMARK SMILES CC[C@H](C=C[C@@H](C)[C@@H]1CC[C@H]2[C@H]3CC[C@H]4C[C@@H](O)CC[C@@]4(C)[C@H]3CC[C@]21C)C(C)C
REMARK SMILES IDX 6 1 7 2 5 3 4 4 3 5 2 6 1 7 28 8 29 9 30 10 8 11 9 12 26 13
REMARK SMILES IDX 10 14 11 15 25 16 27 17 12 18 24 19 23 20 13 21 21 22 14 23
REMARK SMILES IDX 15 24 20 25 22 26 16 27 19 28 17 29 18 30
REMARK H PARENT 18 31
REMARK Flexibility Score: inf
ROOT
ATOM      1  C   UNL     1      -0.514  20.578  47.781  1.00  0.00     0.012 C 
ATOM      2  C   UNL     1       0.506  20.824  46.653  1.00  0.00     0.012 C 
ENDROOT
BRANCH   1   3
ATOM      3  C   UNL     1      -1.376  19.394  47.385  1.00  0.00    -0.028 C 
ATOM      4  C   UNL     1      -0.854  18.165  47.245  1.00  0.00    -0.027 C 
BRANCH   4   5
ATOM      5  C   UNL     1      -1.689  16.989  46.778  1.00  0.00     0.014 C 
BRANCH   5   6
ATOM      6  C   UNL     1      -2.887  16.777  47.736  1.00  0.00     0.004 C 
ATOM      7  C   UNL     1      -2.485  16.014  49.002  1.00  0.00     0.004 C 
ENDBRANCH   5   6
BRANCH   5   8
ATOM      8  C   UNL     1      -2.104  17.181  45.287  1.00  0.00    -0.011 C 
ATOM      9  C   UNL     1      -3.617  17.034  45.049  1.00  0.00     0.008 C 
ATOM     10  C   UNL     1      -1.325  16.246  44.347  1.00  0.00     0.008 C 
ENDBRANCH   5   8
ENDBRANCH   4   5
ENDBRANCH   1   3
BRANCH   1  11
ATOM     11  C   UNL     1      -1.412  21.812  48.143  1.00  0.00     0.002 C 
ATOM     12  C   UNL     1      -1.018  22.558  49.417  1.00  0.00     0.005 C 
ATOM     13  C   UNL     1      -2.976  21.628  48.211  1.00  0.00    -0.026 C 
ATOM     14  C   UNL     1      -2.207  23.454  49.698  1.00  0.00     0.005 C 
ATOM     15  C   UNL     1      -3.423  22.586  49.368  1.00  0.00    -0.001 C 
ATOM     16  C   UNL     1      -3.617  22.020  46.842  1.00  0.00     0.007 C 
ATOM     17  C   UNL     1      -3.431  20.186  48.556  1.00  0.00     0.012 C 
ATOM     18  C   UNL     1      -4.763  23.348  49.116  1.00  0.00    -0.004 C 
ATOM     19  C   UNL     1      -3.842  23.530  46.705  1.00  0.00     0.005 C 
ATOM     20  C   UNL     1      -4.930  24.002  47.696  1.00  0.00    -0.001 C 
ATOM     21  C   UNL     1      -5.134  24.276  50.285  1.00  0.00     0.004 C 
ATOM     22  C   UNL     1      -5.225  25.555  47.679  1.00  0.00    -0.026 C 
ATOM     23  C   UNL     1      -6.424  25.039  49.999  1.00  0.00     0.004 C 
ATOM     24  C   UNL     1      -6.418  25.858  48.670  1.00  0.00    -0.002 C 
ATOM     25  C   UNL     1      -3.962  26.406  48.030  1.00  0.00     0.010 C 
ATOM     26  C   UNL     1      -5.676  25.945  46.239  1.00  0.00     0.012 C 
ATOM     27  C   UNL     1      -6.631  27.373  48.932  1.00  0.00     0.036 C 
ATOM     28  C   UNL     1      -4.266  27.897  48.236  1.00  0.00     0.032 C 
ATOM     29  C   UNL     1      -5.344  28.117  49.302  1.00  0.00     0.114 C 
BRANCH  29  30
ATOM     30  O   UNL     1      -4.884  27.690  50.561  1.00  0.00    -0.393 OA
ATOM     31  H   UNL     1      -5.671  27.354  51.062  1.00  0.00     0.210 HD
ENDBRANCH  29  30
ENDBRANCH   1  11
TORSDOF 6
ENDMDL
MODEL 5
REMARK VINA RESULT:    -7.311      2.976      7.277
REMARK INTER + INTRA:         -11.207
REMARK INTER:                  -9.326
REMARK INTRA:                  -1.881
REMARK UNBOUND:                -1.545
REMARK SMILES CC[C@H](C=C[C@@H](C)[C@@H]1CC[C@H]2[C@H]3CC[C@H]4C[C@@H](O)CC[C@@]4(C)[C@H]3CC[C@]21C)C(C)C
REMARK SMILES IDX 6 1 7 2 5 3 4 4 3 5 2 6 1 7 28 8 29 9 30 10 8 11 9 12 26 13
REMARK SMILES IDX 10 14 11 15 25 16 27 17 12 18 24 19 23 20 13 21 21 22 14 23
REMARK SMILES IDX 15 24 20 25 22 26 16 27 19 28 17 29 18 30
REMARK H PARENT 18 31
REMARK Flexibility Score: inf
ROOT
ATOM      1  C   UNL     1      -1.413  18.271  46.959  1.00  0.00     0.012 C 
ATOM      2  C   UNL     1      -1.618  16.977  47.770  1.00  0.00     0.012 C 
ENDROOT
BRANCH   1   3
ATOM      3  C   UNL     1       0.077  18.456  46.741  1.00  0.00    -0.028 C 
ATOM      4  C   UNL     1       0.770  19.394  47.408  1.00  0.00    -0.027 C 
BRANCH   4   5
ATOM      5  C   UNL     1       2.242  19.638  47.146  1.00  0.00     0.014 C 
BRANCH   5   6
ATOM      6  C   UNL     1       2.700  18.835  45.903  1.00  0.00     0.004 C 
ATOM      7  C   UNL     1       4.152  18.361  46.026  1.00  0.00     0.004 C 
ENDBRANCH   5   6
BRANCH   5   8
ATOM      8  C   UNL     1       2.525  21.168  47.043  1.00  0.00    -0.011 C 
ATOM      9  C   UNL     1       1.917  21.982  48.197  1.00  0.00     0.008 C 
ATOM     10  C   UNL     1       2.076  21.748  45.691  1.00  0.00     0.008 C 
ENDBRANCH   5   8
ENDBRANCH   4   5
ENDBRANCH   1   3
BRANCH   1  11
ATOM     11  C   UNL     1      -2.037  19.560  47.599  1.00  0.00     0.002 C 
ATOM     12  C   UNL     1      -3.051  19.313  48.714  1.00  0.00     0.005 C 
ATOM     13  C   UNL     1      -2.682  20.647  46.657  1.00  0.00    -0.026 C 
ATOM     14  C   UNL     1      -3.719  20.658  48.906  1.00  0.00     0.005 C 
ATOM     15  C   UNL     1      -3.889  21.204  47.487  1.00  0.00    -0.001 C 
ATOM     16  C   UNL     1      -1.631  21.755  46.330  1.00  0.00     0.007 C 
ATOM     17  C   UNL     1      -3.218  20.087  45.314  1.00  0.00     0.012 C 
ATOM     18  C   UNL     1      -4.121  22.744  47.365  1.00  0.00    -0.004 C 
ATOM     19  C   UNL     1      -1.535  22.822  47.427  1.00  0.00     0.005 C 
ATOM     20  C   UNL     1      -2.841  23.648  47.487  1.00  0.00    -0.001 C 
ATOM     21  C   UNL     1      -5.312  23.221  48.213  1.00  0.00     0.004 C 
ATOM     22  C   UNL     1      -2.881  24.758  48.611  1.00  0.00    -0.026 C 
ATOM     23  C   UNL     1      -5.495  24.732  48.110  1.00  0.00     0.004 C 
ATOM     24  C   UNL     1      -4.230  25.570  48.478  1.00  0.00    -0.002 C 
ATOM     25  C   UNL     1      -2.714  24.161  50.046  1.00  0.00     0.010 C 
ATOM     26  C   UNL     1      -1.695  25.739  48.364  1.00  0.00     0.012 C 
ATOM     27  C   UNL     1      -4.501  26.516  49.679  1.00  0.00     0.036 C 
ATOM     28  C   UNL     1      -2.967  25.180  51.167  1.00  0.00     0.032 C 
ATOM     29  C   UNL     1      -4.346  25.834  51.042  1.00  0.00     0.114 C 
BRANCH  29  30
ATOM     30  O   UNL     1      -5.362  24.877  51.221  1.00  0.00    -0.393 OA
ATOM     31  H   UNL     1      -5.738  25.015  52.128  1.00  0.00     0.210 HD
ENDBRANCH  29  30
ENDBRANCH   1  11
TORSDOF 6
ENDMDL
MODEL 6
REMARK VINA RESULT:    -7.164      2.810      4.344
REMARK INTER + INTRA:         -11.012
REMARK INTER:                  -9.164
REMARK INTRA:                  -1.848
REMARK UNBOUND:                -1.545
REMARK SMILES CC[C@H](C=C[C@@H](C)[C@@H]1CC[C@H]2[C@H]3CC[C@H]4C[C@@H](O)CC[C@@]4(C)[C@H]3CC[C@]21C)C(C)C
REMARK SMILES IDX 6 1 7 2 5 3 4 4 3 5 2 6 1 7 28 8 29 9 30 10 8 11 9 12 26 13
REMARK SMILES IDX 10 14 11 15 25 16 27 17 12 18 24 19 23 20 13 21 21 22 14 23
REMARK SMILES IDX 15 24 20 25 22 26 16 27 19 28 17 29 18 30
REMARK H PARENT 18 31
REMARK Flexibility Score: inf
ROOT
ATOM      1  C   UNL     1      -5.791  28.205  48.361  1.00  0.00     0.012 C 
ATOM      2  C   UNL     1      -6.222  29.007  47.117  1.00  0.00     0.012 C 
ENDROOT
BRANCH   1   3
ATOM      3  C   UNL     1      -4.795  29.045  49.138  1.00  0.00    -0.028 C 
ATOM      4  C   UNL     1      -3.529  28.636  49.322  1.00  0.00    -0.027 C 
BRANCH   4   5
ATOM      5  C   UNL     1      -2.545  29.431  50.158  1.00  0.00     0.014 C 
BRANCH   5   6
ATOM      6  C   UNL     1      -3.217  30.724  50.681  1.00  0.00     0.004 C 
ATOM      7  C   UNL     1      -2.249  31.587  51.496  1.00  0.00     0.004 C 
ENDBRANCH   5   6
BRANCH   5   8
ATOM      8  C   UNL     1      -1.950  28.534  51.286  1.00  0.00    -0.011 C 
ATOM      9  C   UNL     1      -1.071  27.387  50.757  1.00  0.00     0.008 C 
ATOM     10  C   UNL     1      -3.039  27.981  52.220  1.00  0.00     0.008 C 
ENDBRANCH   5   8
ENDBRANCH   4   5
ENDBRANCH   1   3
BRANCH   1  11
ATOM     11  C   UNL     1      -5.193  26.786  48.060  1.00  0.00     0.002 C 
ATOM     12  C   UNL     1      -5.339  26.307  46.617  1.00  0.00     0.005 C 
ATOM     13  C   UNL     1      -5.614  25.569  48.968  1.00  0.00    -0.026 C 
ATOM     14  C   UNL     1      -4.998  24.832  46.686  1.00  0.00     0.005 C 
ATOM     15  C   UNL     1      -5.651  24.351  47.983  1.00  0.00    -0.001 C 
ATOM     16  C   UNL     1      -4.566  25.372  50.109  1.00  0.00     0.007 C 
ATOM     17  C   UNL     1      -7.011  25.720  49.625  1.00  0.00     0.012 C 
ATOM     18  C   UNL     1      -5.108  23.009  48.569  1.00  0.00    -0.004 C 
ATOM     19  C   UNL     1      -3.346  24.559  49.658  1.00  0.00     0.005 C 
ATOM     20  C   UNL     1      -3.755  23.098  49.363  1.00  0.00    -0.001 C 
ATOM     21  C   UNL     1      -5.165  21.863  47.545  1.00  0.00     0.004 C 
ATOM     22  C   UNL     1      -2.587  22.166  48.848  1.00  0.00    -0.026 C 
ATOM     23  C   UNL     1      -4.593  20.573  48.126  1.00  0.00     0.004 C 
ATOM     24  C   UNL     1      -3.142  20.695  48.687  1.00  0.00    -0.002 C 
ATOM     25  C   UNL     1      -1.953  22.685  47.517  1.00  0.00     0.010 C 
ATOM     26  C   UNL     1      -1.468  22.149  49.933  1.00  0.00     0.012 C 
ATOM     27  C   UNL     1      -2.162  19.745  47.947  1.00  0.00     0.036 C 
ATOM     28  C   UNL     1      -0.970  21.691  46.879  1.00  0.00     0.032 C 
ATOM     29  C   UNL     1      -1.618  20.324  46.638  1.00  0.00     0.114 C 
BRANCH  29  30
ATOM     30  O   UNL     1      -2.653  20.431  45.691  1.00  0.00    -0.393 OA
ATOM     31  H   UNL     1      -3.466  20.035  46.098  1.00  0.00     0.210 HD
ENDBRANCH  29  30
ENDBRANCH   1  11
TORSDOF 6
ENDMDL
MODEL 7
REMARK VINA RESULT:    -7.139      2.390      4.929
REMARK INTER + INTRA:         -10.980
REMARK INTER:                  -9.438
REMARK INTRA:                  -1.542
REMARK UNBOUND:                -1.545
REMARK SMILES CC[C@H](C=C[C@@H](C)[C@@H]1CC[C@H]2[C@H]3CC[C@H]4C[C@@H](O)CC[C@@]4(C)[C@H]3CC[C@]21C)C(C)C
REMARK SMILES IDX 6 1 7 2 5 3 4 4 3 5 2 6 1 7 28 8 29 9 30 10 8 11 9 12 26 13
REMARK SMILES IDX 10 14 11 15 25 16 27 17 12 18 24 19 23 20 13 21 21 22 14 23
REMARK SMILES IDX 15 24 20 25 22 26 16 27 19 28 17 29 18 30
REMARK H PARENT 18 31
REMARK Flexibility Score: inf
ROOT
ATOM      1  C   UNL     1      -3.989  25.499  48.106  1.00  0.00     0.012 C 
ATOM      2  C   UNL     1      -5.394  26.125  47.997  1.00  0.00     0.012 C 
ENDROOT
BRANCH   1   3
ATOM      3  C   UNL     1      -3.057  26.278  47.198  1.00  0.00    -0.028 C 
ATOM      4  C   UNL     1      -2.996  26.030  45.880  1.00  0.00    -0.027 C 
BRANCH   4   5
ATOM      5  C   UNL     1      -2.017  26.751  44.974  1.00  0.00     0.014 C 
BRANCH   5   6
ATOM      6  C   UNL     1      -1.164  27.745  45.800  1.00  0.00     0.004 C 
ATOM      7  C   UNL     1       0.335  27.451  45.686  1.00  0.00     0.004 C 
ENDBRANCH   5   6
BRANCH   5   8
ATOM      8  C   UNL     1      -1.171  25.720  44.167  1.00  0.00    -0.011 C 
ATOM      9  C   UNL     1      -1.200  25.959  42.648  1.00  0.00     0.008 C 
ATOM     10  C   UNL     1      -1.573  24.269  44.483  1.00  0.00     0.008 C 
ENDBRANCH   5   8
ENDBRANCH   4   5
ENDBRANCH   1   3
BRANCH   1  11
ATOM     11  C   UNL     1      -3.919  23.967  47.777  1.00  0.00     0.002 C 
ATOM     12  C   UNL     1      -5.164  23.382  47.112  1.00  0.00     0.005 C 
ATOM     13  C   UNL     1      -3.519  22.956  48.918  1.00  0.00    -0.026 C 
ATOM     14  C   UNL     1      -4.965  21.884  47.217  1.00  0.00     0.005 C 
ATOM     15  C   UNL     1      -4.370  21.676  48.611  1.00  0.00    -0.001 C 
ATOM     16  C   UNL     1      -1.985  22.671  48.861  1.00  0.00     0.007 C 
ATOM     17  C   UNL     1      -3.859  23.447  50.350  1.00  0.00     0.012 C 
ATOM     18  C   UNL     1      -3.634  20.320  48.850  1.00  0.00    -0.004 C 
ATOM     19  C   UNL     1      -1.622  21.591  47.834  1.00  0.00     0.005 C 
ATOM     20  C   UNL     1      -2.171  20.218  48.285  1.00  0.00    -0.001 C 
ATOM     21  C   UNL     1      -4.524  19.109  48.518  1.00  0.00     0.004 C 
ATOM     22  C   UNL     1      -1.896  19.025  47.285  1.00  0.00    -0.026 C 
ATOM     23  C   UNL     1      -3.771  17.798  48.720  1.00  0.00     0.004 C 
ATOM     24  C   UNL     1      -2.429  17.685  47.930  1.00  0.00    -0.002 C 
ATOM     25  C   UNL     1      -2.527  19.270  45.876  1.00  0.00     0.010 C 
ATOM     26  C   UNL     1      -0.354  18.896  47.099  1.00  0.00     0.012 C 
ATOM     27  C   UNL     1      -2.447  16.489  46.941  1.00  0.00     0.036 C 
ATOM     28  C   UNL     1      -2.466  18.041  44.956  1.00  0.00     0.032 C 
ATOM     29  C   UNL     1      -3.115  16.814  45.601  1.00  0.00     0.114 C 
BRANCH  29  30
ATOM     30  O   UNL     1      -4.493  17.027  45.787  1.00  0.00    -0.393 OA
ATOM     31  H   UNL     1      -4.918  16.136  45.884  1.00  0.00     0.210 HD
ENDBRANCH  29  30
ENDBRANCH   1  11
TORSDOF 6
ENDMDL
MODEL 8
REMARK VINA RESULT:    -7.000      3.023      7.759
REMARK INTER + INTRA:         -10.796
REMARK INTER:                  -9.185
REMARK INTRA:                  -1.611
REMARK UNBOUND:                -1.545
REMARK SMILES CC[C@H](C=C[C@@H](C)[C@@H]1CC[C@H]2[C@H]3CC[C@H]4C[C@@H](O)CC[C@@]4(C)[C@H]3CC[C@]21C)C(C)C
REMARK SMILES IDX 6 1 7 2 5 3 4 4 3 5 2 6 1 7 28 8 29 9 30 10 8 11 9 12 26 13
REMARK SMILES IDX 10 14 11 15 25 16 27 17 12 18 24 19 23 20 13 21 21 22 14 23
REMARK SMILES IDX 15 24 20 25 22 26 16 27 19 28 17 29 18 30
REMARK H PARENT 18 31
REMARK Flexibility Score: inf
ROOT
ATOM      1  C   UNL     1      -0.212  21.215  47.717  1.00  0.00     0.012 C 
ATOM      2  C   UNL     1       1.030  21.320  46.810  1.00  0.00     0.012 C 
ENDROOT
BRANCH   1   3
ATOM      3  C   UNL     1      -0.996  19.986  47.297  1.00  0.00    -0.028 C 
ATOM      4  C   UNL     1      -2.210  20.092  46.731  1.00  0.00    -0.027 C 
BRANCH   4   5
ATOM      5  C   UNL     1      -3.035  18.871  46.374  1.00  0.00     0.014 C 
BRANCH   5   6
ATOM      6  C   UNL     1      -2.112  17.741  45.856  1.00  0.00     0.004 C 
ATOM      7  C   UNL     1      -2.757  16.946  44.716  1.00  0.00     0.004 C 
ENDBRANCH   5   6
BRANCH   5   8
ATOM      8  C   UNL     1      -3.925  18.449  47.583  1.00  0.00    -0.011 C 
ATOM      9  C   UNL     1      -4.373  19.633  48.456  1.00  0.00     0.008 C 
ATOM     10  C   UNL     1      -3.247  17.376  48.451  1.00  0.00     0.008 C 
ENDBRANCH   5   8
ENDBRANCH   4   5
ENDBRANCH   1   3
BRANCH   1  11
ATOM     11  C   UNL     1      -1.139  22.481  47.721  1.00  0.00     0.002 C 
ATOM     12  C   UNL     1      -0.719  23.603  46.773  1.00  0.00     0.005 C 
ATOM     13  C   UNL     1      -1.480  23.175  49.095  1.00  0.00    -0.026 C 
ATOM     14  C   UNL     1      -1.556  24.786  47.215  1.00  0.00     0.005 C 
ATOM     15  C   UNL     1      -1.559  24.700  48.742  1.00  0.00    -0.001 C 
ATOM     16  C   UNL     1      -2.835  22.626  49.644  1.00  0.00     0.007 C 
ATOM     17  C   UNL     1      -0.403  22.974  50.193  1.00  0.00     0.012 C 
ATOM     18  C   UNL     1      -2.692  25.490  49.473  1.00  0.00    -0.004 C 
ATOM     19  C   UNL     1      -4.051  23.333  49.032  1.00  0.00     0.005 C 
ATOM     20  C   UNL     1      -4.106  24.805  49.499  1.00  0.00    -0.001 C 
ATOM     21  C   UNL     1      -2.717  26.975  49.072  1.00  0.00     0.004 C 
ATOM     22  C   UNL     1      -5.298  25.654  48.901  1.00  0.00    -0.026 C 
ATOM     23  C   UNL     1      -3.855  27.716  49.766  1.00  0.00     0.004 C 
ATOM     24  C   UNL     1      -5.271  27.097  49.545  1.00  0.00    -0.002 C 
ATOM     25  C   UNL     1      -5.253  25.726  47.340  1.00  0.00     0.010 C 
ATOM     26  C   UNL     1      -6.635  24.964  49.307  1.00  0.00     0.012 C 
ATOM     27  C   UNL     1      -6.231  28.100  48.852  1.00  0.00     0.036 C 
ATOM     28  C   UNL     1      -6.264  26.719  46.744  1.00  0.00     0.032 C 
ATOM     29  C   UNL     1      -6.093  28.125  47.326  1.00  0.00     0.114 C 
BRANCH  29  30
ATOM     30  O   UNL     1      -4.842  28.658  46.964  1.00  0.00    -0.393 OA
ATOM     31  H   UNL     1      -4.390  28.938  47.800  1.00  0.00     0.210 HD
ENDBRANCH  29  30
ENDBRANCH   1  11
TORSDOF 6
ENDMDL
MODEL 9
REMARK VINA RESULT:    -6.942      3.699      8.126
REMARK INTER + INTRA:         -10.719
REMARK INTER:                  -9.101
REMARK INTRA:                  -1.618
REMARK UNBOUND:                -1.545
REMARK SMILES CC[C@H](C=C[C@@H](C)[C@@H]1CC[C@H]2[C@H]3CC[C@H]4C[C@@H](O)CC[C@@]4(C)[C@H]3CC[C@]21C)C(C)C
REMARK SMILES IDX 6 1 7 2 5 3 4 4 3 5 2 6 1 7 28 8 29 9 30 10 8 11 9 12 26 13
REMARK SMILES IDX 10 14 11 15 25 16 27 17 12 18 24 19 23 20 13 21 21 22 14 23
REMARK SMILES IDX 15 24 20 25 22 26 16 27 19 28 17 29 18 30
REMARK H PARENT 18 31
REMARK Flexibility Score: inf
ROOT
ATOM      1  C   UNL     1      -1.211  22.961  50.004  1.00  0.00     0.012 C 
ATOM      2  C   UNL     1       0.281  22.994  49.619  1.00  0.00     0.012 C 
ENDROOT
BRANCH   1   3
ATOM      3  C   UNL     1      -1.771  21.611  49.599  1.00  0.00    -0.028 C 
ATOM      4  C   UNL     1      -3.014  21.490  49.105  1.00  0.00    -0.027 C 
BRANCH   4   5
ATOM      5  C   UNL     1      -3.611  20.139  48.765  1.00  0.00     0.014 C 
BRANCH   5   6
ATOM      6  C   UNL     1      -4.781  20.313  47.765  1.00  0.00     0.004 C 
ATOM      7  C   UNL     1      -5.165  21.784  47.577  1.00  0.00     0.004 C 
ENDBRANCH   5   6
BRANCH   5   8
ATOM      8  C   UNL     1      -2.498  19.168  48.265  1.00  0.00    -0.011 C 
ATOM      9  C   UNL     1      -2.184  19.316  46.766  1.00  0.00     0.008 C 
ATOM     10  C   UNL     1      -2.820  17.701  48.597  1.00  0.00     0.008 C 
ENDBRANCH   5   8
ENDBRANCH   4   5
ENDBRANCH   1   3
BRANCH   1  11
ATOM     11  C   UNL     1      -2.078  24.118  49.395  1.00  0.00     0.002 C 
ATOM     12  C   UNL     1      -1.449  24.856  48.214  1.00  0.00     0.005 C 
ATOM     13  C   UNL     1      -2.647  25.234  50.352  1.00  0.00    -0.026 C 
ATOM     14  C   UNL     1      -2.312  26.090  48.052  1.00  0.00     0.005 C 
ATOM     15  C   UNL     1      -2.606  26.539  49.485  1.00  0.00    -0.001 C 
ATOM     16  C   UNL     1      -4.100  24.864  50.791  1.00  0.00     0.007 C 
ATOM     17  C   UNL     1      -1.804  25.462  51.634  1.00  0.00     0.012 C 
ATOM     18  C   UNL     1      -3.828  27.494  49.669  1.00  0.00    -0.004 C 
ATOM     19  C   UNL     1      -5.154  25.273  49.755  1.00  0.00     0.005 C 
ATOM     20  C   UNL     1      -5.245  26.814  49.664  1.00  0.00    -0.001 C 
ATOM     21  C   UNL     1      -3.726  28.746  48.782  1.00  0.00     0.004 C 
ATOM     22  C   UNL     1      -6.273  27.362  48.596  1.00  0.00    -0.026 C 
ATOM     23  C   UNL     1      -4.949  29.644  48.949  1.00  0.00     0.004 C 
ATOM     24  C   UNL     1      -6.318  28.939  48.694  1.00  0.00    -0.002 C 
ATOM     25  C   UNL     1      -5.933  26.891  47.145  1.00  0.00     0.010 C 
ATOM     26  C   UNL     1      -7.685  26.811  48.956  1.00  0.00     0.012 C 
ATOM     27  C   UNL     1      -7.096  29.606  47.528  1.00  0.00     0.036 C 
ATOM     28  C   UNL     1      -6.778  27.580  46.063  1.00  0.00     0.032 C 
ATOM     29  C   UNL     1      -6.671  29.106  46.143  1.00  0.00     0.114 C 
BRANCH  29  30
ATOM     30  O   UNL     1      -5.358  29.522  45.861  1.00  0.00    -0.393 OA
ATOM     31  H   UNL     1      -5.203  30.365  46.361  1.00  0.00     0.210 HD
ENDBRANCH  29  30
ENDBRANCH   1  11
TORSDOF 6
ENDMDL
