MODEL 1
REMARK VINA RESULT:    -3.134      0.000      0.000
REMARK INTER + INTRA:          -4.276
REMARK INTER:                  -4.142
REMARK INTRA:                  -0.134
REMARK UNBOUND:                -0.134
REMARK SMILES C=C[C@H](O)CCCCC
REMARK SMILES IDX 6 1 7 2 8 3 9 4 5 5 3 6 2 7 1 8 4 9
REMARK H PARENT 4 10
REMARK Flexibility Score: inf
ROOT
ATOM      1  C   UNL     1       0.395   1.881  -4.095  1.00  0.00     0.003 C 
ENDROOT
BRANCH   1   2
ATOM      2  C   UNL     1       1.929   1.862  -3.998  1.00  0.00    -0.000 C 
BRANCH   2   3
ATOM      3  C   UNL     1       2.460   0.620  -3.266  1.00  0.00    -0.003 C 
ATOM      4  C   UNL     1       3.941   0.730  -2.909  1.00  0.00     0.004 C 
ENDBRANCH   2   3
ENDBRANCH   1   2
BRANCH   1   5
ATOM      5  C   UNL     1      -0.063   2.506  -5.423  1.00  0.00     0.036 C 
BRANCH   5   6
ATOM      6  C   UNL     1      -1.551   2.912  -5.441  1.00  0.00     0.136 C 
BRANCH   6   7
ATOM      7  C   UNL     1      -1.861   4.020  -4.456  1.00  0.00    -0.004 C 
ATOM      8  C   UNL     1      -3.106   4.479  -4.301  1.00  0.00     0.007 C 
ENDBRANCH   6   7
BRANCH   6   9
ATOM      9  O   UNL     1      -2.384   1.795  -5.245  1.00  0.00    -0.389 OA
ATOM     10  H   UNL     1      -2.697   1.485  -6.135  1.00  0.00     0.211 HD
ENDBRANCH   6   9
ENDBRANCH   5   6
ENDBRANCH   1   5
TORSDOF 6
ENDMDL
MODEL 2
REMARK VINA RESULT:    -3.129      2.009      2.524
REMARK INTER + INTRA:          -4.270
REMARK INTER:                  -4.041
REMARK INTRA:                  -0.228
REMARK UNBOUND:                -0.134
REMARK SMILES C=C[C@H](O)CCCCC
REMARK SMILES IDX 6 1 7 2 8 3 9 4 5 5 3 6 2 7 1 8 4 9
REMARK H PARENT 4 10
REMARK Flexibility Score: inf
ROOT
ATOM      1  C   UNL     1       2.572   2.275  -4.105  1.00  0.00     0.003 C 
ENDROOT
BRANCH   1   2
ATOM      2  C   UNL     1       3.748   1.642  -3.344  1.00  0.00    -0.000 C 
BRANCH   2   3
ATOM      3  C   UNL     1       3.560   0.135  -3.115  1.00  0.00    -0.003 C 
ATOM      4  C   UNL     1       4.729  -0.499  -2.362  1.00  0.00     0.004 C 
ENDBRANCH   2   3
ENDBRANCH   1   2
BRANCH   1   5
ATOM      5  C   UNL     1       1.265   1.513  -3.828  1.00  0.00     0.036 C 
BRANCH   5   6
ATOM      6  C   UNL     1       0.021   2.152  -4.479  1.00  0.00     0.136 C 
BRANCH   6   7
ATOM      7  C   UNL     1       0.368   2.993  -5.690  1.00  0.00    -0.004 C 
ATOM      8  C   UNL     1       0.130   2.553  -6.928  1.00  0.00     0.007 C 
ENDBRANCH   6   7
BRANCH   6   9
ATOM      9  O   UNL     1      -0.726   2.882  -3.536  1.00  0.00    -0.389 OA
ATOM     10  H   UNL     1      -1.075   3.697  -3.984  1.00  0.00     0.211 HD
ENDBRANCH   6   9
ENDBRANCH   5   6
ENDBRANCH   1   5
TORSDOF 6
ENDMDL
MODEL 3
REMARK VINA RESULT:    -3.108      1.360      2.054
REMARK INTER + INTRA:          -4.242
REMARK INTER:                  -3.600
REMARK INTRA:                  -0.642
REMARK UNBOUND:                -0.134
REMARK SMILES C=C[C@H](O)CCCCC
REMARK SMILES IDX 6 1 7 2 8 3 9 4 5 5 3 6 2 7 1 8 4 9
REMARK H PARENT 4 10
REMARK Flexibility Score: inf
ROOT
ATOM      1  C   UNL     1       0.165   2.493  -6.462  1.00  0.00     0.003 C 
ENDROOT
BRANCH   1   2
ATOM      2  C   UNL     1       1.333   3.413  -6.073  1.00  0.00    -0.000 C 
BRANCH   2   3
ATOM      3  C   UNL     1       1.744   3.256  -4.601  1.00  0.00    -0.003 C 
ATOM      4  C   UNL     1       1.429   1.868  -4.043  1.00  0.00     0.004 C 
ENDBRANCH   2   3
ENDBRANCH   1   2
BRANCH   1   5
ATOM      5  C   UNL     1      -1.155   3.279  -6.524  1.00  0.00     0.036 C 
BRANCH   5   6
ATOM      6  C   UNL     1      -2.131   2.951  -5.376  1.00  0.00     0.136 C 
BRANCH   6   7
ATOM      7  C   UNL     1      -2.091   3.983  -4.268  1.00  0.00    -0.004 C 
ATOM      8  C   UNL     1      -1.560   5.192  -4.468  1.00  0.00     0.007 C 
ENDBRANCH   6   7
BRANCH   6   9
ATOM      9  O   UNL     1      -1.915   1.650  -4.882  1.00  0.00    -0.389 OA
ATOM     10  H   UNL     1      -2.628   1.062  -5.243  1.00  0.00     0.211 HD
ENDBRANCH   6   9
ENDBRANCH   5   6
ENDBRANCH   1   5
TORSDOF 6
ENDMDL
MODEL 4
REMARK VINA RESULT:    -3.107      2.314      4.876
REMARK INTER + INTRA:          -4.240
REMARK INTER:                  -3.700
REMARK INTRA:                  -0.541
REMARK UNBOUND:                -0.134
REMARK SMILES C=C[C@H](O)CCCCC
REMARK SMILES IDX 6 1 7 2 8 3 9 4 5 5 3 6 2 7 1 8 4 9
REMARK H PARENT 4 10
REMARK Flexibility Score: inf
ROOT
ATOM      1  C   UNL     1      -2.203   4.236  -4.391  1.00  0.00     0.003 C 
ENDROOT
BRANCH   1   2
ATOM      2  C   UNL     1      -3.159   4.030  -5.576  1.00  0.00    -0.000 C 
BRANCH   2   3
ATOM      3  C   UNL     1      -3.023   2.637  -6.210  1.00  0.00    -0.003 C 
ATOM      4  C   UNL     1      -3.042   2.677  -7.737  1.00  0.00     0.004 C 
ENDBRANCH   2   3
ENDBRANCH   1   2
BRANCH   1   5
ATOM      5  C   UNL     1      -0.757   4.432  -4.879  1.00  0.00     0.036 C 
BRANCH   5   6
ATOM      6  C   UNL     1       0.231   3.378  -4.341  1.00  0.00     0.136 C 
BRANCH   6   7
ATOM      7  C   UNL     1       1.040   2.725  -5.442  1.00  0.00    -0.004 C 
ATOM      8  C   UNL     1       0.588   2.681  -6.698  1.00  0.00     0.007 C 
ENDBRANCH   6   7
BRANCH   6   9
ATOM      9  O   UNL     1      -0.429   2.423  -3.545  1.00  0.00    -0.389 OA
ATOM     10  H   UNL     1      -1.380   2.697  -3.462  1.00  0.00     0.211 HD
ENDBRANCH   6   9
ENDBRANCH   5   6
ENDBRANCH   1   5
TORSDOF 6
ENDMDL
MODEL 5
REMARK VINA RESULT:    -3.093      1.840      4.635
REMARK INTER + INTRA:          -4.222
REMARK INTER:                  -3.725
REMARK INTRA:                  -0.497
REMARK UNBOUND:                -0.134
REMARK SMILES C=C[C@H](O)CCCCC
REMARK SMILES IDX 6 1 7 2 8 3 9 4 5 5 3 6 2 7 1 8 4 9
REMARK H PARENT 4 10
REMARK Flexibility Score: inf
ROOT
ATOM      1  C   UNL     1       0.043   2.532  -6.631  1.00  0.00     0.003 C 
ENDROOT
BRANCH   1   2
ATOM      2  C   UNL     1      -1.331   3.218  -6.698  1.00  0.00    -0.000 C 
BRANCH   2   3
ATOM      3  C   UNL     1      -2.254   2.808  -5.540  1.00  0.00    -0.003 C 
ATOM      4  C   UNL     1      -2.399   3.901  -4.483  1.00  0.00     0.004 C 
ENDBRANCH   2   3
ENDBRANCH   1   2
BRANCH   1   5
ATOM      5  C   UNL     1       1.120   3.507  -6.127  1.00  0.00     0.036 C 
BRANCH   5   6
ATOM      6  C   UNL     1       1.457   3.345  -4.631  1.00  0.00     0.136 C 
BRANCH   6   7
ATOM      7  C   UNL     1       1.032   1.998  -4.084  1.00  0.00    -0.004 C 
ATOM      8  C   UNL     1       1.911   1.181  -3.497  1.00  0.00     0.007 C 
ENDBRANCH   6   7
BRANCH   6   9
ATOM      9  O   UNL     1       0.926   4.404  -3.873  1.00  0.00    -0.389 OA
ATOM     10  H   UNL     1      -0.010   4.555  -4.168  1.00  0.00     0.211 HD
ENDBRANCH   6   9
ENDBRANCH   5   6
ENDBRANCH   1   5
TORSDOF 6
ENDMDL
MODEL 6
REMARK VINA RESULT:    -3.077      3.170      5.923
REMARK INTER + INTRA:          -4.200
REMARK INTER:                  -3.990
REMARK INTRA:                  -0.210
REMARK UNBOUND:                -0.134
REMARK SMILES C=C[C@H](O)CCCCC
REMARK SMILES IDX 6 1 7 2 8 3 9 4 5 5 3 6 2 7 1 8 4 9
REMARK H PARENT 4 10
REMARK Flexibility Score: inf
ROOT
ATOM      1  C   UNL     1       1.732   1.113  -3.491  1.00  0.00     0.003 C 
ENDROOT
BRANCH   1   2
ATOM      2  C   UNL     1       0.582   1.927  -4.105  1.00  0.00    -0.000 C 
BRANCH   2   3
ATOM      3  C   UNL     1       1.056   2.875  -5.217  1.00  0.00    -0.003 C 
ATOM      4  C   UNL     1       0.369   2.608  -6.556  1.00  0.00     0.004 C 
ENDBRANCH   2   3
ENDBRANCH   1   2
BRANCH   1   5
ATOM      5  C   UNL     1       3.080   1.825  -3.700  1.00  0.00     0.036 C 
BRANCH   5   6
ATOM      6  C   UNL     1       4.239   1.216  -2.885  1.00  0.00     0.136 C 
BRANCH   6   7
ATOM      7  C   UNL     1       5.178   0.391  -3.739  1.00  0.00    -0.004 C 
ATOM      8  C   UNL     1       5.262  -0.934  -3.593  1.00  0.00     0.007 C 
ENDBRANCH   6   7
BRANCH   6   9
ATOM      9  O   UNL     1       3.755   0.481  -1.786  1.00  0.00    -0.389 OA
ATOM     10  H   UNL     1       4.118   0.891  -0.958  1.00  0.00     0.211 HD
ENDBRANCH   6   9
ENDBRANCH   5   6
ENDBRANCH   1   5
TORSDOF 6
ENDMDL
MODEL 7
REMARK VINA RESULT:    -3.019     11.983     12.664
REMARK INTER + INTRA:          -4.125
REMARK INTER:                  -3.581
REMARK INTRA:                  -0.544
REMARK UNBOUND:                -0.134
REMARK SMILES C=C[C@H](O)CCCCC
REMARK SMILES IDX 6 1 7 2 8 3 9 4 5 5 3 6 2 7 1 8 4 9
REMARK H PARENT 4 10
REMARK Flexibility Score: inf
ROOT
ATOM      1  C   UNL     1      -2.494   2.329   8.900  1.00  0.00     0.003 C 
ENDROOT
BRANCH   1   2
ATOM      2  C   UNL     1      -1.372   2.674   9.892  1.00  0.00    -0.000 C 
BRANCH   2   3
ATOM      3  C   UNL     1       0.015   2.253   9.384  1.00  0.00    -0.003 C 
ATOM      4  C   UNL     1       0.755   3.387   8.675  1.00  0.00     0.004 C 
ENDBRANCH   2   3
ENDBRANCH   1   2
BRANCH   1   5
ATOM      5  C   UNL     1      -2.165   1.042   8.124  1.00  0.00     0.036 C 
BRANCH   5   6
ATOM      6  C   UNL     1      -2.178   1.218   6.592  1.00  0.00     0.136 C 
BRANCH   6   7
ATOM      7  C   UNL     1      -1.015   0.518   5.918  1.00  0.00    -0.004 C 
ATOM      8  C   UNL     1      -0.211  -0.301   6.601  1.00  0.00     0.007 C 
ENDBRANCH   6   7
BRANCH   6   9
ATOM      9  O   UNL     1      -2.241   2.578   6.237  1.00  0.00    -0.389 OA
ATOM     10  H   UNL     1      -3.001   2.697   5.610  1.00  0.00     0.211 HD
ENDBRANCH   6   9
ENDBRANCH   5   6
ENDBRANCH   1   5
TORSDOF 6
ENDMDL
MODEL 8
REMARK VINA RESULT:    -2.990      1.395      1.691
REMARK INTER + INTRA:          -4.086
REMARK INTER:                  -3.886
REMARK INTRA:                  -0.200
REMARK UNBOUND:                -0.134
REMARK SMILES C=C[C@H](O)CCCCC
REMARK SMILES IDX 6 1 7 2 8 3 9 4 5 5 3 6 2 7 1 8 4 9
REMARK H PARENT 4 10
REMARK Flexibility Score: inf
ROOT
ATOM      1  C   UNL     1       0.758   2.564  -5.849  1.00  0.00     0.003 C 
ENDROOT
BRANCH   1   2
ATOM      2  C   UNL     1       1.696   2.573  -4.632  1.00  0.00    -0.000 C 
BRANCH   2   3
ATOM      3  C   UNL     1       1.450   1.385  -3.688  1.00  0.00    -0.003 C 
ATOM      4  C   UNL     1       2.739   0.666  -3.293  1.00  0.00     0.004 C 
ENDBRANCH   2   3
ENDBRANCH   1   2
BRANCH   1   5
ATOM      5  C   UNL     1      -0.348   3.621  -5.698  1.00  0.00     0.036 C 
BRANCH   5   6
ATOM      6  C   UNL     1      -1.588   3.120  -4.929  1.00  0.00     0.136 C 
BRANCH   6   7
ATOM      7  C   UNL     1      -2.884   3.640  -5.516  1.00  0.00    -0.004 C 
ATOM      8  C   UNL     1      -3.335   3.199  -6.694  1.00  0.00     0.007 C 
ENDBRANCH   6   7
BRANCH   6   9
ATOM      9  O   UNL     1      -1.486   3.413  -3.556  1.00  0.00    -0.389 OA
ATOM     10  H   UNL     1      -2.325   3.864  -3.275  1.00  0.00     0.211 HD
ENDBRANCH   6   9
ENDBRANCH   5   6
ENDBRANCH   1   5
TORSDOF 6
ENDMDL
MODEL 9
REMARK VINA RESULT:    -2.930      1.567      2.702
REMARK INTER + INTRA:          -4.006
REMARK INTER:                  -3.475
REMARK INTRA:                  -0.531
REMARK UNBOUND:                -0.134
REMARK SMILES C=C[C@H](O)CCCCC
REMARK SMILES IDX 6 1 7 2 8 3 9 4 5 5 3 6 2 7 1 8 4 9
REMARK H PARENT 4 10
REMARK Flexibility Score: inf
ROOT
ATOM      1  C   UNL     1      -0.584   3.469  -4.174  1.00  0.00     0.003 C 
ENDROOT
BRANCH   1   2
ATOM      2  C   UNL     1      -0.040   2.036  -4.064  1.00  0.00    -0.000 C 
BRANCH   2   3
ATOM      3  C   UNL     1       1.492   1.976  -4.168  1.00  0.00    -0.003 C 
ATOM      4  C   UNL     1       2.075   3.120  -4.997  1.00  0.00     0.004 C 
ENDBRANCH   2   3
ENDBRANCH   1   2
BRANCH   1   5
ATOM      5  C   UNL     1      -1.997   3.474  -4.780  1.00  0.00     0.036 C 
BRANCH   5   6
ATOM      6  C   UNL     1      -2.114   2.680  -6.097  1.00  0.00     0.136 C 
BRANCH   6   7
ATOM      7  C   UNL     1      -1.300   3.292  -7.218  1.00  0.00    -0.004 C 
ATOM      8  C   UNL     1      -0.336   2.599  -7.830  1.00  0.00     0.007 C 
ENDBRANCH   6   7
BRANCH   6   9
ATOM      9  O   UNL     1      -3.461   2.507  -6.468  1.00  0.00    -0.389 OA
ATOM     10  H   UNL     1      -3.989   3.242  -6.060  1.00  0.00     0.211 HD
ENDBRANCH   6   9
ENDBRANCH   5   6
ENDBRANCH   1   5
TORSDOF 6
ENDMDL
