MODEL 1
REMARK VINA RESULT:    -4.795      0.000      0.000
REMARK INTER + INTRA:          -4.795
REMARK INTER:                  -4.795
REMARK INTRA:                   0.000
REMARK UNBOUND:                 0.000
REMARK SMILES CC1=CC(=O)[C@@H]2C[C@H]1C2(C)C
REMARK SMILES IDX 1 1 2 2 3 3 4 4 5 5 6 6 7 7 8 8 9 9 10 10 11 11
REMARK H PARENT
REMARK Flexibility Score: inf
ROOT
ATOM      1  C   UNL     1     211.615 204.540 218.607  1.00  0.00     0.040 C 
ATOM      2  C   UNL     1     212.500 204.479 217.401  1.00  0.00    -0.066 C 
ATOM      3  C   UNL     1     212.970 205.613 216.810  1.00  0.00     0.047 C 
ATOM      4  C   UNL     1     213.871 205.420 215.628  1.00  0.00     0.159 C 
ATOM      5  O   UNL     1     214.400 206.386 215.020  1.00  0.00    -0.295 OA
ATOM      6  C   UNL     1     214.103 203.967 215.213  1.00  0.00     0.067 C 
ATOM      7  C   UNL     1     212.693 203.336 215.240  1.00  0.00     0.021 C 
ATOM      8  C   UNL     1     212.907 203.137 216.758  1.00  0.00     0.022 C 
ATOM      9  C   UNL     1     214.439 203.137 216.485  1.00  0.00    -0.019 C 
ATOM     10  C   UNL     1     215.376 203.769 217.553  1.00  0.00     0.012 C 
ATOM     11  C   UNL     1     214.976 201.725 216.143  1.00  0.00     0.012 C 
ENDROOT
TORSDOF 0
ENDMDL
MODEL 2
REMARK VINA RESULT:    -4.784     13.973     15.822
REMARK INTER + INTRA:          -4.784
REMARK INTER:                  -4.784
REMARK INTRA:                   0.000
REMARK UNBOUND:                 0.000
REMARK SMILES CC1=CC(=O)[C@@H]2C[C@H]1C2(C)C
REMARK SMILES IDX 1 1 2 2 3 3 4 4 5 5 6 6 7 7 8 8 9 9 10 10 11 11
REMARK H PARENT
REMARK Flexibility Score: inf
ROOT
ATOM      1  C   UNL     1     200.695 207.695 218.641  1.00  0.00     0.040 C 
ATOM      2  C   UNL     1     199.800 207.738 217.443  1.00  0.00    -0.066 C 
ATOM      3  C   UNL     1     199.287 206.599 216.900  1.00  0.00     0.047 C 
ATOM      4  C   UNL     1     198.380 206.777 215.721  1.00  0.00     0.159 C 
ATOM      5  O   UNL     1     197.813 205.806 215.156  1.00  0.00    -0.295 OA
ATOM      6  C   UNL     1     198.190 208.220 215.253  1.00  0.00     0.067 C 
ATOM      7  C   UNL     1     199.620 208.805 215.242  1.00  0.00     0.021 C 
ATOM      8  C   UNL     1     199.430 209.068 216.753  1.00  0.00     0.022 C 
ATOM      9  C   UNL     1     197.895 209.108 216.495  1.00  0.00    -0.019 C 
ATOM     10  C   UNL     1     196.950 208.548 217.596  1.00  0.00     0.012 C 
ATOM     11  C   UNL     1     197.400 210.523 216.104  1.00  0.00     0.012 C 
ENDROOT
TORSDOF 0
ENDMDL
MODEL 3
REMARK VINA RESULT:    -4.721     13.918     14.978
REMARK INTER + INTRA:          -4.721
REMARK INTER:                  -4.721
REMARK INTRA:                   0.000
REMARK UNBOUND:                 0.000
REMARK SMILES CC1=CC(=O)[C@@H]2C[C@H]1C2(C)C
REMARK SMILES IDX 1 1 2 2 3 3 4 4 5 5 6 6 7 7 8 8 9 9 10 10 11 11
REMARK H PARENT
REMARK Flexibility Score: inf
ROOT
ATOM      1  C   UNL     1     200.872 207.623 218.972  1.00  0.00     0.040 C 
ATOM      2  C   UNL     1     199.875 207.704 217.860  1.00  0.00    -0.066 C 
ATOM      3  C   UNL     1     199.084 208.802 217.695  1.00  0.00     0.047 C 
ATOM      4  C   UNL     1     198.147 208.774 216.526  1.00  0.00     0.159 C 
ATOM      5  O   UNL     1     197.395 209.743 216.245  1.00  0.00    -0.295 OA
ATOM      6  C   UNL     1     198.170 207.488 215.700  1.00  0.00     0.067 C 
ATOM      7  C   UNL     1     198.146 206.360 216.755  1.00  0.00     0.021 C 
ATOM      8  C   UNL     1     199.677 206.546 216.860  1.00  0.00     0.022 C 
ATOM      9  C   UNL     1     199.651 207.112 215.410  1.00  0.00    -0.019 C 
ATOM     10  C   UNL     1     200.645 208.251 215.048  1.00  0.00     0.012 C 
ATOM     11  C   UNL     1     199.778 205.999 214.340  1.00  0.00     0.012 C 
ENDROOT
TORSDOF 0
ENDMDL
MODEL 4
REMARK VINA RESULT:    -4.686     14.109     15.409
REMARK INTER + INTRA:          -4.686
REMARK INTER:                  -4.686
REMARK INTRA:                   0.000
REMARK UNBOUND:                 0.000
REMARK SMILES CC1=CC(=O)[C@@H]2C[C@H]1C2(C)C
REMARK SMILES IDX 1 1 2 2 3 3 4 4 5 5 6 6 7 7 8 8 9 9 10 10 11 11
REMARK H PARENT
REMARK Flexibility Score: inf
ROOT
ATOM      1  C   UNL     1     196.313 208.977 217.902  1.00  0.00     0.040 C 
ATOM      2  C   UNL     1     197.459 208.629 217.005  1.00  0.00    -0.066 C 
ATOM      3  C   UNL     1     198.259 209.594 216.470  1.00  0.00     0.047 C 
ATOM      4  C   UNL     1     199.391 209.116 215.613  1.00  0.00     0.159 C 
ATOM      5  O   UNL     1     200.222 209.906 215.094  1.00  0.00    -0.295 OA
ATOM      6  C   UNL     1     199.468 207.602 215.414  1.00  0.00     0.067 C 
ATOM      7  C   UNL     1     198.013 207.188 215.099  1.00  0.00     0.021 C 
ATOM      8  C   UNL     1     197.781 207.168 216.628  1.00  0.00     0.022 C 
ATOM      9  C   UNL     1     199.307 206.912 216.799  1.00  0.00    -0.019 C 
ATOM     10  C   UNL     1     200.024 207.543 218.026  1.00  0.00     0.012 C 
ATOM     11  C   UNL     1     199.661 205.405 216.751  1.00  0.00     0.012 C 
ENDROOT
TORSDOF 0
ENDMDL
MODEL 5
REMARK VINA RESULT:    -4.673      1.597      3.090
REMARK INTER + INTRA:          -4.673
REMARK INTER:                  -4.673
REMARK INTRA:                   0.000
REMARK UNBOUND:                 0.000
REMARK SMILES CC1=CC(=O)[C@@H]2C[C@H]1C2(C)C
REMARK SMILES IDX 1 1 2 2 3 3 4 4 5 5 6 6 7 7 8 8 9 9 10 10 11 11
REMARK H PARENT
REMARK Flexibility Score: inf
ROOT
ATOM      1  C   UNL     1     211.555 204.546 218.988  1.00  0.00     0.040 C 
ATOM      2  C   UNL     1     212.499 204.477 217.829  1.00  0.00    -0.066 C 
ATOM      3  C   UNL     1     213.246 203.363 217.589  1.00  0.00     0.047 C 
ATOM      4  C   UNL     1     214.130 203.406 216.380  1.00  0.00     0.159 C 
ATOM      5  O   UNL     1     214.838 202.426 216.030  1.00  0.00    -0.295 OA
ATOM      6  C   UNL     1     214.110 204.721 215.601  1.00  0.00     0.067 C 
ATOM      7  C   UNL     1     214.217 205.809 216.693  1.00  0.00     0.021 C 
ATOM      8  C   UNL     1     212.687 205.665 216.862  1.00  0.00     0.022 C 
ATOM      9  C   UNL     1     212.630 205.152 215.394  1.00  0.00    -0.019 C 
ATOM     10  C   UNL     1     211.585 204.056 215.038  1.00  0.00     0.012 C 
ATOM     11  C   UNL     1     212.490 206.307 214.371  1.00  0.00     0.012 C 
ENDROOT
TORSDOF 0
ENDMDL
MODEL 6
REMARK VINA RESULT:    -4.673      1.607      3.432
REMARK INTER + INTRA:          -4.673
REMARK INTER:                  -4.673
REMARK INTRA:                   0.000
REMARK UNBOUND:                 0.000
REMARK SMILES CC1=CC(=O)[C@@H]2C[C@H]1C2(C)C
REMARK SMILES IDX 1 1 2 2 3 3 4 4 5 5 6 6 7 7 8 8 9 9 10 10 11 11
REMARK H PARENT
REMARK Flexibility Score: inf
ROOT
ATOM      1  C   UNL     1     215.868 203.378 217.875  1.00  0.00     0.040 C 
ATOM      2  C   UNL     1     214.748 203.767 216.962  1.00  0.00    -0.066 C 
ATOM      3  C   UNL     1     213.944 202.830 216.386  1.00  0.00     0.047 C 
ATOM      4  C   UNL     1     212.840 203.348 215.516  1.00  0.00     0.159 C 
ATOM      5  O   UNL     1     212.008 202.585 214.960  1.00  0.00    -0.295 OA
ATOM      6  C   UNL     1     212.795 204.867 215.351  1.00  0.00     0.067 C 
ATOM      7  C   UNL     1     214.263 205.262 215.079  1.00  0.00     0.021 C 
ATOM      8  C   UNL     1     214.461 205.243 216.612  1.00  0.00     0.022 C 
ATOM      9  C   UNL     1     212.936 205.522 216.755  1.00  0.00    -0.019 C 
ATOM     10  C   UNL     1     212.181 204.876 217.951  1.00  0.00     0.012 C 
ATOM     11  C   UNL     1     212.610 207.036 216.735  1.00  0.00     0.012 C 
ENDROOT
TORSDOF 0
ENDMDL
MODEL 7
REMARK VINA RESULT:    -4.671      1.107      3.152
REMARK INTER + INTRA:          -4.671
REMARK INTER:                  -4.671
REMARK INTRA:                   0.000
REMARK UNBOUND:                 0.000
REMARK SMILES CC1=CC(=O)[C@@H]2C[C@H]1C2(C)C
REMARK SMILES IDX 1 1 2 2 3 3 4 4 5 5 6 6 7 7 8 8 9 9 10 10 11 11
REMARK H PARENT
REMARK Flexibility Score: inf
ROOT
ATOM      1  C   UNL     1     213.443 200.879 215.356  1.00  0.00     0.040 C 
ATOM      2  C   UNL     1     213.588 202.321 215.729  1.00  0.00    -0.066 C 
ATOM      3  C   UNL     1     214.070 203.237 214.843  1.00  0.00     0.047 C 
ATOM      4  C   UNL     1     214.139 204.654 215.326  1.00  0.00     0.159 C 
ATOM      5  O   UNL     1     214.529 205.597 214.590  1.00  0.00    -0.295 OA
ATOM      6  C   UNL     1     213.701 204.873 216.774  1.00  0.00     0.067 C 
ATOM      7  C   UNL     1     214.400 203.740 217.557  1.00  0.00     0.021 C 
ATOM      8  C   UNL     1     213.218 202.838 217.135  1.00  0.00     0.022 C 
ATOM      9  C   UNL     1     212.355 204.127 217.003  1.00  0.00    -0.019 C 
ATOM     10  C   UNL     1     211.281 204.180 215.880  1.00  0.00     0.012 C 
ATOM     11  C   UNL     1     211.681 204.524 218.340  1.00  0.00     0.012 C 
ENDROOT
TORSDOF 0
ENDMDL
MODEL 8
REMARK VINA RESULT:    -4.654     13.860     15.575
REMARK INTER + INTRA:          -4.654
REMARK INTER:                  -4.654
REMARK INTRA:                   0.000
REMARK UNBOUND:                 0.000
REMARK SMILES CC1=CC(=O)[C@@H]2C[C@H]1C2(C)C
REMARK SMILES IDX 1 1 2 2 3 3 4 4 5 5 6 6 7 7 8 8 9 9 10 10 11 11
REMARK H PARENT
REMARK Flexibility Score: inf
ROOT
ATOM      1  C   UNL     1     198.924 211.194 215.021  1.00  0.00     0.040 C 
ATOM      2  C   UNL     1     198.718 209.807 215.542  1.00  0.00    -0.066 C 
ATOM      3  C   UNL     1     198.235 208.814 214.743  1.00  0.00     0.047 C 
ATOM      4  C   UNL     1     198.102 207.461 215.374  1.00  0.00     0.159 C 
ATOM      5  O   UNL     1     197.706 206.455 214.731  1.00  0.00    -0.295 OA
ATOM      6  C   UNL     1     198.482 207.389 216.853  1.00  0.00     0.067 C 
ATOM      7  C   UNL     1     197.795 208.622 217.481  1.00  0.00     0.021 C 
ATOM      8  C   UNL     1     199.021 209.436 217.009  1.00  0.00     0.022 C 
ATOM      9  C   UNL     1     199.843 208.115 217.051  1.00  0.00    -0.019 C 
ATOM     10  C   UNL     1     200.953 207.907 215.982  1.00  0.00     0.012 C 
ATOM     11  C   UNL     1     200.457 207.847 218.448  1.00  0.00     0.012 C 
ENDROOT
TORSDOF 0
ENDMDL
MODEL 9
REMARK VINA RESULT:    -4.602      1.816      3.078
REMARK INTER + INTRA:          -4.602
REMARK INTER:                  -4.602
REMARK INTRA:                   0.000
REMARK UNBOUND:                 0.000
REMARK SMILES CC1=CC(=O)[C@@H]2C[C@H]1C2(C)C
REMARK SMILES IDX 1 1 2 2 3 3 4 4 5 5 6 6 7 7 8 8 9 9 10 10 11 11
REMARK H PARENT
REMARK Flexibility Score: inf
ROOT
ATOM      1  C   UNL     1     213.855 207.502 215.491  1.00  0.00     0.040 C 
ATOM      2  C   UNL     1     213.567 206.192 216.154  1.00  0.00    -0.066 C 
ATOM      3  C   UNL     1     212.607 206.079 217.114  1.00  0.00     0.047 C 
ATOM      4  C   UNL     1     212.393 204.707 217.679  1.00  0.00     0.159 C 
ATOM      5  O   UNL     1     211.510 204.466 218.543  1.00  0.00    -0.295 OA
ATOM      6  C   UNL     1     213.321 203.622 217.133  1.00  0.00     0.067 C 
ATOM      7  C   UNL     1     214.721 204.274 217.158  1.00  0.00     0.021 C 
ATOM      8  C   UNL     1     214.352 204.911 215.798  1.00  0.00     0.022 C 
ATOM      9  C   UNL     1     213.356 203.735 215.582  1.00  0.00    -0.019 C 
ATOM     10  C   UNL     1     212.025 204.029 214.833  1.00  0.00     0.012 C 
ATOM     11  C   UNL     1     214.028 202.509 214.916  1.00  0.00     0.012 C 
ENDROOT
TORSDOF 0
ENDMDL
