MODEL 1
REMARK VINA RESULT:    -7.593      0.000      0.000
REMARK INTER + INTRA:          -8.292
REMARK INTER:                  -8.037
REMARK INTRA:                  -0.255
REMARK UNBOUND:                -0.255
REMARK SMILES O=c1cc(-c2ccccc2)oc2ccccc12
REMARK SMILES IDX 4 1 3 2 2 3 1 4 17 5 16 6 15 7 14 8 13 9 12 10 11 11 5 12
REMARK SMILES IDX 8 13 7 14 9 15 6 16 10 17
REMARK H PARENT
REMARK Flexibility Score: inf
ROOT
ATOM      1  C   UNL     1     142.582 135.189 141.595  1.00  0.00     0.138 A 
ATOM      2  C   UNL     1     142.878 136.287 140.761  1.00  0.00     0.100 A 
ATOM      3  C   UNL     1     141.854 137.154 140.375  1.00  0.00     0.193 A 
ATOM      4  O   UNL     1     142.118 138.136 139.630  1.00  0.00    -0.289 OA
ATOM      5  C   UNL     1     140.546 136.921 140.823  1.00  0.00     0.065 A 
ATOM      6  C   UNL     1     139.469 137.756 140.472  1.00  0.00     0.016 A 
ATOM      7  C   UNL     1     138.184 137.476 140.947  1.00  0.00     0.001 A 
ATOM      8  C   UNL     1     137.963 136.369 141.771  1.00  0.00     0.004 A 
ATOM      9  C   UNL     1     139.028 135.535 142.125  1.00  0.00     0.048 A 
ATOM     10  C   UNL     1     140.318 135.805 141.656  1.00  0.00     0.138 A 
ATOM     11  O   UNL     1     141.323 135.006 141.998  1.00  0.00    -0.456 OA
ENDROOT
BRANCH   1  12
ATOM     12  C   UNL     1     143.618 134.213 142.055  1.00  0.00     0.017 A 
ATOM     13  C   UNL     1     145.506 132.302 142.921  1.00  0.00     0.000 A 
ATOM     14  C   UNL     1     144.182 131.924 142.696  1.00  0.00     0.001 A 
ATOM     15  C   UNL     1     145.895 133.625 142.718  1.00  0.00     0.001 A 
ATOM     16  C   UNL     1     143.246 132.869 142.267  1.00  0.00     0.012 A 
ATOM     17  C   UNL     1     144.965 134.577 142.289  1.00  0.00     0.012 A 
ENDBRANCH   1  12
TORSDOF 1
ENDMDL
MODEL 2
REMARK VINA RESULT:    -7.512      0.104      1.177
REMARK INTER + INTRA:          -8.206
REMARK INTER:                  -7.952
REMARK INTRA:                  -0.254
REMARK UNBOUND:                -0.255
REMARK SMILES O=c1cc(-c2ccccc2)oc2ccccc12
REMARK SMILES IDX 4 1 3 2 2 3 1 4 17 5 16 6 15 7 14 8 13 9 12 10 11 11 5 12
REMARK SMILES IDX 8 13 7 14 9 15 6 16 10 17
REMARK H PARENT
REMARK Flexibility Score: inf
ROOT
ATOM      1  C   UNL     1     142.617 135.149 141.608  1.00  0.00     0.138 A 
ATOM      2  C   UNL     1     142.947 136.218 140.750  1.00  0.00     0.100 A 
ATOM      3  C   UNL     1     141.950 137.108 140.344  1.00  0.00     0.193 A 
ATOM      4  O   UNL     1     142.245 138.064 139.576  1.00  0.00    -0.289 OA
ATOM      5  C   UNL     1     140.636 136.926 140.795  1.00  0.00     0.065 A 
ATOM      6  C   UNL     1     139.585 137.785 140.425  1.00  0.00     0.016 A 
ATOM      7  C   UNL     1     138.292 137.557 140.905  1.00  0.00     0.001 A 
ATOM      8  C   UNL     1     138.036 136.476 141.754  1.00  0.00     0.004 A 
ATOM      9  C   UNL     1     139.075 135.617 142.127  1.00  0.00     0.048 A 
ATOM     10  C   UNL     1     140.372 135.836 141.653  1.00  0.00     0.138 A 
ATOM     11  O   UNL     1     141.352 135.015 142.014  1.00  0.00    -0.456 OA
ENDROOT
BRANCH   1  12
ATOM     12  C   UNL     1     143.621 134.153 142.091  1.00  0.00     0.017 A 
ATOM     13  C   UNL     1     145.585 132.341 143.002  1.00  0.00     0.000 A 
ATOM     14  C   UNL     1     145.925 133.669 142.745  1.00  0.00     0.001 A 
ATOM     15  C   UNL     1     144.274 131.909 142.809  1.00  0.00     0.001 A 
ATOM     16  C   UNL     1     144.955 134.567 142.294  1.00  0.00     0.012 A 
ATOM     17  C   UNL     1     143.296 132.802 142.358  1.00  0.00     0.012 A 
ENDBRANCH   1  12
TORSDOF 1
ENDMDL
MODEL 3
REMARK VINA RESULT:    -7.182      1.081      5.751
REMARK INTER + INTRA:          -7.856
REMARK INTER:                  -7.597
REMARK INTRA:                  -0.259
REMARK UNBOUND:                -0.255
REMARK SMILES O=c1cc(-c2ccccc2)oc2ccccc12
REMARK SMILES IDX 4 1 3 2 2 3 1 4 17 5 16 6 15 7 14 8 13 9 12 10 11 11 5 12
REMARK SMILES IDX 8 13 7 14 9 15 6 16 10 17
REMARK H PARENT
REMARK Flexibility Score: inf
ROOT
ATOM      1  C   UNL     1     141.505 135.628 141.665  1.00  0.00     0.138 A 
ATOM      2  C   UNL     1     142.514 136.559 141.343  1.00  0.00     0.100 A 
ATOM      3  C   UNL     1     143.855 136.188 141.458  1.00  0.00     0.193 A 
ATOM      4  O   UNL     1     144.758 137.021 141.171  1.00  0.00    -0.289 OA
ATOM      5  C   UNL     1     144.180 134.895 141.890  1.00  0.00     0.065 A 
ATOM      6  C   UNL     1     145.510 134.457 142.027  1.00  0.00     0.016 A 
ATOM      7  C   UNL     1     145.777 133.156 142.463  1.00  0.00     0.001 A 
ATOM      8  C   UNL     1     144.726 132.284 142.764  1.00  0.00     0.004 A 
ATOM      9  C   UNL     1     143.401 132.711 142.630  1.00  0.00     0.048 A 
ATOM     10  C   UNL     1     143.122 134.011 142.195  1.00  0.00     0.138 A 
ATOM     11  O   UNL     1     141.860 134.407 142.071  1.00  0.00    -0.456 OA
ENDROOT
BRANCH   1  12
ATOM     12  C   UNL     1     140.046 135.942 141.570  1.00  0.00     0.017 A 
ATOM     13  C   UNL     1     137.275 136.468 141.457  1.00  0.00     0.000 A 
ATOM     14  C   UNL     1     137.764 135.478 142.309  1.00  0.00     0.001 A 
ATOM     15  C   UNL     1     138.157 137.198 140.661  1.00  0.00     0.001 A 
ATOM     16  C   UNL     1     139.135 135.216 142.366  1.00  0.00     0.012 A 
ATOM     17  C   UNL     1     139.531 136.943 140.712  1.00  0.00     0.012 A 
ENDBRANCH   1  12
TORSDOF 1
ENDMDL
MODEL 4
REMARK VINA RESULT:    -7.181      2.240      4.060
REMARK INTER + INTRA:          -7.855
REMARK INTER:                  -7.603
REMARK INTRA:                  -0.253
REMARK UNBOUND:                -0.255
REMARK SMILES O=c1cc(-c2ccccc2)oc2ccccc12
REMARK SMILES IDX 4 1 3 2 2 3 1 4 17 5 16 6 15 7 14 8 13 9 12 10 11 11 5 12
REMARK SMILES IDX 8 13 7 14 9 15 6 16 10 17
REMARK H PARENT
REMARK Flexibility Score: inf
ROOT
ATOM      1  C   UNL     1     143.833 135.742 141.261  1.00  0.00     0.138 A 
ATOM      2  C   UNL     1     142.501 136.156 141.052  1.00  0.00     0.100 A 
ATOM      3  C   UNL     1     142.247 137.306 140.301  1.00  0.00     0.193 A 
ATOM      4  O   UNL     1     141.056 137.676 140.114  1.00  0.00    -0.289 OA
ATOM      5  C   UNL     1     143.319 138.032 139.765  1.00  0.00     0.065 A 
ATOM      6  C   UNL     1     143.133 139.198 139.000  1.00  0.00     0.016 A 
ATOM      7  C   UNL     1     144.239 139.884 138.489  1.00  0.00     0.001 A 
ATOM      8  C   UNL     1     145.533 139.416 138.736  1.00  0.00     0.004 A 
ATOM      9  C   UNL     1     145.727 138.258 139.495  1.00  0.00     0.048 A 
ATOM     10  C   UNL     1     144.628 137.564 140.011  1.00  0.00     0.138 A 
ATOM     11  O   UNL     1     144.823 136.464 140.731  1.00  0.00    -0.456 OA
ENDROOT
BRANCH   1  12
ATOM     12  C   UNL     1     144.193 134.525 142.051  1.00  0.00     0.017 A 
ATOM     13  C   UNL     1     144.951 132.274 143.576  1.00  0.00     0.000 A 
ATOM     14  C   UNL     1     145.734 133.428 143.597  1.00  0.00     0.001 A 
ATOM     15  C   UNL     1     143.793 132.233 142.800  1.00  0.00     0.001 A 
ATOM     16  C   UNL     1     145.361 134.543 142.843  1.00  0.00     0.012 A 
ATOM     17  C   UNL     1     143.412 133.346 142.042  1.00  0.00     0.012 A 
ENDBRANCH   1  12
TORSDOF 1
ENDMDL
MODEL 5
REMARK VINA RESULT:    -7.121      1.694      3.217
REMARK INTER + INTRA:          -7.792
REMARK INTER:                  -7.548
REMARK INTRA:                  -0.244
REMARK UNBOUND:                -0.255
REMARK SMILES O=c1cc(-c2ccccc2)oc2ccccc12
REMARK SMILES IDX 4 1 3 2 2 3 1 4 17 5 16 6 15 7 14 8 13 9 12 10 11 11 5 12
REMARK SMILES IDX 8 13 7 14 9 15 6 16 10 17
REMARK H PARENT
REMARK Flexibility Score: inf
ROOT
ATOM      1  C   UNL     1     142.942 135.447 141.249  1.00  0.00     0.138 A 
ATOM      2  C   UNL     1     141.604 135.754 141.573  1.00  0.00     0.100 A 
ATOM      3  C   UNL     1     140.945 136.773 140.882  1.00  0.00     0.193 A 
ATOM      4  O   UNL     1     139.749 137.049 141.171  1.00  0.00    -0.289 OA
ATOM      5  C   UNL     1     141.622 137.475 139.875  1.00  0.00     0.065 A 
ATOM      6  C   UNL     1     141.017 138.511 139.140  1.00  0.00     0.016 A 
ATOM      7  C   UNL     1     141.740 139.179 138.146  1.00  0.00     0.001 A 
ATOM      8  C   UNL     1     143.064 138.820 137.877  1.00  0.00     0.004 A 
ATOM      9  C   UNL     1     143.673 137.791 138.602  1.00  0.00     0.048 A 
ATOM     10  C   UNL     1     142.959 137.117 139.599  1.00  0.00     0.138 A 
ATOM     11  O   UNL     1     143.547 136.140 140.282  1.00  0.00    -0.456 OA
ENDROOT
BRANCH   1  12
ATOM     12  C   UNL     1     143.720 134.372 141.938  1.00  0.00     0.017 A 
ATOM     13  C   UNL     1     145.263 132.406 143.250  1.00  0.00     0.000 A 
ATOM     14  C   UNL     1     145.794 133.676 143.026  1.00  0.00     0.001 A 
ATOM     15  C   UNL     1     143.969 132.108 142.825  1.00  0.00     0.001 A 
ATOM     16  C   UNL     1     145.032 134.651 142.377  1.00  0.00     0.012 A 
ATOM     17  C   UNL     1     143.199 133.078 142.174  1.00  0.00     0.012 A 
ENDBRANCH   1  12
TORSDOF 1
ENDMDL
MODEL 6
REMARK VINA RESULT:    -6.650      1.941      2.612
REMARK INTER + INTRA:          -7.294
REMARK INTER:                  -7.045
REMARK INTRA:                  -0.248
REMARK UNBOUND:                -0.255
REMARK SMILES O=c1cc(-c2ccccc2)oc2ccccc12
REMARK SMILES IDX 4 1 3 2 2 3 1 4 17 5 16 6 15 7 14 8 13 9 12 10 11 11 5 12
REMARK SMILES IDX 8 13 7 14 9 15 6 16 10 17
REMARK H PARENT
REMARK Flexibility Score: inf
ROOT
ATOM      1  C   UNL     1     143.963 136.026 141.448  1.00  0.00     0.138 A 
ATOM      2  C   UNL     1     144.921 136.767 140.726  1.00  0.00     0.100 A 
ATOM      3  C   UNL     1     144.564 137.997 140.170  1.00  0.00     0.193 A 
ATOM      4  O   UNL     1     145.421 138.660 139.524  1.00  0.00    -0.289 OA
ATOM      5  C   UNL     1     143.259 138.479 140.339  1.00  0.00     0.065 A 
ATOM      6  C   UNL     1     142.834 139.710 139.805  1.00  0.00     0.016 A 
ATOM      7  C   UNL     1     141.519 140.142 140.004  1.00  0.00     0.001 A 
ATOM      8  C   UNL     1     140.622 139.355 140.731  1.00  0.00     0.004 A 
ATOM      9  C   UNL     1     141.035 138.131 141.265  1.00  0.00     0.048 A 
ATOM     10  C   UNL     1     142.349 137.688 141.073  1.00  0.00     0.138 A 
ATOM     11  O   UNL     1     142.732 136.523 141.584  1.00  0.00    -0.456 OA
ENDROOT
BRANCH   1  12
ATOM     12  C   UNL     1     144.261 134.702 142.075  1.00  0.00     0.017 A 
ATOM     13  C   UNL     1     144.738 132.170 143.228  1.00  0.00     0.000 A 
ATOM     14  C   UNL     1     143.541 132.418 142.558  1.00  0.00     0.001 A 
ATOM     15  C   UNL     1     145.701 133.174 143.327  1.00  0.00     0.001 A 
ATOM     16  C   UNL     1     143.302 133.671 141.987  1.00  0.00     0.012 A 
ATOM     17  C   UNL     1     145.470 134.431 142.758  1.00  0.00     0.012 A 
ENDBRANCH   1  12
TORSDOF 1
ENDMDL
MODEL 7
REMARK VINA RESULT:    -6.617      4.804      7.379
REMARK INTER + INTRA:          -7.258
REMARK INTER:                  -6.999
REMARK INTRA:                  -0.260
REMARK UNBOUND:                -0.255
REMARK SMILES O=c1cc(-c2ccccc2)oc2ccccc12
REMARK SMILES IDX 4 1 3 2 2 3 1 4 17 5 16 6 15 7 14 8 13 9 12 10 11 11 5 12
REMARK SMILES IDX 8 13 7 14 9 15 6 16 10 17
REMARK H PARENT
REMARK Flexibility Score: inf
ROOT
ATOM      1  C   UNL     1     135.664 135.664 141.151  1.00  0.00     0.138 A 
ATOM      2  C   UNL     1     135.063 136.003 139.922  1.00  0.00     0.100 A 
ATOM      3  C   UNL     1     133.688 135.820 139.754  1.00  0.00     0.193 A 
ATOM      4  O   UNL     1     133.150 136.123 138.654  1.00  0.00    -0.289 OA
ATOM      5  C   UNL     1     132.927 135.302 140.810  1.00  0.00     0.065 A 
ATOM      6  C   UNL     1     131.539 135.093 140.708  1.00  0.00     0.016 A 
ATOM      7  C   UNL     1     130.827 134.573 141.793  1.00  0.00     0.001 A 
ATOM      8  C   UNL     1     131.489 134.260 142.984  1.00  0.00     0.004 A 
ATOM      9  C   UNL     1     132.868 134.464 143.094  1.00  0.00     0.048 A 
ATOM     10  C   UNL     1     133.590 134.984 142.015  1.00  0.00     0.138 A 
ATOM     11  O   UNL     1     134.900 135.175 142.130  1.00  0.00    -0.456 OA
ENDROOT
BRANCH   1  12
ATOM     12  C   UNL     1     137.127 135.829 141.415  1.00  0.00     0.017 A 
ATOM     13  C   UNL     1     139.891 136.207 141.844  1.00  0.00     0.000 A 
ATOM     14  C   UNL     1     139.229 136.944 140.863  1.00  0.00     0.001 A 
ATOM     15  C   UNL     1     139.186 135.283 142.613  1.00  0.00     0.001 A 
ATOM     16  C   UNL     1     137.861 136.759 140.649  1.00  0.00     0.012 A 
ATOM     17  C   UNL     1     137.816 135.091 142.406  1.00  0.00     0.012 A 
ENDBRANCH   1  12
TORSDOF 1
ENDMDL
MODEL 8
REMARK VINA RESULT:    -6.486      4.325      6.836
REMARK INTER + INTRA:          -7.120
REMARK INTER:                  -6.899
REMARK INTRA:                  -0.221
REMARK UNBOUND:                -0.255
REMARK SMILES O=c1cc(-c2ccccc2)oc2ccccc12
REMARK SMILES IDX 4 1 3 2 2 3 1 4 17 5 16 6 15 7 14 8 13 9 12 10 11 11 5 12
REMARK SMILES IDX 8 13 7 14 9 15 6 16 10 17
REMARK H PARENT
REMARK Flexibility Score: inf
ROOT
ATOM      1  C   UNL     1     136.234 135.913 141.985  1.00  0.00     0.138 A 
ATOM      2  C   UNL     1     135.536 136.602 142.998  1.00  0.00     0.100 A 
ATOM      3  C   UNL     1     134.140 136.629 142.976  1.00  0.00     0.193 A 
ATOM      4  O   UNL     1     133.516 137.245 143.882  1.00  0.00    -0.289 OA
ATOM      5  C   UNL     1     133.453 135.970 141.948  1.00  0.00     0.065 A 
ATOM      6  C   UNL     1     132.048 135.957 141.867  1.00  0.00     0.016 A 
ATOM      7  C   UNL     1     131.413 135.283 140.819  1.00  0.00     0.001 A 
ATOM      8  C   UNL     1     132.169 134.620 139.849  1.00  0.00     0.004 A 
ATOM      9  C   UNL     1     133.566 134.627 139.921  1.00  0.00     0.048 A 
ATOM     10  C   UNL     1     134.211 135.298 140.965  1.00  0.00     0.138 A 
ATOM     11  O   UNL     1     135.539 135.298 141.026  1.00  0.00    -0.456 OA
ENDROOT
BRANCH   1  12
ATOM     12  C   UNL     1     137.727 135.834 141.933  1.00  0.00     0.017 A 
ATOM     13  C   UNL     1     140.540 135.608 141.893  1.00  0.00     0.000 A 
ATOM     14  C   UNL     1     139.777 134.705 142.633  1.00  0.00     0.001 A 
ATOM     15  C   UNL     1     139.911 136.623 141.172  1.00  0.00     0.001 A 
ATOM     16  C   UNL     1     138.385 134.815 142.654  1.00  0.00     0.012 A 
ATOM     17  C   UNL     1     138.517 136.740 141.188  1.00  0.00     0.012 A 
ENDBRANCH   1  12
TORSDOF 1
ENDMDL
MODEL 9
REMARK VINA RESULT:    -6.470      2.174      5.655
REMARK INTER + INTRA:          -7.103
REMARK INTER:                  -6.837
REMARK INTRA:                  -0.266
REMARK UNBOUND:                -0.255
REMARK SMILES O=c1cc(-c2ccccc2)oc2ccccc12
REMARK SMILES IDX 4 1 3 2 2 3 1 4 17 5 16 6 15 7 14 8 13 9 12 10 11 11 5 12
REMARK SMILES IDX 8 13 7 14 9 15 6 16 10 17
REMARK H PARENT
REMARK Flexibility Score: inf
ROOT
ATOM      1  C   UNL     1     141.937 136.202 141.048  1.00  0.00     0.138 A 
ATOM      2  C   UNL     1     142.960 135.431 141.637  1.00  0.00     0.100 A 
ATOM      3  C   UNL     1     144.285 135.626 141.238  1.00  0.00     0.193 A 
ATOM      4  O   UNL     1     145.200 134.937 141.764  1.00  0.00    -0.289 OA
ATOM      5  C   UNL     1     144.577 136.586 140.260  1.00  0.00     0.065 A 
ATOM      6  C   UNL     1     145.889 136.833 139.813  1.00  0.00     0.016 A 
ATOM      7  C   UNL     1     146.124 137.802 138.834  1.00  0.00     0.001 A 
ATOM      8  C   UNL     1     145.060 138.530 138.294  1.00  0.00     0.004 A 
ATOM      9  C   UNL     1     143.754 138.291 138.732  1.00  0.00     0.048 A 
ATOM     10  C   UNL     1     143.507 137.324 139.711  1.00  0.00     0.138 A 
ATOM     11  O   UNL     1     142.261 137.105 140.121  1.00  0.00    -0.456 OA
ENDROOT
BRANCH   1  12
ATOM     12  C   UNL     1     140.495 136.057 141.416  1.00  0.00     0.017 A 
ATOM     13  C   UNL     1     137.797 135.712 142.170  1.00  0.00     0.000 A 
ATOM     14  C   UNL     1     138.782 134.880 142.701  1.00  0.00     0.001 A 
ATOM     15  C   UNL     1     138.145 136.715 141.266  1.00  0.00     0.001 A 
ATOM     16  C   UNL     1     140.118 135.050 142.329  1.00  0.00     0.012 A 
ATOM     17  C   UNL     1     139.481 136.891 140.889  1.00  0.00     0.012 A 
ENDBRANCH   1  12
TORSDOF 1
ENDMDL
