MODEL 1
REMARK VINA RESULT:    -7.011      0.000      0.000
REMARK INTER + INTRA:          -8.320
REMARK INTER:                  -8.445
REMARK INTRA:                   0.125
REMARK UNBOUND:                 0.125
REMARK SMILES O=c1c(O)c(-c2ccc(O)c(O)c2)oc2cc(O)cc(O)c12
REMARK SMILES IDX 5 1 3 2 2 3 1 4 22 5 20 6 19 7 17 8 16 9 15 10 14 11 6 12
REMARK SMILES IDX 7 13 8 14 9 15 13 16 11 17 10 18 12 20 4 22 21 24 18 26
REMARK H PARENT 10 19 12 21 4 23 21 25 18 27
REMARK Flexibility Score: inf
ROOT
ATOM      1  C   UNL     1       7.343  26.830  58.440  1.00  0.00     0.180 A 
ATOM      2  C   UNL     1       6.872  26.120  59.558  1.00  0.00     0.208 A 
ATOM      3  C   UNL     1       7.782  25.366  60.318  1.00  0.00     0.238 A 
ATOM      4  O   UNL     1       7.345  24.690  61.285  1.00  0.00    -0.285 OA
ATOM      5  C   UNL     1       9.151  25.345  59.960  1.00  0.00     0.111 A 
ATOM      6  C   UNL     1      10.166  24.649  60.683  1.00  0.00     0.134 A 
ATOM      7  C   UNL     1      11.466  24.591  60.165  1.00  0.00     0.093 A 
ATOM      8  C   UNL     1      11.801  25.259  58.984  1.00  0.00     0.123 A 
ATOM      9  C   UNL     1      10.832  25.991  58.304  1.00  0.00     0.094 A 
ATOM     10  C   UNL     1       9.517  26.038  58.777  1.00  0.00     0.146 A 
ATOM     11  O   UNL     1       8.621  26.738  58.092  1.00  0.00    -0.452 OA
ENDROOT
BRANCH   1  12
ATOM     12  C   UNL     1       6.450  27.666  57.604  1.00  0.00     0.025 A 
ATOM     13  C   UNL     1       6.848  28.937  57.154  1.00  0.00     0.016 A 
ATOM     14  C   UNL     1       5.999  29.699  56.347  1.00  0.00     0.051 A 
ATOM     15  C   UNL     1       4.747  29.196  55.968  1.00  0.00     0.157 A 
ATOM     16  C   UNL     1       5.204  27.159  57.203  1.00  0.00     0.062 A 
ATOM     17  C   UNL     1       4.350  27.919  56.395  1.00  0.00     0.158 A 
BRANCH  15  18
ATOM     18  O   UNL     1       3.901  29.959  55.163  1.00  0.00    -0.504 OA
ATOM     19  H   UNL     1       4.139  30.904  54.888  1.00  0.00     0.293 HD
ENDBRANCH  15  18
BRANCH  17  20
ATOM     20  O   UNL     1       3.114  27.387  56.029  1.00  0.00    -0.504 OA
ATOM     21  H   UNL     1       3.017  26.443  55.677  1.00  0.00     0.293 HD
ENDBRANCH  17  20
ENDBRANCH   1  12
BRANCH   2  22
ATOM     22  O   UNL     1       5.513  26.136  59.880  1.00  0.00    -0.502 OA
ATOM     23  H   UNL     1       4.813  26.533  59.265  1.00  0.00     0.293 HD
ENDBRANCH   2  22
BRANCH   6  24
ATOM     24  O   UNL     1       9.958  24.027  61.917  1.00  0.00    -0.507 OA
ATOM     25  H   UNL     1      10.245  23.086  62.142  1.00  0.00     0.293 HD
ENDBRANCH   6  24
BRANCH   8  26
ATOM     26  O   UNL     1      13.101  25.208  58.483  1.00  0.00    -0.508 OA
ATOM     27  H   UNL     1      13.284  25.079  57.495  1.00  0.00     0.293 HD
ENDBRANCH   8  26
TORSDOF 6
ENDMDL
MODEL 2
REMARK VINA RESULT:    -6.801      1.238      6.660
REMARK INTER + INTRA:          -8.068
REMARK INTER:                  -7.837
REMARK INTRA:                  -0.231
REMARK UNBOUND:                 0.125
REMARK SMILES O=c1c(O)c(-c2ccc(O)c(O)c2)oc2cc(O)cc(O)c12
REMARK SMILES IDX 5 1 3 2 2 3 1 4 22 5 20 6 19 7 17 8 16 9 15 10 14 11 6 12
REMARK SMILES IDX 7 13 8 14 9 15 13 16 11 17 10 18 12 20 4 22 21 24 18 26
REMARK H PARENT 10 19 12 21 4 23 21 25 18 27
REMARK Flexibility Score: inf
ROOT
ATOM      1  C   UNL     1       8.531  26.333  58.887  1.00  0.00     0.180 A 
ATOM      2  C   UNL     1       7.541  25.508  59.448  1.00  0.00     0.208 A 
ATOM      3  C   UNL     1       6.197  25.722  59.096  1.00  0.00     0.238 A 
ATOM      4  O   UNL     1       5.311  25.016  59.642  1.00  0.00    -0.285 OA
ATOM      5  C   UNL     1       5.865  26.745  58.176  1.00  0.00     0.111 A 
ATOM      6  C   UNL     1       4.542  27.023  57.717  1.00  0.00     0.134 A 
ATOM      7  C   UNL     1       4.313  28.142  56.907  1.00  0.00     0.093 A 
ATOM      8  C   UNL     1       5.369  28.955  56.487  1.00  0.00     0.123 A 
ATOM      9  C   UNL     1       6.671  28.657  56.881  1.00  0.00     0.094 A 
ATOM     10  C   UNL     1       6.927  27.568  57.718  1.00  0.00     0.146 A 
ATOM     11  O   UNL     1       8.181  27.326  58.078  1.00  0.00    -0.452 OA
ENDROOT
BRANCH   1  12
ATOM     12  C   UNL     1       9.970  26.153  59.191  1.00  0.00     0.025 A 
ATOM     13  C   UNL     1      10.500  26.489  60.449  1.00  0.00     0.016 A 
ATOM     14  C   UNL     1      11.856  26.288  60.721  1.00  0.00     0.051 A 
ATOM     15  C   UNL     1      12.698  25.739  59.746  1.00  0.00     0.157 A 
ATOM     16  C   UNL     1      10.814  25.583  58.225  1.00  0.00     0.062 A 
ATOM     17  C   UNL     1      12.173  25.381  58.493  1.00  0.00     0.158 A 
BRANCH  15  18
ATOM     18  O   UNL     1      14.051  25.541  60.020  1.00  0.00    -0.504 OA
ATOM     19  H   UNL     1      14.712  26.308  60.012  1.00  0.00     0.293 HD
ENDBRANCH  15  18
BRANCH  17  20
ATOM     20  O   UNL     1      12.983  24.824  57.504  1.00  0.00    -0.504 OA
ATOM     21  H   UNL     1      13.598  24.041  57.690  1.00  0.00     0.293 HD
ENDBRANCH  17  20
ENDBRANCH   1  12
BRANCH   2  22
ATOM     22  O   UNL     1       7.889  24.519  60.371  1.00  0.00    -0.502 OA
ATOM     23  H   UNL     1       7.507  23.581  60.333  1.00  0.00     0.293 HD
ENDBRANCH   2  22
BRANCH   6  24
ATOM     24  O   UNL     1       3.433  26.222  58.003  1.00  0.00    -0.507 OA
ATOM     25  H   UNL     1       2.624  26.126  57.407  1.00  0.00     0.293 HD
ENDBRANCH   6  24
BRANCH   8  26
ATOM     26  O   UNL     1       5.134  30.058  55.669  1.00  0.00    -0.508 OA
ATOM     27  H   UNL     1       4.194  30.389  55.482  1.00  0.00     0.293 HD
ENDBRANCH   8  26
TORSDOF 6
ENDMDL
MODEL 3
REMARK VINA RESULT:    -6.581      1.640      3.502
REMARK INTER + INTRA:          -7.803
REMARK INTER:                  -8.009
REMARK INTRA:                   0.206
REMARK UNBOUND:                 0.125
REMARK SMILES O=c1c(O)c(-c2ccc(O)c(O)c2)oc2cc(O)cc(O)c12
REMARK SMILES IDX 5 1 3 2 2 3 1 4 22 5 20 6 19 7 17 8 16 9 15 10 14 11 6 12
REMARK SMILES IDX 7 13 8 14 9 15 13 16 11 17 10 18 12 20 4 22 21 24 18 26
REMARK H PARENT 10 19 12 21 4 23 21 25 18 27
REMARK Flexibility Score: inf
ROOT
ATOM      1  C   UNL     1       6.666  26.457  58.629  1.00  0.00     0.180 A 
ATOM      2  C   UNL     1       8.059  26.268  58.653  1.00  0.00     0.208 A 
ATOM      3  C   UNL     1       8.601  25.312  59.529  1.00  0.00     0.238 A 
ATOM      4  O   UNL     1       9.852  25.186  59.585  1.00  0.00    -0.285 OA
ATOM      5  C   UNL     1       7.743  24.547  60.354  1.00  0.00     0.111 A 
ATOM      6  C   UNL     1       8.180  23.523  61.248  1.00  0.00     0.134 A 
ATOM      7  C   UNL     1       7.257  22.920  62.111  1.00  0.00     0.093 A 
ATOM      8  C   UNL     1       5.902  23.259  62.067  1.00  0.00     0.123 A 
ATOM      9  C   UNL     1       5.456  24.213  61.157  1.00  0.00     0.094 A 
ATOM     10  C   UNL     1       6.359  24.858  60.307  1.00  0.00     0.146 A 
ATOM     11  O   UNL     1       5.894  25.770  59.462  1.00  0.00    -0.452 OA
ENDROOT
BRANCH   1  12
ATOM     12  C   UNL     1       6.019  27.428  57.716  1.00  0.00     0.025 A 
ATOM     13  C   UNL     1       6.627  28.657  57.406  1.00  0.00     0.016 A 
ATOM     14  C   UNL     1       6.010  29.548  56.523  1.00  0.00     0.051 A 
ATOM     15  C   UNL     1       4.785  29.218  55.929  1.00  0.00     0.157 A 
ATOM     16  C   UNL     1       4.803  27.094  57.101  1.00  0.00     0.062 A 
ATOM     17  C   UNL     1       4.181  27.983  56.217  1.00  0.00     0.158 A 
BRANCH  15  18
ATOM     18  O   UNL     1       4.170  30.109  55.050  1.00  0.00    -0.504 OA
ATOM     19  H   UNL     1       3.952  29.848  54.095  1.00  0.00     0.293 HD
ENDBRANCH  15  18
BRANCH  17  20
ATOM     20  O   UNL     1       2.966  27.621  55.635  1.00  0.00    -0.504 OA
ATOM     21  H   UNL     1       2.201  28.277  55.536  1.00  0.00     0.293 HD
ENDBRANCH  17  20
ENDBRANCH   1  12
BRANCH   2  22
ATOM     22  O   UNL     1       8.889  27.050  57.846  1.00  0.00    -0.502 OA
ATOM     23  H   UNL     1       8.790  28.055  57.776  1.00  0.00     0.293 HD
ENDBRANCH   2  22
BRANCH   6  24
ATOM     24  O   UNL     1       9.492  23.047  61.307  1.00  0.00    -0.507 OA
ATOM     25  H   UNL     1      10.281  23.574  61.650  1.00  0.00     0.293 HD
ENDBRANCH   6  24
BRANCH   8  26
ATOM     26  O   UNL     1       4.988  22.643  62.920  1.00  0.00    -0.508 OA
ATOM     27  H   UNL     1       4.328  21.952  62.581  1.00  0.00     0.293 HD
ENDBRANCH   8  26
TORSDOF 6
ENDMDL
MODEL 4
REMARK VINA RESULT:    -6.179      1.059      1.662
REMARK INTER + INTRA:          -7.318
REMARK INTER:                  -7.360
REMARK INTRA:                   0.042
REMARK UNBOUND:                 0.125
REMARK SMILES O=c1c(O)c(-c2ccc(O)c(O)c2)oc2cc(O)cc(O)c12
REMARK SMILES IDX 5 1 3 2 2 3 1 4 22 5 20 6 19 7 17 8 16 9 15 10 14 11 6 12
REMARK SMILES IDX 7 13 8 14 9 15 13 16 11 17 10 18 12 20 4 22 21 24 18 26
REMARK H PARENT 10 19 12 21 4 23 21 25 18 27
REMARK Flexibility Score: inf
ROOT
ATOM      1  C   UNL     1       7.886  26.584  58.793  1.00  0.00     0.180 A 
ATOM      2  C   UNL     1       7.680  26.255  60.144  1.00  0.00     0.208 A 
ATOM      3  C   UNL     1       8.748  25.721  60.885  1.00  0.00     0.238 A 
ATOM      4  O   UNL     1       8.542  25.378  62.078  1.00  0.00    -0.285 OA
ATOM      5  C   UNL     1      10.010  25.540  60.271  1.00  0.00     0.111 A 
ATOM      6  C   UNL     1      11.171  25.046  60.937  1.00  0.00     0.134 A 
ATOM      7  C   UNL     1      12.333  24.785  60.199  1.00  0.00     0.093 A 
ATOM      8  C   UNL     1      12.393  25.061  58.831  1.00  0.00     0.123 A 
ATOM      9  C   UNL     1      11.285  25.600  58.183  1.00  0.00     0.094 A 
ATOM     10  C   UNL     1      10.100  25.838  58.886  1.00  0.00     0.146 A 
ATOM     11  O   UNL     1       9.063  26.342  58.228  1.00  0.00    -0.452 OA
ENDROOT
BRANCH   1  12
ATOM     12  C   UNL     1       6.817  27.174  57.954  1.00  0.00     0.025 A 
ATOM     13  C   UNL     1       5.526  26.619  57.917  1.00  0.00     0.016 A 
ATOM     14  C   UNL     1       4.526  27.206  57.137  1.00  0.00     0.051 A 
ATOM     15  C   UNL     1       4.798  28.362  56.394  1.00  0.00     0.157 A 
ATOM     16  C   UNL     1       7.077  28.345  57.224  1.00  0.00     0.062 A 
ATOM     17  C   UNL     1       6.079  28.936  56.441  1.00  0.00     0.158 A 
BRANCH  15  18
ATOM     18  O   UNL     1       3.799  28.945  55.616  1.00  0.00    -0.504 OA
ATOM     19  H   UNL     1       2.914  29.233  56.016  1.00  0.00     0.293 HD
ENDBRANCH  15  18
BRANCH  17  20
ATOM     20  O   UNL     1       6.379  30.091  55.719  1.00  0.00    -0.504 OA
ATOM     21  H   UNL     1       6.945  30.835  56.107  1.00  0.00     0.293 HD
ENDBRANCH  17  20
ENDBRANCH   1  12
BRANCH   2  22
ATOM     22  O   UNL     1       6.420  26.422  60.724  1.00  0.00    -0.502 OA
ATOM     23  H   UNL     1       5.635  25.823  60.500  1.00  0.00     0.293 HD
ENDBRANCH   2  22
BRANCH   6  24
ATOM     24  O   UNL     1      11.245  24.823  62.315  1.00  0.00    -0.507 OA
ATOM     25  H   UNL     1      10.555  25.129  62.985  1.00  0.00     0.293 HD
ENDBRANCH   6  24
BRANCH   8  26
ATOM     26  O   UNL     1      13.558  24.812  58.107  1.00  0.00    -0.508 OA
ATOM     27  H   UNL     1      13.960  23.883  58.053  1.00  0.00     0.293 HD
ENDBRANCH   8  26
TORSDOF 6
ENDMDL
MODEL 5
REMARK VINA RESULT:    -6.095      5.323      7.021
REMARK INTER + INTRA:          -7.217
REMARK INTER:                  -6.897
REMARK INTRA:                  -0.320
REMARK UNBOUND:                 0.125
REMARK SMILES O=c1c(O)c(-c2ccc(O)c(O)c2)oc2cc(O)cc(O)c12
REMARK SMILES IDX 5 1 3 2 2 3 1 4 22 5 20 6 19 7 17 8 16 9 15 10 14 11 6 12
REMARK SMILES IDX 7 13 8 14 9 15 13 16 11 17 10 18 12 20 4 22 21 24 18 26
REMARK H PARENT 10 19 12 21 4 23 21 25 18 27
REMARK Flexibility Score: inf
ROOT
ATOM      1  C   UNL     1       5.880  30.849  61.318  1.00  0.00     0.180 A 
ATOM      2  C   UNL     1       5.423  29.983  62.327  1.00  0.00     0.208 A 
ATOM      3  C   UNL     1       4.905  28.729  61.964  1.00  0.00     0.238 A 
ATOM      4  O   UNL     1       4.448  27.980  62.867  1.00  0.00    -0.285 OA
ATOM      5  C   UNL     1       4.866  28.350  60.601  1.00  0.00     0.111 A 
ATOM      6  C   UNL     1       4.400  27.089  60.123  1.00  0.00     0.134 A 
ATOM      7  C   UNL     1       4.286  26.871  58.744  1.00  0.00     0.093 A 
ATOM      8  C   UNL     1       4.681  27.848  57.827  1.00  0.00     0.123 A 
ATOM      9  C   UNL     1       5.193  29.060  58.282  1.00  0.00     0.094 A 
ATOM     10  C   UNL     1       5.286  29.319  59.653  1.00  0.00     0.146 A 
ATOM     11  O   UNL     1       5.770  30.492  60.044  1.00  0.00    -0.452 OA
ENDROOT
BRANCH   1  12
ATOM     12  C   UNL     1       6.461  32.177  61.624  1.00  0.00     0.025 A 
ATOM     13  C   UNL     1       7.850  32.358  61.741  1.00  0.00     0.016 A 
ATOM     14  C   UNL     1       8.378  33.624  62.006  1.00  0.00     0.051 A 
ATOM     15  C   UNL     1       7.528  34.729  62.144  1.00  0.00     0.157 A 
ATOM     16  C   UNL     1       5.616  33.291  61.742  1.00  0.00     0.062 A 
ATOM     17  C   UNL     1       6.140  34.561  62.008  1.00  0.00     0.158 A 
BRANCH  15  18
ATOM     18  O   UNL     1       8.057  35.991  62.410  1.00  0.00    -0.504 OA
ATOM     19  H   UNL     1       8.948  36.106  62.878  1.00  0.00     0.293 HD
ENDBRANCH  15  18
BRANCH  17  20
ATOM     20  O   UNL     1       5.268  35.642  62.132  1.00  0.00    -0.504 OA
ATOM     21  H   UNL     1       4.425  35.592  62.691  1.00  0.00     0.293 HD
ENDBRANCH  17  20
ENDBRANCH   1  12
BRANCH   2  22
ATOM     22  O   UNL     1       5.450  30.385  63.664  1.00  0.00    -0.502 OA
ATOM     23  H   UNL     1       6.272  30.792  64.094  1.00  0.00     0.293 HD
ENDBRANCH   2  22
BRANCH   6  24
ATOM     24  O   UNL     1       4.067  26.015  60.954  1.00  0.00    -0.507 OA
ATOM     25  H   UNL     1       3.170  25.886  61.396  1.00  0.00     0.293 HD
ENDBRANCH   6  24
BRANCH   8  26
ATOM     26  O   UNL     1       4.577  27.618  56.456  1.00  0.00    -0.508 OA
ATOM     27  H   UNL     1       4.642  26.684  56.069  1.00  0.00     0.293 HD
ENDBRANCH   8  26
TORSDOF 6
ENDMDL
MODEL 6
REMARK VINA RESULT:    -5.929      4.973      6.681
REMARK INTER + INTRA:          -7.017
REMARK INTER:                  -6.811
REMARK INTRA:                  -0.206
REMARK UNBOUND:                 0.125
REMARK SMILES O=c1c(O)c(-c2ccc(O)c(O)c2)oc2cc(O)cc(O)c12
REMARK SMILES IDX 5 1 3 2 2 3 1 4 22 5 20 6 19 7 17 8 16 9 15 10 14 11 6 12
REMARK SMILES IDX 7 13 8 14 9 15 13 16 11 17 10 18 12 20 4 22 21 24 18 26
REMARK H PARENT 10 19 12 21 4 23 21 25 18 27
REMARK Flexibility Score: inf
ROOT
ATOM      1  C   UNL     1       5.774  30.121  61.198  1.00  0.00     0.180 A 
ATOM      2  C   UNL     1       6.374  29.006  61.807  1.00  0.00     0.208 A 
ATOM      3  C   UNL     1       6.390  27.781  61.118  1.00  0.00     0.238 A 
ATOM      4  O   UNL     1       6.880  26.773  61.690  1.00  0.00    -0.285 OA
ATOM      5  C   UNL     1       5.821  27.693  59.825  1.00  0.00     0.111 A 
ATOM      6  C   UNL     1       5.818  26.514  59.021  1.00  0.00     0.134 A 
ATOM      7  C   UNL     1       5.112  26.506  57.811  1.00  0.00     0.093 A 
ATOM      8  C   UNL     1       4.465  27.654  57.347  1.00  0.00     0.123 A 
ATOM      9  C   UNL     1       4.513  28.826  58.096  1.00  0.00     0.094 A 
ATOM     10  C   UNL     1       5.179  28.855  59.325  1.00  0.00     0.146 A 
ATOM     11  O   UNL     1       5.191  29.991  60.012  1.00  0.00    -0.452 OA
ENDROOT
BRANCH   1  12
ATOM     12  C   UNL     1       5.739  31.451  61.851  1.00  0.00     0.025 A 
ATOM     13  C   UNL     1       4.955  31.686  62.993  1.00  0.00     0.016 A 
ATOM     14  C   UNL     1       4.957  32.941  63.607  1.00  0.00     0.051 A 
ATOM     15  C   UNL     1       5.752  33.975  63.095  1.00  0.00     0.157 A 
ATOM     16  C   UNL     1       6.550  32.485  61.356  1.00  0.00     0.062 A 
ATOM     17  C   UNL     1       6.555  33.744  61.967  1.00  0.00     0.158 A 
BRANCH  15  18
ATOM     18  O   UNL     1       5.751  35.228  63.708  1.00  0.00    -0.504 OA
ATOM     19  H   UNL     1       4.925  35.814  63.717  1.00  0.00     0.293 HD
ENDBRANCH  15  18
BRANCH  17  20
ATOM     20  O   UNL     1       7.363  34.750  61.438  1.00  0.00    -0.504 OA
ATOM     21  H   UNL     1       7.022  35.406  60.746  1.00  0.00     0.293 HD
ENDBRANCH  17  20
ENDBRANCH   1  12
BRANCH   2  22
ATOM     22  O   UNL     1       6.910  29.109  63.093  1.00  0.00    -0.502 OA
ATOM     23  H   UNL     1       6.383  28.867  63.923  1.00  0.00     0.293 HD
ENDBRANCH   2  22
BRANCH   6  24
ATOM     24  O   UNL     1       6.509  25.344  59.348  1.00  0.00    -0.507 OA
ATOM     25  H   UNL     1       6.948  24.729  58.680  1.00  0.00     0.293 HD
ENDBRANCH   6  24
BRANCH   8  26
ATOM     26  O   UNL     1       3.778  27.641  56.135  1.00  0.00    -0.508 OA
ATOM     27  H   UNL     1       3.819  26.844  55.510  1.00  0.00     0.293 HD
ENDBRANCH   8  26
TORSDOF 6
ENDMDL
MODEL 7
REMARK VINA RESULT:    -5.539      2.568      3.166
REMARK INTER + INTRA:          -6.548
REMARK INTER:                  -6.263
REMARK INTRA:                  -0.284
REMARK UNBOUND:                 0.125
REMARK SMILES O=c1c(O)c(-c2ccc(O)c(O)c2)oc2cc(O)cc(O)c12
REMARK SMILES IDX 5 1 3 2 2 3 1 4 22 5 20 6 19 7 17 8 16 9 15 10 14 11 6 12
REMARK SMILES IDX 7 13 8 14 9 15 13 16 11 17 10 18 12 20 4 22 21 24 18 26
REMARK H PARENT 10 19 12 21 4 23 21 25 18 27
REMARK Flexibility Score: inf
ROOT
ATOM      1  C   UNL     1       6.482  27.180  59.800  1.00  0.00     0.180 A 
ATOM      2  C   UNL     1       6.505  27.792  61.065  1.00  0.00     0.208 A 
ATOM      3  C   UNL     1       7.042  27.085  62.154  1.00  0.00     0.238 A 
ATOM      4  O   UNL     1       7.011  27.617  63.294  1.00  0.00    -0.285 OA
ATOM      5  C   UNL     1       7.564  25.783  61.960  1.00  0.00     0.111 A 
ATOM      6  C   UNL     1       8.168  24.992  62.983  1.00  0.00     0.134 A 
ATOM      7  C   UNL     1       8.532  23.668  62.708  1.00  0.00     0.093 A 
ATOM      8  C   UNL     1       8.372  23.129  61.429  1.00  0.00     0.123 A 
ATOM      9  C   UNL     1       7.839  23.912  60.409  1.00  0.00     0.094 A 
ATOM     10  C   UNL     1       7.433  25.225  60.662  1.00  0.00     0.146 A 
ATOM     11  O   UNL     1       6.919  25.934  59.663  1.00  0.00    -0.452 OA
ENDROOT
BRANCH   1  12
ATOM     12  C   UNL     1       5.955  27.871  58.600  1.00  0.00     0.025 A 
ATOM     13  C   UNL     1       4.573  27.988  58.372  1.00  0.00     0.016 A 
ATOM     14  C   UNL     1       4.098  28.665  57.245  1.00  0.00     0.051 A 
ATOM     15  C   UNL     1       4.996  29.246  56.340  1.00  0.00     0.157 A 
ATOM     16  C   UNL     1       6.849  28.473  57.701  1.00  0.00     0.062 A 
ATOM     17  C   UNL     1       6.378  29.152  56.571  1.00  0.00     0.158 A 
BRANCH  15  18
ATOM     18  O   UNL     1       4.519  29.920  55.216  1.00  0.00    -0.504 OA
ATOM     19  H   UNL     1       4.014  29.438  54.482  1.00  0.00     0.293 HD
ENDBRANCH  15  18
BRANCH  17  20
ATOM     20  O   UNL     1       7.297  29.725  55.693  1.00  0.00    -0.504 OA
ATOM     21  H   UNL     1       7.249  29.578  54.692  1.00  0.00     0.293 HD
ENDBRANCH  17  20
ENDBRANCH   1  12
BRANCH   2  22
ATOM     22  O   UNL     1       5.965  29.069  61.239  1.00  0.00    -0.502 OA
ATOM     23  H   UNL     1       5.660  29.641  60.461  1.00  0.00     0.293 HD
ENDBRANCH   2  22
BRANCH   6  24
ATOM     24  O   UNL     1       8.456  25.465  64.266  1.00  0.00    -0.507 OA
ATOM     25  H   UNL     1       7.769  25.636  64.984  1.00  0.00     0.293 HD
ENDBRANCH   6  24
BRANCH   8  26
ATOM     26  O   UNL     1       8.750  21.815  61.160  1.00  0.00    -0.508 OA
ATOM     27  H   UNL     1       9.666  21.463  61.417  1.00  0.00     0.293 HD
ENDBRANCH   8  26
TORSDOF 6
ENDMDL
MODEL 8
REMARK VINA RESULT:    -5.488      2.876      7.232
REMARK INTER + INTRA:          -6.486
REMARK INTER:                  -6.169
REMARK INTRA:                  -0.317
REMARK UNBOUND:                 0.125
REMARK SMILES O=c1c(O)c(-c2ccc(O)c(O)c2)oc2cc(O)cc(O)c12
REMARK SMILES IDX 5 1 3 2 2 3 1 4 22 5 20 6 19 7 17 8 16 9 15 10 14 11 6 12
REMARK SMILES IDX 7 13 8 14 9 15 13 16 11 17 10 18 12 20 4 22 21 24 18 26
REMARK H PARENT 10 19 12 21 4 23 21 25 18 27
REMARK Flexibility Score: inf
ROOT
ATOM      1  C   UNL     1       6.436  25.244  60.897  1.00  0.00     0.180 A 
ATOM      2  C   UNL     1       6.790  26.380  61.644  1.00  0.00     0.208 A 
ATOM      3  C   UNL     1       6.445  27.651  61.156  1.00  0.00     0.238 A 
ATOM      4  O   UNL     1       6.812  28.667  61.802  1.00  0.00    -0.285 OA
ATOM      5  C   UNL     1       5.735  27.768  59.936  1.00  0.00     0.111 A 
ATOM      6  C   UNL     1       5.299  29.002  59.368  1.00  0.00     0.134 A 
ATOM      7  C   UNL     1       4.719  29.009  58.093  1.00  0.00     0.093 A 
ATOM      8  C   UNL     1       4.502  27.818  57.395  1.00  0.00     0.123 A 
ATOM      9  C   UNL     1       4.871  26.603  57.966  1.00  0.00     0.094 A 
ATOM     10  C   UNL     1       5.484  26.568  59.222  1.00  0.00     0.146 A 
ATOM     11  O   UNL     1       5.829  25.389  59.725  1.00  0.00    -0.452 OA
ENDROOT
BRANCH   1  12
ATOM     12  C   UNL     1       6.744  23.870  61.359  1.00  0.00     0.025 A 
ATOM     13  C   UNL     1       5.793  23.100  62.051  1.00  0.00     0.016 A 
ATOM     14  C   UNL     1       6.097  21.798  62.456  1.00  0.00     0.051 A 
ATOM     15  C   UNL     1       7.350  21.242  62.164  1.00  0.00     0.157 A 
ATOM     16  C   UNL     1       7.989  23.300  61.050  1.00  0.00     0.062 A 
ATOM     17  C   UNL     1       8.298  21.996  61.454  1.00  0.00     0.158 A 
BRANCH  15  18
ATOM     18  O   UNL     1       7.651  19.943  62.571  1.00  0.00    -0.504 OA
ATOM     19  H   UNL     1       7.684  19.687  63.550  1.00  0.00     0.293 HD
ENDBRANCH  15  18
BRANCH  17  20
ATOM     20  O   UNL     1       9.551  21.469  61.141  1.00  0.00    -0.504 OA
ATOM     21  H   UNL     1       9.734  21.004  60.261  1.00  0.00     0.293 HD
ENDBRANCH  17  20
ENDBRANCH   1  12
BRANCH   2  22
ATOM     22  O   UNL     1       7.509  26.244  62.834  1.00  0.00    -0.502 OA
ATOM     23  H   UNL     1       7.198  26.649  63.708  1.00  0.00     0.293 HD
ENDBRANCH   2  22
BRANCH   6  24
ATOM     24  O   UNL     1       5.384  30.235  60.021  1.00  0.00    -0.507 OA
ATOM     25  H   UNL     1       4.837  31.049  59.786  1.00  0.00     0.293 HD
ENDBRANCH   6  24
BRANCH   8  26
ATOM     26  O   UNL     1       3.912  27.833  56.133  1.00  0.00    -0.508 OA
ATOM     27  H   UNL     1       4.274  27.270  55.371  1.00  0.00     0.293 HD
ENDBRANCH   8  26
TORSDOF 6
ENDMDL
MODEL 9
REMARK VINA RESULT:    -5.466      5.328      7.033
REMARK INTER + INTRA:          -6.460
REMARK INTER:                  -6.193
REMARK INTRA:                  -0.266
REMARK UNBOUND:                 0.125
REMARK SMILES O=c1c(O)c(-c2ccc(O)c(O)c2)oc2cc(O)cc(O)c12
REMARK SMILES IDX 5 1 3 2 2 3 1 4 22 5 20 6 19 7 17 8 16 9 15 10 14 11 6 12
REMARK SMILES IDX 7 13 8 14 9 15 13 16 11 17 10 18 12 20 4 22 21 24 18 26
REMARK H PARENT 10 19 12 21 4 23 21 25 18 27
REMARK Flexibility Score: inf
ROOT
ATOM      1  C   UNL     1       5.352  29.603  61.059  1.00  0.00     0.180 A 
ATOM      2  C   UNL     1       4.763  29.283  62.295  1.00  0.00     0.208 A 
ATOM      3  C   UNL     1       4.625  30.290  63.264  1.00  0.00     0.238 A 
ATOM      4  O   UNL     1       4.147  29.986  64.388  1.00  0.00    -0.285 OA
ATOM      5  C   UNL     1       5.061  31.607  62.979  1.00  0.00     0.111 A 
ATOM      6  C   UNL     1       4.933  32.713  63.871  1.00  0.00     0.134 A 
ATOM      7  C   UNL     1       5.517  33.942  63.536  1.00  0.00     0.093 A 
ATOM      8  C   UNL     1       6.168  34.119  62.312  1.00  0.00     0.123 A 
ATOM      9  C   UNL     1       6.246  33.062  61.410  1.00  0.00     0.094 A 
ATOM     10  C   UNL     1       5.704  31.814  61.731  1.00  0.00     0.146 A 
ATOM     11  O   UNL     1       5.811  30.830  60.846  1.00  0.00    -0.452 OA
ENDROOT
BRANCH   1  12
ATOM     12  C   UNL     1       5.510  28.601  59.979  1.00  0.00     0.025 A 
ATOM     13  C   UNL     1       6.503  27.608  60.041  1.00  0.00     0.016 A 
ATOM     14  C   UNL     1       6.618  26.659  59.023  1.00  0.00     0.051 A 
ATOM     15  C   UNL     1       5.734  26.679  57.936  1.00  0.00     0.157 A 
ATOM     16  C   UNL     1       4.613  28.603  58.899  1.00  0.00     0.062 A 
ATOM     17  C   UNL     1       4.725  27.654  57.876  1.00  0.00     0.158 A 
BRANCH  15  18
ATOM     18  O   UNL     1       5.852  25.730  56.920  1.00  0.00    -0.504 OA
ATOM     19  H   UNL     1       6.609  25.058  56.907  1.00  0.00     0.293 HD
ENDBRANCH  15  18
BRANCH  17  20
ATOM     20  O   UNL     1       3.825  27.695  56.812  1.00  0.00    -0.504 OA
ATOM     21  H   UNL     1       4.091  27.431  55.871  1.00  0.00     0.293 HD
ENDBRANCH  17  20
ENDBRANCH   1  12
BRANCH   2  22
ATOM     22  O   UNL     1       4.360  27.973  62.564  1.00  0.00    -0.502 OA
ATOM     23  H   UNL     1       3.385  27.710  62.649  1.00  0.00     0.293 HD
ENDBRANCH   2  22
BRANCH   6  24
ATOM     24  O   UNL     1       4.224  32.667  65.075  1.00  0.00    -0.507 OA
ATOM     25  H   UNL     1       3.662  33.421  65.440  1.00  0.00     0.293 HD
ENDBRANCH   6  24
BRANCH   8  26
ATOM     26  O   UNL     1       6.734  35.349  61.981  1.00  0.00    -0.508 OA
ATOM     27  H   UNL     1       6.440  36.207  62.433  1.00  0.00     0.293 HD
ENDBRANCH   8  26
TORSDOF 6
ENDMDL
