MODEL 1
REMARK VINA RESULT:    -4.891      0.000      0.000
REMARK INTER + INTRA:          -5.274
REMARK INTER:                  -5.177
REMARK INTRA:                  -0.097
REMARK UNBOUND:                -0.097
REMARK SMILES C=C(C)[C@H]1CC=C(C)C(=O)C1
REMARK SMILES IDX 8 1 7 2 6 3 5 4 4 5 11 6 9 7 10 8 2 9 1 10 3 11
REMARK H PARENT
REMARK Flexibility Score: inf
ROOT
ATOM      1  C   UNL     1      21.228 -12.687  69.756  1.00  0.00     0.048 C 
ATOM      2  C   UNL     1      20.279 -12.128  68.732  1.00  0.00    -0.012 C 
ATOM      3  C   UNL     1      19.994 -12.838  67.627  1.00  0.00    -0.019 C 
ATOM      4  C   UNL     1      19.066 -12.319  66.562  1.00  0.00     0.036 C 
ATOM      5  C   UNL     1      17.961 -11.436  67.172  1.00  0.00     0.025 C 
ATOM      6  C   UNL     1      18.582 -10.302  68.007  1.00  0.00     0.089 C 
ATOM      7  C   UNL     1      19.565 -10.856  69.003  1.00  0.00     0.158 C 
ATOM      8  O   UNL     1      19.803 -10.206  70.056  1.00  0.00    -0.295 OA
ENDROOT
BRANCH   5   9
ATOM      9  C   UNL     1      17.028 -10.891  66.100  1.00  0.00    -0.077 C 
ATOM     10  C   UNL     1      17.375  -9.801  65.396  1.00  0.00     0.008 C 
ATOM     11  C   UNL     1      15.706 -11.552  65.797  1.00  0.00     0.039 C 
ENDBRANCH   5   9
TORSDOF 1
ENDMDL
MODEL 2
REMARK VINA RESULT:    -4.789      1.116      1.379
REMARK INTER + INTRA:          -5.166
REMARK INTER:                  -5.069
REMARK INTRA:                  -0.097
REMARK UNBOUND:                -0.097
REMARK SMILES C=C(C)[C@H]1CC=C(C)C(=O)C1
REMARK SMILES IDX 8 1 7 2 6 3 5 4 4 5 11 6 9 7 10 8 2 9 1 10 3 11
REMARK H PARENT
REMARK Flexibility Score: inf
ROOT
ATOM      1  C   UNL     1      20.302 -11.778  69.257  1.00  0.00     0.048 C 
ATOM      2  C   UNL     1      19.300 -11.537  68.162  1.00  0.00    -0.012 C 
ATOM      3  C   UNL     1      18.890 -12.560  67.393  1.00  0.00    -0.019 C 
ATOM      4  C   UNL     1      17.903 -12.371  66.272  1.00  0.00     0.036 C 
ATOM      5  C   UNL     1      16.897 -11.253  66.603  1.00  0.00     0.025 C 
ATOM      6  C   UNL     1      17.639  -9.950  66.950  1.00  0.00     0.089 C 
ATOM      7  C   UNL     1      18.673 -10.199  68.015  1.00  0.00     0.158 C 
ATOM      8  O   UNL     1      19.029  -9.247  68.759  1.00  0.00    -0.295 OA
ENDROOT
BRANCH   5   9
ATOM      9  C   UNL     1      15.905 -11.042  65.466  1.00  0.00    -0.077 C 
ATOM     10  C   UNL     1      16.194 -10.189  64.470  1.00  0.00     0.008 C 
ATOM     11  C   UNL     1      14.589 -11.778  65.425  1.00  0.00     0.039 C 
ENDBRANCH   5   9
TORSDOF 1
ENDMDL
MODEL 3
REMARK VINA RESULT:    -4.713      3.735      6.117
REMARK INTER + INTRA:          -5.086
REMARK INTER:                  -4.996
REMARK INTRA:                  -0.090
REMARK UNBOUND:                -0.097
REMARK SMILES C=C(C)[C@H]1CC=C(C)C(=O)C1
REMARK SMILES IDX 8 1 7 2 6 3 5 4 4 5 11 6 9 7 10 8 2 9 1 10 3 11
REMARK H PARENT
REMARK Flexibility Score: inf
ROOT
ATOM      1  C   UNL     1      14.758 -11.767  61.418  1.00  0.00     0.048 C 
ATOM      2  C   UNL     1      15.679 -11.264  62.495  1.00  0.00    -0.012 C 
ATOM      3  C   UNL     1      15.317 -10.212  63.248  1.00  0.00    -0.019 C 
ATOM      4  C   UNL     1      16.208  -9.657  64.327  1.00  0.00     0.036 C 
ATOM      5  C   UNL     1      17.049 -10.771  64.978  1.00  0.00     0.025 C 
ATOM      6  C   UNL     1      17.842 -11.539  63.906  1.00  0.00     0.089 C 
ATOM      7  C   UNL     1      16.927 -12.005  62.806  1.00  0.00     0.158 C 
ATOM      8  O   UNL     1      17.252 -13.014  62.124  1.00  0.00    -0.295 OA
ENDROOT
BRANCH   5   9
ATOM      9  C   UNL     1      17.968 -10.215  66.058  1.00  0.00    -0.077 C 
ATOM     10  C   UNL     1      17.485  -9.950  67.282  1.00  0.00     0.008 C 
ATOM     11  C   UNL     1      19.429  -9.954  65.789  1.00  0.00     0.039 C 
ENDBRANCH   5   9
TORSDOF 1
ENDMDL
MODEL 4
REMARK VINA RESULT:    -4.703      3.230      4.035
REMARK INTER + INTRA:          -5.075
REMARK INTER:                  -4.981
REMARK INTRA:                  -0.094
REMARK UNBOUND:                -0.097
REMARK SMILES C=C(C)[C@H]1CC=C(C)C(=O)C1
REMARK SMILES IDX 8 1 7 2 6 3 5 4 4 5 11 6 9 7 10 8 2 9 1 10 3 11
REMARK H PARENT
REMARK Flexibility Score: inf
ROOT
ATOM      1  C   UNL     1      20.551  -9.649  66.014  1.00  0.00     0.048 C 
ATOM      2  C   UNL     1      19.181 -10.115  65.607  1.00  0.00    -0.012 C 
ATOM      3  C   UNL     1      18.210 -10.226  66.529  1.00  0.00    -0.019 C 
ATOM      4  C   UNL     1      16.826 -10.703  66.179  1.00  0.00     0.036 C 
ATOM      5  C   UNL     1      16.437 -10.276  64.751  1.00  0.00     0.025 C 
ATOM      6  C   UNL     1      17.493 -10.760  63.741  1.00  0.00     0.089 C 
ATOM      7  C   UNL     1      18.870 -10.331  64.171  1.00  0.00     0.158 C 
ATOM      8  O   UNL     1      19.770 -10.193  63.300  1.00  0.00    -0.295 OA
ENDROOT
BRANCH   5   9
ATOM      9  C   UNL     1      15.046 -10.772  64.381  1.00  0.00    -0.077 C 
ATOM     10  C   UNL     1      14.439 -10.312  63.276  1.00  0.00     0.008 C 
ATOM     11  C   UNL     1      14.320 -11.785  65.232  1.00  0.00     0.039 C 
ENDBRANCH   5   9
TORSDOF 1
ENDMDL
MODEL 5
REMARK VINA RESULT:    -4.699      2.402      3.544
REMARK INTER + INTRA:          -5.071
REMARK INTER:                  -4.974
REMARK INTRA:                  -0.097
REMARK UNBOUND:                -0.097
REMARK SMILES C=C(C)[C@H]1CC=C(C)C(=O)C1
REMARK SMILES IDX 8 1 7 2 6 3 5 4 4 5 11 6 9 7 10 8 2 9 1 10 3 11
REMARK H PARENT
REMARK Flexibility Score: inf
ROOT
ATOM      1  C   UNL     1      19.113  -9.709  68.539  1.00  0.00     0.048 C 
ATOM      2  C   UNL     1      18.573  -9.943  67.156  1.00  0.00    -0.012 C 
ATOM      3  C   UNL     1      17.282 -10.279  66.989  1.00  0.00    -0.019 C 
ATOM      4  C   UNL     1      16.694 -10.542  65.629  1.00  0.00     0.036 C 
ATOM      5  C   UNL     1      17.369  -9.668  64.555  1.00  0.00     0.025 C 
ATOM      6  C   UNL     1      18.894  -9.873  64.580  1.00  0.00     0.089 C 
ATOM      7  C   UNL     1      19.431  -9.681  65.973  1.00  0.00     0.158 C 
ATOM      8  O   UNL     1      20.631  -9.331  66.126  1.00  0.00    -0.295 OA
ENDROOT
BRANCH   5   9
ATOM      9  C   UNL     1      16.794  -9.942  63.172  1.00  0.00    -0.077 C 
ATOM     10  C   UNL     1      16.681 -11.203  62.727  1.00  0.00     0.008 C 
ATOM     11  C   UNL     1      16.336  -8.819  62.275  1.00  0.00     0.039 C 
ENDBRANCH   5   9
TORSDOF 1
ENDMDL
MODEL 6
REMARK VINA RESULT:    -4.687      2.354      4.794
REMARK INTER + INTRA:          -5.059
REMARK INTER:                  -4.961
REMARK INTRA:                  -0.097
REMARK UNBOUND:                -0.097
REMARK SMILES C=C(C)[C@H]1CC=C(C)C(=O)C1
REMARK SMILES IDX 8 1 7 2 6 3 5 4 4 5 11 6 9 7 10 8 2 9 1 10 3 11
REMARK H PARENT
REMARK Flexibility Score: inf
ROOT
ATOM      1  C   UNL     1      17.194  -9.794  63.197  1.00  0.00     0.048 C 
ATOM      2  C   UNL     1      17.823  -9.918  64.557  1.00  0.00    -0.012 C 
ATOM      3  C   UNL     1      17.047  -9.942  65.654  1.00  0.00    -0.019 C 
ATOM      4  C   UNL     1      17.625 -10.047  67.040  1.00  0.00     0.036 C 
ATOM      5  C   UNL     1      18.918 -10.883  67.039  1.00  0.00     0.025 C 
ATOM      6  C   UNL     1      19.927 -10.307  66.029  1.00  0.00     0.089 C 
ATOM      7  C   UNL     1      19.286 -10.141  64.678  1.00  0.00     0.158 C 
ATOM      8  O   UNL     1      20.012 -10.156  63.648  1.00  0.00    -0.295 OA
ENDROOT
BRANCH   5   9
ATOM      9  C   UNL     1      19.520 -10.979  68.434  1.00  0.00    -0.077 C 
ATOM     10  C   UNL     1      19.510  -9.911  69.247  1.00  0.00     0.008 C 
ATOM     11  C   UNL     1      20.134 -12.261  68.939  1.00  0.00     0.039 C 
ENDBRANCH   5   9
TORSDOF 1
ENDMDL
MODEL 7
REMARK VINA RESULT:    -4.680     15.553     16.139
REMARK INTER + INTRA:          -5.051
REMARK INTER:                  -4.953
REMARK INTRA:                  -0.097
REMARK UNBOUND:                -0.097
REMARK SMILES C=C(C)[C@H]1CC=C(C)C(=O)C1
REMARK SMILES IDX 8 1 7 2 6 3 5 4 4 5 11 6 9 7 10 8 2 9 1 10 3 11
REMARK H PARENT
REMARK Flexibility Score: inf
ROOT
ATOM      1  C   UNL     1      10.431  -9.203  54.636  1.00  0.00     0.048 C 
ATOM      2  C   UNL     1       9.350  -8.981  55.657  1.00  0.00    -0.012 C 
ATOM      3  C   UNL     1       9.259  -7.799  56.290  1.00  0.00    -0.019 C 
ATOM      4  C   UNL     1       8.207  -7.530  57.333  1.00  0.00     0.036 C 
ATOM      5  C   UNL     1       6.908  -8.297  57.020  1.00  0.00     0.025 C 
ATOM      6  C   UNL     1       7.199  -9.799  56.861  1.00  0.00     0.089 C 
ATOM      7  C   UNL     1       8.311 -10.020  55.872  1.00  0.00     0.158 C 
ATOM      8  O   UNL     1       8.374 -11.116  55.252  1.00  0.00    -0.295 OA
ENDROOT
BRANCH   5   9
ATOM      9  C   UNL     1       5.845  -8.046  58.081  1.00  0.00    -0.077 C 
ATOM     10  C   UNL     1       5.747  -8.861  59.143  1.00  0.00     0.008 C 
ATOM     11  C   UNL     1       4.886  -6.886  57.974  1.00  0.00     0.039 C 
ENDBRANCH   5   9
TORSDOF 1
ENDMDL
MODEL 8
REMARK VINA RESULT:    -4.642      1.683      2.277
REMARK INTER + INTRA:          -5.011
REMARK INTER:                  -4.915
REMARK INTRA:                  -0.096
REMARK UNBOUND:                -0.097
REMARK SMILES C=C(C)[C@H]1CC=C(C)C(=O)C1
REMARK SMILES IDX 8 1 7 2 6 3 5 4 4 5 11 6 9 7 10 8 2 9 1 10 3 11
REMARK H PARENT
REMARK Flexibility Score: inf
ROOT
ATOM      1  C   UNL     1      20.136 -11.511  69.294  1.00  0.00     0.048 C 
ATOM      2  C   UNL     1      19.077 -11.141  68.292  1.00  0.00    -0.012 C 
ATOM      3  C   UNL     1      19.166  -9.979  67.623  1.00  0.00    -0.019 C 
ATOM      4  C   UNL     1      18.126  -9.551  66.622  1.00  0.00     0.036 C 
ATOM      5  C   UNL     1      17.519 -10.769  65.900  1.00  0.00     0.025 C 
ATOM      6  C   UNL     1      16.965 -11.777  66.922  1.00  0.00     0.089 C 
ATOM      7  C   UNL     1      18.009 -12.114  67.952  1.00  0.00     0.158 C 
ATOM      8  O   UNL     1      17.945 -13.220  68.551  1.00  0.00    -0.295 OA
ENDROOT
BRANCH   5   9
ATOM      9  C   UNL     1      16.452 -10.348  64.899  1.00  0.00    -0.077 C 
ATOM     10  C   UNL     1      16.629  -9.249  64.148  1.00  0.00     0.008 C 
ATOM     11  C   UNL     1      15.183 -11.144  64.721  1.00  0.00     0.039 C 
ENDBRANCH   5   9
TORSDOF 1
ENDMDL
MODEL 9
REMARK VINA RESULT:    -4.592      2.082      4.669
REMARK INTER + INTRA:          -4.957
REMARK INTER:                  -4.860
REMARK INTRA:                  -0.098
REMARK UNBOUND:                -0.097
REMARK SMILES C=C(C)[C@H]1CC=C(C)C(=O)C1
REMARK SMILES IDX 8 1 7 2 6 3 5 4 4 5 11 6 9 7 10 8 2 9 1 10 3 11
REMARK H PARENT
REMARK Flexibility Score: inf
ROOT
ATOM      1  C   UNL     1      15.916 -11.667  64.475  1.00  0.00     0.048 C 
ATOM      2  C   UNL     1      16.973 -11.447  65.522  1.00  0.00    -0.012 C 
ATOM      3  C   UNL     1      16.916 -10.362  66.312  1.00  0.00    -0.019 C 
ATOM      4  C   UNL     1      17.956 -10.084  67.364  1.00  0.00     0.036 C 
ATOM      5  C   UNL     1      18.511 -11.394  67.954  1.00  0.00     0.025 C 
ATOM      6  C   UNL     1      19.044 -12.303  66.833  1.00  0.00     0.089 C 
ATOM      7  C   UNL     1      18.002 -12.489  65.763  1.00  0.00     0.158 C 
ATOM      8  O   UNL     1      18.036 -13.525  65.047  1.00  0.00    -0.295 OA
ENDROOT
BRANCH   5   9
ATOM      9  C   UNL     1      19.579 -11.123  69.005  1.00  0.00    -0.077 C 
ATOM     10  C   UNL     1      19.586  -9.957  69.672  1.00  0.00     0.008 C 
ATOM     11  C   UNL     1      20.642 -12.143  69.327  1.00  0.00     0.039 C 
ENDBRANCH   5   9
TORSDOF 1
ENDMDL
