MODEL 1
REMARK VINA RESULT:    -5.226      0.000      0.000
REMARK INTER + INTRA:          -5.833
REMARK INTER:                  -6.295
REMARK INTRA:                   0.462
REMARK UNBOUND:                 0.462
REMARK SMILES O=c1c(O)c(-c2ccc(O)cc2O)oc2cc(O)cc(O)c12
REMARK SMILES IDX 5 1 3 2 2 3 1 4 22 5 20 6 19 7 17 8 16 9 15 10 14 11 6 12
REMARK SMILES IDX 8 13 7 14 9 15 11 16 12 17 10 18 13 20 4 22 21 24 18 26
REMARK H PARENT 10 19 13 21 4 23 21 25 18 27
REMARK Flexibility Score: inf
ROOT
ATOM      1  C   UNL     1      13.262  15.351  15.194  1.00  0.00     0.184 A 
ATOM      2  C   UNL     1      13.513  16.367  16.129  1.00  0.00     0.208 A 
ATOM      3  C   UNL     1      12.526  16.676  17.079  1.00  0.00     0.238 A 
ATOM      4  O   UNL     1      12.734  17.625  17.881  1.00  0.00    -0.285 OA
ATOM      5  C   UNL     1      11.309  15.953  17.090  1.00  0.00     0.111 A 
ATOM      6  C   UNL     1      10.255  16.154  18.032  1.00  0.00     0.134 A 
ATOM      7  C   UNL     1       9.043  15.470  17.869  1.00  0.00     0.093 A 
ATOM      8  C   UNL     1       8.869  14.547  16.838  1.00  0.00     0.123 A 
ATOM      9  C   UNL     1       9.914  14.300  15.947  1.00  0.00     0.094 A 
ATOM     10  C   UNL     1      11.123  14.991  16.061  1.00  0.00     0.146 A 
ATOM     11  O   UNL     1      12.087  14.734  15.186  1.00  0.00    -0.451 OA
ENDROOT
BRANCH   1  12
ATOM     12  C   UNL     1      14.265  14.964  14.180  1.00  0.00     0.063 A 
ATOM     13  C   UNL     1      16.569  15.032  13.406  1.00  0.00     0.047 A 
ATOM     14  C   UNL     1      15.597  15.377  14.348  1.00  0.00     0.020 A 
ATOM     15  C   UNL     1      16.220  14.284  12.276  1.00  0.00     0.119 A 
ATOM     16  C   UNL     1      14.892  13.889  12.089  1.00  0.00     0.093 A 
ATOM     17  C   UNL     1      13.909  14.234  13.027  1.00  0.00     0.130 A 
BRANCH  15  18
ATOM     18  O   UNL     1      17.182  13.931  11.332  1.00  0.00    -0.508 OA
ATOM     19  H   UNL     1      18.126  13.686  11.606  1.00  0.00     0.293 HD
ENDBRANCH  15  18
BRANCH  17  20
ATOM     20  O   UNL     1      12.579  13.875  12.803  1.00  0.00    -0.507 OA
ATOM     21  H   UNL     1      11.826  14.250  13.366  1.00  0.00     0.293 HD
ENDBRANCH  17  20
ENDBRANCH   1  12
BRANCH   2  22
ATOM     22  O   UNL     1      14.715  17.077  16.084  1.00  0.00    -0.502 OA
ATOM     23  H   UNL     1      14.770  18.066  16.297  1.00  0.00     0.293 HD
ENDBRANCH   2  22
BRANCH   6  24
ATOM     24  O   UNL     1      10.356  16.985  19.152  1.00  0.00    -0.507 OA
ATOM     25  H   UNL     1      11.149  17.573  19.361  1.00  0.00     0.293 HD
ENDBRANCH   6  24
BRANCH   8  26
ATOM     26  O   UNL     1       7.656  13.875  16.715  1.00  0.00    -0.508 OA
ATOM     27  H   UNL     1       7.595  12.970  16.264  1.00  0.00     0.293 HD
ENDBRANCH   8  26
TORSDOF 6
ENDMDL
MODEL 2
REMARK VINA RESULT:    -4.255      1.114      6.279
REMARK INTER + INTRA:          -4.664
REMARK INTER:                  -5.082
REMARK INTRA:                   0.418
REMARK UNBOUND:                 0.462
REMARK SMILES O=c1c(O)c(-c2ccc(O)cc2O)oc2cc(O)cc(O)c12
REMARK SMILES IDX 5 1 3 2 2 3 1 4 22 5 20 6 19 7 17 8 16 9 15 10 14 11 6 12
REMARK SMILES IDX 8 13 7 14 9 15 11 16 12 17 10 18 13 20 4 22 21 24 18 26
REMARK H PARENT 10 19 13 21 4 23 21 25 18 27
REMARK Flexibility Score: inf
ROOT
ATOM      1  C   UNL     1      12.562  15.527  15.741  1.00  0.00     0.184 A 
ATOM      2  C   UNL     1      13.255  16.596  16.330  1.00  0.00     0.208 A 
ATOM      3  C   UNL     1      14.501  16.971  15.804  1.00  0.00     0.238 A 
ATOM      4  O   UNL     1      15.143  17.895  16.369  1.00  0.00    -0.285 OA
ATOM      5  C   UNL     1      15.029  16.282  14.685  1.00  0.00     0.111 A 
ATOM      6  C   UNL     1      16.263  16.603  14.044  1.00  0.00     0.134 A 
ATOM      7  C   UNL     1      16.750  15.772  13.026  1.00  0.00     0.093 A 
ATOM      8  C   UNL     1      16.017  14.672  12.583  1.00  0.00     0.123 A 
ATOM      9  C   UNL     1      14.781  14.384  13.162  1.00  0.00     0.094 A 
ATOM     10  C   UNL     1      14.285  15.172  14.204  1.00  0.00     0.146 A 
ATOM     11  O   UNL     1      13.110  14.857  14.735  1.00  0.00    -0.451 OA
ENDROOT
BRANCH   1  12
ATOM     12  C   UNL     1      11.238  15.094  16.235  1.00  0.00     0.063 A 
ATOM     13  C   UNL     1       9.606  15.049  18.037  1.00  0.00     0.047 A 
ATOM     14  C   UNL     1      10.849  15.446  17.537  1.00  0.00     0.020 A 
ATOM     15  C   UNL     1       8.743  14.281  17.247  1.00  0.00     0.119 A 
ATOM     16  C   UNL     1       9.132  13.907  15.957  1.00  0.00     0.093 A 
ATOM     17  C   UNL     1      10.380  14.297  15.449  1.00  0.00     0.130 A 
BRANCH  15  18
ATOM     18  O   UNL     1       7.500  13.882  17.733  1.00  0.00    -0.508 OA
ATOM     19  H   UNL     1       6.655  14.002  17.186  1.00  0.00     0.293 HD
ENDBRANCH  15  18
BRANCH  17  20
ATOM     20  O   UNL     1      10.775  13.875  14.179  1.00  0.00    -0.507 OA
ATOM     21  H   UNL     1      11.709  14.046  13.830  1.00  0.00     0.293 HD
ENDBRANCH  17  20
ENDBRANCH   1  12
BRANCH   2  22
ATOM     22  O   UNL     1      12.719  17.247  17.444  1.00  0.00    -0.502 OA
ATOM     23  H   UNL     1      13.239  17.938  17.972  1.00  0.00     0.293 HD
ENDBRANCH   2  22
BRANCH   6  24
ATOM     24  O   UNL     1      17.031  17.731  14.348  1.00  0.00    -0.507 OA
ATOM     25  H   UNL     1      17.535  17.868  15.210  1.00  0.00     0.293 HD
ENDBRANCH   6  24
BRANCH   8  26
ATOM     26  O   UNL     1      16.525  13.876  11.558  1.00  0.00    -0.508 OA
ATOM     27  H   UNL     1      17.485  13.553  11.565  1.00  0.00     0.293 HD
ENDBRANCH   8  26
TORSDOF 6
ENDMDL
MODEL 3
REMARK VINA RESULT:    -3.722      1.342      3.224
REMARK INTER + INTRA:          -4.022
REMARK INTER:                  -4.475
REMARK INTRA:                   0.453
REMARK UNBOUND:                 0.462
REMARK SMILES O=c1c(O)c(-c2ccc(O)cc2O)oc2cc(O)cc(O)c12
REMARK SMILES IDX 5 1 3 2 2 3 1 4 22 5 20 6 19 7 17 8 16 9 15 10 14 11 6 12
REMARK SMILES IDX 8 13 7 14 9 15 11 16 12 17 10 18 13 20 4 22 21 24 18 26
REMARK H PARENT 10 19 13 21 4 23 21 25 18 27
REMARK Flexibility Score: inf
ROOT
ATOM      1  C   UNL     1      13.408  15.413  15.006  1.00  0.00     0.184 A 
ATOM      2  C   UNL     1      12.178  14.769  14.801  1.00  0.00     0.208 A 
ATOM      3  C   UNL     1      11.126  15.011  15.698  1.00  0.00     0.238 A 
ATOM      4  O   UNL     1      10.042  14.390  15.540  1.00  0.00    -0.285 OA
ATOM      5  C   UNL     1      11.313  15.908  16.777  1.00  0.00     0.111 A 
ATOM      6  C   UNL     1      10.304  16.259  17.724  1.00  0.00     0.134 A 
ATOM      7  C   UNL     1      10.638  17.055  18.827  1.00  0.00     0.093 A 
ATOM      8  C   UNL     1      11.926  17.566  18.983  1.00  0.00     0.123 A 
ATOM      9  C   UNL     1      12.906  17.277  18.032  1.00  0.00     0.094 A 
ATOM     10  C   UNL     1      12.613  16.456  16.940  1.00  0.00     0.146 A 
ATOM     11  O   UNL     1      13.576  16.197  16.063  1.00  0.00    -0.451 OA
ENDROOT
BRANCH   1  12
ATOM     12  C   UNL     1      14.550  15.216  14.090  1.00  0.00     0.063 A 
ATOM     13  C   UNL     1      15.620  13.882  12.360  1.00  0.00     0.047 A 
ATOM     14  C   UNL     1      14.553  14.101  13.236  1.00  0.00     0.020 A 
ATOM     15  C   UNL     1      16.704  14.766  12.337  1.00  0.00     0.119 A 
ATOM     16  C   UNL     1      16.720  15.867  13.200  1.00  0.00     0.093 A 
ATOM     17  C   UNL     1      15.656  16.091  14.086  1.00  0.00     0.130 A 
BRANCH  15  18
ATOM     18  O   UNL     1      17.771  14.560  11.466  1.00  0.00    -0.508 OA
ATOM     19  H   UNL     1      18.266  13.676  11.437  1.00  0.00     0.293 HD
ENDBRANCH  15  18
BRANCH  17  20
ATOM     20  O   UNL     1      15.708  17.165  14.974  1.00  0.00    -0.507 OA
ATOM     21  H   UNL     1      15.824  18.118  14.651  1.00  0.00     0.293 HD
ENDBRANCH  17  20
ENDBRANCH   1  12
BRANCH   2  22
ATOM     22  O   UNL     1      12.026  13.875  13.737  1.00  0.00    -0.502 OA
ATOM     23  H   UNL     1      11.227  13.903  13.115  1.00  0.00     0.293 HD
ENDBRANCH   2  22
BRANCH   6  24
ATOM     24  O   UNL     1       8.963  15.878  17.613  1.00  0.00    -0.507 OA
ATOM     25  H   UNL     1       8.599  15.255  16.909  1.00  0.00     0.293 HD
ENDBRANCH   6  24
BRANCH   8  26
ATOM     26  O   UNL     1      12.219  18.367  20.084  1.00  0.00    -0.508 OA
ATOM     27  H   UNL     1      12.270  19.376  20.006  1.00  0.00     0.293 HD
ENDBRANCH   8  26
TORSDOF 6
ENDMDL
MODEL 4
REMARK VINA RESULT:    -3.645      2.004      3.460
REMARK INTER + INTRA:          -3.929
REMARK INTER:                  -3.746
REMARK INTRA:                  -0.184
REMARK UNBOUND:                 0.462
REMARK SMILES O=c1c(O)c(-c2ccc(O)cc2O)oc2cc(O)cc(O)c12
REMARK SMILES IDX 5 1 3 2 2 3 1 4 22 5 20 6 19 7 17 8 16 9 15 10 14 11 6 12
REMARK SMILES IDX 8 13 7 14 9 15 11 16 12 17 10 18 13 20 4 22 21 24 18 26
REMARK H PARENT 10 19 13 21 4 23 21 25 18 27
REMARK Flexibility Score: inf
ROOT
ATOM      1  C   UNL     1      14.208  14.629  14.470  1.00  0.00     0.184 A 
ATOM      2  C   UNL     1      12.856  14.612  14.095  1.00  0.00     0.208 A 
ATOM      3  C   UNL     1      11.874  14.514  15.093  1.00  0.00     0.238 A 
ATOM      4  O   UNL     1      10.665  14.444  14.747  1.00  0.00    -0.285 OA
ATOM      5  C   UNL     1      12.258  14.452  16.454  1.00  0.00     0.111 A 
ATOM      6  C   UNL     1      11.347  14.392  17.551  1.00  0.00     0.134 A 
ATOM      7  C   UNL     1      11.840  14.204  18.849  1.00  0.00     0.093 A 
ATOM      8  C   UNL     1      13.210  14.138  19.097  1.00  0.00     0.123 A 
ATOM      9  C   UNL     1      14.111  14.254  18.038  1.00  0.00     0.094 A 
ATOM     10  C   UNL     1      13.651  14.407  16.728  1.00  0.00     0.146 A 
ATOM     11  O   UNL     1      14.541  14.503  15.748  1.00  0.00    -0.451 OA
ENDROOT
BRANCH   1  12
ATOM     12  C   UNL     1      15.290  14.747  13.471  1.00  0.00     0.063 A 
ATOM     13  C   UNL     1      16.308  13.958  11.408  1.00  0.00     0.047 A 
ATOM     14  C   UNL     1      15.297  13.876  12.369  1.00  0.00     0.020 A 
ATOM     15  C   UNL     1      17.333  14.902  11.544  1.00  0.00     0.119 A 
ATOM     16  C   UNL     1      17.346  15.758  12.649  1.00  0.00     0.093 A 
ATOM     17  C   UNL     1      16.338  15.679  13.621  1.00  0.00     0.130 A 
BRANCH  15  18
ATOM     18  O   UNL     1      18.344  14.995  10.590  1.00  0.00    -0.508 OA
ATOM     19  H   UNL     1      19.151  14.383  10.614  1.00  0.00     0.293 HD
ENDBRANCH  15  18
BRANCH  17  20
ATOM     20  O   UNL     1      16.390  16.506  14.743  1.00  0.00    -0.507 OA
ATOM     21  H   UNL     1      15.850  16.307  15.576  1.00  0.00     0.293 HD
ENDBRANCH  17  20
ENDBRANCH   1  12
BRANCH   2  22
ATOM     22  O   UNL     1      12.505  14.656  12.742  1.00  0.00    -0.502 OA
ATOM     23  H   UNL     1      12.077  13.871  12.266  1.00  0.00     0.293 HD
ENDBRANCH   2  22
BRANCH   6  24
ATOM     24  O   UNL     1       9.962  14.540  17.426  1.00  0.00    -0.507 OA
ATOM     25  H   UNL     1       9.447  15.368  17.684  1.00  0.00     0.293 HD
ENDBRANCH   6  24
BRANCH   8  26
ATOM     26  O   UNL     1      13.665  13.965  20.402  1.00  0.00    -0.508 OA
ATOM     27  H   UNL     1      13.043  13.663  21.143  1.00  0.00     0.293 HD
ENDBRANCH   8  26
TORSDOF 6
ENDMDL
