MODEL 1
REMARK VINA RESULT:    -2.177      0.000      0.000
REMARK INTER + INTRA:          -2.177
REMARK INTER:                  -2.177
REMARK INTRA:                   0.000
REMARK UNBOUND:                 0.000
REMARK SMILES CC(=O)[O-]
REMARK SMILES IDX 1 1 2 2 3 3 4 4
REMARK H PARENT
REMARK Flexibility Score: inf
ROOT
ATOM      1  C   UNL     1      25.945  38.921  22.452  1.00  0.00     0.063 C 
ATOM      2  C   UNL     1      24.920  37.861  22.673  1.00  0.00     0.038 C 
ATOM      3  O   UNL     1      24.400  37.271  21.691  1.00  0.00    -0.550 OA
ATOM      4  O   UNL     1      24.573  37.485  23.965  1.00  0.00    -0.550 OA
ENDROOT
TORSDOF 0
ENDMDL
MODEL 2
REMARK VINA RESULT:    -2.164      0.087      1.621
REMARK INTER + INTRA:          -2.164
REMARK INTER:                  -2.164
REMARK INTRA:                   0.000
REMARK UNBOUND:                 0.000
REMARK SMILES CC(=O)[O-]
REMARK SMILES IDX 1 1 2 2 3 3 4 4
REMARK H PARENT
REMARK Flexibility Score: inf
ROOT
ATOM      1  C   UNL     1      25.915  38.958  22.530  1.00  0.00     0.063 C 
ATOM      2  C   UNL     1      24.944  37.848  22.748  1.00  0.00     0.038 C 
ATOM      3  O   UNL     1      24.649  37.487  23.917  1.00  0.00    -0.550 OA
ATOM      4  O   UNL     1      24.322  37.243  21.662  1.00  0.00    -0.550 OA
ENDROOT
TORSDOF 0
ENDMDL
MODEL 3
REMARK VINA RESULT:    -2.164     16.904     17.511
REMARK INTER + INTRA:          -2.164
REMARK INTER:                  -2.164
REMARK INTRA:                   0.000
REMARK UNBOUND:                 0.000
REMARK SMILES CC(=O)[O-]
REMARK SMILES IDX 1 1 2 2 3 3 4 4
REMARK H PARENT
REMARK Flexibility Score: inf
ROOT
ATOM      1  C   UNL     1      14.705  30.212  11.973  1.00  0.00     0.063 C 
ATOM      2  C   UNL     1      13.733  29.162  12.390  1.00  0.00     0.038 C 
ATOM      3  O   UNL     1      13.221  28.397  11.531  1.00  0.00    -0.550 OA
ATOM      4  O   UNL     1      13.429  28.989  13.735  1.00  0.00    -0.550 OA
ENDROOT
TORSDOF 0
ENDMDL
MODEL 4
REMARK VINA RESULT:    -2.159     16.869     17.353
REMARK INTER + INTRA:          -2.159
REMARK INTER:                  -2.159
REMARK INTRA:                   0.000
REMARK UNBOUND:                 0.000
REMARK SMILES CC(=O)[O-]
REMARK SMILES IDX 1 1 2 2 3 3 4 4
REMARK H PARENT
REMARK Flexibility Score: inf
ROOT
ATOM      1  C   UNL     1      13.664  29.042  13.265  1.00  0.00     0.063 C 
ATOM      2  C   UNL     1      14.065  29.749  12.015  1.00  0.00     0.038 C 
ATOM      3  O   UNL     1      13.212  29.977  11.117  1.00  0.00    -0.550 OA
ATOM      4  O   UNL     1      15.368  30.204  11.859  1.00  0.00    -0.550 OA
ENDROOT
TORSDOF 0
ENDMDL
MODEL 5
REMARK VINA RESULT:    -2.098      1.620      1.683
REMARK INTER + INTRA:          -2.098
REMARK INTER:                  -2.098
REMARK INTRA:                   0.000
REMARK UNBOUND:                 0.000
REMARK SMILES CC(=O)[O-]
REMARK SMILES IDX 1 1 2 2 3 3 4 4
REMARK H PARENT
REMARK Flexibility Score: inf
ROOT
ATOM      1  C   UNL     1      24.865  37.941  23.779  1.00  0.00     0.063 C 
ATOM      2  C   UNL     1      24.161  37.915  22.465  1.00  0.00     0.038 C 
ATOM      3  O   UNL     1      24.549  37.136  21.556  1.00  0.00    -0.550 OA
ATOM      4  O   UNL     1      23.043  38.714  22.258  1.00  0.00    -0.550 OA
ENDROOT
TORSDOF 0
ENDMDL
MODEL 6
REMARK VINA RESULT:    -2.090     15.044     15.358
REMARK INTER + INTRA:          -2.090
REMARK INTER:                  -2.090
REMARK INTRA:                   0.000
REMARK UNBOUND:                 0.000
REMARK SMILES CC(=O)[O-]
REMARK SMILES IDX 1 1 2 2 3 3 4 4
REMARK H PARENT
REMARK Flexibility Score: inf
ROOT
ATOM      1  C   UNL     1      24.128  24.550  27.183  1.00  0.00     0.063 C 
ATOM      2  C   UNL     1      23.950  23.134  26.752  1.00  0.00     0.038 C 
ATOM      3  O   UNL     1      24.949  22.444  26.421  1.00  0.00    -0.550 OA
ATOM      4  O   UNL     1      22.686  22.556  26.764  1.00  0.00    -0.550 OA
ENDROOT
TORSDOF 0
ENDMDL
MODEL 7
REMARK VINA RESULT:    -1.936     18.223     18.474
REMARK INTER + INTRA:          -1.936
REMARK INTER:                  -1.936
REMARK INTRA:                   0.000
REMARK UNBOUND:                 0.000
REMARK SMILES CC(=O)[O-]
REMARK SMILES IDX 1 1 2 2 3 3 4 4
REMARK H PARENT
REMARK Flexibility Score: inf
ROOT
ATOM      1  C   UNL     1      29.770  20.691  24.328  1.00  0.00     0.063 C 
ATOM      2  C   UNL     1      29.894  20.171  22.937  1.00  0.00     0.038 C 
ATOM      3  O   UNL     1      30.599  20.784  22.093  1.00  0.00    -0.550 OA
ATOM      4  O   UNL     1      29.274  18.979  22.580  1.00  0.00    -0.550 OA
ENDROOT
TORSDOF 0
ENDMDL
MODEL 8
REMARK VINA RESULT:    -1.929     17.446     17.520
REMARK INTER + INTRA:          -1.929
REMARK INTER:                  -1.929
REMARK INTRA:                   0.000
REMARK UNBOUND:                 0.000
REMARK SMILES CC(=O)[O-]
REMARK SMILES IDX 1 1 2 2 3 3 4 4
REMARK H PARENT
REMARK Flexibility Score: inf
ROOT
ATOM      1  C   UNL     1      28.553  20.977  25.277  1.00  0.00     0.063 C 
ATOM      2  C   UNL     1      27.083  20.744  25.183  1.00  0.00     0.038 C 
ATOM      3  O   UNL     1      26.377  20.732  26.225  1.00  0.00    -0.550 OA
ATOM      4  O   UNL     1      26.479  20.591  23.940  1.00  0.00    -0.550 OA
ENDROOT
TORSDOF 0
ENDMDL
MODEL 9
REMARK VINA RESULT:    -1.907     17.450     17.540
REMARK INTER + INTRA:          -1.907
REMARK INTER:                  -1.907
REMARK INTRA:                   0.000
REMARK UNBOUND:                 0.000
REMARK SMILES CC(=O)[O-]
REMARK SMILES IDX 1 1 2 2 3 3 4 4
REMARK H PARENT
REMARK Flexibility Score: inf
ROOT
ATOM      1  C   UNL     1      26.369  20.721  25.965  1.00  0.00     0.063 C 
ATOM      2  C   UNL     1      27.476  20.741  24.966  1.00  0.00     0.038 C 
ATOM      3  O   UNL     1      27.264  20.379  23.780  1.00  0.00    -0.550 OA
ATOM      4  O   UNL     1      28.733  21.210  25.329  1.00  0.00    -0.550 OA
ENDROOT
TORSDOF 0
ENDMDL
