MODEL 1
REMARK VINA RESULT:    -4.894      0.000      0.000
REMARK INTER + INTRA:          -5.436
REMARK INTER:                  -5.609
REMARK INTRA:                   0.173
REMARK UNBOUND:                 0.173
REMARK SMILES O=C1C[C@H](c2ccc(O)cc2)Oc2cc(O)cc(O)c21
REMARK SMILES IDX 3 1 4 2 12 3 13 4 14 5 15 6 17 7 18 8 20 9 2 10 1 11 5 12
REMARK SMILES IDX 6 13 11 14 7 15 10 16 8 17 9 18 19 20 16 22
REMARK H PARENT 9 19 19 21 16 23
REMARK Flexibility Score: inf
ROOT
ATOM      1  C   UNL     1     -32.118  10.661 -38.978  1.00  0.00     0.131 C 
ATOM      2  C   UNL     1     -33.031   9.502 -39.417  1.00  0.00     0.211 C 
ATOM      3  O   UNL     1     -33.663   8.879 -38.290  1.00  0.00    -0.484 OA
ATOM      4  C   UNL     1     -33.997   9.556 -37.106  1.00  0.00     0.138 A 
ATOM      5  C   UNL     1     -34.754   8.892 -36.137  1.00  0.00     0.093 A 
ATOM      6  C   UNL     1     -35.132   9.548 -34.965  1.00  0.00     0.123 A 
ATOM      7  C   UNL     1     -34.729  10.870 -34.747  1.00  0.00     0.093 A 
ATOM      8  C   UNL     1     -33.939  11.543 -35.687  1.00  0.00     0.133 A 
ATOM      9  C   UNL     1     -33.591  10.891 -36.899  1.00  0.00     0.102 A 
ATOM     10  C   UNL     1     -32.833  11.535 -37.993  1.00  0.00     0.174 C 
ATOM     11  O   UNL     1     -32.831  12.784 -38.155  1.00  0.00    -0.294 OA
ENDROOT
BRANCH   2  12
ATOM     12  C   UNL     1     -34.052   9.961 -40.441  1.00  0.00    -0.007 A 
ATOM     13  C   UNL     1     -34.268   9.186 -41.595  1.00  0.00     0.011 A 
ATOM     14  C   UNL     1     -34.742  11.181 -40.305  1.00  0.00     0.011 A 
ATOM     15  C   UNL     1     -35.170   9.608 -42.576  1.00  0.00     0.046 A 
ATOM     16  C   UNL     1     -35.643  11.599 -41.288  1.00  0.00     0.046 A 
ATOM     17  C   UNL     1     -35.860  10.813 -42.426  1.00  0.00     0.115 A 
BRANCH  17  18
ATOM     18  O   UNL     1     -36.755  11.222 -43.412  1.00  0.00    -0.508 OA
ATOM     19  H   UNL     1     -37.449  11.938 -43.233  1.00  0.00     0.293 HD
ENDBRANCH  17  18
ENDBRANCH   2  12
BRANCH   8  20
ATOM     20  O   UNL     1     -33.500  12.828 -35.361  1.00  0.00    -0.507 OA
ATOM     21  H   UNL     1     -34.023  13.668 -35.563  1.00  0.00     0.293 HD
ENDBRANCH   8  20
BRANCH   6  22
ATOM     22  O   UNL     1     -35.904   8.875 -34.021  1.00  0.00    -0.508 OA
ATOM     23  H   UNL     1     -36.855   8.588 -34.221  1.00  0.00     0.293 HD
ENDBRANCH   6  22
TORSDOF 4
ENDMDL
MODEL 2
REMARK VINA RESULT:    -2.869      1.728      2.032
REMARK INTER + INTRA:          -3.116
REMARK INTER:                  -3.291
REMARK INTRA:                   0.175
REMARK UNBOUND:                 0.173
REMARK SMILES O=C1C[C@H](c2ccc(O)cc2)Oc2cc(O)cc(O)c21
REMARK SMILES IDX 3 1 4 2 12 3 13 4 14 5 15 6 17 7 18 8 20 9 2 10 1 11 5 12
REMARK SMILES IDX 6 13 11 14 7 15 10 16 8 17 9 18 19 20 16 22
REMARK H PARENT 9 19 19 21 16 23
REMARK Flexibility Score: inf
ROOT
ATOM      1  C   UNL     1     -33.694  11.049 -40.799  1.00  0.00     0.131 C 
ATOM      2  C   UNL     1     -34.459   9.714 -40.782  1.00  0.00     0.211 C 
ATOM      3  O   UNL     1     -34.326   9.052 -39.516  1.00  0.00    -0.484 OA
ATOM      4  C   UNL     1     -34.164   9.724 -38.294  1.00  0.00     0.138 A 
ATOM      5  C   UNL     1     -34.207   8.989 -37.107  1.00  0.00     0.093 A 
ATOM      6  C   UNL     1     -34.084   9.631 -35.874  1.00  0.00     0.123 A 
ATOM      7  C   UNL     1     -33.893  11.016 -35.827  1.00  0.00     0.093 A 
ATOM      8  C   UNL     1     -33.810  11.768 -37.005  1.00  0.00     0.133 A 
ATOM      9  C   UNL     1     -33.977  11.122 -38.258  1.00  0.00     0.102 A 
ATOM     10  C   UNL     1     -33.992  11.830 -39.556  1.00  0.00     0.174 C 
ATOM     11  O   UNL     1     -34.312  13.045 -39.646  1.00  0.00    -0.294 OA
ENDROOT
BRANCH   2  12
ATOM     12  C   UNL     1     -35.917   9.908 -41.155  1.00  0.00    -0.007 A 
ATOM     13  C   UNL     1     -36.532   8.995 -42.030  1.00  0.00     0.011 A 
ATOM     14  C   UNL     1     -36.656  11.020 -40.706  1.00  0.00     0.011 A 
ATOM     15  C   UNL     1     -37.861   9.174 -42.425  1.00  0.00     0.046 A 
ATOM     16  C   UNL     1     -37.983  11.195 -41.104  1.00  0.00     0.046 A 
ATOM     17  C   UNL     1     -38.590  10.273 -41.963  1.00  0.00     0.115 A 
BRANCH  17  18
ATOM     18  O   UNL     1     -39.913  10.440 -42.367  1.00  0.00    -0.508 OA
ATOM     19  H   UNL     1     -40.542  11.062 -41.873  1.00  0.00     0.293 HD
ENDBRANCH  17  18
ENDBRANCH   2  12
BRANCH   8  20
ATOM     20  O   UNL     1     -33.527  13.130 -36.884  1.00  0.00    -0.507 OA
ATOM     21  H   UNL     1     -32.622  13.535 -37.079  1.00  0.00     0.293 HD
ENDBRANCH   8  20
BRANCH   6  22
ATOM     22  O   UNL     1     -34.150   8.882 -34.701  1.00  0.00    -0.508 OA
ATOM     23  H   UNL     1     -34.393   7.899 -34.712  1.00  0.00     0.293 HD
ENDBRANCH   6  22
TORSDOF 4
ENDMDL
MODEL 3
REMARK VINA RESULT:    -2.352      1.615      6.092
REMARK INTER + INTRA:          -2.523
REMARK INTER:                  -2.663
REMARK INTRA:                   0.140
REMARK UNBOUND:                 0.173
REMARK SMILES O=C1C[C@H](c2ccc(O)cc2)Oc2cc(O)cc(O)c21
REMARK SMILES IDX 3 1 4 2 12 3 13 4 14 5 15 6 17 7 18 8 20 9 2 10 1 11 5 12
REMARK SMILES IDX 6 13 11 14 7 15 10 16 8 17 9 18 19 20 16 22
REMARK H PARENT 9 19 19 21 16 23
REMARK Flexibility Score: inf
ROOT
ATOM      1  C   UNL     1     -32.606  11.546 -39.659  1.00  0.00     0.131 C 
ATOM      2  C   UNL     1     -33.649  12.114 -38.681  1.00  0.00     0.211 C 
ATOM      3  O   UNL     1     -34.917  12.310 -39.325  1.00  0.00    -0.484 OA
ATOM      4  C   UNL     1     -35.384  11.522 -40.389  1.00  0.00     0.138 A 
ATOM      5  C   UNL     1     -36.697  11.697 -40.834  1.00  0.00     0.093 A 
ATOM      6  C   UNL     1     -37.203  10.906 -41.866  1.00  0.00     0.123 A 
ATOM      7  C   UNL     1     -36.384   9.950 -42.477  1.00  0.00     0.093 A 
ATOM      8  C   UNL     1     -35.054   9.784 -42.072  1.00  0.00     0.133 A 
ATOM      9  C   UNL     1     -34.551  10.557 -40.994  1.00  0.00     0.102 A 
ATOM     10  C   UNL     1     -33.192  10.405 -40.432  1.00  0.00     0.174 C 
ATOM     11  O   UNL     1     -32.551   9.325 -40.529  1.00  0.00    -0.294 OA
ENDROOT
BRANCH   2  12
ATOM     12  C   UNL     1     -33.784  11.240 -37.448  1.00  0.00    -0.007 A 
ATOM     13  C   UNL     1     -33.621  11.815 -36.175  1.00  0.00     0.011 A 
ATOM     14  C   UNL     1     -33.999   9.852 -37.543  1.00  0.00     0.011 A 
ATOM     15  C   UNL     1     -33.695  11.025 -35.023  1.00  0.00     0.046 A 
ATOM     16  C   UNL     1     -34.073   9.066 -36.390  1.00  0.00     0.046 A 
ATOM     17  C   UNL     1     -33.923   9.650 -35.127  1.00  0.00     0.115 A 
BRANCH  17  18
ATOM     18  O   UNL     1     -33.993   8.875 -33.971  1.00  0.00    -0.508 OA
ATOM     19  H   UNL     1     -34.799   8.295 -33.772  1.00  0.00     0.293 HD
ENDBRANCH  17  18
ENDBRANCH   2  12
BRANCH   8  20
ATOM     20  O   UNL     1     -34.270   8.875 -42.786  1.00  0.00    -0.507 OA
ATOM     21  H   UNL     1     -33.667   8.191 -42.351  1.00  0.00     0.293 HD
ENDBRANCH   8  20
BRANCH   6  22
ATOM     22  O   UNL     1     -38.522  11.082 -42.281  1.00  0.00    -0.508 OA
ATOM     23  H   UNL     1     -39.072  10.309 -42.639  1.00  0.00     0.293 HD
ENDBRANCH   6  22
TORSDOF 4
ENDMDL
