MODEL 1
REMARK VINA RESULT:    -5.191      0.000      0.000
REMARK INTER + INTRA:          -5.589
REMARK INTER:                  -5.495
REMARK INTRA:                  -0.094
REMARK UNBOUND:                -0.094
REMARK SMILES C=C(C)[C@@H]1CC=C(C)C(=O)C1
REMARK SMILES IDX 8 1 7 2 6 3 5 4 4 5 11 6 9 7 10 8 2 9 1 10 3 11
REMARK H PARENT
REMARK Flexibility Score: inf
ROOT
ATOM      1  C   UNL     1      17.993  28.177 -14.790  1.00  0.00     0.048 C 
ATOM      2  C   UNL     1      18.687  28.311 -13.462  1.00  0.00    -0.012 C 
ATOM      3  C   UNL     1      19.641  29.244 -13.298  1.00  0.00    -0.019 C 
ATOM      4  C   UNL     1      20.354  29.434 -11.985  1.00  0.00     0.036 C 
ATOM      5  C   UNL     1      20.498  28.097 -11.235  1.00  0.00     0.025 C 
ATOM      6  C   UNL     1      19.121  27.431 -11.059  1.00  0.00     0.089 C 
ATOM      7  C   UNL     1      18.406  27.336 -12.379  1.00  0.00     0.158 C 
ATOM      8  O   UNL     1      17.538  26.437 -12.544  1.00  0.00    -0.295 OA
ENDROOT
BRANCH   5   9
ATOM      9  C   UNL     1      21.201  28.282  -9.897  1.00  0.00    -0.077 C 
ATOM     10  C   UNL     1      22.387  28.910  -9.841  1.00  0.00     0.008 C 
ATOM     11  C   UNL     1      20.595  27.771  -8.613  1.00  0.00     0.039 C 
ENDBRANCH   5   9
TORSDOF 1
ENDMDL
MODEL 2
REMARK VINA RESULT:    -5.066     13.064     15.049
REMARK INTER + INTRA:          -5.457
REMARK INTER:                  -5.358
REMARK INTRA:                  -0.099
REMARK UNBOUND:                -0.094
REMARK SMILES C=C(C)[C@@H]1CC=C(C)C(=O)C1
REMARK SMILES IDX 8 1 7 2 6 3 5 4 4 5 11 6 9 7 10 8 2 9 1 10 3 11
REMARK H PARENT
REMARK Flexibility Score: inf
ROOT
ATOM      1  C   UNL     1      35.395  31.497 -14.575  1.00  0.00     0.048 C 
ATOM      2  C   UNL     1      34.886  31.115 -13.213  1.00  0.00    -0.012 C 
ATOM      3  C   UNL     1      33.939  30.167 -13.094  1.00  0.00    -0.019 C 
ATOM      4  C   UNL     1      33.407  29.732 -11.754  1.00  0.00     0.036 C 
ATOM      5  C   UNL     1      33.402  30.904 -10.754  1.00  0.00     0.025 C 
ATOM      6  C   UNL     1      34.807  31.525 -10.650  1.00  0.00     0.089 C 
ATOM      7  C   UNL     1      35.336  31.868 -12.016  1.00  0.00     0.158 C 
ATOM      8  O   UNL     1      36.197  32.782 -12.129  1.00  0.00    -0.295 OA
ENDROOT
BRANCH   5   9
ATOM      9  C   UNL     1      32.884  30.469  -9.390  1.00  0.00    -0.077 C 
ATOM     10  C   UNL     1      33.652  30.622  -8.299  1.00  0.00     0.008 C 
ATOM     11  C   UNL     1      31.513  29.861  -9.227  1.00  0.00     0.039 C 
ENDBRANCH   5   9
TORSDOF 1
ENDMDL
MODEL 3
REMARK VINA RESULT:    -5.050      2.469      4.237
REMARK INTER + INTRA:          -5.439
REMARK INTER:                  -5.341
REMARK INTRA:                  -0.098
REMARK UNBOUND:                -0.094
REMARK SMILES C=C(C)[C@@H]1CC=C(C)C(=O)C1
REMARK SMILES IDX 8 1 7 2 6 3 5 4 4 5 11 6 9 7 10 8 2 9 1 10 3 11
REMARK H PARENT
REMARK Flexibility Score: inf
ROOT
ATOM      1  C   UNL     1      16.875  27.176 -12.765  1.00  0.00     0.048 C 
ATOM      2  C   UNL     1      18.061  27.752 -13.488  1.00  0.00    -0.012 C 
ATOM      3  C   UNL     1      18.018  27.912 -14.822  1.00  0.00    -0.019 C 
ATOM      4  C   UNL     1      19.169  28.502 -15.595  1.00  0.00     0.036 C 
ATOM      5  C   UNL     1      20.516  28.139 -14.942  1.00  0.00     0.025 C 
ATOM      6  C   UNL     1      20.526  28.566 -13.463  1.00  0.00     0.089 C 
ATOM      7  C   UNL     1      19.318  28.027 -12.748  1.00  0.00     0.158 C 
ATOM      8  O   UNL     1      19.373  27.844 -11.502  1.00  0.00    -0.295 OA
ENDROOT
BRANCH   5   9
ATOM      9  C   UNL     1      21.685  28.747 -15.705  1.00  0.00    -0.077 C 
ATOM     10  C   UNL     1      22.790  29.133 -15.046  1.00  0.00     0.008 C 
ATOM     11  C   UNL     1      21.637  28.934 -17.201  1.00  0.00     0.039 C 
ENDBRANCH   5   9
TORSDOF 1
ENDMDL
MODEL 4
REMARK VINA RESULT:    -4.997      4.076      5.541
REMARK INTER + INTRA:          -5.383
REMARK INTER:                  -5.284
REMARK INTRA:                  -0.098
REMARK UNBOUND:                -0.094
REMARK SMILES C=C(C)[C@@H]1CC=C(C)C(=O)C1
REMARK SMILES IDX 8 1 7 2 6 3 5 4 4 5 11 6 9 7 10 8 2 9 1 10 3 11
REMARK H PARENT
REMARK Flexibility Score: inf
ROOT
ATOM      1  C   UNL     1      23.988  28.083 -17.776  1.00  0.00     0.048 C 
ATOM      2  C   UNL     1      22.795  28.324 -16.892  1.00  0.00    -0.012 C 
ATOM      3  C   UNL     1      22.900  28.143 -15.564  1.00  0.00    -0.019 C 
ATOM      4  C   UNL     1      21.743  28.387 -14.631  1.00  0.00     0.036 C 
ATOM      5  C   UNL     1      20.403  28.057 -15.313  1.00  0.00     0.025 C 
ATOM      6  C   UNL     1      20.265  28.842 -16.631  1.00  0.00     0.089 C 
ATOM      7  C   UNL     1      21.477  28.638 -17.498  1.00  0.00     0.158 C 
ATOM      8  O   UNL     1      21.368  28.772 -18.746  1.00  0.00    -0.295 OA
ENDROOT
BRANCH   5   9
ATOM      9  C   UNL     1      19.225  28.320 -14.384  1.00  0.00    -0.077 C 
ATOM     10  C   UNL     1      19.442  28.715 -13.119  1.00  0.00     0.008 C 
ATOM     11  C   UNL     1      17.801  28.145 -14.850  1.00  0.00     0.039 C 
ENDBRANCH   5   9
TORSDOF 1
ENDMDL
MODEL 5
REMARK VINA RESULT:    -4.977      1.958      4.713
REMARK INTER + INTRA:          -5.362
REMARK INTER:                  -5.263
REMARK INTRA:                  -0.098
REMARK UNBOUND:                -0.094
REMARK SMILES C=C(C)[C@@H]1CC=C(C)C(=O)C1
REMARK SMILES IDX 8 1 7 2 6 3 5 4 4 5 11 6 9 7 10 8 2 9 1 10 3 11
REMARK H PARENT
REMARK Flexibility Score: inf
ROOT
ATOM      1  C   UNL     1      22.488  28.946  -9.872  1.00  0.00     0.048 C 
ATOM      2  C   UNL     1      21.238  28.738 -10.681  1.00  0.00    -0.012 C 
ATOM      3  C   UNL     1      20.384  27.754 -10.352  1.00  0.00    -0.019 C 
ATOM      4  C   UNL     1      19.108  27.514 -11.116  1.00  0.00     0.036 C 
ATOM      5  C   UNL     1      19.280  27.868 -12.605  1.00  0.00     0.025 C 
ATOM      6  C   UNL     1      19.788  29.314 -12.756  1.00  0.00     0.089 C 
ATOM      7  C   UNL     1      21.013  29.536 -11.913  1.00  0.00     0.158 C 
ATOM      8  O   UNL     1      21.832  30.435 -12.245  1.00  0.00    -0.295 OA
ENDROOT
BRANCH   5   9
ATOM      9  C   UNL     1      17.990  27.647 -13.383  1.00  0.00    -0.077 C 
ATOM     10  C   UNL     1      16.986  26.943 -12.834  1.00  0.00     0.008 C 
ATOM     11  C   UNL     1      17.805  28.202 -14.773  1.00  0.00     0.039 C 
ENDBRANCH   5   9
TORSDOF 1
ENDMDL
MODEL 6
REMARK VINA RESULT:    -4.931      1.775      4.255
REMARK INTER + INTRA:          -5.313
REMARK INTER:                  -5.218
REMARK INTRA:                  -0.095
REMARK UNBOUND:                -0.094
REMARK SMILES C=C(C)[C@@H]1CC=C(C)C(=O)C1
REMARK SMILES IDX 8 1 7 2 6 3 5 4 4 5 11 6 9 7 10 8 2 9 1 10 3 11
REMARK H PARENT
REMARK Flexibility Score: inf
ROOT
ATOM      1  C   UNL     1      22.551  29.692 -10.656  1.00  0.00     0.048 C 
ATOM      2  C   UNL     1      21.424  29.027 -11.398  1.00  0.00    -0.012 C 
ATOM      3  C   UNL     1      21.377  29.092 -12.740  1.00  0.00    -0.019 C 
ATOM      4  C   UNL     1      20.283  28.429 -13.535  1.00  0.00     0.036 C 
ATOM      5  C   UNL     1      18.956  28.426 -12.754  1.00  0.00     0.025 C 
ATOM      6  C   UNL     1      19.150  27.775 -11.372  1.00  0.00     0.089 C 
ATOM      7  C   UNL     1      20.304  28.409 -10.645  1.00  0.00     0.158 C 
ATOM      8  O   UNL     1      20.328  28.378  -9.385  1.00  0.00    -0.295 OA
ENDROOT
BRANCH   5   9
ATOM      9  C   UNL     1      17.848  27.740 -13.541  1.00  0.00    -0.077 C 
ATOM     10  C   UNL     1      17.666  28.031 -14.839  1.00  0.00     0.008 C 
ATOM     11  C   UNL     1      16.934  26.728 -12.894  1.00  0.00     0.039 C 
ENDBRANCH   5   9
TORSDOF 1
ENDMDL
MODEL 7
REMARK VINA RESULT:    -4.918     13.662     15.235
REMARK INTER + INTRA:          -5.299
REMARK INTER:                  -5.201
REMARK INTRA:                  -0.099
REMARK UNBOUND:                -0.094
REMARK SMILES C=C(C)[C@@H]1CC=C(C)C(=O)C1
REMARK SMILES IDX 8 1 7 2 6 3 5 4 4 5 11 6 9 7 10 8 2 9 1 10 3 11
REMARK H PARENT
REMARK Flexibility Score: inf
ROOT
ATOM      1  C   UNL     1      33.124  30.440  -9.107  1.00  0.00     0.048 C 
ATOM      2  C   UNL     1      33.725  30.602 -10.476  1.00  0.00    -0.012 C 
ATOM      3  C   UNL     1      34.695  31.510 -10.677  1.00  0.00    -0.019 C 
ATOM      4  C   UNL     1      35.345  31.701 -12.023  1.00  0.00     0.036 C 
ATOM      5  C   UNL     1      34.345  31.430 -13.163  1.00  0.00     0.025 C 
ATOM      6  C   UNL     1      33.723  30.030 -13.009  1.00  0.00     0.089 C 
ATOM      7  C   UNL     1      33.160  29.850 -11.625  1.00  0.00     0.158 C 
ATOM      8  O   UNL     1      32.225  29.025 -11.445  1.00  0.00    -0.295 OA
ENDROOT
BRANCH   5   9
ATOM      9  C   UNL     1      34.997  31.602 -14.528  1.00  0.00    -0.077 C 
ATOM     10  C   UNL     1      36.331  31.512 -14.652  1.00  0.00     0.008 C 
ATOM     11  C   UNL     1      34.176  31.876 -15.763  1.00  0.00     0.039 C 
ENDBRANCH   5   9
TORSDOF 1
ENDMDL
MODEL 8
REMARK VINA RESULT:    -4.840      5.902      8.217
REMARK INTER + INTRA:          -5.217
REMARK INTER:                  -5.130
REMARK INTRA:                  -0.087
REMARK UNBOUND:                -0.094
REMARK SMILES C=C(C)[C@@H]1CC=C(C)C(=O)C1
REMARK SMILES IDX 8 1 7 2 6 3 5 4 4 5 11 6 9 7 10 8 2 9 1 10 3 11
REMARK H PARENT
REMARK Flexibility Score: inf
ROOT
ATOM      1  C   UNL     1      22.899  29.644 -14.888  1.00  0.00     0.048 C 
ATOM      2  C   UNL     1      22.702  29.479 -16.369  1.00  0.00    -0.012 C 
ATOM      3  C   UNL     1      23.589  30.014 -17.226  1.00  0.00    -0.019 C 
ATOM      4  C   UNL     1      23.451  29.862 -18.718  1.00  0.00     0.036 C 
ATOM      5  C   UNL     1      21.969  29.809 -19.134  1.00  0.00     0.025 C 
ATOM      6  C   UNL     1      21.236  28.695 -18.364  1.00  0.00     0.089 C 
ATOM      7  C   UNL     1      21.468  28.834 -16.884  1.00  0.00     0.158 C 
ATOM      8  O   UNL     1      20.617  28.363 -16.083  1.00  0.00    -0.295 OA
ENDROOT
BRANCH   5   9
ATOM      9  C   UNL     1      21.818  29.637 -20.639  1.00  0.00    -0.077 C 
ATOM     10  C   UNL     1      21.373  30.655 -21.392  1.00  0.00     0.008 C 
ATOM     11  C   UNL     1      22.159  28.334 -21.319  1.00  0.00     0.039 C 
ENDBRANCH   5   9
TORSDOF 1
ENDMDL
MODEL 9
REMARK VINA RESULT:    -4.840      1.430      2.600
REMARK INTER + INTRA:          -5.217
REMARK INTER:                  -5.119
REMARK INTRA:                  -0.099
REMARK UNBOUND:                -0.094
REMARK SMILES C=C(C)[C@@H]1CC=C(C)C(=O)C1
REMARK SMILES IDX 8 1 7 2 6 3 5 4 4 5 11 6 9 7 10 8 2 9 1 10 3 11
REMARK H PARENT
REMARK Flexibility Score: inf
ROOT
ATOM      1  C   UNL     1      17.056  26.702 -12.761  1.00  0.00     0.048 C 
ATOM      2  C   UNL     1      18.378  27.364 -12.483  1.00  0.00    -0.012 C 
ATOM      3  C   UNL     1      18.880  27.355 -11.237  1.00  0.00    -0.019 C 
ATOM      4  C   UNL     1      20.208  27.986 -10.905  1.00  0.00     0.036 C 
ATOM      5  C   UNL     1      20.474  29.214 -11.796  1.00  0.00     0.025 C 
ATOM      6  C   UNL     1      20.365  28.831 -13.283  1.00  0.00     0.089 C 
ATOM      7  C   UNL     1      19.062  28.130 -13.555  1.00  0.00     0.158 C 
ATOM      8  O   UNL     1      18.574  28.170 -14.716  1.00  0.00    -0.295 OA
ENDROOT
BRANCH   5   9
ATOM      9  C   UNL     1      21.822  29.847 -11.482  1.00  0.00    -0.077 C 
ATOM     10  C   UNL     1      22.702  29.204 -10.697  1.00  0.00     0.008 C 
ATOM     11  C   UNL     1      22.205  31.198 -12.035  1.00  0.00     0.039 C 
ENDBRANCH   5   9
TORSDOF 1
ENDMDL
