MODEL 1
REMARK VINA RESULT:    -4.823      0.000      0.000
REMARK INTER + INTRA:          -6.115
REMARK INTER:                  -5.809
REMARK INTRA:                  -0.305
REMARK UNBOUND:                -0.305
REMARK SMILES O=c1c(O)c(-c2ccc(O)c(O)c2)oc2cc(O)cc(O)c12
REMARK SMILES IDX 5 1 3 2 2 3 1 4 22 5 20 6 19 7 17 8 16 9 15 10 14 11 6 12
REMARK SMILES IDX 7 13 8 14 9 15 13 16 11 17 10 18 12 20 4 22 21 24 18 26
REMARK H PARENT 10 19 12 21 4 23 21 25 18 27
REMARK Flexibility Score: inf
ROOT
ATOM      1  C   UNL     1      27.249   4.605  20.928  1.00  0.00     0.180 A 
ATOM      2  C   UNL     1      28.560   5.014  20.627  1.00  0.00     0.208 A 
ATOM      3  C   UNL     1      28.847   6.388  20.567  1.00  0.00     0.238 A 
ATOM      4  O   UNL     1      30.037   6.746  20.370  1.00  0.00    -0.285 OA
ATOM      5  C   UNL     1      27.810   7.334  20.752  1.00  0.00     0.111 A 
ATOM      6  C   UNL     1      27.977   8.749  20.668  1.00  0.00     0.134 A 
ATOM      7  C   UNL     1      26.901   9.592  20.976  1.00  0.00     0.093 A 
ATOM      8  C   UNL     1      25.649   9.072  21.301  1.00  0.00     0.123 A 
ATOM      9  C   UNL     1      25.459   7.690  21.331  1.00  0.00     0.094 A 
ATOM     10  C   UNL     1      26.524   6.824  21.068  1.00  0.00     0.146 A 
ATOM     11  O   UNL     1      26.305   5.515  21.130  1.00  0.00    -0.452 OA
ENDROOT
BRANCH   1  12
ATOM     12  C   UNL     1      26.873   3.176  21.023  1.00  0.00     0.025 A 
ATOM     13  C   UNL     1      27.156   2.419  22.174  1.00  0.00     0.016 A 
ATOM     14  C   UNL     1      26.769   1.079  22.250  1.00  0.00     0.051 A 
ATOM     15  C   UNL     1      26.082   0.479  21.186  1.00  0.00     0.157 A 
ATOM     16  C   UNL     1      26.166   2.576  19.969  1.00  0.00     0.062 A 
ATOM     17  C   UNL     1      25.777   1.234  20.042  1.00  0.00     0.158 A 
BRANCH  15  18
ATOM     18  O   UNL     1      25.699  -0.860  21.265  1.00  0.00    -0.504 OA
ATOM     19  H   UNL     1      26.106  -1.488  21.947  1.00  0.00     0.293 HD
ENDBRANCH  15  18
BRANCH  17  20
ATOM     20  O   UNL     1      25.088   0.669  18.969  1.00  0.00    -0.504 OA
ATOM     21  H   UNL     1      25.313   0.892  18.006  1.00  0.00     0.293 HD
ENDBRANCH  17  20
ENDBRANCH   1  12
BRANCH   2  22
ATOM     22  O   UNL     1      29.553   4.065  20.371  1.00  0.00    -0.502 OA
ATOM     23  H   UNL     1      30.106   3.644  21.109  1.00  0.00     0.293 HD
ENDBRANCH   2  22
BRANCH   6  24
ATOM     24  O   UNL     1      29.161   9.376  20.266  1.00  0.00    -0.507 OA
ATOM     25  H   UNL     1      29.949   9.563  20.867  1.00  0.00     0.293 HD
ENDBRANCH   6  24
BRANCH   8  26
ATOM     26  O   UNL     1      24.597   9.939  21.584  1.00  0.00    -0.508 OA
ATOM     27  H   UNL     1      24.612  10.544  22.396  1.00  0.00     0.293 HD
ENDBRANCH   8  26
TORSDOF 6
ENDMDL
MODEL 2
REMARK VINA RESULT:    -4.532      1.209      2.841
REMARK INTER + INTRA:          -5.764
REMARK INTER:                  -5.608
REMARK INTRA:                  -0.156
REMARK UNBOUND:                -0.305
REMARK SMILES O=c1c(O)c(-c2ccc(O)c(O)c2)oc2cc(O)cc(O)c12
REMARK SMILES IDX 5 1 3 2 2 3 1 4 22 5 20 6 19 7 17 8 16 9 15 10 14 11 6 12
REMARK SMILES IDX 7 13 8 14 9 15 13 16 11 17 10 18 12 20 4 22 21 24 18 26
REMARK H PARENT 10 19 12 21 4 23 21 25 18 27
REMARK Flexibility Score: inf
ROOT
ATOM      1  C   UNL     1      26.503   4.922  20.792  1.00  0.00     0.180 A 
ATOM      2  C   UNL     1      25.355   5.733  20.748  1.00  0.00     0.208 A 
ATOM      3  C   UNL     1      25.508   7.122  20.617  1.00  0.00     0.238 A 
ATOM      4  O   UNL     1      24.476   7.834  20.505  1.00  0.00    -0.285 OA
ATOM      5  C   UNL     1      26.804   7.691  20.588  1.00  0.00     0.111 A 
ATOM      6  C   UNL     1      27.077   9.089  20.503  1.00  0.00     0.134 A 
ATOM      7  C   UNL     1      28.402   9.528  20.374  1.00  0.00     0.093 A 
ATOM      8  C   UNL     1      29.464   8.627  20.391  1.00  0.00     0.123 A 
ATOM      9  C   UNL     1      29.213   7.261  20.529  1.00  0.00     0.094 A 
ATOM     10  C   UNL     1      27.901   6.789  20.620  1.00  0.00     0.146 A 
ATOM     11  O   UNL     1      27.705   5.480  20.729  1.00  0.00    -0.452 OA
ENDROOT
BRANCH   1  12
ATOM     12  C   UNL     1      26.422   3.449  20.914  1.00  0.00     0.025 A 
ATOM     13  C   UNL     1      26.877   2.783  22.065  1.00  0.00     0.016 A 
ATOM     14  C   UNL     1      26.768   1.394  22.167  1.00  0.00     0.051 A 
ATOM     15  C   UNL     1      26.191   0.652  21.127  1.00  0.00     0.157 A 
ATOM     16  C   UNL     1      25.825   2.703  19.885  1.00  0.00     0.062 A 
ATOM     17  C   UNL     1      25.714   1.311  19.983  1.00  0.00     0.158 A 
BRANCH  15  18
ATOM     18  O   UNL     1      26.085  -0.735  21.231  1.00  0.00    -0.504 OA
ATOM     19  H   UNL     1      26.589  -1.353  20.606  1.00  0.00     0.293 HD
ENDBRANCH  15  18
BRANCH  17  20
ATOM     20  O   UNL     1      25.128   0.603  18.934  1.00  0.00    -0.504 OA
ATOM     21  H   UNL     1      24.147   0.348  18.939  1.00  0.00     0.293 HD
ENDBRANCH  17  20
ENDBRANCH   1  12
BRANCH   2  22
ATOM     22  O   UNL     1      24.085   5.160  20.856  1.00  0.00    -0.502 OA
ATOM     23  H   UNL     1      23.365   5.541  21.460  1.00  0.00     0.293 HD
ENDBRANCH   2  22
BRANCH   6  24
ATOM     24  O   UNL     1      26.097  10.084  20.567  1.00  0.00    -0.507 OA
ATOM     25  H   UNL     1      25.105   9.915  20.634  1.00  0.00     0.293 HD
ENDBRANCH   6  24
BRANCH   8  26
ATOM     26  O   UNL     1      30.769   9.100  20.277  1.00  0.00    -0.508 OA
ATOM     27  H   UNL     1      31.369   8.822  19.510  1.00  0.00     0.293 HD
ENDBRANCH   8  26
TORSDOF 6
ENDMDL
MODEL 3
REMARK VINA RESULT:    -4.339      1.613      3.416
REMARK INTER + INTRA:          -5.532
REMARK INTER:                  -5.344
REMARK INTRA:                  -0.189
REMARK UNBOUND:                -0.305
REMARK SMILES O=c1c(O)c(-c2ccc(O)c(O)c2)oc2cc(O)cc(O)c12
REMARK SMILES IDX 5 1 3 2 2 3 1 4 22 5 20 6 19 7 17 8 16 9 15 10 14 11 6 12
REMARK SMILES IDX 7 13 8 14 9 15 13 16 11 17 10 18 12 20 4 22 21 24 18 26
REMARK H PARENT 10 19 12 21 4 23 21 25 18 27
REMARK Flexibility Score: inf
ROOT
ATOM      1  C   UNL     1      26.733   5.919  20.509  1.00  0.00     0.180 A 
ATOM      2  C   UNL     1      25.666   6.834  20.513  1.00  0.00     0.208 A 
ATOM      3  C   UNL     1      25.949   8.210  20.501  1.00  0.00     0.238 A 
ATOM      4  O   UNL     1      24.990   9.021  20.430  1.00  0.00    -0.285 OA
ATOM      5  C   UNL     1      27.293   8.654  20.541  1.00  0.00     0.111 A 
ATOM      6  C   UNL     1      27.695  10.023  20.577  1.00  0.00     0.134 A 
ATOM      7  C   UNL     1      29.057  10.346  20.508  1.00  0.00     0.093 A 
ATOM      8  C   UNL     1      30.031   9.350  20.467  1.00  0.00     0.123 A 
ATOM      9  C   UNL     1      29.653   8.008  20.487  1.00  0.00     0.094 A 
ATOM     10  C   UNL     1      28.301   7.655  20.517  1.00  0.00     0.146 A 
ATOM     11  O   UNL     1      27.983   6.365  20.513  1.00  0.00    -0.452 OA
ENDROOT
BRANCH   1  12
ATOM     12  C   UNL     1      26.515   4.455  20.507  1.00  0.00     0.025 A 
ATOM     13  C   UNL     1      25.902   3.807  19.420  1.00  0.00     0.016 A 
ATOM     14  C   UNL     1      25.729   2.421  19.430  1.00  0.00     0.051 A 
ATOM     15  C   UNL     1      26.178   1.660  20.518  1.00  0.00     0.157 A 
ATOM     16  C   UNL     1      26.982   3.685  21.584  1.00  0.00     0.062 A 
ATOM     17  C   UNL     1      26.811   2.297  21.599  1.00  0.00     0.158 A 
BRANCH  15  18
ATOM     18  O   UNL     1      26.002   0.276  20.526  1.00  0.00    -0.504 OA
ATOM     19  H   UNL     1      25.084  -0.141  20.619  1.00  0.00     0.293 HD
ENDBRANCH  15  18
BRANCH  17  20
ATOM     20  O   UNL     1      27.276   1.567  22.693  1.00  0.00    -0.504 OA
ATOM     21  H   UNL     1      26.750   0.798  23.091  1.00  0.00     0.293 HD
ENDBRANCH  17  20
ENDBRANCH   1  12
BRANCH   2  22
ATOM     22  O   UNL     1      24.346   6.376  20.552  1.00  0.00    -0.502 OA
ATOM     23  H   UNL     1      24.111   5.410  20.749  1.00  0.00     0.293 HD
ENDBRANCH   2  22
BRANCH   6  24
ATOM     24  O   UNL     1      26.809  11.097  20.707  1.00  0.00    -0.507 OA
ATOM     25  H   UNL     1      26.898  11.842  21.381  1.00  0.00     0.293 HD
ENDBRANCH   6  24
BRANCH   8  26
ATOM     26  O   UNL     1      31.377   9.707  20.416  1.00  0.00    -0.508 OA
ATOM     27  H   UNL     1      32.007   9.511  21.185  1.00  0.00     0.293 HD
ENDBRANCH   8  26
TORSDOF 6
ENDMDL
MODEL 4
REMARK VINA RESULT:    -4.328      2.182      7.019
REMARK INTER + INTRA:          -5.519
REMARK INTER:                  -5.205
REMARK INTRA:                  -0.314
REMARK UNBOUND:                -0.305
REMARK SMILES O=c1c(O)c(-c2ccc(O)c(O)c2)oc2cc(O)cc(O)c12
REMARK SMILES IDX 5 1 3 2 2 3 1 4 22 5 20 6 19 7 17 8 16 9 15 10 14 11 6 12
REMARK SMILES IDX 7 13 8 14 9 15 13 16 11 17 10 18 12 20 4 22 21 24 18 26
REMARK H PARENT 10 19 12 21 4 23 21 25 18 27
REMARK Flexibility Score: inf
ROOT
ATOM      1  C   UNL     1      27.589   7.030  20.823  1.00  0.00     0.180 A 
ATOM      2  C   UNL     1      26.457   7.427  20.089  1.00  0.00     0.208 A 
ATOM      3  C   UNL     1      25.551   6.447  19.653  1.00  0.00     0.238 A 
ATOM      4  O   UNL     1      24.504   6.817  19.061  1.00  0.00    -0.285 OA
ATOM      5  C   UNL     1      25.813   5.079  19.907  1.00  0.00     0.111 A 
ATOM      6  C   UNL     1      24.987   3.999  19.473  1.00  0.00     0.134 A 
ATOM      7  C   UNL     1      25.292   2.691  19.874  1.00  0.00     0.093 A 
ATOM      8  C   UNL     1      26.424   2.418  20.639  1.00  0.00     0.123 A 
ATOM      9  C   UNL     1      27.270   3.460  21.022  1.00  0.00     0.094 A 
ATOM     10  C   UNL     1      26.972   4.779  20.670  1.00  0.00     0.146 A 
ATOM     11  O   UNL     1      27.792   5.742  21.075  1.00  0.00    -0.452 OA
ENDROOT
BRANCH   1  12
ATOM     12  C   UNL     1      28.581   8.004  21.330  1.00  0.00     0.025 A 
ATOM     13  C   UNL     1      28.545   8.465  22.657  1.00  0.00     0.016 A 
ATOM     14  C   UNL     1      29.508   9.366  23.119  1.00  0.00     0.051 A 
ATOM     15  C   UNL     1      30.528   9.809  22.266  1.00  0.00     0.157 A 
ATOM     16  C   UNL     1      29.618   8.435  20.486  1.00  0.00     0.062 A 
ATOM     17  C   UNL     1      30.584   9.338  20.945  1.00  0.00     0.158 A 
BRANCH  15  18
ATOM     18  O   UNL     1      31.486  10.711  22.730  1.00  0.00    -0.504 OA
ATOM     19  H   UNL     1      32.332  10.900  22.206  1.00  0.00     0.293 HD
ENDBRANCH  15  18
BRANCH  17  20
ATOM     20  O   UNL     1      31.591   9.754  20.073  1.00  0.00    -0.504 OA
ATOM     21  H   UNL     1      31.390  10.271  19.226  1.00  0.00     0.293 HD
ENDBRANCH  17  20
ENDBRANCH   1  12
BRANCH   2  22
ATOM     22  O   UNL     1      26.255   8.775  19.783  1.00  0.00    -0.502 OA
ATOM     23  H   UNL     1      26.651   9.211  18.958  1.00  0.00     0.293 HD
ENDBRANCH   2  22
BRANCH   6  24
ATOM     24  O   UNL     1      23.880   4.148  18.632  1.00  0.00    -0.507 OA
ATOM     25  H   UNL     1      23.612   3.498  17.909  1.00  0.00     0.293 HD
ENDBRANCH   6  24
BRANCH   8  26
ATOM     26  O   UNL     1      26.706   1.104  21.005  1.00  0.00    -0.508 OA
ATOM     27  H   UNL     1      26.237   0.659  21.785  1.00  0.00     0.293 HD
ENDBRANCH   8  26
TORSDOF 6
ENDMDL
MODEL 5
REMARK VINA RESULT:    -4.296      2.379      6.760
REMARK INTER + INTRA:          -5.480
REMARK INTER:                  -5.158
REMARK INTRA:                  -0.321
REMARK UNBOUND:                -0.305
REMARK SMILES O=c1c(O)c(-c2ccc(O)c(O)c2)oc2cc(O)cc(O)c12
REMARK SMILES IDX 5 1 3 2 2 3 1 4 22 5 20 6 19 7 17 8 16 9 15 10 14 11 6 12
REMARK SMILES IDX 7 13 8 14 9 15 13 16 11 17 10 18 12 20 4 22 21 24 18 26
REMARK H PARENT 10 19 12 21 4 23 21 25 18 27
REMARK Flexibility Score: inf
ROOT
ATOM      1  C   UNL     1      28.710   5.523  21.584  1.00  0.00     0.180 A 
ATOM      2  C   UNL     1      29.498   4.605  22.302  1.00  0.00     0.208 A 
ATOM      3  C   UNL     1      28.994   3.317  22.540  1.00  0.00     0.238 A 
ATOM      4  O   UNL     1      29.733   2.479  23.119  1.00  0.00    -0.285 OA
ATOM      5  C   UNL     1      27.689   2.978  22.109  1.00  0.00     0.111 A 
ATOM      6  C   UNL     1      27.060   1.717  22.336  1.00  0.00     0.134 A 
ATOM      7  C   UNL     1      25.804   1.459  21.769  1.00  0.00     0.093 A 
ATOM      8  C   UNL     1      25.129   2.435  21.039  1.00  0.00     0.123 A 
ATOM      9  C   UNL     1      25.710   3.691  20.857  1.00  0.00     0.094 A 
ATOM     10  C   UNL     1      26.978   3.965  21.377  1.00  0.00     0.146 A 
ATOM     11  O   UNL     1      27.503   5.166  21.163  1.00  0.00    -0.452 OA
ENDROOT
BRANCH   1  12
ATOM     12  C   UNL     1      29.178   6.894  21.280  1.00  0.00     0.025 A 
ATOM     13  C   UNL     1      28.997   7.949  22.192  1.00  0.00     0.016 A 
ATOM     14  C   UNL     1      29.469   9.229  21.893  1.00  0.00     0.051 A 
ATOM     15  C   UNL     1      30.142   9.471  20.687  1.00  0.00     0.157 A 
ATOM     16  C   UNL     1      29.872   7.137  20.084  1.00  0.00     0.062 A 
ATOM     17  C   UNL     1      30.346   8.419  19.781  1.00  0.00     0.158 A 
BRANCH  15  18
ATOM     18  O   UNL     1      30.611  10.752  20.391  1.00  0.00    -0.504 OA
ATOM     19  H   UNL     1      31.494  11.089  20.753  1.00  0.00     0.293 HD
ENDBRANCH  15  18
BRANCH  17  20
ATOM     20  O   UNL     1      31.018   8.625  18.576  1.00  0.00    -0.504 OA
ATOM     21  H   UNL     1      31.989   8.364  18.449  1.00  0.00     0.293 HD
ENDBRANCH  17  20
ENDBRANCH   1  12
BRANCH   2  22
ATOM     22  O   UNL     1      30.753   4.984  22.787  1.00  0.00    -0.502 OA
ATOM     23  H   UNL     1      31.350   5.639  22.297  1.00  0.00     0.293 HD
ENDBRANCH   2  22
BRANCH   6  24
ATOM     24  O   UNL     1      27.605   0.700  23.125  1.00  0.00    -0.507 OA
ATOM     25  H   UNL     1      27.437  -0.286  22.995  1.00  0.00     0.293 HD
ENDBRANCH   6  24
BRANCH   8  26
ATOM     26  O   UNL     1      23.875   2.150  20.504  1.00  0.00    -0.508 OA
ATOM     27  H   UNL     1      23.092   2.782  20.623  1.00  0.00     0.293 HD
ENDBRANCH   8  26
TORSDOF 6
ENDMDL
MODEL 6
REMARK VINA RESULT:    -4.103     16.767     19.044
REMARK INTER + INTRA:          -5.248
REMARK INTER:                  -5.095
REMARK INTRA:                  -0.153
REMARK UNBOUND:                -0.305
REMARK SMILES O=c1c(O)c(-c2ccc(O)c(O)c2)oc2cc(O)cc(O)c12
REMARK SMILES IDX 5 1 3 2 2 3 1 4 22 5 20 6 19 7 17 8 16 9 15 10 14 11 6 12
REMARK SMILES IDX 7 13 8 14 9 15 13 16 11 17 10 18 12 20 4 22 21 24 18 26
REMARK H PARENT 10 19 12 21 4 23 21 25 18 27
REMARK Flexibility Score: inf
ROOT
ATOM      1  C   UNL     1      39.429   9.395   8.458  1.00  0.00     0.180 A 
ATOM      2  C   UNL     1      40.789   9.735   8.570  1.00  0.00     0.208 A 
ATOM      3  C   UNL     1      41.642   9.495   7.481  1.00  0.00     0.238 A 
ATOM      4  O   UNL     1      42.841   9.869   7.561  1.00  0.00    -0.285 OA
ATOM      5  C   UNL     1      41.140   8.868   6.315  1.00  0.00     0.111 A 
ATOM      6  C   UNL     1      41.924   8.536   5.169  1.00  0.00     0.134 A 
ATOM      7  C   UNL     1      41.297   8.013   4.030  1.00  0.00     0.093 A 
ATOM      8  C   UNL     1      39.928   7.752   4.018  1.00  0.00     0.123 A 
ATOM      9  C   UNL     1      39.161   8.020   5.152  1.00  0.00     0.094 A 
ATOM     10  C   UNL     1      39.751   8.578   6.289  1.00  0.00     0.146 A 
ATOM     11  O   UNL     1      38.980   8.838   7.339  1.00  0.00    -0.452 OA
ENDROOT
BRANCH   1  12
ATOM     12  C   UNL     1      38.465   9.630   9.556  1.00  0.00     0.025 A 
ATOM     13  C   UNL     1      38.201  10.926  10.034  1.00  0.00     0.016 A 
ATOM     14  C   UNL     1      37.269  11.125  11.055  1.00  0.00     0.051 A 
ATOM     15  C   UNL     1      36.576  10.037  11.603  1.00  0.00     0.157 A 
ATOM     16  C   UNL     1      37.753   8.546  10.094  1.00  0.00     0.062 A 
ATOM     17  C   UNL     1      36.819   8.742  11.117  1.00  0.00     0.158 A 
BRANCH  15  18
ATOM     18  O   UNL     1      35.647  10.239  12.624  1.00  0.00    -0.504 OA
ATOM     19  H   UNL     1      35.436   9.514  13.299  1.00  0.00     0.293 HD
ENDBRANCH  15  18
BRANCH  17  20
ATOM     20  O   UNL     1      36.141   7.639  11.636  1.00  0.00    -0.504 OA
ATOM     21  H   UNL     1      35.950   6.813  11.080  1.00  0.00     0.293 HD
ENDBRANCH  17  20
ENDBRANCH   1  12
BRANCH   2  22
ATOM     22  O   UNL     1      41.281  10.282   9.757  1.00  0.00    -0.502 OA
ATOM     23  H   UNL     1      40.955   9.985  10.670  1.00  0.00     0.293 HD
ENDBRANCH   2  22
BRANCH   6  24
ATOM     24  O   UNL     1      43.314   8.673   5.104  1.00  0.00    -0.507 OA
ATOM     25  H   UNL     1      43.977   8.045   5.531  1.00  0.00     0.293 HD
ENDBRANCH   6  24
BRANCH   8  26
ATOM     26  O   UNL     1      39.341   7.216   2.875  1.00  0.00    -0.508 OA
ATOM     27  H   UNL     1      39.826   6.541   2.296  1.00  0.00     0.293 HD
ENDBRANCH   8  26
TORSDOF 6
ENDMDL
MODEL 7
REMARK VINA RESULT:    -3.689      1.597      2.201
REMARK INTER + INTRA:          -4.749
REMARK INTER:                  -4.608
REMARK INTRA:                  -0.141
REMARK UNBOUND:                -0.305
REMARK SMILES O=c1c(O)c(-c2ccc(O)c(O)c2)oc2cc(O)cc(O)c12
REMARK SMILES IDX 5 1 3 2 2 3 1 4 22 5 20 6 19 7 17 8 16 9 15 10 14 11 6 12
REMARK SMILES IDX 7 13 8 14 9 15 13 16 11 17 10 18 12 20 4 22 21 24 18 26
REMARK H PARENT 10 19 12 21 4 23 21 25 18 27
REMARK Flexibility Score: inf
ROOT
ATOM      1  C   UNL     1      26.691   3.672  21.117  1.00  0.00     0.180 A 
ATOM      2  C   UNL     1      27.907   3.719  21.822  1.00  0.00     0.208 A 
ATOM      3  C   UNL     1      28.555   4.954  21.980  1.00  0.00     0.238 A 
ATOM      4  O   UNL     1      29.603   5.000  22.674  1.00  0.00    -0.285 OA
ATOM      5  C   UNL     1      28.010   6.118  21.386  1.00  0.00     0.111 A 
ATOM      6  C   UNL     1      28.605   7.415  21.444  1.00  0.00     0.134 A 
ATOM      7  C   UNL     1      27.920   8.514  20.908  1.00  0.00     0.093 A 
ATOM      8  C   UNL     1      26.696   8.354  20.263  1.00  0.00     0.123 A 
ATOM      9  C   UNL     1      26.131   7.084  20.151  1.00  0.00     0.094 A 
ATOM     10  C   UNL     1      26.770   5.974  20.709  1.00  0.00     0.146 A 
ATOM     11  O   UNL     1      26.188   4.785  20.599  1.00  0.00    -0.452 OA
ENDROOT
BRANCH   1  12
ATOM     12  C   UNL     1      25.942   2.410  20.922  1.00  0.00     0.025 A 
ATOM     13  C   UNL     1      25.763   1.855  19.643  1.00  0.00     0.016 A 
ATOM     14  C   UNL     1      25.074   0.650  19.486  1.00  0.00     0.051 A 
ATOM     15  C   UNL     1      24.565  -0.024  20.604  1.00  0.00     0.157 A 
ATOM     16  C   UNL     1      25.449   1.719  22.040  1.00  0.00     0.062 A 
ATOM     17  C   UNL     1      24.757   0.513  21.887  1.00  0.00     0.158 A 
BRANCH  15  18
ATOM     18  O   UNL     1      23.875  -1.226  20.444  1.00  0.00    -0.504 OA
ATOM     19  H   UNL     1      24.330  -2.121  20.581  1.00  0.00     0.293 HD
ENDBRANCH  15  18
BRANCH  17  20
ATOM     20  O   UNL     1      24.270  -0.138  23.021  1.00  0.00    -0.504 OA
ATOM     21  H   UNL     1      23.289  -0.119  23.274  1.00  0.00     0.293 HD
ENDBRANCH  17  20
ENDBRANCH   1  12
BRANCH   2  22
ATOM     22  O   UNL     1      28.467   2.546  22.336  1.00  0.00    -0.502 OA
ATOM     23  H   UNL     1      29.176   2.554  23.061  1.00  0.00     0.293 HD
ENDBRANCH   2  22
BRANCH   6  24
ATOM     24  O   UNL     1      29.867   7.674  21.987  1.00  0.00    -0.507 OA
ATOM     25  H   UNL     1      30.305   7.133  22.716  1.00  0.00     0.293 HD
ENDBRANCH   6  24
BRANCH   8  26
ATOM     26  O   UNL     1      26.051   9.467  19.726  1.00  0.00    -0.508 OA
ATOM     27  H   UNL     1      25.396   9.381  18.959  1.00  0.00     0.293 HD
ENDBRANCH   8  26
TORSDOF 6
ENDMDL
MODEL 8
REMARK VINA RESULT:    -3.534      2.494      6.879
REMARK INTER + INTRA:          -4.562
REMARK INTER:                  -4.289
REMARK INTRA:                  -0.273
REMARK UNBOUND:                -0.305
REMARK SMILES O=c1c(O)c(-c2ccc(O)c(O)c2)oc2cc(O)cc(O)c12
REMARK SMILES IDX 5 1 3 2 2 3 1 4 22 5 20 6 19 7 17 8 16 9 15 10 14 11 6 12
REMARK SMILES IDX 7 13 8 14 9 15 13 16 11 17 10 18 12 20 4 22 21 24 18 26
REMARK H PARENT 10 19 12 21 4 23 21 25 18 27
REMARK Flexibility Score: inf
ROOT
ATOM      1  C   UNL     1      26.409   6.266  21.426  1.00  0.00     0.180 A 
ATOM      2  C   UNL     1      25.620   5.138  21.714  1.00  0.00     0.208 A 
ATOM      3  C   UNL     1      26.239   3.990  22.234  1.00  0.00     0.238 A 
ATOM      4  O   UNL     1      25.518   3.012  22.558  1.00  0.00    -0.285 OA
ATOM      5  C   UNL     1      27.644   3.963  22.408  1.00  0.00     0.111 A 
ATOM      6  C   UNL     1      28.382   2.838  22.885  1.00  0.00     0.134 A 
ATOM      7  C   UNL     1      29.758   2.962  23.118  1.00  0.00     0.093 A 
ATOM      8  C   UNL     1      30.432   4.147  22.831  1.00  0.00     0.123 A 
ATOM      9  C   UNL     1      29.731   5.236  22.312  1.00  0.00     0.094 A 
ATOM     10  C   UNL     1      28.352   5.156  22.106  1.00  0.00     0.146 A 
ATOM     11  O   UNL     1      27.719   6.223  21.630  1.00  0.00    -0.452 OA
ENDROOT
BRANCH   1  12
ATOM     12  C   UNL     1      25.827   7.517  20.889  1.00  0.00     0.025 A 
ATOM     13  C   UNL     1      25.906   7.835  19.522  1.00  0.00     0.016 A 
ATOM     14  C   UNL     1      25.328   9.010  19.036  1.00  0.00     0.051 A 
ATOM     15  C   UNL     1      24.651   9.877  19.904  1.00  0.00     0.157 A 
ATOM     16  C   UNL     1      25.129   8.379  21.751  1.00  0.00     0.062 A 
ATOM     17  C   UNL     1      24.549   9.557  21.268  1.00  0.00     0.158 A 
BRANCH  15  18
ATOM     18  O   UNL     1      24.077  11.051  19.415  1.00  0.00    -0.504 OA
ATOM     19  H   UNL     1      24.283  11.395  18.485  1.00  0.00     0.293 HD
ENDBRANCH  15  18
BRANCH  17  20
ATOM     20  O   UNL     1      23.876  10.395  22.156  1.00  0.00    -0.504 OA
ATOM     21  H   UNL     1      23.484  10.055  23.026  1.00  0.00     0.293 HD
ENDBRANCH  17  20
ENDBRANCH   1  12
BRANCH   2  22
ATOM     22  O   UNL     1      24.246   5.158  21.463  1.00  0.00    -0.502 OA
ATOM     23  H   UNL     1      23.774   5.970  21.082  1.00  0.00     0.293 HD
ENDBRANCH   2  22
BRANCH   6  24
ATOM     24  O   UNL     1      27.824   1.578  23.121  1.00  0.00    -0.507 OA
ATOM     25  H   UNL     1      28.343   0.759  23.400  1.00  0.00     0.293 HD
ENDBRANCH   6  24
BRANCH   8  26
ATOM     26  O   UNL     1      31.804   4.230  23.058  1.00  0.00    -0.508 OA
ATOM     27  H   UNL     1      32.248   3.724  23.815  1.00  0.00     0.293 HD
ENDBRANCH   8  26
TORSDOF 6
ENDMDL
