MODEL 1
REMARK VINA RESULT:    -3.130      0.000      0.000
REMARK INTER + INTRA:          -3.026
REMARK INTER:                  -4.777
REMARK INTRA:                   1.751
REMARK UNBOUND:                 1.751
REMARK SMILES CC1=CCC[C@H](C)C(=O)C[C@@H](C(C)C)C(=O)C1
REMARK SMILES IDX 8 1 9 2 6 3 7 4 5 5 4 6 3 7 2 8 1 9 10 11 11 12 15 13 16 14
REMARK SMILES IDX 17 15 12 17 13 18 14 19
REMARK H PARENT
REMARK Flexibility Score: 70.00
ROOT
ATOM      1  C   UNL     1     102.762  49.588  56.911  1.00  0.00     0.136 C 
ATOM      2  O   UNL     1     102.835  50.402  57.821  1.00  0.00    -0.299 OA
ENDROOT
BRANCH   1   3
ATOM      3  C   UNL     1     103.151  48.136  57.142  1.00  0.00     0.053 C 
ATOM      4  C   UNL     1     103.822  47.891  58.504  1.00  0.00     0.016 C 
BRANCH   3   5
ATOM      5  C   UNL     1     101.994  47.143  56.856  1.00  0.00     0.015 C 
BRANCH   5   6
ATOM      6  C   UNL     1     102.073  46.268  55.587  1.00  0.00     0.028 C 
BRANCH   6   7
ATOM      7  C   UNL     1     101.844  46.937  54.252  1.00  0.00    -0.028 C 
ATOM      8  C   UNL     1     102.794  47.385  53.402  1.00  0.00    -0.070 CG0
ATOM      9  C   UNL     1     102.358  47.725  51.996  1.00  0.00     0.039 C 
ATOM     10  G   UNL     1     104.257  47.561  53.776  1.00  0.00     0.000 G0
ENDBRANCH   6   7
ENDBRANCH   5   6
ENDBRANCH   3   5
ENDBRANCH   1   3
BRANCH   1  11
ATOM     11  C   UNL     1     102.389  50.056  55.519  1.00  0.00     0.087 C 
BRANCH  11  12
ATOM     12  C   UNL     1     103.535  50.044  54.464  1.00  0.00     0.066 C 
BRANCH  12  13
ATOM     13  C   UNL     1     104.458  48.838  54.565  1.00  0.00     0.140 C 
ATOM     14  O   UNL     1     105.362  48.879  55.387  1.00  0.00    -0.299 OA
BRANCH  13  15
ATOM     15  C   UNL     1     104.254  47.569  53.766  1.00  0.00     0.106 CG0
ATOM     16  G   UNL     1     102.786  47.395  53.412  1.00  0.00     0.000 G0
ENDBRANCH  13  15
ENDBRANCH  12  13
BRANCH  12  17
ATOM     17  C   UNL     1     104.351  51.375  54.480  1.00  0.00    -0.006 C 
ATOM     18  C   UNL     1     105.595  51.298  53.575  1.00  0.00     0.008 C 
ATOM     19  C   UNL     1     103.492  52.574  54.040  1.00  0.00     0.008 C 
ENDBRANCH  12  17
ENDBRANCH  11  12
ENDBRANCH   1  11
TORSDOF 1
ENDMDL
MODEL 2
REMARK VINA RESULT:    -3.084      8.369     11.032
REMARK INTER + INTRA:          -2.956
REMARK INTER:                  -3.503
REMARK INTRA:                   0.547
REMARK UNBOUND:                 1.751
REMARK SMILES CC1=CCC[C@H](C)C(=O)C[C@@H](C(C)C)C(=O)C1
REMARK SMILES IDX 8 1 9 2 6 3 7 4 5 5 4 6 3 7 2 8 1 9 10 11 11 12 15 13 16 14
REMARK SMILES IDX 17 15 12 17 13 18 14 19
REMARK H PARENT
REMARK Flexibility Score: 70.00
ROOT
ATOM      1  C   UNL     1     108.922  49.036  62.411  1.00  0.00     0.136 C 
ATOM      2  O   UNL     1     110.083  49.013  62.027  1.00  0.00    -0.299 OA
ENDROOT
BRANCH   1   3
ATOM      3  C   UNL     1     107.993  47.864  62.129  1.00  0.00     0.053 C 
ATOM      4  C   UNL     1     107.311  47.942  60.753  1.00  0.00     0.016 C 
BRANCH   3   5
ATOM      5  C   UNL     1     108.652  46.486  62.395  1.00  0.00     0.015 C 
BRANCH   5   6
ATOM      6  C   UNL     1     108.328  45.759  63.717  1.00  0.00     0.028 C 
BRANCH   6   7
ATOM      7  C   UNL     1     108.738  46.426  65.009  1.00  0.00    -0.028 C 
ATOM      8  C   UNL     1     108.038  47.357  65.693  1.00  0.00    -0.070 CG0
ATOM      9  C   UNL     1     108.476  47.648  67.110  1.00  0.00     0.039 C 
ATOM     10  G   UNL     1     106.848  48.114  65.126  1.00  0.00     0.000 G0
ENDBRANCH   6   7
ENDBRANCH   5   6
ENDBRANCH   3   5
ENDBRANCH   1   3
BRANCH   1  11
ATOM     11  C   UNL     1     108.377  50.285  63.072  1.00  0.00     0.087 C 
BRANCH  11  12
ATOM     12  C   UNL     1     108.335  50.271  64.629  1.00  0.00     0.066 C 
BRANCH  12  13
ATOM     13  C   UNL     1     107.094  49.608  65.208  1.00  0.00     0.140 C 
ATOM     14  O   UNL     1     106.229  50.331  65.681  1.00  0.00    -0.299 OA
BRANCH  13  15
ATOM     15  C   UNL     1     106.845  48.116  65.146  1.00  0.00     0.106 CG0
ATOM     16  G   UNL     1     108.037  47.356  65.702  1.00  0.00     0.000 G0
ENDBRANCH  13  15
ENDBRANCH  12  13
BRANCH  12  17
ATOM     17  C   UNL     1     108.537  51.699  65.227  1.00  0.00    -0.006 C 
ATOM     18  C   UNL     1     110.027  52.079  65.316  1.00  0.00     0.008 C 
ATOM     19  C   UNL     1     107.802  52.771  64.402  1.00  0.00     0.008 C 
ENDBRANCH  12  17
ENDBRANCH  11  12
ENDBRANCH   1  11
TORSDOF 1
ENDMDL
MODEL 3
REMARK VINA RESULT:    -3.005      1.925      4.426
REMARK INTER + INTRA:          -2.835
REMARK INTER:                  -3.215
REMARK INTRA:                   0.381
REMARK UNBOUND:                 1.751
REMARK SMILES CC1=CCC[C@H](C)C(=O)C[C@@H](C(C)C)C(=O)C1
REMARK SMILES IDX 8 1 9 2 6 3 7 4 5 5 4 6 3 7 2 8 1 9 10 11 11 12 15 13 16 14
REMARK SMILES IDX 17 15 12 17 13 18 14 19
REMARK H PARENT
REMARK Flexibility Score: 70.00
ROOT
ATOM      1  C   UNL     1     104.407  50.403  53.953  1.00  0.00     0.136 C 
ATOM      2  O   UNL     1     105.619  50.369  53.790  1.00  0.00    -0.299 OA
ENDROOT
BRANCH   1   3
ATOM      3  C   UNL     1     103.762  51.554  54.710  1.00  0.00     0.053 C 
ATOM      4  C   UNL     1     103.471  52.779  53.827  1.00  0.00     0.016 C 
BRANCH   3   5
ATOM      5  C   UNL     1     102.537  51.118  55.554  1.00  0.00     0.015 C 
BRANCH   5   6
ATOM      6  C   UNL     1     102.750  50.799  57.048  1.00  0.00     0.028 C 
BRANCH   6   7
ATOM      7  C   UNL     1     102.455  49.395  57.520  1.00  0.00    -0.028 C 
ATOM      8  C   UNL     1     103.318  48.356  57.548  1.00  0.00    -0.070 CG0
ATOM      9  C   UNL     1     102.911  47.141  58.350  1.00  0.00     0.039 C 
ATOM     10  G   UNL     1     104.658  48.343  56.831  1.00  0.00     0.000 G0
ENDBRANCH   6   7
ENDBRANCH   5   6
ENDBRANCH   3   5
ENDBRANCH   1   3
BRANCH   1  11
ATOM     11  C   UNL     1     103.559  49.235  53.494  1.00  0.00     0.087 C 
BRANCH  11  12
ATOM     12  C   UNL     1     103.300  48.121  54.552  1.00  0.00     0.066 C 
BRANCH  12  13
ATOM     13  C   UNL     1     104.504  47.808  55.428  1.00  0.00     0.140 C 
ATOM     14  O   UNL     1     105.419  47.166  54.932  1.00  0.00    -0.299 OA
BRANCH  13  15
ATOM     15  C   UNL     1     104.659  48.325  56.842  1.00  0.00     0.106 CG0
ATOM     16  G   UNL     1     103.311  48.363  57.543  1.00  0.00     0.000 G0
ENDBRANCH  13  15
ENDBRANCH  12  13
BRANCH  12  17
ATOM     17  C   UNL     1     102.729  46.823  53.899  1.00  0.00    -0.006 C 
ATOM     18  C   UNL     1     101.863  46.017  54.885  1.00  0.00     0.008 C 
ATOM     19  C   UNL     1     101.891  47.138  52.646  1.00  0.00     0.008 C 
ENDBRANCH  12  17
ENDBRANCH  11  12
ENDBRANCH   1  11
TORSDOF 1
ENDMDL
MODEL 4
REMARK VINA RESULT:    -2.800      1.669      3.627
REMARK INTER + INTRA:          -2.521
REMARK INTER:                  -4.350
REMARK INTRA:                   1.828
REMARK UNBOUND:                 1.751
REMARK SMILES CC1=CCC[C@H](C)C(=O)C[C@@H](C(C)C)C(=O)C1
REMARK SMILES IDX 8 1 9 2 6 3 7 4 5 5 4 6 3 7 2 8 1 9 10 11 11 12 15 13 16 14
REMARK SMILES IDX 17 15 12 17 13 18 14 19
REMARK H PARENT
REMARK Flexibility Score: 70.00
ROOT
ATOM      1  C   UNL     1     103.667  50.733  54.277  1.00  0.00     0.136 C 
ATOM      2  O   UNL     1     103.345  51.852  53.904  1.00  0.00    -0.299 OA
ENDROOT
BRANCH   1   3
ATOM      3  C   UNL     1     104.783  49.977  53.571  1.00  0.00     0.053 C 
ATOM      4  C   UNL     1     106.082  49.898  54.392  1.00  0.00     0.016 C 
BRANCH   3   5
ATOM      5  C   UNL     1     104.334  48.597  53.025  1.00  0.00     0.015 C 
BRANCH   5   6
ATOM      6  C   UNL     1     102.825  48.275  52.993  1.00  0.00     0.028 C 
BRANCH   6   7
ATOM      7  C   UNL     1     102.400  46.850  53.262  1.00  0.00    -0.028 C 
ATOM      8  C   UNL     1     101.908  46.362  54.422  1.00  0.00    -0.070 CG0
ATOM      9  C   UNL     1     101.253  45.001  54.375  1.00  0.00     0.039 C 
ATOM     10  G   UNL     1     101.974  47.096  55.751  1.00  0.00     0.000 G0
ENDBRANCH   6   7
ENDBRANCH   5   6
ENDBRANCH   3   5
ENDBRANCH   1   3
BRANCH   1  11
ATOM     11  C   UNL     1     102.875  50.053  55.375  1.00  0.00     0.087 C 
BRANCH  11  12
ATOM     12  C   UNL     1     103.671  49.069  56.283  1.00  0.00     0.066 C 
BRANCH  12  13
ATOM     13  C   UNL     1     103.364  47.602  56.023  1.00  0.00     0.140 C 
ATOM     14  O   UNL     1     104.288  46.804  56.096  1.00  0.00    -0.299 OA
BRANCH  13  15
ATOM     15  C   UNL     1     101.967  47.079  55.768  1.00  0.00     0.106 CG0
ATOM     16  G   UNL     1     101.905  46.359  54.431  1.00  0.00     0.000 G0
ENDBRANCH  13  15
ENDBRANCH  12  13
BRANCH  12  17
ATOM     17  C   UNL     1     103.507  49.416  57.796  1.00  0.00    -0.006 C 
ATOM     18  C   UNL     1     102.225  50.226  58.064  1.00  0.00     0.008 C 
ATOM     19  C   UNL     1     103.485  48.149  58.671  1.00  0.00     0.008 C 
ENDBRANCH  12  17
ENDBRANCH  11  12
ENDBRANCH   1  11
TORSDOF 1
ENDMDL
MODEL 5
REMARK VINA RESULT:    -2.399      1.729      4.544
REMARK INTER + INTRA:          -1.909
REMARK INTER:                  -3.166
REMARK INTRA:                   1.257
REMARK UNBOUND:                 1.751
REMARK SMILES CC1=CCC[C@H](C)C(=O)C[C@@H](C(C)C)C(=O)C1
REMARK SMILES IDX 8 1 9 2 6 3 7 4 5 5 4 6 3 7 2 8 1 9 10 11 11 12 15 13 16 14
REMARK SMILES IDX 17 15 12 17 13 18 14 19
REMARK H PARENT
REMARK Flexibility Score: 70.00
ROOT
ATOM      1  C   UNL     1     102.745  47.152  54.928  1.00  0.00     0.136 C 
ATOM      2  O   UNL     1     101.676  46.601  55.150  1.00  0.00    -0.299 OA
ENDROOT
BRANCH   1   3
ATOM      3  C   UNL     1     103.302  47.213  53.514  1.00  0.00     0.053 C 
ATOM      4  C   UNL     1     102.311  47.794  52.491  1.00  0.00     0.016 C 
BRANCH   3   5
ATOM      5  C   UNL     1     104.701  47.877  53.438  1.00  0.00     0.015 C 
BRANCH   5   6
ATOM      6  C   UNL     1     105.005  49.060  54.382  1.00  0.00     0.028 C 
BRANCH   6   7
ATOM      7  C   UNL     1     104.548  50.436  53.960  1.00  0.00    -0.028 C 
ATOM      8  C   UNL     1     103.449  51.089  54.398  1.00  0.00    -0.070 CG0
ATOM      9  C   UNL     1     103.356  52.567  54.093  1.00  0.00     0.039 C 
ATOM     10  G   UNL     1     102.318  50.430  55.170  1.00  0.00     0.000 G0
ENDBRANCH   6   7
ENDBRANCH   5   6
ENDBRANCH   3   5
ENDBRANCH   1   3
BRANCH   1  11
ATOM     11  C   UNL     1     103.569  47.680  56.085  1.00  0.00     0.087 C 
BRANCH  11  12
ATOM     12  C   UNL     1     102.830  48.632  57.072  1.00  0.00     0.066 C 
BRANCH  12  13
ATOM     13  C   UNL     1     102.704  50.064  56.574  1.00  0.00     0.140 C 
ATOM     14  O   UNL     1     103.021  50.964  57.339  1.00  0.00    -0.299 OA
BRANCH  13  15
ATOM     15  C   UNL     1     102.296  50.418  55.160  1.00  0.00     0.106 CG0
ATOM     16  G   UNL     1     103.452  51.072  54.422  1.00  0.00     0.000 G0
ENDBRANCH  13  15
ENDBRANCH  12  13
BRANCH  12  17
ATOM     17  C   UNL     1     103.460  48.588  58.499  1.00  0.00    -0.006 C 
ATOM     18  C   UNL     1     102.560  47.844  59.503  1.00  0.00     0.008 C 
ATOM     19  C   UNL     1     104.848  47.921  58.489  1.00  0.00     0.008 C 
ENDBRANCH  12  17
ENDBRANCH  11  12
ENDBRANCH   1  11
TORSDOF 1
ENDMDL
MODEL 6
REMARK VINA RESULT:    -2.146      8.252     10.660
REMARK INTER + INTRA:          -1.523
REMARK INTER:                  -3.625
REMARK INTRA:                   2.102
REMARK UNBOUND:                 1.751
REMARK SMILES CC1=CCC[C@H](C)C(=O)C[C@@H](C(C)C)C(=O)C1
REMARK SMILES IDX 8 1 9 2 6 3 7 4 5 5 4 6 3 7 2 8 1 9 10 11 11 12 15 13 16 14
REMARK SMILES IDX 17 15 12 17 13 18 14 19
REMARK H PARENT
REMARK Flexibility Score: 70.00
ROOT
ATOM      1  C   UNL     1     108.454  50.693  64.722  1.00  0.00     0.136 C 
ATOM      2  O   UNL     1     109.030  51.745  64.960  1.00  0.00    -0.299 OA
ENDROOT
BRANCH   1   3
ATOM      3  C   UNL     1     107.129  50.368  65.395  1.00  0.00     0.053 C 
ATOM      4  C   UNL     1     105.905  50.676  64.516  1.00  0.00     0.016 C 
BRANCH   3   5
ATOM      5  C   UNL     1     107.088  48.942  66.002  1.00  0.00     0.015 C 
BRANCH   5   6
ATOM      6  C   UNL     1     108.423  48.260  66.370  1.00  0.00     0.028 C 
BRANCH   6   7
ATOM      7  C   UNL     1     108.519  46.761  66.210  1.00  0.00    -0.028 C 
ATOM      8  C   UNL     1     108.176  46.044  65.118  1.00  0.00    -0.070 CG0
ATOM      9  C   UNL     1     108.650  44.610  65.056  1.00  0.00     0.039 C 
ATOM     10  G   UNL     1     107.354  46.592  63.962  1.00  0.00     0.000 G0
ENDBRANCH   6   7
ENDBRANCH   5   6
ENDBRANCH   3   5
ENDBRANCH   1   3
BRANCH   1  11
ATOM     11  C   UNL     1     109.121  49.660  63.835  1.00  0.00     0.087 C 
BRANCH  11  12
ATOM     12  C   UNL     1     108.182  48.886  62.863  1.00  0.00     0.066 C 
BRANCH  12  13
ATOM     13  C   UNL     1     108.249  47.373  63.013  1.00  0.00     0.140 C 
ATOM     14  O   UNL     1     109.113  46.776  62.386  1.00  0.00    -0.299 OA
BRANCH  13  15
ATOM     15  C   UNL     1     107.363  46.592  63.959  1.00  0.00     0.106 CG0
ATOM     16  G   UNL     1     108.183  46.026  65.107  1.00  0.00     0.000 G0
ENDBRANCH  13  15
ENDBRANCH  12  13
BRANCH  12  17
ATOM     17  C   UNL     1     108.406  49.312  61.379  1.00  0.00    -0.006 C 
ATOM     18  C   UNL     1     109.843  49.811  61.135  1.00  0.00     0.008 C 
ATOM     19  C   UNL     1     108.111  48.158  60.404  1.00  0.00     0.008 C 
ENDBRANCH  12  17
ENDBRANCH  11  12
ENDBRANCH   1  11
TORSDOF 1
ENDMDL
MODEL 7
REMARK VINA RESULT:    -2.044      1.536      3.652
REMARK INTER + INTRA:          -1.368
REMARK INTER:                  -1.667
REMARK INTRA:                   0.299
REMARK UNBOUND:                 1.751
REMARK SMILES CC1=CCC[C@H](C)C(=O)C[C@@H](C(C)C)C(=O)C1
REMARK SMILES IDX 8 1 9 2 6 3 7 4 5 5 4 6 3 7 2 8 1 9 10 11 11 12 15 13 16 14
REMARK SMILES IDX 17 15 12 17 13 18 14 19
REMARK H PARENT
REMARK Flexibility Score: 70.00
ROOT
ATOM      1  C   UNL     1     104.403  48.200  56.494  1.00  0.00     0.136 C 
ATOM      2  O   UNL     1     105.355  48.964  56.559  1.00  0.00    -0.299 OA
ENDROOT
BRANCH   1   3
ATOM      3  C   UNL     1     103.337  48.199  57.579  1.00  0.00     0.053 C 
ATOM      4  C   UNL     1     103.888  47.863  58.975  1.00  0.00     0.016 C 
BRANCH   3   5
ATOM      5  C   UNL     1     102.459  49.477  57.572  1.00  0.00     0.015 C 
BRANCH   5   6
ATOM      6  C   UNL     1     102.010  50.052  56.212  1.00  0.00     0.028 C 
BRANCH   6   7
ATOM      7  C   UNL     1     102.796  51.208  55.639  1.00  0.00    -0.028 C 
ATOM      8  C   UNL     1     103.215  51.343  54.361  1.00  0.00    -0.070 CG0
ATOM      9  C   UNL     1     103.699  52.709  53.934  1.00  0.00     0.039 C 
ATOM     10  G   UNL     1     103.223  50.214  53.344  1.00  0.00     0.000 G0
ENDBRANCH   6   7
ENDBRANCH   5   6
ENDBRANCH   3   5
ENDBRANCH   1   3
BRANCH   1  11
ATOM     11  C   UNL     1     104.346  47.172  55.382  1.00  0.00     0.087 C 
BRANCH  11  12
ATOM     12  C   UNL     1     103.868  47.692  53.994  1.00  0.00     0.066 C 
BRANCH  12  13
ATOM     13  C   UNL     1     104.242  49.141  53.713  1.00  0.00     0.140 C 
ATOM     14  O   UNL     1     105.428  49.436  53.724  1.00  0.00    -0.299 OA
BRANCH  13  15
ATOM     15  C   UNL     1     103.229  50.201  53.338  1.00  0.00     0.106 CG0
ATOM     16  G   UNL     1     103.229  51.321  54.367  1.00  0.00     0.000 G0
ENDBRANCH  13  15
ENDBRANCH  12  13
BRANCH  12  17
ATOM     17  C   UNL     1     102.339  47.458  53.783  1.00  0.00    -0.006 C 
ATOM     18  C   UNL     1     102.004  47.136  52.314  1.00  0.00     0.008 C 
ATOM     19  C   UNL     1     101.809  46.318  54.672  1.00  0.00     0.008 C 
ENDBRANCH  12  17
ENDBRANCH  11  12
ENDBRANCH   1  11
TORSDOF 1
ENDMDL
MODEL 8
REMARK VINA RESULT:    -1.954      8.076     10.619
REMARK INTER + INTRA:          -1.231
REMARK INTER:                  -2.549
REMARK INTRA:                   1.319
REMARK UNBOUND:                 1.751
REMARK SMILES CC1=CCC[C@H](C)C(=O)C[C@@H](C(C)C)C(=O)C1
REMARK SMILES IDX 8 1 9 2 6 3 7 4 5 5 4 6 3 7 2 8 1 9 10 11 11 12 15 13 16 14
REMARK SMILES IDX 17 15 12 17 13 18 14 19
REMARK H PARENT
REMARK Flexibility Score: 70.00
ROOT
ATOM      1  C   UNL     1     107.995  47.169  64.628  1.00  0.00     0.136 C 
ATOM      2  O   UNL     1     108.758  46.215  64.569  1.00  0.00    -0.299 OA
ENDROOT
BRANCH   1   3
ATOM      3  C   UNL     1     107.508  47.686  65.973  1.00  0.00     0.053 C 
ATOM      4  C   UNL     1     108.648  48.129  66.906  1.00  0.00     0.016 C 
BRANCH   3   5
ATOM      5  C   UNL     1     106.388  48.750  65.848  1.00  0.00     0.015 C 
BRANCH   5   6
ATOM      6  C   UNL     1     106.484  49.789  64.711  1.00  0.00     0.028 C 
BRANCH   6   7
ATOM      7  C   UNL     1     107.367  50.995  64.928  1.00  0.00    -0.028 C 
ATOM      8  C   UNL     1     108.645  51.144  64.517  1.00  0.00    -0.070 CG0
ATOM      9  C   UNL     1     109.226  52.538  64.558  1.00  0.00     0.039 C 
ATOM     10  G   UNL     1     109.517  50.002  64.019  1.00  0.00     0.000 G0
ENDBRANCH   6   7
ENDBRANCH   5   6
ENDBRANCH   3   5
ENDBRANCH   1   3
BRANCH   1  11
ATOM     11  C   UNL     1     107.447  47.768  63.348  1.00  0.00     0.087 C 
BRANCH  11  12
ATOM     12  C   UNL     1     108.504  48.233  62.303  1.00  0.00     0.066 C 
BRANCH  12  13
ATOM     13  C   UNL     1     109.136  49.581  62.620  1.00  0.00     0.140 C 
ATOM     14  O   UNL     1     109.261  50.382  61.705  1.00  0.00    -0.299 OA
BRANCH  13  15
ATOM     15  C   UNL     1     109.530  50.004  64.019  1.00  0.00     0.106 CG0
ATOM     16  G   UNL     1     108.631  51.128  64.506  1.00  0.00     0.000 G0
ENDBRANCH  13  15
ENDBRANCH  12  13
BRANCH  12  17
ATOM     17  C   UNL     1     107.932  48.211  60.851  1.00  0.00    -0.006 C 
ATOM     18  C   UNL     1     108.588  47.113  59.992  1.00  0.00     0.008 C 
ATOM     19  C   UNL     1     106.407  48.000  60.844  1.00  0.00     0.008 C 
ENDBRANCH  12  17
ENDBRANCH  11  12
ENDBRANCH   1  11
TORSDOF 1
ENDMDL
MODEL 9
REMARK VINA RESULT:    -1.834      8.152     10.402
REMARK INTER + INTRA:          -1.047
REMARK INTER:                  -1.585
REMARK INTRA:                   0.538
REMARK UNBOUND:                 1.751
REMARK SMILES CC1=CCC[C@H](C)C(=O)C[C@@H](C(C)C)C(=O)C1
REMARK SMILES IDX 8 1 9 2 6 3 7 4 5 5 4 6 3 7 2 8 1 9 10 11 11 12 15 13 16 14
REMARK SMILES IDX 17 15 12 17 13 18 14 19
REMARK H PARENT
REMARK Flexibility Score: 70.00
ROOT
ATOM      1  C   UNL     1     107.804  48.268  65.341  1.00  0.00     0.136 C 
ATOM      2  O   UNL     1     106.602  48.166  65.139  1.00  0.00    -0.299 OA
ENDROOT
BRANCH   1   3
ATOM      3  C   UNL     1     108.637  47.040  65.678  1.00  0.00     0.053 C 
ATOM      4  C   UNL     1     108.743  46.770  67.188  1.00  0.00     0.016 C 
BRANCH   3   5
ATOM      5  C   UNL     1     108.223  45.782  64.871  1.00  0.00     0.015 C 
BRANCH   5   6
ATOM      6  C   UNL     1     108.747  45.629  63.428  1.00  0.00     0.028 C 
BRANCH   6   7
ATOM      7  C   UNL     1     108.140  46.506  62.358  1.00  0.00    -0.028 C 
ATOM      8  C   UNL     1     108.577  47.724  61.971  1.00  0.00    -0.070 CG0
ATOM      9  C   UNL     1     108.024  48.278  60.679  1.00  0.00     0.039 C 
ATOM     10  G   UNL     1     109.583  48.555  62.751  1.00  0.00     0.000 G0
ENDBRANCH   6   7
ENDBRANCH   5   6
ENDBRANCH   3   5
ENDBRANCH   1   3
BRANCH   1  11
ATOM     11  C   UNL     1     108.445  49.640  65.364  1.00  0.00     0.087 C 
BRANCH  11  12
ATOM     12  C   UNL     1     108.288  50.490  64.067  1.00  0.00     0.066 C 
BRANCH  12  13
ATOM     13  C   UNL     1     109.118  49.988  62.895  1.00  0.00     0.140 C 
ATOM     14  O   UNL     1     109.478  50.805  62.060  1.00  0.00    -0.299 OA
BRANCH  13  15
ATOM     15  C   UNL     1     109.587  48.555  62.763  1.00  0.00     0.106 CG0
ATOM     16  G   UNL     1     108.573  47.734  61.983  1.00  0.00     0.000 G0
ENDBRANCH  13  15
ENDBRANCH  12  13
BRANCH  12  17
ATOM     17  C   UNL     1     108.552  52.005  64.332  1.00  0.00    -0.006 C 
ATOM     18  C   UNL     1     107.312  52.711  64.913  1.00  0.00     0.008 C 
ATOM     19  C   UNL     1     109.737  52.217  65.291  1.00  0.00     0.008 C 
ENDBRANCH  12  17
ENDBRANCH  11  12
ENDBRANCH   1  11
TORSDOF 1
ENDMDL
