MODEL 1
REMARK VINA RESULT:    -7.147      0.000      0.000
REMARK INTER + INTRA:         -11.272
REMARK INTER:                  -9.446
REMARK INTRA:                  -1.826
REMARK UNBOUND:                -1.826
REMARK SMILES CC(C)=CCC[C@H](C(=O)[O-])[C@@H]1CC[C@]2(C)C3=C(CC[C@@]12C)[C@]1(C)CC[C@H](O)C(C)(C)[C@H]1CC3
REMARK SMILES IDX 6 1 7 2 8 3 9 4 10 5 11 6 12 7 20 8 13 9 14 10 19 11 21 12
REMARK SMILES IDX 15 13 16 14 18 15 17 16 33 17 22 18 32 19 31 20 24 21 23 22
REMARK SMILES IDX 28 23 25 24 26 25 29 26 30 27 27 28 5 30 4 31 2 32 1 33 3 34
REMARK H PARENT 27 29
REMARK Flexibility Score: inf
ROOT
ATOM      1  C   UNL     1      12.074 114.935  17.684  1.00  0.00     0.014 C 
ENDROOT
BRANCH   1   2
ATOM      2  C   UNL     1      11.692 115.185  19.164  1.00  0.00     0.039 C 
BRANCH   2   3
ATOM      3  C   UNL     1      11.412 113.864  19.836  1.00  0.00     0.045 C 
ATOM      4  O   UNL     1      10.919 112.910  19.177  1.00  0.00    -0.550 OA
ATOM      5  O   UNL     1      11.673 113.696  21.190  1.00  0.00    -0.550 OA
ENDBRANCH   2   3
BRANCH   2   6
ATOM      6  C   UNL     1      10.452 116.133  19.269  1.00  0.00     0.004 C 
ATOM      7  C   UNL     1      10.298 117.058  18.032  1.00  0.00     0.006 C 
ATOM      8  C   UNL     1      10.394 117.129  20.467  1.00  0.00    -0.020 C 
ATOM      9  C   UNL     1       9.758 118.412  18.531  1.00  0.00     0.012 C 
ATOM     10  C   UNL     1       9.326 118.155  19.985  1.00  0.00    -0.006 C 
ATOM     11  C   UNL     1       9.919 116.548  21.814  1.00  0.00     0.012 C 
ATOM     12  C   UNL     1      11.805 117.784  20.680  1.00  0.00     0.012 C 
ATOM     13  C   UNL     1       7.859 117.617  19.943  1.00  0.00     0.017 C 
ATOM     14  C   UNL     1       9.304 119.341  20.939  1.00  0.00    -0.064 C 
ATOM     15  C   UNL     1       9.535 117.663  22.831  1.00  0.00     0.032 C 
ATOM     16  C   UNL     1       9.325 119.097  22.287  1.00  0.00    -0.064 C 
ATOM     17  C   UNL     1       9.261 120.751  20.368  1.00  0.00     0.032 C 
ATOM     18  C   UNL     1       9.222 120.278  23.275  1.00  0.00    -0.008 C 
ATOM     19  C   UNL     1       8.695 121.843  21.301  1.00  0.00     0.009 C 
ATOM     20  C   UNL     1       8.198 121.309  22.664  1.00  0.00     0.007 C 
ATOM     21  C   UNL     1       8.689 119.789  24.655  1.00  0.00     0.014 C 
ATOM     22  C   UNL     1      10.667 120.823  23.449  1.00  0.00     0.016 C 
ATOM     23  C   UNL     1       7.636 122.435  23.628  1.00  0.00    -0.006 C 
ATOM     24  C   UNL     1       8.287 120.926  25.599  1.00  0.00     0.033 C 
ATOM     25  C   UNL     1       7.189 121.800  24.982  1.00  0.00     0.120 C 
ATOM     26  C   UNL     1       6.389 123.101  22.983  1.00  0.00     0.014 C 
ATOM     27  C   UNL     1       8.643 123.585  23.901  1.00  0.00     0.014 C 
BRANCH  25  28
ATOM     28  O   UNL     1       6.028 121.024  24.795  1.00  0.00    -0.393 OA
ATOM     29  H   UNL     1       5.910 120.473  25.613  1.00  0.00     0.210 HD
ENDBRANCH  25  28
ENDBRANCH   2   6
ENDBRANCH   1   2
BRANCH   1  30
ATOM     30  C   UNL     1      13.557 115.230  17.399  1.00  0.00     0.028 C 
BRANCH  30  31
ATOM     31  C   UNL     1      14.009 116.479  18.118  1.00  0.00    -0.028 C 
ATOM     32  C   UNL     1      13.964 117.709  17.565  1.00  0.00    -0.080 C 
ATOM     33  C   UNL     1      13.446 117.925  16.163  1.00  0.00     0.039 C 
ATOM     34  C   UNL     1      14.445 118.886  18.374  1.00  0.00     0.039 C 
ENDBRANCH  30  31
ENDBRANCH   1  30
TORSDOF 6
ENDMDL
MODEL 2
REMARK VINA RESULT:    -7.017      3.138      9.085
REMARK INTER + INTRA:         -11.100
REMARK INTER:                  -9.484
REMARK INTRA:                  -1.616
REMARK UNBOUND:                -1.826
REMARK SMILES CC(C)=CCC[C@H](C(=O)[O-])[C@@H]1CC[C@]2(C)C3=C(CC[C@@]12C)[C@]1(C)CC[C@H](O)C(C)(C)[C@H]1CC3
REMARK SMILES IDX 6 1 7 2 8 3 9 4 10 5 11 6 12 7 20 8 13 9 14 10 19 11 21 12
REMARK SMILES IDX 15 13 16 14 18 15 17 16 33 17 22 18 32 19 31 20 24 21 23 22
REMARK SMILES IDX 28 23 25 24 26 25 29 26 30 27 27 28 5 30 4 31 2 32 1 33 3 34
REMARK H PARENT 27 29
REMARK Flexibility Score: inf
ROOT
ATOM      1  C   UNL     1      10.070 119.086  21.424  1.00  0.00     0.014 C 
ENDROOT
BRANCH   1   2
ATOM      2  C   UNL     1      10.070 117.553  21.648  1.00  0.00     0.039 C 
BRANCH   2   3
ATOM      3  C   UNL     1       9.450 117.246  22.988  1.00  0.00     0.045 C 
ATOM      4  O   UNL     1       9.675 117.993  23.977  1.00  0.00    -0.550 OA
ATOM      5  O   UNL     1       8.644 116.126  23.148  1.00  0.00    -0.550 OA
ENDBRANCH   2   3
BRANCH   2   6
ATOM      6  C   UNL     1      11.522 116.977  21.566  1.00  0.00     0.004 C 
ATOM      7  C   UNL     1      12.491 117.901  20.782  1.00  0.00     0.006 C 
ATOM      8  C   UNL     1      11.719 115.591  20.878  1.00  0.00    -0.020 C 
ATOM      9  C   UNL     1      13.469 116.997  20.008  1.00  0.00     0.012 C 
ATOM     10  C   UNL     1      13.248 115.588  20.585  1.00  0.00    -0.006 C 
ATOM     11  C   UNL     1      11.399 114.352  21.738  1.00  0.00     0.012 C 
ATOM     12  C   UNL     1      10.855 115.522  19.570  1.00  0.00     0.012 C 
ATOM     13  C   UNL     1      14.166 115.456  21.844  1.00  0.00     0.017 C 
ATOM     14  C   UNL     1      13.587 114.397  19.700  1.00  0.00    -0.064 C 
ATOM     15  C   UNL     1      11.973 113.044  21.119  1.00  0.00     0.032 C 
ATOM     16  C   UNL     1      13.040 113.179  20.005  1.00  0.00    -0.064 C 
ATOM     17  C   UNL     1      14.515 114.597  18.511  1.00  0.00     0.032 C 
ATOM     18  C   UNL     1      13.431 111.939  19.172  1.00  0.00    -0.008 C 
ATOM     19  C   UNL     1      15.249 113.337  18.005  1.00  0.00     0.009 C 
ATOM     20  C   UNL     1      14.966 112.067  18.839  1.00  0.00     0.007 C 
ATOM     21  C   UNL     1      13.194 110.635  19.992  1.00  0.00     0.014 C 
ATOM     22  C   UNL     1      12.495 111.941  17.931  1.00  0.00     0.016 C 
ATOM     23  C   UNL     1      15.705 110.770  18.305  1.00  0.00    -0.006 C 
ATOM     24  C   UNL     1      13.816 109.387  19.358  1.00  0.00     0.033 C 
ATOM     25  C   UNL     1      15.333 109.543  19.196  1.00  0.00     0.120 C 
ATOM     26  C   UNL     1      17.244 110.970  18.396  1.00  0.00     0.014 C 
ATOM     27  C   UNL     1      15.401 110.444  16.818  1.00  0.00     0.014 C 
BRANCH  25  28
ATOM     28  O   UNL     1      15.925 109.667  20.467  1.00  0.00    -0.393 OA
ATOM     29  H   UNL     1      16.273 108.770  20.717  1.00  0.00     0.210 HD
ENDBRANCH  25  28
ENDBRANCH   2   6
ENDBRANCH   1   2
BRANCH   1  30
ATOM     30  C   UNL     1       9.187 119.510  20.238  1.00  0.00     0.028 C 
BRANCH  30  31
ATOM     31  C   UNL     1       9.767 119.028  18.930  1.00  0.00    -0.028 C 
ATOM     32  C   UNL     1       9.117 118.187  18.097  1.00  0.00    -0.080 C 
ATOM     33  C   UNL     1       7.738 117.666  18.421  1.00  0.00     0.039 C 
ATOM     34  C   UNL     1       9.794 117.769  16.817  1.00  0.00     0.039 C 
ENDBRANCH  30  31
ENDBRANCH   1  30
TORSDOF 6
ENDMDL
MODEL 3
REMARK VINA RESULT:    -6.971      3.511      5.634
REMARK INTER + INTRA:         -11.039
REMARK INTER:                 -10.363
REMARK INTRA:                  -0.676
REMARK UNBOUND:                -1.826
REMARK SMILES CC(C)=CCC[C@H](C(=O)[O-])[C@@H]1CC[C@]2(C)C3=C(CC[C@@]12C)[C@]1(C)CC[C@H](O)C(C)(C)[C@H]1CC3
REMARK SMILES IDX 6 1 7 2 8 3 9 4 10 5 11 6 12 7 20 8 13 9 14 10 19 11 21 12
REMARK SMILES IDX 15 13 16 14 18 15 17 16 33 17 22 18 32 19 31 20 24 21 23 22
REMARK SMILES IDX 28 23 25 24 26 25 29 26 30 27 27 28 5 30 4 31 2 32 1 33 3 34
REMARK H PARENT 27 29
REMARK Flexibility Score: inf
ROOT
ATOM      1  C   UNL     1      16.276 111.952  18.412  1.00  0.00     0.014 C 
ENDROOT
BRANCH   1   2
ATOM      2  C   UNL     1      15.356 112.000  19.657  1.00  0.00     0.039 C 
BRANCH   2   3
ATOM      3  C   UNL     1      15.405 110.668  20.363  1.00  0.00     0.045 C 
ATOM      4  O   UNL     1      14.490 109.821  20.182  1.00  0.00    -0.550 OA
ATOM      5  O   UNL     1      16.445 110.374  21.235  1.00  0.00    -0.550 OA
ENDBRANCH   2   3
BRANCH   2   6
ATOM      6  C   UNL     1      13.888 112.359  19.253  1.00  0.00     0.004 C 
ATOM      7  C   UNL     1      13.701 112.481  17.718  1.00  0.00     0.006 C 
ATOM      8  C   UNL     1      13.288 113.693  19.792  1.00  0.00    -0.020 C 
ATOM      9  C   UNL     1      12.680 113.607  17.464  1.00  0.00     0.012 C 
ATOM     10  C   UNL     1      12.072 113.909  18.845  1.00  0.00    -0.006 C 
ATOM     11  C   UNL     1      12.762 113.668  21.241  1.00  0.00     0.012 C 
ATOM     12  C   UNL     1      14.355 114.839  19.673  1.00  0.00     0.012 C 
ATOM     13  C   UNL     1      10.883 112.915  19.052  1.00  0.00     0.017 C 
ATOM     14  C   UNL     1      11.494 115.297  19.077  1.00  0.00    -0.064 C 
ATOM     15  C   UNL     1      11.857 114.895  21.558  1.00  0.00     0.032 C 
ATOM     16  C   UNL     1      11.324 115.728  20.367  1.00  0.00    -0.064 C 
ATOM     17  C   UNL     1      11.129 116.159  17.878  1.00  0.00     0.032 C 
ATOM     18  C   UNL     1      10.666 117.099  20.631  1.00  0.00    -0.008 C 
ATOM     19  C   UNL     1      10.079 117.263  18.131  1.00  0.00     0.009 C 
ATOM     20  C   UNL     1       9.515 117.275  19.569  1.00  0.00     0.007 C 
ATOM     21  C   UNL     1      10.051 117.141  22.062  1.00  0.00     0.014 C 
ATOM     22  C   UNL     1      11.807 118.150  20.533  1.00  0.00     0.016 C 
ATOM     23  C   UNL     1       8.453 118.422  19.832  1.00  0.00    -0.006 C 
ATOM     24  C   UNL     1       9.138 118.346  22.305  1.00  0.00     0.033 C 
ATOM     25  C   UNL     1       7.967 118.366  21.315  1.00  0.00     0.120 C 
ATOM     26  C   UNL     1       7.212 118.206  18.920  1.00  0.00     0.014 C 
ATOM     27  C   UNL     1       8.977 119.847  19.511  1.00  0.00     0.014 C 
BRANCH  25  28
ATOM     28  O   UNL     1       7.165 117.226  21.522  1.00  0.00    -0.393 OA
ATOM     29  H   UNL     1       6.321 117.534  21.944  1.00  0.00     0.210 HD
ENDBRANCH  25  28
ENDBRANCH   2   6
ENDBRANCH   1   2
BRANCH   1  30
ATOM     30  C   UNL     1      16.812 110.538  18.127  1.00  0.00     0.028 C 
BRANCH  30  31
ATOM     31  C   UNL     1      17.657 110.521  16.875  1.00  0.00    -0.028 C 
ATOM     32  C   UNL     1      17.179 110.160  15.665  1.00  0.00    -0.080 C 
ATOM     33  C   UNL     1      15.739 109.745  15.478  1.00  0.00     0.039 C 
ATOM     34  C   UNL     1      18.113 110.177  14.482  1.00  0.00     0.039 C 
ENDBRANCH  30  31
ENDBRANCH   1  30
TORSDOF 6
ENDMDL
MODEL 4
REMARK VINA RESULT:    -6.720      2.968      5.341
REMARK INTER + INTRA:         -10.707
REMARK INTER:                  -9.386
REMARK INTRA:                  -1.321
REMARK UNBOUND:                -1.826
REMARK SMILES CC(C)=CCC[C@H](C(=O)[O-])[C@@H]1CC[C@]2(C)C3=C(CC[C@@]12C)[C@]1(C)CC[C@H](O)C(C)(C)[C@H]1CC3
REMARK SMILES IDX 6 1 7 2 8 3 9 4 10 5 11 6 12 7 20 8 13 9 14 10 19 11 21 12
REMARK SMILES IDX 15 13 16 14 18 15 17 16 33 17 22 18 32 19 31 20 24 21 23 22
REMARK SMILES IDX 28 23 25 24 26 25 29 26 30 27 27 28 5 30 4 31 2 32 1 33 3 34
REMARK H PARENT 27 29
REMARK Flexibility Score: inf
ROOT
ATOM      1  C   UNL     1      15.338 112.439  20.881  1.00  0.00     0.014 C 
ENDROOT
BRANCH   1   2
ATOM      2  C   UNL     1      14.113 112.762  19.990  1.00  0.00     0.039 C 
BRANCH   2   3
ATOM      3  C   UNL     1      14.276 112.081  18.655  1.00  0.00     0.045 C 
ATOM      4  O   UNL     1      15.235 112.389  17.898  1.00  0.00    -0.550 OA
ATOM      5  O   UNL     1      13.357 111.125  18.238  1.00  0.00    -0.550 OA
ENDBRANCH   2   3
BRANCH   2   6
ATOM      6  C   UNL     1      13.946 114.306  19.807  1.00  0.00     0.004 C 
ATOM      7  C   UNL     1      14.861 115.125  20.755  1.00  0.00     0.006 C 
ATOM      8  C   UNL     1      12.535 114.923  20.053  1.00  0.00    -0.020 C 
ATOM      9  C   UNL     1      14.085 116.389  21.171  1.00  0.00     0.012 C 
ATOM     10  C   UNL     1      12.868 116.434  20.231  1.00  0.00    -0.006 C 
ATOM     11  C   UNL     1      11.523 114.792  18.898  1.00  0.00     0.012 C 
ATOM     12  C   UNL     1      11.900 114.291  21.342  1.00  0.00     0.012 C 
ATOM     13  C   UNL     1      13.318 117.173  18.929  1.00  0.00     0.017 C 
ATOM     14  C   UNL     1      11.625 117.167  20.713  1.00  0.00    -0.064 C 
ATOM     15  C   UNL     1      10.303 115.744  19.077  1.00  0.00     0.032 C 
ATOM     16  C   UNL     1      10.426 116.891  20.109  1.00  0.00    -0.064 C 
ATOM     17  C   UNL     1      11.751 118.176  21.845  1.00  0.00     0.032 C 
ATOM     18  C   UNL     1       9.166 117.679  20.524  1.00  0.00    -0.008 C 
ATOM     19  C   UNL     1      10.648 119.254  21.919  1.00  0.00     0.009 C 
ATOM     20  C   UNL     1       9.610 119.170  20.776  1.00  0.00     0.007 C 
ATOM     21  C   UNL     1       8.105 117.650  19.383  1.00  0.00     0.014 C 
ATOM     22  C   UNL     1       8.594 116.951  21.773  1.00  0.00     0.016 C 
ATOM     23  C   UNL     1       8.467 120.265  20.866  1.00  0.00    -0.006 C 
ATOM     24  C   UNL     1       6.950 118.634  19.589  1.00  0.00     0.033 C 
ATOM     25  C   UNL     1       7.460 120.077  19.688  1.00  0.00     0.120 C 
ATOM     26  C   UNL     1       9.090 121.683  20.734  1.00  0.00     0.014 C 
ATOM     27  C   UNL     1       7.698 120.258  22.214  1.00  0.00     0.014 C 
BRANCH  25  28
ATOM     28  O   UNL     1       8.063 120.440  18.468  1.00  0.00    -0.393 OA
ATOM     29  H   UNL     1       9.025 120.202  18.535  1.00  0.00     0.210 HD
ENDBRANCH  25  28
ENDBRANCH   2   6
ENDBRANCH   1   2
BRANCH   1  30
ATOM     30  C   UNL     1      15.231 111.061  21.557  1.00  0.00     0.028 C 
BRANCH  30  31
ATOM     31  C   UNL     1      13.808 110.770  21.970  1.00  0.00    -0.028 C 
ATOM     32  C   UNL     1      13.143 109.656  21.596  1.00  0.00    -0.080 C 
ATOM     33  C   UNL     1      13.790 108.605  20.726  1.00  0.00     0.039 C 
ATOM     34  C   UNL     1      11.723 109.469  22.065  1.00  0.00     0.039 C 
ENDBRANCH  30  31
ENDBRANCH   1  30
TORSDOF 6
ENDMDL
MODEL 5
REMARK VINA RESULT:    -6.686      3.094      5.194
REMARK INTER + INTRA:         -10.663
REMARK INTER:                  -9.049
REMARK INTRA:                  -1.614
REMARK UNBOUND:                -1.826
REMARK SMILES CC(C)=CCC[C@H](C(=O)[O-])[C@@H]1CC[C@]2(C)C3=C(CC[C@@]12C)[C@]1(C)CC[C@H](O)C(C)(C)[C@H]1CC3
REMARK SMILES IDX 6 1 7 2 8 3 9 4 10 5 11 6 12 7 20 8 13 9 14 10 19 11 21 12
REMARK SMILES IDX 15 13 16 14 18 15 17 16 33 17 22 18 32 19 31 20 24 21 23 22
REMARK SMILES IDX 28 23 25 24 26 25 29 26 30 27 27 28 5 30 4 31 2 32 1 33 3 34
REMARK H PARENT 27 29
REMARK Flexibility Score: inf
ROOT
ATOM      1  C   UNL     1      16.179 111.442  18.522  1.00  0.00     0.014 C 
ENDROOT
BRANCH   1   2
ATOM      2  C   UNL     1      15.322 111.869  19.740  1.00  0.00     0.039 C 
BRANCH   2   3
ATOM      3  C   UNL     1      15.287 110.743  20.743  1.00  0.00     0.045 C 
ATOM      4  O   UNL     1      14.294 109.970  20.794  1.00  0.00    -0.550 OA
ATOM      5  O   UNL     1      16.339 110.563  21.633  1.00  0.00    -0.550 OA
ENDBRANCH   2   3
BRANCH   2   6
ATOM      6  C   UNL     1      13.874 112.258  19.295  1.00  0.00     0.004 C 
ATOM      7  C   UNL     1      13.734 112.388  17.755  1.00  0.00     0.006 C 
ATOM      8  C   UNL     1      13.286 113.604  19.820  1.00  0.00    -0.020 C 
ATOM      9  C   UNL     1      12.744 113.534  17.474  1.00  0.00     0.012 C 
ATOM     10  C   UNL     1      12.102 113.846  18.838  1.00  0.00    -0.006 C 
ATOM     11  C   UNL     1      12.718 113.587  21.253  1.00  0.00     0.012 C 
ATOM     12  C   UNL     1      14.379 114.727  19.734  1.00  0.00     0.012 C 
ATOM     13  C   UNL     1      10.888 112.877  19.009  1.00  0.00     0.017 C 
ATOM     14  C   UNL     1      11.548 115.246  19.057  1.00  0.00    -0.064 C 
ATOM     15  C   UNL     1      11.831 114.832  21.547  1.00  0.00     0.032 C 
ATOM     16  C   UNL     1      11.349 115.677  20.342  1.00  0.00    -0.064 C 
ATOM     17  C   UNL     1      11.235 116.118  17.850  1.00  0.00     0.032 C 
ATOM     18  C   UNL     1      10.712 117.061  20.591  1.00  0.00    -0.008 C 
ATOM     19  C   UNL     1      10.201 117.242  18.075  1.00  0.00     0.009 C 
ATOM     20  C   UNL     1       9.596 117.263  19.497  1.00  0.00     0.007 C 
ATOM     21  C   UNL     1      10.057 117.114  22.004  1.00  0.00     0.014 C 
ATOM     22  C   UNL     1      11.877 118.089  20.528  1.00  0.00     0.016 C 
ATOM     23  C   UNL     1       8.550 118.432  19.732  1.00  0.00    -0.006 C 
ATOM     24  C   UNL     1       9.162 118.337  22.223  1.00  0.00     0.033 C 
ATOM     25  C   UNL     1       8.021 118.383  21.200  1.00  0.00     0.120 C 
ATOM     26  C   UNL     1       7.333 118.243  18.784  1.00  0.00     0.014 C 
ATOM     27  C   UNL     1       9.113 119.846  19.430  1.00  0.00     0.014 C 
BRANCH  25  28
ATOM     28  O   UNL     1       7.191 117.259  21.381  1.00  0.00    -0.393 OA
ATOM     29  H   UNL     1       7.630 116.494  20.926  1.00  0.00     0.210 HD
ENDBRANCH  25  28
ENDBRANCH   2   6
ENDBRANCH   1   2
BRANCH   1  30
ATOM     30  C   UNL     1      17.627 111.953  18.610  1.00  0.00     0.028 C 
BRANCH  30  31
ATOM     31  C   UNL     1      17.717 113.401  18.189  1.00  0.00    -0.028 C 
ATOM     32  C   UNL     1      17.952 114.410  19.054  1.00  0.00    -0.080 C 
ATOM     33  C   UNL     1      18.150 114.155  20.529  1.00  0.00     0.039 C 
ATOM     34  C   UNL     1      18.019 115.819  18.523  1.00  0.00     0.039 C 
ENDBRANCH  30  31
ENDBRANCH   1  30
TORSDOF 6
ENDMDL
MODEL 6
REMARK VINA RESULT:    -6.611      1.123      2.082
REMARK INTER + INTRA:         -10.562
REMARK INTER:                  -9.444
REMARK INTRA:                  -1.119
REMARK UNBOUND:                -1.826
REMARK SMILES CC(C)=CCC[C@H](C(=O)[O-])[C@@H]1CC[C@]2(C)C3=C(CC[C@@]12C)[C@]1(C)CC[C@H](O)C(C)(C)[C@H]1CC3
REMARK SMILES IDX 6 1 7 2 8 3 9 4 10 5 11 6 12 7 20 8 13 9 14 10 19 11 21 12
REMARK SMILES IDX 15 13 16 14 18 15 17 16 33 17 22 18 32 19 31 20 24 21 23 22
REMARK SMILES IDX 28 23 25 24 26 25 29 26 30 27 27 28 5 30 4 31 2 32 1 33 3 34
REMARK H PARENT 27 29
REMARK Flexibility Score: inf
ROOT
ATOM      1  C   UNL     1      11.984 115.207  17.873  1.00  0.00     0.014 C 
ENDROOT
BRANCH   1   2
ATOM      2  C   UNL     1      11.563 115.409  19.349  1.00  0.00     0.039 C 
BRANCH   2   3
ATOM      3  C   UNL     1      11.279 114.065  19.974  1.00  0.00     0.045 C 
ATOM      4  O   UNL     1      11.408 113.904  21.217  1.00  0.00    -0.550 OA
ATOM      5  O   UNL     1      10.895 112.991  19.182  1.00  0.00    -0.550 OA
ENDBRANCH   2   3
BRANCH   2   6
ATOM      6  C   UNL     1      10.312 116.342  19.451  1.00  0.00     0.004 C 
ATOM      7  C   UNL     1      10.121 117.228  18.192  1.00  0.00     0.006 C 
ATOM      8  C   UNL     1      10.262 117.371  20.621  1.00  0.00    -0.020 C 
ATOM      9  C   UNL     1       9.571 118.588  18.662  1.00  0.00     0.012 C 
ATOM     10  C   UNL     1       9.171 118.368  20.131  1.00  0.00    -0.006 C 
ATOM     11  C   UNL     1       9.822 116.823  21.993  1.00  0.00     0.012 C 
ATOM     12  C   UNL     1      11.667 118.051  20.788  1.00  0.00     0.012 C 
ATOM     13  C   UNL     1       7.711 117.809  20.132  1.00  0.00     0.017 C 
ATOM     14  C   UNL     1       9.150 119.580  21.050  1.00  0.00    -0.064 C 
ATOM     15  C   UNL     1       9.441 117.961  22.985  1.00  0.00     0.032 C 
ATOM     16  C   UNL     1       9.200 119.376  22.404  1.00  0.00    -0.064 C 
ATOM     17  C   UNL     1       9.076 120.972  20.440  1.00  0.00     0.032 C 
ATOM     18  C   UNL     1       9.099 120.584  23.360  1.00  0.00    -0.008 C 
ATOM     19  C   UNL     1       8.512 122.083  21.353  1.00  0.00     0.009 C 
ATOM     20  C   UNL     1       8.049 121.582  22.740  1.00  0.00     0.007 C 
ATOM     21  C   UNL     1       8.600 120.127  24.764  1.00  0.00     0.014 C 
ATOM     22  C   UNL     1      10.539 121.153  23.490  1.00  0.00     0.016 C 
ATOM     23  C   UNL     1       7.490 122.728  23.682  1.00  0.00    -0.006 C 
ATOM     24  C   UNL     1       8.199 121.285  25.683  1.00  0.00     0.033 C 
ATOM     25  C   UNL     1       7.077 122.125  25.062  1.00  0.00     0.120 C 
ATOM     26  C   UNL     1       6.220 123.357  23.043  1.00  0.00     0.014 C 
ATOM     27  C   UNL     1       8.485 123.898  23.902  1.00  0.00     0.014 C 
BRANCH  25  28
ATOM     28  O   UNL     1       5.925 121.328  24.920  1.00  0.00    -0.393 OA
ATOM     29  H   UNL     1       5.505 121.572  24.054  1.00  0.00     0.210 HD
ENDBRANCH  25  28
ENDBRANCH   2   6
ENDBRANCH   1   2
BRANCH   1  30
ATOM     30  C   UNL     1      13.499 114.989  17.715  1.00  0.00     0.028 C 
BRANCH  30  31
ATOM     31  C   UNL     1      13.807 113.549  17.376  1.00  0.00    -0.028 C 
ATOM     32  C   UNL     1      14.427 112.705  18.228  1.00  0.00    -0.080 C 
ATOM     33  C   UNL     1      14.860 113.150  19.604  1.00  0.00     0.039 C 
ATOM     34  C   UNL     1      14.687 111.289  17.783  1.00  0.00     0.039 C 
ENDBRANCH  30  31
ENDBRANCH   1  30
TORSDOF 6
ENDMDL
MODEL 7
REMARK VINA RESULT:    -6.553      2.182      3.952
REMARK INTER + INTRA:         -10.487
REMARK INTER:                  -9.907
REMARK INTRA:                  -0.580
REMARK UNBOUND:                -1.826
REMARK SMILES CC(C)=CCC[C@H](C(=O)[O-])[C@@H]1CC[C@]2(C)C3=C(CC[C@@]12C)[C@]1(C)CC[C@H](O)C(C)(C)[C@H]1CC3
REMARK SMILES IDX 6 1 7 2 8 3 9 4 10 5 11 6 12 7 20 8 13 9 14 10 19 11 21 12
REMARK SMILES IDX 15 13 16 14 18 15 17 16 33 17 22 18 32 19 31 20 24 21 23 22
REMARK SMILES IDX 28 23 25 24 26 25 29 26 30 27 27 28 5 30 4 31 2 32 1 33 3 34
REMARK H PARENT 27 29
REMARK Flexibility Score: inf
ROOT
ATOM      1  C   UNL     1      11.540 115.203  18.734  1.00  0.00     0.014 C 
ENDROOT
BRANCH   1   2
ATOM      2  C   UNL     1      10.544 116.380  18.881  1.00  0.00     0.039 C 
BRANCH   2   3
ATOM      3  C   UNL     1      10.723 117.331  17.724  1.00  0.00     0.045 C 
ATOM      4  O   UNL     1      11.839 117.878  17.520  1.00  0.00    -0.550 OA
ATOM      5  O   UNL     1       9.654 117.627  16.888  1.00  0.00    -0.550 OA
ENDBRANCH   2   3
BRANCH   2   6
ATOM      6  C   UNL     1      10.751 117.121  20.243  1.00  0.00     0.004 C 
ATOM      7  C   UNL     1      10.732 116.158  21.459  1.00  0.00     0.006 C 
ATOM      8  C   UNL     1       9.718 118.218  20.642  1.00  0.00    -0.020 C 
ATOM      9  C   UNL     1      10.060 116.902  22.629  1.00  0.00     0.012 C 
ATOM     10  C   UNL     1       9.977 118.368  22.170  1.00  0.00    -0.006 C 
ATOM     11  C   UNL     1       9.908 119.603  19.991  1.00  0.00     0.012 C 
ATOM     12  C   UNL     1       8.265 117.717  20.324  1.00  0.00     0.012 C 
ATOM     13  C   UNL     1      11.331 119.049  22.551  1.00  0.00     0.017 C 
ATOM     14  C   UNL     1       8.890 119.241  22.780  1.00  0.00    -0.064 C 
ATOM     15  C   UNL     1       9.088 120.710  20.717  1.00  0.00     0.032 C 
ATOM     16  C   UNL     1       8.528 120.389  22.125  1.00  0.00    -0.064 C 
ATOM     17  C   UNL     1       8.241 118.813  24.088  1.00  0.00     0.032 C 
ATOM     18  C   UNL     1       7.486 121.333  22.762  1.00  0.00    -0.008 C 
ATOM     19  C   UNL     1       7.591 119.938  24.922  1.00  0.00     0.009 C 
ATOM     20  C   UNL     1       7.760 121.349  24.314  1.00  0.00     0.007 C 
ATOM     21  C   UNL     1       7.646 122.778  22.201  1.00  0.00     0.014 C 
ATOM     22  C   UNL     1       6.094 120.776  22.353  1.00  0.00     0.016 C 
ATOM     23  C   UNL     1       7.074 122.499  25.162  1.00  0.00    -0.006 C 
ATOM     24  C   UNL     1       6.852 123.832  22.979  1.00  0.00     0.033 C 
ATOM     25  C   UNL     1       7.278 123.875  24.452  1.00  0.00     0.120 C 
ATOM     26  C   UNL     1       7.743 122.588  26.562  1.00  0.00     0.014 C 
ATOM     27  C   UNL     1       5.562 122.268  25.423  1.00  0.00     0.014 C 
BRANCH  25  28
ATOM     28  O   UNL     1       8.627 124.270  24.533  1.00  0.00    -0.393 OA
ATOM     29  H   UNL     1       8.892 124.213  25.488  1.00  0.00     0.210 HD
ENDBRANCH  25  28
ENDBRANCH   2   6
ENDBRANCH   1   2
BRANCH   1  30
ATOM     30  C   UNL     1      10.883 113.837  18.999  1.00  0.00     0.028 C 
BRANCH  30  31
ATOM     31  C   UNL     1      11.926 112.780  19.278  1.00  0.00    -0.028 C 
ATOM     32  C   UNL     1      12.422 111.961  18.326  1.00  0.00    -0.080 C 
ATOM     33  C   UNL     1      11.963 112.051  16.890  1.00  0.00     0.039 C 
ATOM     34  C   UNL     1      13.458 110.939  18.717  1.00  0.00     0.039 C 
ENDBRANCH  30  31
ENDBRANCH   1  30
TORSDOF 6
ENDMDL
MODEL 8
REMARK VINA RESULT:    -6.376      3.605      9.458
REMARK INTER + INTRA:         -10.253
REMARK INTER:                  -9.198
REMARK INTRA:                  -1.054
REMARK UNBOUND:                -1.826
REMARK SMILES CC(C)=CCC[C@H](C(=O)[O-])[C@@H]1CC[C@]2(C)C3=C(CC[C@@]12C)[C@]1(C)CC[C@H](O)C(C)(C)[C@H]1CC3
REMARK SMILES IDX 6 1 7 2 8 3 9 4 10 5 11 6 12 7 20 8 13 9 14 10 19 11 21 12
REMARK SMILES IDX 15 13 16 14 18 15 17 16 33 17 22 18 32 19 31 20 24 21 23 22
REMARK SMILES IDX 28 23 25 24 26 25 29 26 30 27 27 28 5 30 4 31 2 32 1 33 3 34
REMARK H PARENT 27 29
REMARK Flexibility Score: inf
ROOT
ATOM      1  C   UNL     1       9.635 118.585  20.616  1.00  0.00     0.014 C 
ENDROOT
BRANCH   1   2
ATOM      2  C   UNL     1      10.789 117.773  21.252  1.00  0.00     0.039 C 
BRANCH   2   3
ATOM      3  C   UNL     1      11.627 118.687  22.111  1.00  0.00     0.045 C 
ATOM      4  O   UNL     1      11.114 119.270  23.104  1.00  0.00    -0.550 OA
ATOM      5  O   UNL     1      12.963 118.911  21.803  1.00  0.00    -0.550 OA
ENDBRANCH   2   3
BRANCH   2   6
ATOM      6  C   UNL     1      11.667 117.092  20.151  1.00  0.00     0.004 C 
ATOM      7  C   UNL     1      10.917 116.930  18.802  1.00  0.00     0.006 C 
ATOM      8  C   UNL     1      12.207 115.656  20.432  1.00  0.00    -0.020 C 
ATOM      9  C   UNL     1      11.380 115.603  18.171  1.00  0.00     0.012 C 
ATOM     10  C   UNL     1      12.599 115.171  19.005  1.00  0.00    -0.006 C 
ATOM     11  C   UNL     1      13.459 115.562  21.326  1.00  0.00     0.012 C 
ATOM     12  C   UNL     1      11.073 114.781  21.075  1.00  0.00     0.012 C 
ATOM     13  C   UNL     1      13.852 115.870  18.387  1.00  0.00     0.017 C 
ATOM     14  C   UNL     1      12.935 113.688  19.054  1.00  0.00    -0.064 C 
ATOM     15  C   UNL     1      14.136 114.162  21.242  1.00  0.00     0.032 C 
ATOM     16  C   UNL     1      13.728 113.230  20.074  1.00  0.00    -0.064 C 
ATOM     17  C   UNL     1      12.383 112.766  17.977  1.00  0.00     0.032 C 
ATOM     18  C   UNL     1      14.150 111.746  20.102  1.00  0.00    -0.008 C 
ATOM     19  C   UNL     1      13.162 111.453  17.744  1.00  0.00     0.009 C 
ATOM     20  C   UNL     1      14.432 111.314  18.613  1.00  0.00     0.007 C 
ATOM     21  C   UNL     1      15.451 111.565  20.941  1.00  0.00     0.014 C 
ATOM     22  C   UNL     1      12.987 110.980  20.791  1.00  0.00     0.016 C 
ATOM     23  C   UNL     1      15.219 109.957  18.386  1.00  0.00    -0.006 C 
ATOM     24  C   UNL     1      16.097 110.185  20.788  1.00  0.00     0.033 C 
ATOM     25  C   UNL     1      16.465 109.902  19.326  1.00  0.00     0.120 C 
ATOM     26  C   UNL     1      15.731 109.887  16.920  1.00  0.00     0.014 C 
ATOM     27  C   UNL     1      14.352 108.687  18.598  1.00  0.00     0.014 C 
BRANCH  25  28
ATOM     28  O   UNL     1      17.435 110.831  18.904  1.00  0.00    -0.393 OA
ATOM     29  H   UNL     1      17.205 111.092  17.974  1.00  0.00     0.210 HD
ENDBRANCH  25  28
ENDBRANCH   2   6
ENDBRANCH   1   2
BRANCH   1  30
ATOM     30  C   UNL     1       8.254 117.965  20.890  1.00  0.00     0.028 C 
BRANCH  30  31
ATOM     31  C   UNL     1       7.156 118.783  20.252  1.00  0.00    -0.028 C 
ATOM     32  C   UNL     1       6.697 118.558  19.002  1.00  0.00    -0.080 C 
ATOM     33  C   UNL     1       7.257 117.450  18.143  1.00  0.00     0.039 C 
ATOM     34  C   UNL     1       5.598 119.439  18.465  1.00  0.00     0.039 C 
ENDBRANCH  30  31
ENDBRANCH   1  30
TORSDOF 6
ENDMDL
MODEL 9
REMARK VINA RESULT:    -6.238      8.163     10.069
REMARK INTER + INTRA:         -10.070
REMARK INTER:                  -9.094
REMARK INTRA:                  -0.975
REMARK UNBOUND:                -1.826
REMARK SMILES CC(C)=CCC[C@H](C(=O)[O-])[C@@H]1CC[C@]2(C)C3=C(CC[C@@]12C)[C@]1(C)CC[C@H](O)C(C)(C)[C@H]1CC3
REMARK SMILES IDX 6 1 7 2 8 3 9 4 10 5 11 6 12 7 20 8 13 9 14 10 19 11 21 12
REMARK SMILES IDX 15 13 16 14 18 15 17 16 33 17 22 18 32 19 31 20 24 21 23 22
REMARK SMILES IDX 28 23 25 24 26 25 29 26 30 27 27 28 5 30 4 31 2 32 1 33 3 34
REMARK H PARENT 27 29
REMARK Flexibility Score: inf
ROOT
ATOM      1  C   UNL     1      17.513 119.503  11.942  1.00  0.00     0.014 C 
ENDROOT
BRANCH   1   2
ATOM      2  C   UNL     1      16.652 119.608  13.226  1.00  0.00     0.039 C 
BRANCH   2   3
ATOM      3  C   UNL     1      15.384 118.813  13.041  1.00  0.00     0.045 C 
ATOM      4  O   UNL     1      14.681 118.500  14.038  1.00  0.00    -0.550 OA
ATOM      5  O   UNL     1      14.993 118.400  11.773  1.00  0.00    -0.550 OA
ENDBRANCH   2   3
BRANCH   2   6
ATOM      6  C   UNL     1      16.325 121.101  13.557  1.00  0.00     0.004 C 
ATOM      7  C   UNL     1      17.100 122.100  12.657  1.00  0.00     0.006 C 
ATOM      8  C   UNL     1      16.629 121.612  14.999  1.00  0.00    -0.020 C 
ATOM      9  C   UNL     1      17.449 123.327  13.521  1.00  0.00     0.012 C 
ATOM     10  C   UNL     1      16.619 123.157  14.805  1.00  0.00    -0.006 C 
ATOM     11  C   UNL     1      15.586 121.263  16.080  1.00  0.00     0.012 C 
ATOM     12  C   UNL     1      18.026 121.073  15.467  1.00  0.00     0.012 C 
ATOM     13  C   UNL     1      15.213 123.784  14.532  1.00  0.00     0.017 C 
ATOM     14  C   UNL     1      17.129 123.825  16.073  1.00  0.00    -0.064 C 
ATOM     15  C   UNL     1      15.771 122.115  17.370  1.00  0.00     0.032 C 
ATOM     16  C   UNL     1      16.664 123.377  17.282  1.00  0.00    -0.064 C 
ATOM     17  C   UNL     1      18.135 124.961  15.960  1.00  0.00     0.032 C 
ATOM     18  C   UNL     1      17.104 124.090  18.578  1.00  0.00    -0.008 C 
ATOM     19  C   UNL     1      18.193 125.937  17.155  1.00  0.00     0.009 C 
ATOM     20  C   UNL     1      17.161 125.633  18.265  1.00  0.00     0.007 C 
ATOM     21  C   UNL     1      16.070 123.839  19.716  1.00  0.00     0.014 C 
ATOM     22  C   UNL     1      18.467 123.457  18.977  1.00  0.00     0.016 C 
ATOM     23  C   UNL     1      17.236 126.624  19.500  1.00  0.00    -0.006 C 
ATOM     24  C   UNL     1      16.273 124.732  20.943  1.00  0.00     0.033 C 
ATOM     25  C   UNL     1      16.177 126.217  20.572  1.00  0.00     0.120 C 
ATOM     26  C   UNL     1      16.904 128.069  19.033  1.00  0.00     0.014 C 
ATOM     27  C   UNL     1      18.640 126.698  20.158  1.00  0.00     0.014 C 
BRANCH  25  28
ATOM     28  O   UNL     1      14.878 126.495  20.103  1.00  0.00    -0.393 OA
ATOM     29  H   UNL     1      14.304 125.726  20.359  1.00  0.00     0.210 HD
ENDBRANCH  25  28
ENDBRANCH   2   6
ENDBRANCH   1   2
BRANCH   1  30
ATOM     30  C   UNL     1      18.837 118.756  12.179  1.00  0.00     0.028 C 
BRANCH  30  31
ATOM     31  C   UNL     1      19.679 118.735  10.925  1.00  0.00    -0.028 C 
ATOM     32  C   UNL     1      19.659 117.718  10.038  1.00  0.00    -0.080 C 
ATOM     33  C   UNL     1      18.774 116.512  10.240  1.00  0.00     0.039 C 
ATOM     34  C   UNL     1      20.543 117.801   8.820  1.00  0.00     0.039 C 
ENDBRANCH  30  31
ENDBRANCH   1  30
TORSDOF 6
ENDMDL
