MODEL 1
REMARK VINA RESULT:    -4.379      0.000      0.000
REMARK INTER + INTRA:          -8.481
REMARK INTER:                  -6.812
REMARK INTRA:                  -1.669
REMARK UNBOUND:                -1.669
REMARK SMILES COc1cc(CNC(=O)CCCCC=CC(C)C)ccc1O
REMARK SMILES IDX 11 1 12 2 13 3 14 4 15 5 16 6 17 7 18 8 10 9 8 10 9 11 7 12
REMARK SMILES IDX 6 14 5 15 4 16 19 17 3 18 20 19 21 20 2 21 1 22 22 23
REMARK H PARENT 7 13 22 24
REMARK Flexibility Score: inf
ROOT
ATOM      1  C   UNL     1     101.287 101.905 103.107  1.00  0.00     0.010 C 
ENDROOT
BRANCH   1   2
ATOM      2  C   UNL     1     101.818 100.645 102.404  1.00  0.00     0.005 C 
BRANCH   2   3
ATOM      3  C   UNL     1     103.308 100.769 102.058  1.00  0.00     0.027 C 
BRANCH   3   4
ATOM      4  C   UNL     1     104.064 101.526 103.120  1.00  0.00    -0.031 C 
ATOM      5  C   UNL     1     105.401 101.490 103.279  1.00  0.00    -0.028 C 
BRANCH   5   6
ATOM      6  C   UNL     1     106.339 100.615 102.472  1.00  0.00     0.005 C 
ATOM      7  C   UNL     1     106.945 101.420 101.320  1.00  0.00     0.012 C 
ATOM      8  C   UNL     1     107.440 100.060 103.378  1.00  0.00     0.012 C 
ENDBRANCH   5   6
ENDBRANCH   3   4
ENDBRANCH   2   3
ENDBRANCH   1   2
BRANCH   1   9
ATOM      9  C   UNL     1      99.759 101.896 103.255  1.00  0.00     0.100 C 
BRANCH   9  10
ATOM     10  C   UNL     1      99.079 101.525 101.969  1.00  0.00     0.220 C 
ATOM     11  O   UNL     1      98.398 100.465 101.915  1.00  0.00    -0.275 OA
ATOM     12  N   UNL     1      99.245 102.341 100.799  1.00  0.00    -0.352 N 
ATOM     13  H   UNL     1      99.774 103.237 100.890  1.00  0.00     0.163 HD
BRANCH  12  14
ATOM     14  C   UNL     1      99.027 101.821  99.452  1.00  0.00     0.151 C 
BRANCH  14  15
ATOM     15  C   UNL     1     100.236 101.039  99.015  1.00  0.00    -0.025 A 
ATOM     16  C   UNL     1     100.184  99.636  98.952  1.00  0.00     0.056 A 
ATOM     17  C   UNL     1     101.452 101.696  98.779  1.00  0.00     0.009 A 
ATOM     18  C   UNL     1     101.343  98.889  98.667  1.00  0.00     0.160 A 
ATOM     19  C   UNL     1     102.597 100.963  98.467  1.00  0.00     0.050 A 
ATOM     20  C   UNL     1     102.547  99.562  98.413  1.00  0.00     0.157 A 
BRANCH  18  21
ATOM     21  O   UNL     1     101.338  97.486  98.640  1.00  0.00    -0.493 OA
ATOM     22  C   UNL     1     100.394  96.698  97.921  1.00  0.00     0.278 C 
ENDBRANCH  18  21
BRANCH  20  23
ATOM     23  O   UNL     1     103.696  98.831  98.117  1.00  0.00    -0.504 OA
ATOM     24  H   UNL     1     104.494  99.261  97.664  1.00  0.00     0.293 HD
ENDBRANCH  20  23
ENDBRANCH  14  15
ENDBRANCH  12  14
ENDBRANCH   9  10
ENDBRANCH   1   9
TORSDOF 10
ENDMDL
MODEL 2
REMARK VINA RESULT:    -4.231      4.939      7.997
REMARK INTER + INTRA:          -8.250
REMARK INTER:                  -7.123
REMARK INTRA:                  -1.127
REMARK UNBOUND:                -1.669
REMARK SMILES COc1cc(CNC(=O)CCCCC=CC(C)C)ccc1O
REMARK SMILES IDX 11 1 12 2 13 3 14 4 15 5 16 6 17 7 18 8 10 9 8 10 9 11 7 12
REMARK SMILES IDX 6 14 5 15 4 16 19 17 3 18 20 19 21 20 2 21 1 22 22 23
REMARK H PARENT 7 13 22 24
REMARK Flexibility Score: inf
ROOT
ATOM      1  C   UNL     1      99.408 106.125 102.239  1.00  0.00     0.010 C 
ENDROOT
BRANCH   1   2
ATOM      2  C   UNL     1      98.484 107.101 101.493  1.00  0.00     0.005 C 
BRANCH   2   3
ATOM      3  C   UNL     1      97.077 107.138 102.106  1.00  0.00     0.027 C 
BRANCH   3   4
ATOM      4  C   UNL     1      96.613 108.552 102.345  1.00  0.00    -0.031 C 
ATOM      5  C   UNL     1      96.719 109.203 103.519  1.00  0.00    -0.028 C 
BRANCH   5   6
ATOM      6  C   UNL     1      97.239 108.583 104.801  1.00  0.00     0.005 C 
ATOM      7  C   UNL     1      98.696 108.995 105.027  1.00  0.00     0.012 C 
ATOM      8  C   UNL     1      96.367 109.020 105.980  1.00  0.00     0.012 C 
ENDBRANCH   5   6
ENDBRANCH   3   4
ENDBRANCH   2   3
ENDBRANCH   1   2
BRANCH   1   9
ATOM      9  C   UNL     1      98.722 105.473 103.448  1.00  0.00     0.100 C 
BRANCH   9  10
ATOM     10  C   UNL     1      99.708 104.757 104.324  1.00  0.00     0.220 C 
ATOM     11  O   UNL     1      99.449 104.609 105.550  1.00  0.00    -0.275 OA
ATOM     12  N   UNL     1     100.954 104.290 103.785  1.00  0.00    -0.352 N 
ATOM     13  H   UNL     1     101.116 104.384 102.758  1.00  0.00     0.163 HD
BRANCH  12  14
ATOM     14  C   UNL     1     102.116 104.028 104.629  1.00  0.00     0.151 C 
BRANCH  14  15
ATOM     15  C   UNL     1     102.935 102.919 104.026  1.00  0.00    -0.025 A 
ATOM     16  C   UNL     1     104.337 103.009 104.003  1.00  0.00     0.056 A 
ATOM     17  C   UNL     1     102.301 101.846 103.384  1.00  0.00     0.009 A 
ATOM     18  C   UNL     1     105.105 102.040 103.331  1.00  0.00     0.160 A 
ATOM     19  C   UNL     1     103.059 100.867 102.741  1.00  0.00     0.050 A 
ATOM     20  C   UNL     1     104.458 100.961 102.710  1.00  0.00     0.157 A 
BRANCH  18  21
ATOM     21  O   UNL     1     106.504 102.121 103.249  1.00  0.00    -0.493 OA
ATOM     22  C   UNL     1     107.210 102.869 102.264  1.00  0.00     0.278 C 
ENDBRANCH  18  21
BRANCH  20  23
ATOM     23  O   UNL     1     105.212  99.990 102.054  1.00  0.00    -0.504 OA
ATOM     24  H   UNL     1     105.116  99.830 101.058  1.00  0.00     0.293 HD
ENDBRANCH  20  23
ENDBRANCH  14  15
ENDBRANCH  12  14
ENDBRANCH   9  10
ENDBRANCH   1   9
TORSDOF 10
ENDMDL
MODEL 3
REMARK VINA RESULT:    -4.215      4.852      6.362
REMARK INTER + INTRA:          -8.225
REMARK INTER:                  -7.187
REMARK INTRA:                  -1.037
REMARK UNBOUND:                -1.669
REMARK SMILES COc1cc(CNC(=O)CCCCC=CC(C)C)ccc1O
REMARK SMILES IDX 11 1 12 2 13 3 14 4 15 5 16 6 17 7 18 8 10 9 8 10 9 11 7 12
REMARK SMILES IDX 6 14 5 15 4 16 19 17 3 18 20 19 21 20 2 21 1 22 22 23
REMARK H PARENT 7 13 22 24
REMARK Flexibility Score: inf
ROOT
ATOM      1  C   UNL     1     106.503 100.371 102.252  1.00  0.00     0.010 C 
ENDROOT
BRANCH   1   2
ATOM      2  C   UNL     1     106.900 101.507 101.296  1.00  0.00     0.005 C 
BRANCH   2   3
ATOM      3  C   UNL     1     106.942 102.866 102.009  1.00  0.00     0.027 C 
BRANCH   3   4
ATOM      4  C   UNL     1     108.357 103.320 102.257  1.00  0.00    -0.031 C 
ATOM      5  C   UNL     1     108.983 103.255 103.448  1.00  0.00    -0.028 C 
BRANCH   5   6
ATOM      6  C   UNL     1     108.330 102.801 104.738  1.00  0.00     0.005 C 
ATOM      7  C   UNL     1     108.712 101.348 105.034  1.00  0.00     0.012 C 
ATOM      8  C   UNL     1     108.758 103.715 105.887  1.00  0.00     0.012 C 
ENDBRANCH   5   6
ENDBRANCH   3   4
ENDBRANCH   2   3
ENDBRANCH   1   2
BRANCH   1   9
ATOM      9  C   UNL     1     105.164 100.634 102.954  1.00  0.00     0.100 C 
BRANCH   9  10
ATOM     10  C   UNL     1     104.897  99.626 104.034  1.00  0.00     0.220 C 
ATOM     11  O   UNL     1     105.587  99.655 105.089  1.00  0.00    -0.275 OA
ATOM     12  N   UNL     1     103.900  98.609 103.847  1.00  0.00    -0.352 N 
ATOM     13  H   UNL     1     103.313  98.642 102.985  1.00  0.00     0.163 HD
BRANCH  12  14
ATOM     14  C   UNL     1     103.913  97.361 104.606  1.00  0.00     0.151 C 
BRANCH  14  15
ATOM     15  C   UNL     1     102.770  96.491 104.158  1.00  0.00    -0.025 A 
ATOM     16  C   UNL     1     102.851  95.095 104.294  1.00  0.00     0.056 A 
ATOM     17  C   UNL     1     101.670  97.058 103.500  1.00  0.00     0.009 A 
ATOM     18  C   UNL     1     101.845  94.264 103.765  1.00  0.00     0.160 A 
ATOM     19  C   UNL     1     100.654  96.241 103.000  1.00  0.00     0.050 A 
ATOM     20  C   UNL     1     100.740  94.847 103.127  1.00  0.00     0.157 A 
BRANCH  18  21
ATOM     21  O   UNL     1     101.915  92.865 103.843  1.00  0.00    -0.493 OA
ATOM     22  C   UNL     1     102.949  92.147 104.508  1.00  0.00     0.278 C 
ENDBRANCH  18  21
BRANCH  20  23
ATOM     23  O   UNL     1      99.733  94.033 102.613  1.00  0.00    -0.504 OA
ATOM     24  H   UNL     1      99.205  93.405 103.209  1.00  0.00     0.293 HD
ENDBRANCH  20  23
ENDBRANCH  14  15
ENDBRANCH  12  14
ENDBRANCH   9  10
ENDBRANCH   1   9
TORSDOF 10
ENDMDL
MODEL 4
REMARK VINA RESULT:    -4.115      5.287      7.833
REMARK INTER + INTRA:          -8.070
REMARK INTER:                  -6.699
REMARK INTRA:                  -1.371
REMARK UNBOUND:                -1.669
REMARK SMILES COc1cc(CNC(=O)CCCCC=CC(C)C)ccc1O
REMARK SMILES IDX 11 1 12 2 13 3 14 4 15 5 16 6 17 7 18 8 10 9 8 10 9 11 7 12
REMARK SMILES IDX 6 14 5 15 4 16 19 17 3 18 20 19 21 20 2 21 1 22 22 23
REMARK H PARENT 7 13 22 24
REMARK Flexibility Score: inf
ROOT
ATOM      1  C   UNL     1      98.035 103.809 104.136  1.00  0.00     0.010 C 
ENDROOT
BRANCH   1   2
ATOM      2  C   UNL     1      98.810 104.639 105.171  1.00  0.00     0.005 C 
BRANCH   2   3
ATOM      3  C   UNL     1      98.374 106.112 105.166  1.00  0.00     0.027 C 
BRANCH   3   4
ATOM      4  C   UNL     1      99.388 106.988 104.475  1.00  0.00    -0.031 C 
ATOM      5  C   UNL     1      99.310 107.378 103.188  1.00  0.00    -0.028 C 
BRANCH   5   6
ATOM      6  C   UNL     1      98.241 106.922 102.216  1.00  0.00     0.005 C 
ATOM      7  C   UNL     1      97.170 108.007 102.069  1.00  0.00     0.012 C 
ATOM      8  C   UNL     1      98.874 106.604 100.859  1.00  0.00     0.012 C 
ENDBRANCH   5   6
ENDBRANCH   3   4
ENDBRANCH   2   3
ENDBRANCH   1   2
BRANCH   1   9
ATOM      9  C   UNL     1      98.892 103.440 102.917  1.00  0.00     0.100 C 
BRANCH   9  10
ATOM     10  C   UNL     1      98.808 101.975 102.603  1.00  0.00     0.220 C 
ATOM     11  O   UNL     1      99.046 101.581 101.428  1.00  0.00    -0.275 OA
ATOM     12  N   UNL     1      98.411 101.037 103.616  1.00  0.00    -0.352 N 
ATOM     13  H   UNL     1      98.269 101.388 104.589  1.00  0.00     0.163 HD
BRANCH  12  14
ATOM     14  C   UNL     1      97.863  99.724 103.286  1.00  0.00     0.151 C 
BRANCH  14  15
ATOM     15  C   UNL     1      96.361  99.779 103.347  1.00  0.00    -0.025 A 
ATOM     16  C   UNL     1      95.590  98.929 102.536  1.00  0.00     0.056 A 
ATOM     17  C   UNL     1      95.723 100.754 104.127  1.00  0.00     0.009 A 
ATOM     18  C   UNL     1      94.189  99.058 102.492  1.00  0.00     0.160 A 
ATOM     19  C   UNL     1      94.332 100.867 104.110  1.00  0.00     0.050 A 
ATOM     20  C   UNL     1      93.564 100.025 103.293  1.00  0.00     0.157 A 
BRANCH  18  21
ATOM     21  O   UNL     1      93.391  98.257 101.660  1.00  0.00    -0.493 OA
ATOM     22  C   UNL     1      92.884  96.977 102.022  1.00  0.00     0.278 C 
ENDBRANCH  18  21
BRANCH  20  23
ATOM     23  O   UNL     1      92.176 100.150 103.265  1.00  0.00    -0.504 OA
ATOM     24  H   UNL     1      91.658 100.468 104.077  1.00  0.00     0.293 HD
ENDBRANCH  20  23
ENDBRANCH  14  15
ENDBRANCH  12  14
ENDBRANCH   9  10
ENDBRANCH   1   9
TORSDOF 10
ENDMDL
MODEL 5
REMARK VINA RESULT:    -4.072      8.670     10.453
REMARK INTER + INTRA:          -8.002
REMARK INTER:                  -5.569
REMARK INTRA:                  -2.433
REMARK UNBOUND:                -1.669
REMARK SMILES COc1cc(CNC(=O)CCCCC=CC(C)C)ccc1O
REMARK SMILES IDX 11 1 12 2 13 3 14 4 15 5 16 6 17 7 18 8 10 9 8 10 9 11 7 12
REMARK SMILES IDX 6 14 5 15 4 16 19 17 3 18 20 19 21 20 2 21 1 22 22 23
REMARK H PARENT 7 13 22 24
REMARK Flexibility Score: inf
ROOT
ATOM      1  C   UNL     1     102.851  92.699 108.533  1.00  0.00     0.010 C 
ENDROOT
BRANCH   1   2
ATOM      2  C   UNL     1     102.014  93.718 107.743  1.00  0.00     0.005 C 
BRANCH   2   3
ATOM      3  C   UNL     1     100.529  93.327 107.699  1.00  0.00     0.027 C 
BRANCH   3   4
ATOM      4  C   UNL     1      99.956  93.482 106.314  1.00  0.00    -0.031 C 
ATOM      5  C   UNL     1      99.292  92.516 105.649  1.00  0.00    -0.028 C 
BRANCH   5   6
ATOM      6  C   UNL     1      99.099  91.101 106.156  1.00  0.00     0.005 C 
ATOM      7  C   UNL     1      97.787  91.000 106.939  1.00  0.00     0.012 C 
ATOM      8  C   UNL     1      99.100  90.124 104.979  1.00  0.00     0.012 C 
ENDBRANCH   5   6
ENDBRANCH   3   4
ENDBRANCH   2   3
ENDBRANCH   1   2
BRANCH   1   9
ATOM      9  C   UNL     1     102.653  91.261 108.034  1.00  0.00     0.100 C 
BRANCH   9  10
ATOM     10  C   UNL     1     103.335  91.032 106.717  1.00  0.00     0.220 C 
ATOM     11  O   UNL     1     104.589  91.144 106.643  1.00  0.00    -0.275 OA
ATOM     12  N   UNL     1     102.563  90.740 105.542  1.00  0.00    -0.352 N 
ATOM     13  H   UNL     1     101.532  90.606 105.645  1.00  0.00     0.163 HD
BRANCH  12  14
ATOM     14  C   UNL     1     103.080  90.970 104.195  1.00  0.00     0.151 C 
BRANCH  14  15
ATOM     15  C   UNL     1     102.471  92.226 103.633  1.00  0.00    -0.025 A 
ATOM     16  C   UNL     1     102.933  93.484 104.053  1.00  0.00     0.056 A 
ATOM     17  C   UNL     1     101.366  92.148 102.774  1.00  0.00     0.009 A 
ATOM     18  C   UNL     1     102.289  94.662 103.629  1.00  0.00     0.160 A 
ATOM     19  C   UNL     1     100.741  93.313 102.327  1.00  0.00     0.050 A 
ATOM     20  C   UNL     1     101.197  94.568 102.754  1.00  0.00     0.157 A 
BRANCH  18  21
ATOM     21  O   UNL     1     102.695  95.933 104.064  1.00  0.00    -0.493 OA
ATOM     22  C   UNL     1     103.640  96.163 105.104  1.00  0.00     0.278 C 
ENDBRANCH  18  21
BRANCH  20  23
ATOM     23  O   UNL     1     100.561  95.730 102.319  1.00  0.00    -0.504 OA
ATOM     24  H   UNL     1     100.637  96.599 102.837  1.00  0.00     0.293 HD
ENDBRANCH  20  23
ENDBRANCH  14  15
ENDBRANCH  12  14
ENDBRANCH   9  10
ENDBRANCH   1   9
TORSDOF 10
ENDMDL
MODEL 6
REMARK VINA RESULT:    -4.066      4.952      7.660
REMARK INTER + INTRA:          -7.994
REMARK INTER:                  -5.547
REMARK INTRA:                  -2.446
REMARK UNBOUND:                -1.669
REMARK SMILES COc1cc(CNC(=O)CCCCC=CC(C)C)ccc1O
REMARK SMILES IDX 11 1 12 2 13 3 14 4 15 5 16 6 17 7 18 8 10 9 8 10 9 11 7 12
REMARK SMILES IDX 6 14 5 15 4 16 19 17 3 18 20 19 21 20 2 21 1 22 22 23
REMARK H PARENT 7 13 22 24
REMARK Flexibility Score: inf
ROOT
ATOM      1  C   UNL     1     108.691 103.019 104.155  1.00  0.00     0.010 C 
ENDROOT
BRANCH   1   2
ATOM      2  C   UNL     1     108.421 103.115 102.644  1.00  0.00     0.005 C 
BRANCH   2   3
ATOM      3  C   UNL     1     106.961 102.781 102.302  1.00  0.00     0.027 C 
BRANCH   3   4
ATOM      4  C   UNL     1     106.844 101.447 101.612  1.00  0.00    -0.031 C 
ATOM      5  C   UNL     1     105.954 100.491 101.942  1.00  0.00    -0.028 C 
BRANCH   5   6
ATOM      6  C   UNL     1     104.997 100.576 103.114  1.00  0.00     0.005 C 
ATOM      7  C   UNL     1     103.626 101.061 102.636  1.00  0.00     0.012 C 
ATOM      8  C   UNL     1     104.879  99.208 103.788  1.00  0.00     0.012 C 
ENDBRANCH   5   6
ENDBRANCH   3   4
ENDBRANCH   2   3
ENDBRANCH   1   2
BRANCH   1   9
ATOM      9  C   UNL     1     108.996 101.584 104.608  1.00  0.00     0.100 C 
BRANCH   9  10
ATOM     10  C   UNL     1     107.909 101.036 105.485  1.00  0.00     0.220 C 
ATOM     11  O   UNL     1     107.709  99.791 105.516  1.00  0.00    -0.275 OA
ATOM     12  N   UNL     1     107.070 101.924 106.241  1.00  0.00    -0.352 N 
ATOM     13  H   UNL     1     107.292 102.944 106.231  1.00  0.00     0.163 HD
BRANCH  12  14
ATOM     14  C   UNL     1     105.748 101.526 106.716  1.00  0.00     0.151 C 
BRANCH  14  15
ATOM     15  C   UNL     1     104.712 102.467 106.163  1.00  0.00    -0.025 A 
ATOM     16  C   UNL     1     103.346 102.164 106.285  1.00  0.00     0.056 A 
ATOM     17  C   UNL     1     105.107 103.592 105.424  1.00  0.00     0.009 A 
ATOM     18  C   UNL     1     102.375 102.972 105.663  1.00  0.00     0.160 A 
ATOM     19  C   UNL     1     104.147 104.412 104.830  1.00  0.00     0.050 A 
ATOM     20  C   UNL     1     102.784 104.105 104.944  1.00  0.00     0.157 A 
BRANCH  18  21
ATOM     21  O   UNL     1     101.005 102.674 105.727  1.00  0.00    -0.493 OA
ATOM     22  C   UNL     1     100.202 102.827 106.893  1.00  0.00     0.278 C 
ENDBRANCH  18  21
BRANCH  20  23
ATOM     23  O   UNL     1     101.828 104.917 104.337  1.00  0.00    -0.504 OA
ATOM     24  H   UNL     1     100.871 104.605 104.213  1.00  0.00     0.293 HD
ENDBRANCH  20  23
ENDBRANCH  14  15
ENDBRANCH  12  14
ENDBRANCH   9  10
ENDBRANCH   1   9
TORSDOF 10
ENDMDL
MODEL 7
REMARK VINA RESULT:    -4.062      2.233      3.481
REMARK INTER + INTRA:          -7.988
REMARK INTER:                  -6.886
REMARK INTRA:                  -1.102
REMARK UNBOUND:                -1.669
REMARK SMILES COc1cc(CNC(=O)CCCCC=CC(C)C)ccc1O
REMARK SMILES IDX 11 1 12 2 13 3 14 4 15 5 16 6 17 7 18 8 10 9 8 10 9 11 7 12
REMARK SMILES IDX 6 14 5 15 4 16 19 17 3 18 20 19 21 20 2 21 1 22 22 23
REMARK H PARENT 7 13 22 24
REMARK Flexibility Score: inf
ROOT
ATOM      1  C   UNL     1     105.563 100.627 101.863  1.00  0.00     0.010 C 
ENDROOT
BRANCH   1   2
ATOM      2  C   UNL     1     106.753 101.431 101.314  1.00  0.00     0.005 C 
BRANCH   2   3
ATOM      3  C   UNL     1     106.831 102.833 101.935  1.00  0.00     0.027 C 
BRANCH   3   4
ATOM      4  C   UNL     1     108.197 103.110 102.510  1.00  0.00    -0.031 C 
ATOM      5  C   UNL     1     108.540 102.909 103.796  1.00  0.00    -0.028 C 
BRANCH   5   6
ATOM      6  C   UNL     1     107.582 102.459 104.881  1.00  0.00     0.005 C 
ATOM      7  C   UNL     1     108.285 101.484 105.829  1.00  0.00     0.012 C 
ATOM      8  C   UNL     1     107.059 103.675 105.649  1.00  0.00     0.012 C 
ENDBRANCH   5   6
ENDBRANCH   3   4
ENDBRANCH   2   3
ENDBRANCH   1   2
BRANCH   1   9
ATOM      9  C   UNL     1     104.786 101.390 102.944  1.00  0.00     0.100 C 
BRANCH   9  10
ATOM     10  C   UNL     1     103.313 101.109 102.871  1.00  0.00     0.220 C 
ATOM     11  O   UNL     1     102.679 100.857 103.931  1.00  0.00    -0.275 OA
ATOM     12  N   UNL     1     102.643 101.078 101.601  1.00  0.00    -0.352 N 
ATOM     13  H   UNL     1     103.185 101.339 100.747  1.00  0.00     0.163 HD
BRANCH  12  14
ATOM     14  C   UNL     1     101.380 100.371 101.407  1.00  0.00     0.151 C 
BRANCH  14  15
ATOM     15  C   UNL     1     101.215 100.030  99.951  1.00  0.00    -0.025 A 
ATOM     16  C   UNL     1     100.558  98.846  99.574  1.00  0.00     0.056 A 
ATOM     17  C   UNL     1     101.812 100.831  98.968  1.00  0.00     0.009 A 
ATOM     18  C   UNL     1     100.508  98.455  98.222  1.00  0.00     0.160 A 
ATOM     19  C   UNL     1     101.741 100.464  97.624  1.00  0.00     0.050 A 
ATOM     20  C   UNL     1     101.094  99.278  97.248  1.00  0.00     0.157 A 
BRANCH  18  21
ATOM     21  O   UNL     1      99.901  97.257  97.814  1.00  0.00    -0.493 OA
ATOM     22  C   UNL     1     100.505  95.973  97.919  1.00  0.00     0.278 C 
ENDBRANCH  18  21
BRANCH  20  23
ATOM     23  O   UNL     1     101.037  98.904  95.907  1.00  0.00    -0.504 OA
ATOM     24  H   UNL     1     100.156  98.678  95.458  1.00  0.00     0.293 HD
ENDBRANCH  20  23
ENDBRANCH  14  15
ENDBRANCH  12  14
ENDBRANCH   9  10
ENDBRANCH   1   9
TORSDOF 10
ENDMDL
MODEL 8
REMARK VINA RESULT:    -4.051      4.228      6.168
REMARK INTER + INTRA:          -7.970
REMARK INTER:                  -6.888
REMARK INTRA:                  -1.081
REMARK UNBOUND:                -1.669
REMARK SMILES COc1cc(CNC(=O)CCCCC=CC(C)C)ccc1O
REMARK SMILES IDX 11 1 12 2 13 3 14 4 15 5 16 6 17 7 18 8 10 9 8 10 9 11 7 12
REMARK SMILES IDX 6 14 5 15 4 16 19 17 3 18 20 19 21 20 2 21 1 22 22 23
REMARK H PARENT 7 13 22 24
REMARK Flexibility Score: inf
ROOT
ATOM      1  C   UNL     1      97.491 105.174 104.449  1.00  0.00     0.010 C 
ENDROOT
BRANCH   1   2
ATOM      2  C   UNL     1      96.656 106.102 103.553  1.00  0.00     0.005 C 
BRANCH   2   3
ATOM      3  C   UNL     1      97.426 107.375 103.171  1.00  0.00     0.027 C 
BRANCH   3   4
ATOM      4  C   UNL     1      97.272 108.451 104.215  1.00  0.00    -0.031 C 
ATOM      5  C   UNL     1      98.292 109.009 104.894  1.00  0.00    -0.028 C 
BRANCH   5   6
ATOM      6  C   UNL     1      99.740 108.576 104.777  1.00  0.00     0.005 C 
ATOM      7  C   UNL     1     100.660 109.794 104.888  1.00  0.00     0.012 C 
ATOM      8  C   UNL     1     100.066 107.554 105.868  1.00  0.00     0.012 C 
ENDBRANCH   5   6
ENDBRANCH   3   4
ENDBRANCH   2   3
ENDBRANCH   1   2
BRANCH   1   9
ATOM      9  C   UNL     1      98.784 104.705 103.766  1.00  0.00     0.100 C 
BRANCH   9  10
ATOM     10  C   UNL     1      98.608 103.370 103.102  1.00  0.00     0.220 C 
ATOM     11  O   UNL     1      97.696 102.597 103.504  1.00  0.00    -0.275 OA
ATOM     12  N   UNL     1      99.499 102.958 102.055  1.00  0.00    -0.352 N 
ATOM     13  H   UNL     1     100.212 103.640 101.712  1.00  0.00     0.163 HD
BRANCH  12  14
ATOM     14  C   UNL     1      99.690 101.552 101.706  1.00  0.00     0.151 C 
BRANCH  14  15
ATOM     15  C   UNL     1      99.916 101.430 100.224  1.00  0.00    -0.025 A 
ATOM     16  C   UNL     1     101.017 100.707  99.736  1.00  0.00     0.056 A 
ATOM     17  C   UNL     1      99.096 102.129  99.327  1.00  0.00     0.009 A 
ATOM     18  C   UNL     1     101.309 100.690  98.358  1.00  0.00     0.160 A 
ATOM     19  C   UNL     1      99.364 102.092  97.958  1.00  0.00     0.050 A 
ATOM     20  C   UNL     1     100.468 101.378  97.471  1.00  0.00     0.157 A 
BRANCH  18  21
ATOM     21  O   UNL     1     102.426 100.016  97.840  1.00  0.00    -0.493 OA
ATOM     22  C   UNL     1     103.744 100.555  97.801  1.00  0.00     0.278 C 
ENDBRANCH  18  21
BRANCH  20  23
ATOM     23  O   UNL     1     100.742 101.356  96.105  1.00  0.00    -0.504 OA
ATOM     24  H   UNL     1     100.006 101.468  95.416  1.00  0.00     0.293 HD
ENDBRANCH  20  23
ENDBRANCH  14  15
ENDBRANCH  12  14
ENDBRANCH   9  10
ENDBRANCH   1   9
TORSDOF 10
ENDMDL
MODEL 9
REMARK VINA RESULT:    -4.024      5.075      8.407
REMARK INTER + INTRA:          -7.928
REMARK INTER:                  -6.644
REMARK INTRA:                  -1.284
REMARK UNBOUND:                -1.669
REMARK SMILES COc1cc(CNC(=O)CCCCC=CC(C)C)ccc1O
REMARK SMILES IDX 11 1 12 2 13 3 14 4 15 5 16 6 17 7 18 8 10 9 8 10 9 11 7 12
REMARK SMILES IDX 6 14 5 15 4 16 19 17 3 18 20 19 21 20 2 21 1 22 22 23
REMARK H PARENT 7 13 22 24
REMARK Flexibility Score: inf
ROOT
ATOM      1  C   UNL     1      94.931 100.370 103.514  1.00  0.00     0.010 C 
ENDROOT
BRANCH   1   2
ATOM      2  C   UNL     1      94.694  99.271 102.467  1.00  0.00     0.005 C 
BRANCH   2   3
ATOM      3  C   UNL     1      93.254  99.291 101.933  1.00  0.00     0.027 C 
BRANCH   3   4
ATOM      4  C   UNL     1      92.792  97.914 101.529  1.00  0.00    -0.031 C 
ATOM      5  C   UNL     1      92.155  97.053 102.345  1.00  0.00    -0.028 C 
BRANCH   5   6
ATOM      6  C   UNL     1      91.887  97.301 103.816  1.00  0.00     0.005 C 
ATOM      7  C   UNL     1      90.540  96.691 104.212  1.00  0.00     0.012 C 
ATOM      8  C   UNL     1      93.016  96.704 104.658  1.00  0.00     0.012 C 
ENDBRANCH   5   6
ENDBRANCH   3   4
ENDBRANCH   2   3
ENDBRANCH   1   2
BRANCH   1   9
ATOM      9  C   UNL     1      96.112 100.054 104.442  1.00  0.00     0.100 C 
BRANCH   9  10
ATOM     10  C   UNL     1      97.380 100.703 103.968  1.00  0.00     0.220 C 
ATOM     11  O   UNL     1      97.528 101.947 104.111  1.00  0.00    -0.275 OA
ATOM     12  N   UNL     1      98.392  99.923 103.312  1.00  0.00    -0.352 N 
ATOM     13  H   UNL     1      98.261  98.889 103.252  1.00  0.00     0.163 HD
BRANCH  12  14
ATOM     14  C   UNL     1      99.389 100.528 102.432  1.00  0.00     0.151 C 
BRANCH  14  15
ATOM     15  C   UNL     1      98.933 100.412 101.003  1.00  0.00    -0.025 A 
ATOM     16  C   UNL     1      99.278 101.403 100.069  1.00  0.00     0.056 A 
ATOM     17  C   UNL     1      98.068  99.376 100.622  1.00  0.00     0.009 A 
ATOM     18  C   UNL     1      98.755 101.370  98.763  1.00  0.00     0.160 A 
ATOM     19  C   UNL     1      97.569  99.322  99.320  1.00  0.00     0.050 A 
ATOM     20  C   UNL     1      97.907 100.316  98.391  1.00  0.00     0.157 A 
BRANCH  18  21
ATOM     21  O   UNL     1      99.042 102.367  97.818  1.00  0.00    -0.493 OA
ATOM     22  C   UNL     1      99.403 103.705  98.145  1.00  0.00     0.278 C 
ENDBRANCH  18  21
BRANCH  20  23
ATOM     23  O   UNL     1      97.394 100.269  97.096  1.00  0.00    -0.504 OA
ATOM     24  H   UNL     1      97.042 101.102  96.636  1.00  0.00     0.293 HD
ENDBRANCH  20  23
ENDBRANCH  14  15
ENDBRANCH  12  14
ENDBRANCH   9  10
ENDBRANCH   1   9
TORSDOF 10
ENDMDL
