MODEL 1
REMARK VINA RESULT:    -2.704      0.000      0.000
REMARK INTER + INTRA:          -3.211
REMARK INTER:                  -3.179
REMARK INTRA:                  -0.033
REMARK UNBOUND:                -0.033
REMARK SMILES CCCCC(=O)[O-]
REMARK SMILES IDX 4 1 5 2 6 3 7 4 3 5 2 6 1 7
REMARK H PARENT
REMARK Flexibility Score: inf
ROOT
ATOM      1  C   UNL     1       7.346  11.445   7.822  1.00  0.00     0.053 C 
ENDROOT
BRANCH   1   2
ATOM      2  C   UNL     1       8.794  11.784   7.981  1.00  0.00     0.041 C 
ATOM      3  O   UNL     1       9.423  11.413   9.007  1.00  0.00    -0.550 OA
ATOM      4  O   UNL     1       9.437  12.552   7.020  1.00  0.00    -0.550 OA
ENDBRANCH   1   2
BRANCH   1   5
ATOM      5  C   UNL     1       6.502  12.720   7.739  1.00  0.00     0.006 C 
BRANCH   5   6
ATOM      6  C   UNL     1       5.007  12.398   7.852  1.00  0.00    -0.003 C 
ATOM      7  C   UNL     1       4.740  10.921   7.580  1.00  0.00     0.004 C 
ENDBRANCH   5   6
ENDBRANCH   1   5
TORSDOF 3
ENDMDL
MODEL 2
REMARK VINA RESULT:    -2.692      1.386      2.098
REMARK INTER + INTRA:          -3.197
REMARK INTER:                  -3.162
REMARK INTRA:                  -0.034
REMARK UNBOUND:                -0.033
REMARK SMILES CCCCC(=O)[O-]
REMARK SMILES IDX 4 1 5 2 6 3 7 4 3 5 2 6 1 7
REMARK H PARENT
REMARK Flexibility Score: inf
ROOT
ATOM      1  C   UNL     1       6.213  12.818   7.747  1.00  0.00     0.053 C 
ENDROOT
BRANCH   1   2
ATOM      2  C   UNL     1       7.618  13.179   8.109  1.00  0.00     0.041 C 
ATOM      3  O   UNL     1       8.373  13.720   7.259  1.00  0.00    -0.550 OA
ATOM      4  O   UNL     1       8.111  12.873   9.371  1.00  0.00    -0.550 OA
ENDBRANCH   1   2
BRANCH   1   5
ATOM      5  C   UNL     1       6.018  11.299   7.800  1.00  0.00     0.006 C 
BRANCH   5   6
ATOM      6  C   UNL     1       4.557  10.923   7.525  1.00  0.00    -0.003 C 
ATOM      7  C   UNL     1       3.629  12.112   7.753  1.00  0.00     0.004 C 
ENDBRANCH   5   6
ENDBRANCH   1   5
TORSDOF 3
ENDMDL
MODEL 3
REMARK VINA RESULT:    -2.684      2.274      3.305
REMARK INTER + INTRA:          -3.187
REMARK INTER:                  -3.073
REMARK INTRA:                  -0.114
REMARK UNBOUND:                -0.033
REMARK SMILES CCCCC(=O)[O-]
REMARK SMILES IDX 4 1 5 2 6 3 7 4 3 5 2 6 1 7
REMARK H PARENT
REMARK Flexibility Score: inf
ROOT
ATOM      1  C   UNL     1       7.951  12.064   8.669  1.00  0.00     0.053 C 
ENDROOT
BRANCH   1   2
ATOM      2  C   UNL     1       7.733  13.178   7.695  1.00  0.00     0.041 C 
ATOM      3  O   UNL     1       6.564  13.543   7.400  1.00  0.00    -0.550 OA
ATOM      4  O   UNL     1       8.819  13.782   7.075  1.00  0.00    -0.550 OA
ENDBRANCH   1   2
BRANCH   1   5
ATOM      5  C   UNL     1       9.059  11.129   8.175  1.00  0.00     0.006 C 
BRANCH   5   6
ATOM      6  C   UNL     1       8.565  10.258   7.014  1.00  0.00    -0.003 C 
ATOM      7  C   UNL     1       9.649  10.086   5.954  1.00  0.00     0.004 C 
ENDBRANCH   5   6
ENDBRANCH   1   5
TORSDOF 3
ENDMDL
MODEL 4
REMARK VINA RESULT:    -2.659      2.225      3.663
REMARK INTER + INTRA:          -3.158
REMARK INTER:                  -3.054
REMARK INTRA:                  -0.104
REMARK UNBOUND:                -0.033
REMARK SMILES CCCCC(=O)[O-]
REMARK SMILES IDX 4 1 5 2 6 3 7 4 3 5 2 6 1 7
REMARK H PARENT
REMARK Flexibility Score: inf
ROOT
ATOM      1  C   UNL     1       7.845  10.627   7.449  1.00  0.00     0.053 C 
ENDROOT
BRANCH   1   2
ATOM      2  C   UNL     1       8.723  11.709   7.990  1.00  0.00     0.041 C 
ATOM      3  O   UNL     1       9.458  11.490   8.989  1.00  0.00    -0.550 OA
ATOM      4  O   UNL     1       8.694  12.977   7.423  1.00  0.00    -0.550 OA
ENDBRANCH   1   2
BRANCH   1   5
ATOM      5  C   UNL     1       8.690   9.458   6.934  1.00  0.00     0.006 C 
BRANCH   5   6
ATOM      6  C   UNL     1       9.583   9.897   5.768  1.00  0.00    -0.003 C 
ATOM      7  C   UNL     1      10.833   9.028   5.672  1.00  0.00     0.004 C 
ENDBRANCH   5   6
ENDBRANCH   1   5
TORSDOF 3
ENDMDL
MODEL 5
REMARK VINA RESULT:    -2.618      0.931      1.848
REMARK INTER + INTRA:          -3.109
REMARK INTER:                  -3.084
REMARK INTRA:                  -0.025
REMARK UNBOUND:                -0.033
REMARK SMILES CCCCC(=O)[O-]
REMARK SMILES IDX 4 1 5 2 6 3 7 4 3 5 2 6 1 7
REMARK H PARENT
REMARK Flexibility Score: inf
ROOT
ATOM      1  C   UNL     1       7.425  11.086   7.508  1.00  0.00     0.053 C 
ENDROOT
BRANCH   1   2
ATOM      2  C   UNL     1       8.687  11.757   7.946  1.00  0.00     0.041 C 
ATOM      3  O   UNL     1       9.456  12.280   7.096  1.00  0.00    -0.550 OA
ATOM      4  O   UNL     1       9.041  11.763   9.289  1.00  0.00    -0.550 OA
ENDBRANCH   1   2
BRANCH   1   5
ATOM      5  C   UNL     1       6.203  11.883   7.975  1.00  0.00     0.006 C 
BRANCH   5   6
ATOM      6  C   UNL     1       6.325  13.359   7.576  1.00  0.00    -0.003 C 
ATOM      7  C   UNL     1       4.958  14.036   7.545  1.00  0.00     0.004 C 
ENDBRANCH   5   6
ENDBRANCH   1   5
TORSDOF 3
ENDMDL
MODEL 6
REMARK VINA RESULT:    -2.481     11.190     12.282
REMARK INTER + INTRA:          -2.948
REMARK INTER:                  -2.926
REMARK INTRA:                  -0.022
REMARK UNBOUND:                -0.033
REMARK SMILES CCCCC(=O)[O-]
REMARK SMILES IDX 4 1 5 2 6 3 7 4 3 5 2 6 1 7
REMARK H PARENT
REMARK Flexibility Score: inf
ROOT
ATOM      1  C   UNL     1      13.744  14.026  -1.875  1.00  0.00     0.053 C 
ENDROOT
BRANCH   1   2
ATOM      2  C   UNL     1      12.367  13.459  -2.008  1.00  0.00     0.041 C 
ATOM      3  O   UNL     1      12.075  12.365  -1.456  1.00  0.00    -0.550 OA
ATOM      4  O   UNL     1      11.417  14.113  -2.783  1.00  0.00    -0.550 OA
ENDBRANCH   1   2
BRANCH   1   5
ATOM      5  C   UNL     1      14.745  12.925  -1.515  1.00  0.00     0.006 C 
BRANCH   5   6
ATOM      6  C   UNL     1      16.121  13.519  -1.187  1.00  0.00    -0.003 C 
ATOM      7  C   UNL     1      17.023  12.484  -0.520  1.00  0.00     0.004 C 
ENDBRANCH   5   6
ENDBRANCH   1   5
TORSDOF 3
ENDMDL
MODEL 7
REMARK VINA RESULT:    -2.423      2.220      3.427
REMARK INTER + INTRA:          -2.881
REMARK INTER:                  -2.841
REMARK INTRA:                  -0.040
REMARK UNBOUND:                -0.033
REMARK SMILES CCCCC(=O)[O-]
REMARK SMILES IDX 4 1 5 2 6 3 7 4 3 5 2 6 1 7
REMARK H PARENT
REMARK Flexibility Score: inf
ROOT
ATOM      1  C   UNL     1       7.748  12.328   7.871  1.00  0.00     0.053 C 
ENDROOT
BRANCH   1   2
ATOM      2  C   UNL     1       7.633  12.382   9.360  1.00  0.00     0.041 C 
ATOM      3  O   UNL     1       6.506  12.529   9.905  1.00  0.00    -0.550 OA
ATOM      4  O   UNL     1       8.775  12.321  10.148  1.00  0.00    -0.550 OA
ENDBRANCH   1   2
BRANCH   1   5
ATOM      5  C   UNL     1       9.040  11.616   7.458  1.00  0.00     0.006 C 
BRANCH   5   6
ATOM      6  C   UNL     1       8.740  10.234   6.864  1.00  0.00    -0.003 C 
ATOM      7  C   UNL     1       9.753   9.868   5.784  1.00  0.00     0.004 C 
ENDBRANCH   5   6
ENDBRANCH   1   5
TORSDOF 3
ENDMDL
MODEL 8
REMARK VINA RESULT:    -2.388      2.193      3.086
REMARK INTER + INTRA:          -2.840
REMARK INTER:                  -2.735
REMARK INTRA:                  -0.104
REMARK UNBOUND:                -0.033
REMARK SMILES CCCCC(=O)[O-]
REMARK SMILES IDX 4 1 5 2 6 3 7 4 3 5 2 6 1 7
REMARK H PARENT
REMARK Flexibility Score: inf
ROOT
ATOM      1  C   UNL     1       9.411  10.596   6.422  1.00  0.00     0.053 C 
ENDROOT
BRANCH   1   2
ATOM      2  C   UNL     1       9.309  11.770   7.343  1.00  0.00     0.041 C 
ATOM      3  O   UNL     1       9.398  12.942   6.889  1.00  0.00    -0.550 OA
ATOM      4  O   UNL     1       9.165  11.571   8.710  1.00  0.00    -0.550 OA
ENDBRANCH   1   2
BRANCH   1   5
ATOM      5  C   UNL     1       9.110   9.296   7.175  1.00  0.00     0.006 C 
BRANCH   5   6
ATOM      6  C   UNL     1       7.795   8.674   6.693  1.00  0.00    -0.003 C 
ATOM      7  C   UNL     1       6.611   9.187   7.508  1.00  0.00     0.004 C 
ENDBRANCH   5   6
ENDBRANCH   1   5
TORSDOF 3
ENDMDL
MODEL 9
REMARK VINA RESULT:    -2.381     12.072     12.555
REMARK INTER + INTRA:          -2.831
REMARK INTER:                  -2.723
REMARK INTRA:                  -0.108
REMARK UNBOUND:                -0.033
REMARK SMILES CCCCC(=O)[O-]
REMARK SMILES IDX 4 1 5 2 6 3 7 4 3 5 2 6 1 7
REMARK H PARENT
REMARK Flexibility Score: inf
ROOT
ATOM      1  C   UNL     1      12.505  15.196  -3.221  1.00  0.00     0.053 C 
ENDROOT
BRANCH   1   2
ATOM      2  C   UNL     1      11.352  14.249  -3.313  1.00  0.00     0.041 C 
ATOM      3  O   UNL     1      10.176  14.689  -3.412  1.00  0.00    -0.550 OA
ATOM      4  O   UNL     1      11.570  12.879  -3.241  1.00  0.00    -0.550 OA
ENDBRANCH   1   2
BRANCH   1   5
ATOM      5  C   UNL     1      13.232  15.028  -1.883  1.00  0.00     0.006 C 
BRANCH   5   6
ATOM      6  C   UNL     1      14.626  14.423  -2.087  1.00  0.00    -0.003 C 
ATOM      7  C   UNL     1      14.698  13.005  -1.530  1.00  0.00     0.004 C 
ENDBRANCH   5   6
ENDBRANCH   1   5
TORSDOF 3
ENDMDL
