MODEL 1
REMARK VINA RESULT:    -4.667      0.000      0.000
REMARK INTER + INTRA:          -5.696
REMARK INTER:                  -5.485
REMARK INTRA:                  -0.210
REMARK UNBOUND:                -0.210
REMARK SMILES CCC=Cc1oc(O)c2ccc(O)cc12
REMARK SMILES IDX 7 1 6 2 5 3 15 4 14 5 12 6 11 7 10 8 9 9 8 10 4 12 3 13 2 14
REMARK SMILES IDX 1 15 13 16
REMARK H PARENT 8 11 13 17
REMARK Flexibility Score: inf
ROOT
ATOM      1  C   UNL     1      43.631  29.784  27.582  1.00  0.00     0.290 A 
ATOM      2  O   UNL     1      43.822  30.452  26.462  1.00  0.00    -0.425 OA
ATOM      3  C   UNL     1      45.115  30.469  26.191  1.00  0.00     0.138 A 
ATOM      4  C   UNL     1      45.790  29.758  27.178  1.00  0.00     0.035 A 
ATOM      5  C   UNL     1      47.133  29.398  27.331  1.00  0.00     0.059 A 
ATOM      6  C   UNL     1      47.486  28.622  28.452  1.00  0.00     0.116 A 
ATOM      7  C   UNL     1      46.495  28.212  29.377  1.00  0.00     0.047 A 
ATOM      8  C   UNL     1      45.148  28.562  29.181  1.00  0.00     0.020 A 
ATOM      9  C   UNL     1      44.835  29.333  28.064  1.00  0.00     0.067 A 
ENDROOT
BRANCH   1  10
ATOM     10  O   UNL     1      42.389  29.569  28.167  1.00  0.00    -0.480 OA
ATOM     11  H   UNL     1      42.011  30.236  28.828  1.00  0.00     0.297 HD
ENDBRANCH   1  10
BRANCH   3  12
ATOM     12  C   UNL     1      45.668  31.141  25.003  1.00  0.00     0.043 C 
ATOM     13  C   UNL     1      45.712  32.472  24.879  1.00  0.00    -0.023 C 
BRANCH  13  14
ATOM     14  C   UNL     1      46.244  33.125  23.637  1.00  0.00     0.024 C 
ATOM     15  C   UNL     1      45.222  33.079  22.505  1.00  0.00     0.008 C 
ENDBRANCH  13  14
ENDBRANCH   3  12
BRANCH   6  16
ATOM     16  O   UNL     1      48.818  28.256  28.636  1.00  0.00    -0.508 OA
ATOM     17  H   UNL     1      49.069  27.387  29.093  1.00  0.00     0.293 HD
ENDBRANCH   6  16
TORSDOF 4
ENDMDL
MODEL 2
REMARK VINA RESULT:    -4.626      1.157      3.306
REMARK INTER + INTRA:          -5.648
REMARK INTER:                  -5.397
REMARK INTRA:                  -0.251
REMARK UNBOUND:                -0.210
REMARK SMILES CCC=Cc1oc(O)c2ccc(O)cc12
REMARK SMILES IDX 7 1 6 2 5 3 15 4 14 5 12 6 11 7 10 8 9 9 8 10 4 12 3 13 2 14
REMARK SMILES IDX 1 15 13 16
REMARK H PARENT 8 11 13 17
REMARK Flexibility Score: inf
ROOT
ATOM      1  C   UNL     1      46.797  29.111  28.024  1.00  0.00     0.290 A 
ATOM      2  O   UNL     1      47.200  29.820  26.989  1.00  0.00    -0.425 OA
ATOM      3  C   UNL     1      46.141  30.226  26.311  1.00  0.00     0.138 A 
ATOM      4  C   UNL     1      44.995  29.771  26.954  1.00  0.00     0.035 A 
ATOM      5  C   UNL     1      43.632  29.981  26.718  1.00  0.00     0.059 A 
ATOM      6  C   UNL     1      42.708  29.393  27.603  1.00  0.00     0.116 A 
ATOM      7  C   UNL     1      43.164  28.630  28.707  1.00  0.00     0.047 A 
ATOM      8  C   UNL     1      44.540  28.461  28.938  1.00  0.00     0.020 A 
ATOM      9  C   UNL     1      45.424  29.054  28.041  1.00  0.00     0.067 A 
ENDROOT
BRANCH   1  10
ATOM     10  O   UNL     1      47.646  28.526  28.955  1.00  0.00    -0.480 OA
ATOM     11  H   UNL     1      47.289  27.852  29.622  1.00  0.00     0.297 HD
ENDBRANCH   1  10
BRANCH   3  12
ATOM     12  C   UNL     1      46.246  31.043  25.090  1.00  0.00     0.043 C 
ATOM     13  C   UNL     1      45.891  32.332  25.049  1.00  0.00    -0.023 C 
BRANCH  13  14
ATOM     14  C   UNL     1      45.971  33.125  23.778  1.00  0.00     0.024 C 
ATOM     15  C   UNL     1      44.636  33.124  23.039  1.00  0.00     0.008 C 
ENDBRANCH  13  14
ENDBRANCH   3  12
BRANCH   6  16
ATOM     16  O   UNL     1      41.344  29.577  27.387  1.00  0.00    -0.508 OA
ATOM     17  H   UNL     1      40.779  30.132  28.019  1.00  0.00     0.293 HD
ENDBRANCH   6  16
TORSDOF 4
ENDMDL
MODEL 3
REMARK VINA RESULT:    -4.383      1.487      2.144
REMARK INTER + INTRA:          -5.362
REMARK INTER:                  -5.128
REMARK INTRA:                  -0.234
REMARK UNBOUND:                -0.210
REMARK SMILES CCC=Cc1oc(O)c2ccc(O)cc12
REMARK SMILES IDX 7 1 6 2 5 3 15 4 14 5 12 6 11 7 10 8 9 9 8 10 4 12 3 13 2 14
REMARK SMILES IDX 1 15 13 16
REMARK H PARENT 8 11 13 17
REMARK Flexibility Score: inf
ROOT
ATOM      1  C   UNL     1      42.422  28.144  28.288  1.00  0.00     0.290 A 
ATOM      2  O   UNL     1      42.583  29.108  27.404  1.00  0.00    -0.425 OA
ATOM      3  C   UNL     1      43.864  29.428  27.350  1.00  0.00     0.138 A 
ATOM      4  C   UNL     1      44.567  28.615  28.232  1.00  0.00     0.035 A 
ATOM      5  C   UNL     1      45.932  28.474  28.503  1.00  0.00     0.059 A 
ATOM      6  C   UNL     1      46.323  27.506  29.448  1.00  0.00     0.116 A 
ATOM      7  C   UNL     1      45.350  26.695  30.083  1.00  0.00     0.047 A 
ATOM      8  C   UNL     1      43.988  26.836  29.768  1.00  0.00     0.020 A 
ATOM      9  C   UNL     1      43.637  27.806  28.831  1.00  0.00     0.067 A 
ENDROOT
BRANCH   1  10
ATOM     10  O   UNL     1      41.200  27.563  28.603  1.00  0.00    -0.480 OA
ATOM     11  H   UNL     1      40.519  28.069  29.155  1.00  0.00     0.297 HD
ENDBRANCH   1  10
BRANCH   3  12
ATOM     12  C   UNL     1      44.382  30.479  26.457  1.00  0.00     0.043 C 
ATOM     13  C   UNL     1      44.115  30.512  25.147  1.00  0.00    -0.023 C 
BRANCH  13  14
ATOM     14  C   UNL     1      44.693  31.573  24.258  1.00  0.00     0.024 C 
ATOM     15  C   UNL     1      45.910  32.232  24.899  1.00  0.00     0.008 C 
ENDBRANCH  13  14
ENDBRANCH   3  12
BRANCH   6  16
ATOM     16  O   UNL     1      47.675  27.350  29.746  1.00  0.00    -0.508 OA
ATOM     17  H   UNL     1      48.079  27.736  30.591  1.00  0.00     0.293 HD
ENDBRANCH   6  16
TORSDOF 4
ENDMDL
MODEL 4
REMARK VINA RESULT:    -4.380     12.964     14.767
REMARK INTER + INTRA:          -5.359
REMARK INTER:                  -5.090
REMARK INTRA:                  -0.268
REMARK UNBOUND:                -0.210
REMARK SMILES CCC=Cc1oc(O)c2ccc(O)cc12
REMARK SMILES IDX 7 1 6 2 5 3 15 4 14 5 12 6 11 7 10 8 9 9 8 10 4 12 3 13 2 14
REMARK SMILES IDX 1 15 13 16
REMARK H PARENT 8 11 13 17
REMARK Flexibility Score: inf
ROOT
ATOM      1  C   UNL     1      29.986  31.935  26.576  1.00  0.00     0.290 A 
ATOM      2  O   UNL     1      29.345  31.845  25.428  1.00  0.00    -0.425 OA
ATOM      3  C   UNL     1      30.210  32.009  24.443  1.00  0.00     0.138 A 
ATOM      4  C   UNL     1      31.478  32.196  24.984  1.00  0.00     0.035 A 
ATOM      5  C   UNL     1      32.743  32.328  24.404  1.00  0.00     0.059 A 
ATOM      6  C   UNL     1      33.853  32.466  25.259  1.00  0.00     0.116 A 
ATOM      7  C   UNL     1      33.677  32.451  26.665  1.00  0.00     0.047 A 
ATOM      8  C   UNL     1      32.397  32.286  27.221  1.00  0.00     0.020 A 
ATOM      9  C   UNL     1      31.322  32.156  26.346  1.00  0.00     0.067 A 
ENDROOT
BRANCH   1  10
ATOM     10  O   UNL     1      29.385  31.812  27.823  1.00  0.00    -0.480 OA
ATOM     11  H   UNL     1      29.916  31.992  28.667  1.00  0.00     0.297 HD
ENDBRANCH   1  10
BRANCH   3  12
ATOM     12  C   UNL     1      29.815  31.969  23.024  1.00  0.00     0.043 C 
ATOM     13  C   UNL     1      29.916  30.865  22.276  1.00  0.00    -0.023 C 
BRANCH  13  14
ATOM     14  C   UNL     1      29.543  30.867  20.823  1.00  0.00     0.024 C 
ATOM     15  C   UNL     1      30.610  31.559  19.979  1.00  0.00     0.008 C 
ENDBRANCH  13  14
ENDBRANCH   3  12
BRANCH   6  16
ATOM     16  O   UNL     1      35.125  32.609  24.709  1.00  0.00    -0.508 OA
ATOM     17  H   UNL     1      35.387  33.439  24.190  1.00  0.00     0.293 HD
ENDBRANCH   6  16
TORSDOF 4
ENDMDL
MODEL 5
REMARK VINA RESULT:    -4.347      1.442      3.420
REMARK INTER + INTRA:          -5.320
REMARK INTER:                  -5.125
REMARK INTRA:                  -0.194
REMARK UNBOUND:                -0.210
REMARK SMILES CCC=Cc1oc(O)c2ccc(O)cc12
REMARK SMILES IDX 7 1 6 2 5 3 15 4 14 5 12 6 11 7 10 8 9 9 8 10 4 12 3 13 2 14
REMARK SMILES IDX 1 15 13 16
REMARK H PARENT 8 11 13 17
REMARK Flexibility Score: inf
ROOT
ATOM      1  C   UNL     1      47.288  28.649  28.582  1.00  0.00     0.290 A 
ATOM      2  O   UNL     1      47.294  29.510  27.584  1.00  0.00    -0.425 OA
ATOM      3  C   UNL     1      46.060  29.643  27.128  1.00  0.00     0.138 A 
ATOM      4  C   UNL     1      45.213  28.840  27.885  1.00  0.00     0.035 A 
ATOM      5  C   UNL     1      43.825  28.671  27.888  1.00  0.00     0.059 A 
ATOM      6  C   UNL     1      43.267  27.788  28.833  1.00  0.00     0.116 A 
ATOM      7  C   UNL     1      44.101  27.114  29.758  1.00  0.00     0.047 A 
ATOM      8  C   UNL     1      45.490  27.328  29.754  1.00  0.00     0.020 A 
ATOM      9  C   UNL     1      46.007  28.204  28.804  1.00  0.00     0.067 A 
ENDROOT
BRANCH   1  10
ATOM     10  O   UNL     1      48.416  28.268  29.298  1.00  0.00    -0.480 OA
ATOM     11  H   UNL     1      49.317  28.684  29.094  1.00  0.00     0.297 HD
ENDBRANCH   1  10
BRANCH   3  12
ATOM     12  C   UNL     1      45.721  30.535  26.007  1.00  0.00     0.043 C 
ATOM     13  C   UNL     1      46.583  30.827  25.028  1.00  0.00    -0.023 C 
BRANCH  13  14
ATOM     14  C   UNL     1      46.220  31.772  23.921  1.00  0.00     0.024 C 
ATOM     15  C   UNL     1      45.776  33.125  24.470  1.00  0.00     0.008 C 
ENDBRANCH  13  14
ENDBRANCH   3  12
BRANCH   6  16
ATOM     16  O   UNL     1      41.888  27.592  28.852  1.00  0.00    -0.508 OA
ATOM     17  H   UNL     1      41.485  26.662  28.843  1.00  0.00     0.293 HD
ENDBRANCH   6  16
TORSDOF 4
ENDMDL
MODEL 6
REMARK VINA RESULT:    -4.306     11.375     13.351
REMARK INTER + INTRA:          -5.272
REMARK INTER:                  -5.048
REMARK INTRA:                  -0.224
REMARK UNBOUND:                -0.210
REMARK SMILES CCC=Cc1oc(O)c2ccc(O)cc12
REMARK SMILES IDX 7 1 6 2 5 3 15 4 14 5 12 6 11 7 10 8 9 9 8 10 4 12 3 13 2 14
REMARK SMILES IDX 1 15 13 16
REMARK H PARENT 8 11 13 17
REMARK Flexibility Score: inf
ROOT
ATOM      1  C   UNL     1      30.430  27.775  29.101  1.00  0.00     0.290 A 
ATOM      2  O   UNL     1      30.689  28.802  28.317  1.00  0.00    -0.425 OA
ATOM      3  C   UNL     1      31.982  28.817  28.046  1.00  0.00     0.138 A 
ATOM      4  C   UNL     1      32.585  27.731  28.673  1.00  0.00     0.035 A 
ATOM      5  C   UNL     1      33.891  27.231  28.650  1.00  0.00     0.059 A 
ATOM      6  C   UNL     1      34.166  26.061  29.383  1.00  0.00     0.116 A 
ATOM      7  C   UNL     1      33.133  25.411  30.102  1.00  0.00     0.047 A 
ATOM      8  C   UNL     1      31.822  25.918  30.083  1.00  0.00     0.020 A 
ATOM      9  C   UNL     1      31.587  27.078  29.350  1.00  0.00     0.067 A 
ENDROOT
BRANCH   1  10
ATOM     10  O   UNL     1      29.168  27.455  29.586  1.00  0.00    -0.480 OA
ATOM     11  H   UNL     1      28.586  28.166  30.010  1.00  0.00     0.297 HD
ENDBRANCH   1  10
BRANCH   3  12
ATOM     12  C   UNL     1      32.603  29.844  27.192  1.00  0.00     0.043 C 
ATOM     13  C   UNL     1      32.575  31.147  27.491  1.00  0.00    -0.023 C 
BRANCH  13  14
ATOM     14  C   UNL     1      33.181  32.172  26.579  1.00  0.00     0.024 C 
ATOM     15  C   UNL     1      34.649  31.865  26.298  1.00  0.00     0.008 C 
ENDBRANCH  13  14
ENDBRANCH   3  12
BRANCH   6  16
ATOM     16  O   UNL     1      35.460  25.546  29.386  1.00  0.00    -0.508 OA
ATOM     17  H   UNL     1      36.117  25.760  28.644  1.00  0.00     0.293 HD
ENDBRANCH   6  16
TORSDOF 4
ENDMDL
MODEL 7
REMARK VINA RESULT:    -4.281     11.794     14.075
REMARK INTER + INTRA:          -5.243
REMARK INTER:                  -4.987
REMARK INTRA:                  -0.256
REMARK UNBOUND:                -0.210
REMARK SMILES CCC=Cc1oc(O)c2ccc(O)cc12
REMARK SMILES IDX 7 1 6 2 5 3 15 4 14 5 12 6 11 7 10 8 9 9 8 10 4 12 3 13 2 14
REMARK SMILES IDX 1 15 13 16
REMARK H PARENT 8 11 13 17
REMARK Flexibility Score: inf
ROOT
ATOM      1  C   UNL     1      30.825  31.945  26.677  1.00  0.00     0.290 A 
ATOM      2  O   UNL     1      32.042  32.167  27.131  1.00  0.00    -0.425 OA
ATOM      3  C   UNL     1      32.859  32.323  26.103  1.00  0.00     0.138 A 
ATOM      4  C   UNL     1      32.125  32.212  24.926  1.00  0.00     0.035 A 
ATOM      5  C   UNL     1      32.468  32.376  23.580  1.00  0.00     0.059 A 
ATOM      6  C   UNL     1      31.452  32.229  22.616  1.00  0.00     0.116 A 
ATOM      7  C   UNL     1      30.124  31.943  23.016  1.00  0.00     0.047 A 
ATOM      8  C   UNL     1      29.801  31.815  24.378  1.00  0.00     0.020 A 
ATOM      9  C   UNL     1      30.831  31.963  25.304  1.00  0.00     0.067 A 
ENDROOT
BRANCH   1  10
ATOM     10  O   UNL     1      29.713  31.735  27.483  1.00  0.00    -0.480 OA
ATOM     11  H   UNL     1      29.820  31.610  28.482  1.00  0.00     0.297 HD
ENDBRANCH   1  10
BRANCH   3  12
ATOM     12  C   UNL     1      34.299  32.585  26.266  1.00  0.00     0.043 C 
ATOM     13  C   UNL     1      35.232  31.650  26.061  1.00  0.00    -0.023 C 
BRANCH  13  14
ATOM     14  C   UNL     1      36.689  31.939  26.275  1.00  0.00     0.024 C 
ATOM     15  C   UNL     1      36.887  33.125  27.215  1.00  0.00     0.008 C 
ENDBRANCH  13  14
ENDBRANCH   3  12
BRANCH   6  16
ATOM     16  O   UNL     1      31.766  32.377  21.267  1.00  0.00    -0.508 OA
ATOM     17  H   UNL     1      32.369  31.717  20.788  1.00  0.00     0.293 HD
ENDBRANCH   6  16
TORSDOF 4
ENDMDL
MODEL 8
REMARK VINA RESULT:    -4.271      3.150      6.297
REMARK INTER + INTRA:          -5.230
REMARK INTER:                  -4.970
REMARK INTRA:                  -0.261
REMARK UNBOUND:                -0.210
REMARK SMILES CCC=Cc1oc(O)c2ccc(O)cc12
REMARK SMILES IDX 7 1 6 2 5 3 15 4 14 5 12 6 11 7 10 8 9 9 8 10 4 12 3 13 2 14
REMARK SMILES IDX 1 15 13 16
REMARK H PARENT 8 11 13 17
REMARK Flexibility Score: inf
ROOT
ATOM      1  C   UNL     1      46.776  29.328  28.869  1.00  0.00     0.290 A 
ATOM      2  O   UNL     1      47.282  28.137  29.121  1.00  0.00    -0.425 OA
ATOM      3  C   UNL     1      46.299  27.256  29.168  1.00  0.00     0.138 A 
ATOM      4  C   UNL     1      45.098  27.911  28.914  1.00  0.00     0.035 A 
ATOM      5  C   UNL     1      43.785  27.451  28.762  1.00  0.00     0.059 A 
ATOM      6  C   UNL     1      42.784  28.395  28.463  1.00  0.00     0.116 A 
ATOM      7  C   UNL     1      43.117  29.763  28.307  1.00  0.00     0.047 A 
ATOM      8  C   UNL     1      44.449  30.192  28.434  1.00  0.00     0.020 A 
ATOM      9  C   UNL     1      45.412  29.233  28.733  1.00  0.00     0.067 A 
ENDROOT
BRANCH   1  10
ATOM     10  O   UNL     1      47.525  30.492  28.752  1.00  0.00    -0.480 OA
ATOM     11  H   UNL     1      48.408  30.485  28.255  1.00  0.00     0.297 HD
ENDBRANCH   1  10
BRANCH   3  12
ATOM     12  C   UNL     1      46.526  25.826  29.435  1.00  0.00     0.043 C 
ATOM     13  C   UNL     1      46.900  24.963  28.483  1.00  0.00    -0.023 C 
BRANCH  13  14
ATOM     14  C   UNL     1      47.083  23.504  28.779  1.00  0.00     0.024 C 
ATOM     15  C   UNL     1      45.827  22.902  29.401  1.00  0.00     0.008 C 
ENDBRANCH  13  14
ENDBRANCH   3  12
BRANCH   6  16
ATOM     16  O   UNL     1      41.466  27.968  28.315  1.00  0.00    -0.508 OA
ATOM     17  H   UNL     1      41.030  27.353  28.992  1.00  0.00     0.293 HD
ENDBRANCH   6  16
TORSDOF 4
ENDMDL
MODEL 9
REMARK VINA RESULT:    -4.235     11.757     13.978
REMARK INTER + INTRA:          -5.188
REMARK INTER:                  -4.938
REMARK INTRA:                  -0.250
REMARK UNBOUND:                -0.210
REMARK SMILES CCC=Cc1oc(O)c2ccc(O)cc12
REMARK SMILES IDX 7 1 6 2 5 3 15 4 14 5 12 6 11 7 10 8 9 9 8 10 4 12 3 13 2 14
REMARK SMILES IDX 1 15 13 16
REMARK H PARENT 8 11 13 17
REMARK Flexibility Score: inf
ROOT
ATOM      1  C   UNL     1      32.066  30.140  27.541  1.00  0.00     0.290 A 
ATOM      2  O   UNL     1      33.281  30.419  27.114  1.00  0.00    -0.425 OA
ATOM      3  C   UNL     1      33.191  31.101  25.985  1.00  0.00     0.138 A 
ATOM      4  C   UNL     1      31.846  31.286  25.680  1.00  0.00     0.035 A 
ATOM      5  C   UNL     1      31.198  31.998  24.665  1.00  0.00     0.059 A 
ATOM      6  C   UNL     1      29.789  32.017  24.666  1.00  0.00     0.116 A 
ATOM      7  C   UNL     1      29.068  31.344  25.682  1.00  0.00     0.047 A 
ATOM      8  C   UNL     1      29.746  30.663  26.707  1.00  0.00     0.020 A 
ATOM      9  C   UNL     1      31.138  30.662  26.674  1.00  0.00     0.067 A 
ENDROOT
BRANCH   1  10
ATOM     10  O   UNL     1      31.785  29.431  28.702  1.00  0.00    -0.480 OA
ATOM     11  H   UNL     1      32.034  29.811  29.607  1.00  0.00     0.297 HD
ENDBRANCH   1  10
BRANCH   3  12
ATOM     12  C   UNL     1      34.374  31.567  25.242  1.00  0.00     0.043 C 
ATOM     13  C   UNL     1      35.162  32.554  25.683  1.00  0.00    -0.023 C 
BRANCH  13  14
ATOM     14  C   UNL     1      36.336  33.034  24.882  1.00  0.00     0.024 C 
ATOM     15  C   UNL     1      35.995  33.125  23.398  1.00  0.00     0.008 C 
ENDBRANCH  13  14
ENDBRANCH   3  12
BRANCH   6  16
ATOM     16  O   UNL     1      29.116  32.709  23.662  1.00  0.00    -0.508 OA
ATOM     17  H   UNL     1      28.358  33.348  23.877  1.00  0.00     0.293 HD
ENDBRANCH   6  16
TORSDOF 4
ENDMDL
