MODEL 1
REMARK VINA RESULT:    -3.430      0.000      0.000
REMARK INTER + INTRA:          -4.203
REMARK INTER:                  -4.031
REMARK INTRA:                  -0.171
REMARK UNBOUND:                -0.171
REMARK SMILES CCOC(=O)C(C)C
REMARK SMILES IDX 4 1 5 2 3 3 2 4 1 5 6 6 7 7 8 8
REMARK H PARENT
REMARK Flexibility Score: inf
ROOT
ATOM      1  C   UNL     1      24.006  64.133 106.717  1.00  0.00     0.308 C 
ATOM      2  O   UNL     1      23.618  62.941 106.868  1.00  0.00    -0.252 OA
ENDROOT
BRANCH   1   3
ATOM      3  O   UNL     1      24.327  64.923 107.828  1.00  0.00    -0.466 OA
BRANCH   3   4
ATOM      4  C   UNL     1      23.389  65.266 108.845  1.00  0.00     0.229 C 
ATOM      5  C   UNL     1      22.897  66.697 108.664  1.00  0.00     0.049 C 
ENDBRANCH   3   4
ENDBRANCH   1   3
BRANCH   1   6
ATOM      6  C   UNL     1      24.124  64.718 105.339  1.00  0.00     0.093 C 
ATOM      7  C   UNL     1      25.126  65.876 105.331  1.00  0.00     0.019 C 
ATOM      8  C   UNL     1      24.524  63.640 104.327  1.00  0.00     0.019 C 
ENDBRANCH   1   6
TORSDOF 3
ENDMDL
MODEL 2
REMARK VINA RESULT:    -3.206     14.880     16.538
REMARK INTER + INTRA:          -3.940
REMARK INTER:                  -3.816
REMARK INTRA:                  -0.124
REMARK UNBOUND:                -0.171
REMARK SMILES CCOC(=O)C(C)C
REMARK SMILES IDX 4 1 5 2 3 3 2 4 1 5 6 6 7 7 8 8
REMARK H PARENT
REMARK Flexibility Score: inf
ROOT
ATOM      1  C   UNL     1      20.990  67.360  90.979  1.00  0.00     0.308 C 
ATOM      2  O   UNL     1      20.045  68.136  90.664  1.00  0.00    -0.252 OA
ENDROOT
BRANCH   1   3
ATOM      3  O   UNL     1      21.288  66.243  90.190  1.00  0.00    -0.466 OA
BRANCH   3   4
ATOM      4  C   UNL     1      21.903  66.331  88.906  1.00  0.00     0.229 C 
ATOM      5  C   UNL     1      23.200  65.531  88.875  1.00  0.00     0.049 C 
ENDBRANCH   3   4
ENDBRANCH   1   3
BRANCH   1   6
ATOM      6  C   UNL     1      21.804  67.628  92.213  1.00  0.00     0.093 C 
ATOM      7  C   UNL     1      20.902  67.688  93.449  1.00  0.00     0.019 C 
ATOM      8  C   UNL     1      22.895  66.566  92.381  1.00  0.00     0.019 C 
ENDBRANCH   1   6
TORSDOF 3
ENDMDL
MODEL 3
REMARK VINA RESULT:    -3.176      1.045      3.684
REMARK INTER + INTRA:          -3.905
REMARK INTER:                  -3.864
REMARK INTRA:                  -0.041
REMARK UNBOUND:                -0.171
REMARK SMILES CCOC(=O)C(C)C
REMARK SMILES IDX 4 1 5 2 3 3 2 4 1 5 6 6 7 7 8 8
REMARK H PARENT
REMARK Flexibility Score: inf
ROOT
ATOM      1  C   UNL     1      23.970  64.870 107.709  1.00  0.00     0.308 C 
ATOM      2  O   UNL     1      24.743  63.880 107.841  1.00  0.00    -0.252 OA
ENDROOT
BRANCH   1   3
ATOM      3  O   UNL     1      23.818  65.494 106.465  1.00  0.00    -0.466 OA
BRANCH   3   4
ATOM      4  C   UNL     1      24.750  65.351 105.396  1.00  0.00     0.229 C 
ATOM      5  C   UNL     1      24.387  64.156 104.522  1.00  0.00     0.049 C 
ENDBRANCH   3   4
ENDBRANCH   1   3
BRANCH   1   6
ATOM      6  C   UNL     1      23.207  65.392 108.893  1.00  0.00     0.093 C 
ATOM      7  C   UNL     1      22.867  66.872 108.703  1.00  0.00     0.019 C 
ATOM      8  C   UNL     1      21.939  64.563 109.125  1.00  0.00     0.019 C 
ENDBRANCH   1   6
TORSDOF 3
ENDMDL
MODEL 4
REMARK VINA RESULT:    -3.155      1.515      3.654
REMARK INTER + INTRA:          -3.879
REMARK INTER:                  -3.620
REMARK INTRA:                  -0.260
REMARK UNBOUND:                -0.171
REMARK SMILES CCOC(=O)C(C)C
REMARK SMILES IDX 4 1 5 2 3 3 2 4 1 5 6 6 7 7 8 8
REMARK H PARENT
REMARK Flexibility Score: inf
ROOT
ATOM      1  C   UNL     1      23.772  65.440 107.870  1.00  0.00     0.308 C 
ATOM      2  O   UNL     1      23.196  66.490 108.269  1.00  0.00    -0.252 OA
ENDROOT
BRANCH   1   3
ATOM      3  O   UNL     1      24.562  65.456 106.714  1.00  0.00    -0.466 OA
BRANCH   3   4
ATOM      4  C   UNL     1      24.021  65.446 105.395  1.00  0.00     0.229 C 
ATOM      5  C   UNL     1      24.393  64.157 104.671  1.00  0.00     0.049 C 
ENDBRANCH   3   4
ENDBRANCH   1   3
BRANCH   1   6
ATOM      6  C   UNL     1      23.612  64.157 108.634  1.00  0.00     0.093 C 
ATOM      7  C   UNL     1      22.266  63.503 108.311  1.00  0.00     0.019 C 
ATOM      8  C   UNL     1      24.772  63.202 108.335  1.00  0.00     0.019 C 
ENDBRANCH   1   6
TORSDOF 3
ENDMDL
MODEL 5
REMARK VINA RESULT:    -2.831     15.543     16.942
REMARK INTER + INTRA:          -3.499
REMARK INTER:                  -3.301
REMARK INTRA:                  -0.198
REMARK UNBOUND:                -0.171
REMARK SMILES CCOC(=O)C(C)C
REMARK SMILES IDX 4 1 5 2 3 3 2 4 1 5 6 6 7 7 8 8
REMARK H PARENT
REMARK Flexibility Score: inf
ROOT
ATOM      1  C   UNL     1      20.894  67.220  89.748  1.00  0.00     0.308 C 
ATOM      2  O   UNL     1      20.631  68.358  89.270  1.00  0.00    -0.252 OA
ENDROOT
BRANCH   1   3
ATOM      3  O   UNL     1      20.633  66.935  91.094  1.00  0.00    -0.466 OA
BRANCH   3   4
ATOM      4  C   UNL     1      21.099  67.743  92.172  1.00  0.00     0.229 C 
ATOM      5  C   UNL     1      22.482  67.289  92.626  1.00  0.00     0.049 C 
ENDBRANCH   3   4
ENDBRANCH   1   3
BRANCH   1   6
ATOM      6  C   UNL     1      21.497  66.157  88.875  1.00  0.00     0.093 C 
ATOM      7  C   UNL     1      22.933  65.854  89.310  1.00  0.00     0.019 C 
ATOM      8  C   UNL     1      20.638  64.888  88.898  1.00  0.00     0.019 C 
ENDBRANCH   1   6
TORSDOF 3
ENDMDL
MODEL 6
REMARK VINA RESULT:    -2.767      1.296      4.037
REMARK INTER + INTRA:          -3.423
REMARK INTER:                  -3.326
REMARK INTRA:                  -0.097
REMARK UNBOUND:                -0.171
REMARK SMILES CCOC(=O)C(C)C
REMARK SMILES IDX 4 1 5 2 3 3 2 4 1 5 6 6 7 7 8 8
REMARK H PARENT
REMARK Flexibility Score: inf
ROOT
ATOM      1  C   UNL     1      24.086  64.744 106.740  1.00  0.00     0.308 C 
ATOM      2  O   UNL     1      24.777  65.738 106.382  1.00  0.00    -0.252 OA
ENDROOT
BRANCH   1   3
ATOM      3  O   UNL     1      23.800  63.713 105.836  1.00  0.00    -0.466 OA
BRANCH   3   4
ATOM      4  C   UNL     1      24.800  62.875 105.260  1.00  0.00     0.229 C 
ATOM      5  C   UNL     1      24.868  63.079 103.751  1.00  0.00     0.049 C 
ENDBRANCH   3   4
ENDBRANCH   1   3
BRANCH   1   6
ATOM      6  C   UNL     1      23.559  64.659 108.143  1.00  0.00     0.093 C 
ATOM      7  C   UNL     1      24.458  63.766 109.002  1.00  0.00     0.019 C 
ATOM      8  C   UNL     1      23.426  66.057 108.756  1.00  0.00     0.019 C 
ENDBRANCH   1   6
TORSDOF 3
ENDMDL
MODEL 7
REMARK VINA RESULT:    -2.648     15.609     16.712
REMARK INTER + INTRA:          -3.284
REMARK INTER:                  -3.111
REMARK INTRA:                  -0.172
REMARK UNBOUND:                -0.171
REMARK SMILES CCOC(=O)C(C)C
REMARK SMILES IDX 4 1 5 2 3 3 2 4 1 5 6 6 7 7 8 8
REMARK H PARENT
REMARK Flexibility Score: inf
ROOT
ATOM      1  C   UNL     1      21.131  79.895 100.981  1.00  0.00     0.308 C 
ATOM      2  O   UNL     1      22.120  80.171 101.717  1.00  0.00    -0.252 OA
ENDROOT
BRANCH   1   3
ATOM      3  O   UNL     1      20.886  80.626  99.812  1.00  0.00    -0.466 OA
BRANCH   3   4
ATOM      4  C   UNL     1      21.840  80.770  98.763  1.00  0.00     0.229 C 
ATOM      5  C   UNL     1      21.392  80.009  97.520  1.00  0.00     0.049 C 
ENDBRANCH   3   4
ENDBRANCH   1   3
BRANCH   1   6
ATOM      6  C   UNL     1      20.202  78.776 101.357  1.00  0.00     0.093 C 
ATOM      7  C   UNL     1      20.120  77.744 100.230  1.00  0.00     0.019 C 
ATOM      8  C   UNL     1      20.647  78.122 102.669  1.00  0.00     0.019 C 
ENDBRANCH   1   6
TORSDOF 3
ENDMDL
MODEL 8
REMARK VINA RESULT:    -2.609     14.942     15.937
REMARK INTER + INTRA:          -3.237
REMARK INTER:                  -3.075
REMARK INTRA:                  -0.162
REMARK UNBOUND:                -0.171
REMARK SMILES CCOC(=O)C(C)C
REMARK SMILES IDX 4 1 5 2 3 3 2 4 1 5 6 6 7 7 8 8
REMARK H PARENT
REMARK Flexibility Score: inf
ROOT
ATOM      1  C   UNL     1      36.823  64.029  96.550  1.00  0.00     0.308 C 
ATOM      2  O   UNL     1      37.014  64.880  95.637  1.00  0.00    -0.252 OA
ENDROOT
BRANCH   1   3
ATOM      3  O   UNL     1      37.684  63.958  97.651  1.00  0.00    -0.466 OA
BRANCH   3   4
ATOM      4  C   UNL     1      37.918  65.052  98.536  1.00  0.00     0.229 C 
ATOM      5  C   UNL     1      37.489  64.697  99.955  1.00  0.00     0.049 C 
ENDBRANCH   3   4
ENDBRANCH   1   3
BRANCH   1   6
ATOM      6  C   UNL     1      35.665  63.076  96.460  1.00  0.00     0.093 C 
ATOM      7  C   UNL     1      34.866  63.076  97.766  1.00  0.00     0.019 C 
ATOM      8  C   UNL     1      34.769  63.427  95.268  1.00  0.00     0.019 C 
ENDBRANCH   1   6
TORSDOF 3
ENDMDL
MODEL 9
REMARK VINA RESULT:    -2.475     16.085     17.699
REMARK INTER + INTRA:          -3.080
REMARK INTER:                  -2.889
REMARK INTRA:                  -0.192
REMARK UNBOUND:                -0.171
REMARK SMILES CCOC(=O)C(C)C
REMARK SMILES IDX 4 1 5 2 3 3 2 4 1 5 6 6 7 7 8 8
REMARK H PARENT
REMARK Flexibility Score: inf
ROOT
ATOM      1  C   UNL     1      36.977  63.789  95.555  1.00  0.00     0.308 C 
ATOM      2  O   UNL     1      36.906  65.048  95.611  1.00  0.00    -0.252 OA
ENDROOT
BRANCH   1   3
ATOM      3  O   UNL     1      38.184  63.157  95.232  1.00  0.00    -0.466 OA
BRANCH   3   4
ATOM      4  C   UNL     1      38.880  63.373  94.007  1.00  0.00     0.229 C 
ATOM      5  C   UNL     1      37.971  63.091  92.816  1.00  0.00     0.049 C 
ENDBRANCH   3   4
ENDBRANCH   1   3
BRANCH   1   6
ATOM      6  C   UNL     1      35.760  62.954  95.832  1.00  0.00     0.093 C 
ATOM      7  C   UNL     1      35.341  63.085  97.299  1.00  0.00     0.019 C 
ATOM      8  C   UNL     1      34.612  63.344  94.896  1.00  0.00     0.019 C 
ENDBRANCH   1   6
TORSDOF 3
ENDMDL
