MODEL 1
REMARK VINA RESULT:    -6.580      0.000      0.000
REMARK INTER + INTRA:         -10.339
REMARK INTER:                  -8.695
REMARK INTRA:                  -1.644
REMARK UNBOUND:                -1.644
REMARK SMILES CC[C@H](C=C[C@@H](C)[C@H]1CC[C@H]2[C@@H]3CC=C4C[C@H](O)CC[C@@]4(C)[C@@H]3CC[C@@]12C)C(C)C
REMARK SMILES IDX 6 1 7 2 5 3 4 4 3 5 2 6 1 7 28 8 29 9 30 10 8 11 9 12 26 13
REMARK SMILES IDX 10 14 11 15 25 16 27 17 12 18 24 19 23 20 13 21 21 22 14 23
REMARK SMILES IDX 15 24 20 25 22 26 16 27 19 28 17 29 18 30
REMARK H PARENT 18 31
REMARK Flexibility Score: inf
ROOT
ATOM      1  C   UNL     1     174.197 176.667 151.844  1.00  0.00     0.012 C 
ATOM      2  C   UNL     1     173.463 177.645 150.915  1.00  0.00     0.012 C 
ENDROOT
BRANCH   1   3
ATOM      3  C   UNL     1     174.226 175.313 151.162  1.00  0.00    -0.028 C 
ATOM      4  C   UNL     1     175.256 174.468 151.324  1.00  0.00    -0.027 C 
BRANCH   4   5
ATOM      5  C   UNL     1     175.303 173.127 150.619  1.00  0.00     0.014 C 
BRANCH   5   6
ATOM      6  C   UNL     1     176.709 172.919 149.993  1.00  0.00     0.004 C 
ATOM      7  C   UNL     1     177.739 173.971 150.414  1.00  0.00     0.004 C 
ENDBRANCH   5   6
BRANCH   5   8
ATOM      8  C   UNL     1     174.850 171.974 151.569  1.00  0.00    -0.011 C 
ATOM      9  C   UNL     1     175.183 172.267 153.043  1.00  0.00     0.008 C 
ATOM     10  C   UNL     1     175.508 170.640 151.170  1.00  0.00     0.008 C 
ENDBRANCH   5   8
ENDBRANCH   4   5
ENDBRANCH   1   3
BRANCH   1  11
ATOM     11  C   UNL     1     173.553 176.545 153.272  1.00  0.00     0.002 C 
ATOM     12  C   UNL     1     172.747 175.238 153.398  1.00  0.00     0.005 C 
ATOM     13  C   UNL     1     174.492 176.576 154.530  1.00  0.00    -0.026 C 
ATOM     14  C   UNL     1     172.845 174.767 154.839  1.00  0.00     0.005 C 
ATOM     15  C   UNL     1     173.649 175.822 155.602  1.00  0.00    -0.001 C 
ATOM     16  C   UNL     1     175.835 175.834 154.261  1.00  0.00     0.007 C 
ATOM     17  C   UNL     1     174.752 178.044 154.969  1.00  0.00     0.012 C 
ATOM     18  C   UNL     1     174.417 175.197 156.811  1.00  0.00     0.000 C 
ATOM     19  C   UNL     1     176.588 175.421 155.533  1.00  0.00     0.005 C 
ATOM     20  C   UNL     1     175.724 174.475 156.404  1.00  0.00     0.003 C 
ATOM     21  C   UNL     1     174.692 176.228 157.916  1.00  0.00     0.031 C 
ATOM     22  C   UNL     1     176.447 173.804 157.656  1.00  0.00    -0.008 C 
ATOM     23  C   UNL     1     175.358 175.591 159.092  1.00  0.00    -0.027 C 
ATOM     24  C   UNL     1     176.203 174.546 158.982  1.00  0.00    -0.065 C 
ATOM     25  C   UNL     1     175.863 172.365 157.840  1.00  0.00     0.014 C 
ATOM     26  C   UNL     1     177.977 173.688 157.411  1.00  0.00     0.016 C 
ATOM     27  C   UNL     1     176.696 173.888 160.254  1.00  0.00     0.063 C 
ATOM     28  C   UNL     1     176.327 171.651 159.127  1.00  0.00     0.033 C 
ATOM     29  C   UNL     1     176.060 172.499 160.383  1.00  0.00     0.118 C 
BRANCH  29  30
ATOM     30  O   UNL     1     176.588 171.855 161.513  1.00  0.00    -0.393 OA
ATOM     31  H   UNL     1     176.331 172.403 162.300  1.00  0.00     0.210 HD
ENDBRANCH  29  30
ENDBRANCH   1  11
TORSDOF 6
ENDMDL
MODEL 2
REMARK VINA RESULT:    -6.412      7.630     10.665
REMARK INTER + INTRA:         -10.117
REMARK INTER:                  -9.703
REMARK INTRA:                  -0.414
REMARK UNBOUND:                -1.644
REMARK SMILES CC[C@H](C=C[C@@H](C)[C@H]1CC[C@H]2[C@@H]3CC=C4C[C@H](O)CC[C@@]4(C)[C@@H]3CC[C@@]12C)C(C)C
REMARK SMILES IDX 6 1 7 2 5 3 4 4 3 5 2 6 1 7 28 8 29 9 30 10 8 11 9 12 26 13
REMARK SMILES IDX 10 14 11 15 25 16 27 17 12 18 24 19 23 20 13 21 21 22 14 23
REMARK SMILES IDX 15 24 20 25 22 26 16 27 19 28 17 29 18 30
REMARK H PARENT 18 31
REMARK Flexibility Score: inf
ROOT
ATOM      1  C   UNL     1     164.769 177.735 152.720  1.00  0.00     0.012 C 
ATOM      2  C   UNL     1     164.815 177.332 154.201  1.00  0.00     0.012 C 
ENDROOT
BRANCH   1   3
ATOM      3  C   UNL     1     163.321 177.691 152.272  1.00  0.00    -0.028 C 
ATOM      4  C   UNL     1     162.455 176.806 152.788  1.00  0.00    -0.027 C 
BRANCH   4   5
ATOM      5  C   UNL     1     161.015 176.737 152.319  1.00  0.00     0.014 C 
BRANCH   5   6
ATOM      6  C   UNL     1     160.666 178.023 151.521  1.00  0.00     0.004 C 
ATOM      7  C   UNL     1     160.495 177.794 150.017  1.00  0.00     0.004 C 
ENDBRANCH   5   6
BRANCH   5   8
ATOM      8  C   UNL     1     160.737 175.410 151.544  1.00  0.00    -0.011 C 
ATOM      9  C   UNL     1     159.357 174.815 151.881  1.00  0.00     0.008 C 
ATOM     10  C   UNL     1     161.818 174.356 151.849  1.00  0.00     0.008 C 
ENDBRANCH   5   8
ENDBRANCH   4   5
ENDBRANCH   1   3
BRANCH   1  11
ATOM     11  C   UNL     1     165.656 176.829 151.790  1.00  0.00     0.002 C 
ATOM     12  C   UNL     1     166.085 177.600 150.527  1.00  0.00     0.005 C 
ATOM     13  C   UNL     1     166.979 176.217 152.371  1.00  0.00    -0.026 C 
ATOM     14  C   UNL     1     167.460 177.097 150.119  1.00  0.00     0.005 C 
ATOM     15  C   UNL     1     167.833 175.975 151.090  1.00  0.00    -0.001 C 
ATOM     16  C   UNL     1     167.696 177.207 153.335  1.00  0.00     0.007 C 
ATOM     17  C   UNL     1     166.677 174.872 153.089  1.00  0.00     0.012 C 
ATOM     18  C   UNL     1     169.382 175.862 151.269  1.00  0.00     0.000 C 
ATOM     19  C   UNL     1     169.179 176.890 153.571  1.00  0.00     0.005 C 
ATOM     20  C   UNL     1     169.969 176.916 152.239  1.00  0.00     0.003 C 
ATOM     21  C   UNL     1     169.812 174.447 151.685  1.00  0.00     0.031 C 
ATOM     22  C   UNL     1     171.554 176.803 152.350  1.00  0.00    -0.008 C 
ATOM     23  C   UNL     1     171.300 174.344 151.776  1.00  0.00    -0.027 C 
ATOM     24  C   UNL     1     172.088 175.374 152.142  1.00  0.00    -0.065 C 
ATOM     25  C   UNL     1     172.185 177.681 151.221  1.00  0.00     0.014 C 
ATOM     26  C   UNL     1     172.049 177.336 153.724  1.00  0.00     0.016 C 
ATOM     27  C   UNL     1     173.590 175.195 152.049  1.00  0.00     0.063 C 
ATOM     28  C   UNL     1     173.713 177.529 151.077  1.00  0.00     0.033 C 
ATOM     29  C   UNL     1     174.132 176.058 150.904  1.00  0.00     0.118 C 
BRANCH  29  30
ATOM     30  O   UNL     1     175.532 175.961 150.879  1.00  0.00    -0.393 OA
ATOM     31  H   UNL     1     175.882 176.762 151.352  1.00  0.00     0.210 HD
ENDBRANCH  29  30
ENDBRANCH   1  11
TORSDOF 6
ENDMDL
MODEL 3
REMARK VINA RESULT:    -6.358      8.280     11.058
REMARK INTER + INTRA:         -10.046
REMARK INTER:                  -9.335
REMARK INTRA:                  -0.711
REMARK UNBOUND:                -1.644
REMARK SMILES CC[C@H](C=C[C@@H](C)[C@H]1CC[C@H]2[C@@H]3CC=C4C[C@H](O)CC[C@@]4(C)[C@@H]3CC[C@@]12C)C(C)C
REMARK SMILES IDX 6 1 7 2 5 3 4 4 3 5 2 6 1 7 28 8 29 9 30 10 8 11 9 12 26 13
REMARK SMILES IDX 10 14 11 15 25 16 27 17 12 18 24 19 23 20 13 21 21 22 14 23
REMARK SMILES IDX 15 24 20 25 22 26 16 27 19 28 17 29 18 30
REMARK H PARENT 18 31
REMARK Flexibility Score: inf
ROOT
ATOM      1  C   UNL     1     169.506 176.228 152.483  1.00  0.00     0.012 C 
ATOM      2  C   UNL     1     169.969 176.758 153.848  1.00  0.00     0.012 C 
ENDROOT
BRANCH   1   3
ATOM      3  C   UNL     1     170.666 176.364 151.515  1.00  0.00    -0.028 C 
ATOM      4  C   UNL     1     171.939 176.314 151.935  1.00  0.00    -0.027 C 
BRANCH   4   5
ATOM      5  C   UNL     1     173.100 176.483 150.976  1.00  0.00     0.014 C 
BRANCH   5   6
ATOM      6  C   UNL     1     173.733 177.888 151.168  1.00  0.00     0.004 C 
ATOM      7  C   UNL     1     174.989 178.124 150.325  1.00  0.00     0.004 C 
ENDBRANCH   5   6
BRANCH   5   8
ATOM      8  C   UNL     1     174.115 175.302 151.106  1.00  0.00    -0.011 C 
ATOM      9  C   UNL     1     173.514 173.962 150.646  1.00  0.00     0.008 C 
ATOM     10  C   UNL     1     174.605 175.153 152.558  1.00  0.00     0.008 C 
ENDBRANCH   5   8
ENDBRANCH   4   5
ENDBRANCH   1   3
BRANCH   1  11
ATOM     11  C   UNL     1     168.234 176.958 151.918  1.00  0.00     0.002 C 
ATOM     12  C   UNL     1     167.856 176.401 150.532  1.00  0.00     0.005 C 
ATOM     13  C   UNL     1     166.907 176.921 152.756  1.00  0.00    -0.026 C 
ATOM     14  C   UNL     1     166.344 176.476 150.397  1.00  0.00     0.005 C 
ATOM     15  C   UNL     1     165.813 177.141 151.668  1.00  0.00    -0.001 C 
ATOM     16  C   UNL     1     166.714 175.549 153.465  1.00  0.00     0.007 C 
ATOM     17  C   UNL     1     166.893 178.082 153.789  1.00  0.00     0.012 C 
ATOM     18  C   UNL     1     164.362 176.665 152.002  1.00  0.00     0.000 C 
ATOM     19  C   UNL     1     165.271 175.267 153.905  1.00  0.00     0.005 C 
ATOM     20  C   UNL     1     164.311 175.279 152.688  1.00  0.00     0.003 C 
ATOM     21  C   UNL     1     163.589 177.704 152.827  1.00  0.00     0.031 C 
ATOM     22  C   UNL     1     162.814 174.805 152.961  1.00  0.00    -0.008 C 
ATOM     23  C   UNL     1     162.183 177.261 153.069  1.00  0.00    -0.027 C 
ATOM     24  C   UNL     1     161.832 175.966 153.201  1.00  0.00    -0.065 C 
ATOM     25  C   UNL     1     162.304 174.050 151.690  1.00  0.00     0.014 C 
ATOM     26  C   UNL     1     162.756 173.831 154.170  1.00  0.00     0.016 C 
ATOM     27  C   UNL     1     160.358 175.629 153.289  1.00  0.00     0.063 C 
ATOM     28  C   UNL     1     160.804 173.691 151.723  1.00  0.00     0.033 C 
ATOM     29  C   UNL     1     159.923 174.922 151.999  1.00  0.00     0.118 C 
BRANCH  29  30
ATOM     30  O   UNL     1     158.581 174.529 152.120  1.00  0.00    -0.393 OA
ATOM     31  H   UNL     1     158.576 173.537 152.156  1.00  0.00     0.210 HD
ENDBRANCH  29  30
ENDBRANCH   1  11
TORSDOF 6
ENDMDL
MODEL 4
REMARK VINA RESULT:    -6.341      2.439      4.789
REMARK INTER + INTRA:         -10.024
REMARK INTER:                  -8.820
REMARK INTRA:                  -1.203
REMARK UNBOUND:                -1.644
REMARK SMILES CC[C@H](C=C[C@@H](C)[C@H]1CC[C@H]2[C@@H]3CC=C4C[C@H](O)CC[C@@]4(C)[C@@H]3CC[C@@]12C)C(C)C
REMARK SMILES IDX 6 1 7 2 5 3 4 4 3 5 2 6 1 7 28 8 29 9 30 10 8 11 9 12 26 13
REMARK SMILES IDX 10 14 11 15 25 16 27 17 12 18 24 19 23 20 13 21 21 22 14 23
REMARK SMILES IDX 15 24 20 25 22 26 16 27 19 28 17 29 18 30
REMARK H PARENT 18 31
REMARK Flexibility Score: inf
ROOT
ATOM      1  C   UNL     1     174.719 174.141 155.176  1.00  0.00     0.012 C 
ATOM      2  C   UNL     1     173.843 173.056 154.536  1.00  0.00     0.012 C 
ENDROOT
BRANCH   1   3
ATOM      3  C   UNL     1     175.487 174.832 154.066  1.00  0.00    -0.028 C 
ATOM      4  C   UNL     1     175.235 174.575 152.774  1.00  0.00    -0.027 C 
BRANCH   4   5
ATOM      5  C   UNL     1     176.022 175.239 151.662  1.00  0.00     0.014 C 
BRANCH   5   6
ATOM      6  C   UNL     1     176.745 174.155 150.819  1.00  0.00     0.004 C 
ATOM      7  C   UNL     1     176.015 172.810 150.776  1.00  0.00     0.004 C 
ENDBRANCH   5   6
BRANCH   5   8
ATOM      8  C   UNL     1     175.117 176.200 150.827  1.00  0.00    -0.011 C 
ATOM      9  C   UNL     1     175.282 177.671 151.248  1.00  0.00     0.008 C 
ATOM     10  C   UNL     1     173.633 175.812 150.956  1.00  0.00     0.008 C 
ENDBRANCH   5   8
ENDBRANCH   4   5
ENDBRANCH   1   3
BRANCH   1  11
ATOM     11  C   UNL     1     175.710 173.593 156.266  1.00  0.00     0.002 C 
ATOM     12  C   UNL     1     177.079 174.293 156.161  1.00  0.00     0.005 C 
ATOM     13  C   UNL     1     175.305 173.702 157.779  1.00  0.00    -0.026 C 
ATOM     14  C   UNL     1     177.664 174.386 157.560  1.00  0.00     0.005 C 
ATOM     15  C   UNL     1     176.685 173.682 158.502  1.00  0.00    -0.001 C 
ATOM     16  C   UNL     1     174.544 175.027 158.076  1.00  0.00     0.007 C 
ATOM     17  C   UNL     1     174.452 172.471 158.195  1.00  0.00     0.012 C 
ATOM     18  C   UNL     1     176.748 174.279 159.946  1.00  0.00     0.000 C 
ATOM     19  C   UNL     1     174.525 175.422 159.559  1.00  0.00     0.005 C 
ATOM     20  C   UNL     1     175.966 175.605 160.100  1.00  0.00     0.003 C 
ATOM     21  C   UNL     1     176.304 173.264 161.010  1.00  0.00     0.031 C 
ATOM     22  C   UNL     1     176.101 176.208 161.569  1.00  0.00    -0.008 C 
ATOM     23  C   UNL     1     176.446 173.830 162.385  1.00  0.00    -0.027 C 
ATOM     24  C   UNL     1     176.287 175.141 162.661  1.00  0.00    -0.065 C 
ATOM     25  C   UNL     1     177.378 177.109 161.607  1.00  0.00     0.014 C 
ATOM     26  C   UNL     1     174.867 177.086 161.919  1.00  0.00     0.016 C 
ATOM     27  C   UNL     1     176.606 175.620 164.062  1.00  0.00     0.063 C 
ATOM     28  C   UNL     1     177.754 177.619 163.015  1.00  0.00     0.033 C 
ATOM     29  C   UNL     1     177.883 176.468 164.028  1.00  0.00     0.118 C 
BRANCH  29  30
ATOM     30  O   UNL     1     178.125 176.987 165.310  1.00  0.00    -0.393 OA
ATOM     31  H   UNL     1     179.104 176.918 165.465  1.00  0.00     0.210 HD
ENDBRANCH  29  30
ENDBRANCH   1  11
TORSDOF 6
ENDMDL
MODEL 5
REMARK VINA RESULT:    -6.270      7.080      9.776
REMARK INTER + INTRA:          -9.930
REMARK INTER:                  -9.350
REMARK INTRA:                  -0.580
REMARK UNBOUND:                -1.644
REMARK SMILES CC[C@H](C=C[C@@H](C)[C@H]1CC[C@H]2[C@@H]3CC=C4C[C@H](O)CC[C@@]4(C)[C@@H]3CC[C@@]12C)C(C)C
REMARK SMILES IDX 6 1 7 2 5 3 4 4 3 5 2 6 1 7 28 8 29 9 30 10 8 11 9 12 26 13
REMARK SMILES IDX 10 14 11 15 25 16 27 17 12 18 24 19 23 20 13 21 21 22 14 23
REMARK SMILES IDX 15 24 20 25 22 26 16 27 19 28 17 29 18 30
REMARK H PARENT 18 31
REMARK Flexibility Score: inf
ROOT
ATOM      1  C   UNL     1     165.607 176.307 150.768  1.00  0.00     0.012 C 
ATOM      2  C   UNL     1     165.365 177.800 151.028  1.00  0.00     0.012 C 
ENDROOT
BRANCH   1   3
ATOM      3  C   UNL     1     164.255 175.636 150.622  1.00  0.00    -0.028 C 
ATOM      4  C   UNL     1     163.146 176.172 151.152  1.00  0.00    -0.027 C 
BRANCH   4   5
ATOM      5  C   UNL     1     161.798 175.489 151.036  1.00  0.00     0.014 C 
BRANCH   5   6
ATOM      6  C   UNL     1     161.748 174.272 152.000  1.00  0.00     0.004 C 
ATOM      7  C   UNL     1     160.502 173.398 151.834  1.00  0.00     0.004 C 
ENDBRANCH   5   6
BRANCH   5   8
ATOM      8  C   UNL     1     160.630 176.507 151.232  1.00  0.00    -0.011 C 
ATOM      9  C   UNL     1     160.567 177.549 150.101  1.00  0.00     0.008 C 
ATOM     10  C   UNL     1     160.762 177.245 152.578  1.00  0.00     0.008 C 
ENDBRANCH   5   8
ENDBRANCH   4   5
ENDBRANCH   1   3
BRANCH   1  11
ATOM     11  C   UNL     1     166.450 175.597 151.890  1.00  0.00     0.002 C 
ATOM     12  C   UNL     1     166.863 174.180 151.448  1.00  0.00     0.005 C 
ATOM     13  C   UNL     1     167.774 176.280 152.385  1.00  0.00    -0.026 C 
ATOM     14  C   UNL     1     168.216 173.874 152.069  1.00  0.00     0.005 C 
ATOM     15  C   UNL     1     168.589 175.074 152.943  1.00  0.00    -0.001 C 
ATOM     16  C   UNL     1     168.537 176.969 151.216  1.00  0.00     0.007 C 
ATOM     17  C   UNL     1     167.461 177.299 153.516  1.00  0.00     0.012 C 
ATOM     18  C   UNL     1     170.139 175.244 153.053  1.00  0.00     0.000 C 
ATOM     19  C   UNL     1     170.018 177.244 151.509  1.00  0.00     0.005 C 
ATOM     20  C   UNL     1     170.774 175.927 151.818  1.00  0.00     0.003 C 
ATOM     21  C   UNL     1     170.550 175.972 154.342  1.00  0.00     0.031 C 
ATOM     22  C   UNL     1     172.359 176.031 151.945  1.00  0.00    -0.008 C 
ATOM     23  C   UNL     1     172.037 176.055 154.462  1.00  0.00    -0.027 C 
ATOM     24  C   UNL     1     172.856 176.153 153.396  1.00  0.00    -0.065 C 
ATOM     25  C   UNL     1     172.979 174.715 151.372  1.00  0.00     0.014 C 
ATOM     26  C   UNL     1     172.900 177.231 151.119  1.00  0.00     0.016 C 
ATOM     27  C   UNL     1     174.351 176.075 153.633  1.00  0.00     0.063 C 
ATOM     28  C   UNL     1     174.500 174.580 151.595  1.00  0.00     0.033 C 
ATOM     29  C   UNL     1     174.882 174.748 153.076  1.00  0.00     0.118 C 
BRANCH  29  30
ATOM     30  O   UNL     1     176.279 174.719 153.214  1.00  0.00    -0.393 OA
ATOM     31  H   UNL     1     176.481 175.028 154.136  1.00  0.00     0.210 HD
ENDBRANCH  29  30
ENDBRANCH   1  11
TORSDOF 6
ENDMDL
MODEL 6
REMARK VINA RESULT:    -6.173     10.587     13.267
REMARK INTER + INTRA:          -9.801
REMARK INTER:                  -8.644
REMARK INTRA:                  -1.157
REMARK UNBOUND:                -1.644
REMARK SMILES CC[C@H](C=C[C@@H](C)[C@H]1CC[C@H]2[C@@H]3CC=C4C[C@H](O)CC[C@@]4(C)[C@@H]3CC[C@@]12C)C(C)C
REMARK SMILES IDX 6 1 7 2 5 3 4 4 3 5 2 6 1 7 28 8 29 9 30 10 8 11 9 12 26 13
REMARK SMILES IDX 10 14 11 15 25 16 27 17 12 18 24 19 23 20 13 21 21 22 14 23
REMARK SMILES IDX 15 24 20 25 22 26 16 27 19 28 17 29 18 30
REMARK H PARENT 18 31
REMARK Flexibility Score: inf
ROOT
ATOM      1  C   UNL     1     160.373 174.047 151.866  1.00  0.00     0.012 C 
ATOM      2  C   UNL     1     159.015 174.761 151.880  1.00  0.00     0.012 C 
ENDROOT
BRANCH   1   3
ATOM      3  C   UNL     1     160.142 172.601 152.260  1.00  0.00    -0.028 C 
ATOM      4  C   UNL     1     160.088 171.625 151.342  1.00  0.00    -0.027 C 
BRANCH   4   5
ATOM      5  C   UNL     1     159.824 170.183 151.728  1.00  0.00     0.014 C 
BRANCH   5   6
ATOM      6  C   UNL     1     158.779 170.135 152.875  1.00  0.00     0.004 C 
ATOM      7  C   UNL     1     159.298 169.491 154.164  1.00  0.00     0.004 C 
ENDBRANCH   5   6
BRANCH   5   8
ATOM      8  C   UNL     1     159.442 169.325 150.480  1.00  0.00    -0.011 C 
ATOM      9  C   UNL     1     159.984 169.925 149.171  1.00  0.00     0.008 C 
ATOM     10  C   UNL     1     157.913 169.176 150.361  1.00  0.00     0.008 C 
ENDBRANCH   5   8
ENDBRANCH   4   5
ENDBRANCH   1   3
BRANCH   1  11
ATOM     11  C   UNL     1     161.444 174.705 152.810  1.00  0.00     0.002 C 
ATOM     12  C   UNL     1     162.146 173.635 153.669  1.00  0.00     0.005 C 
ATOM     13  C   UNL     1     162.603 175.546 152.167  1.00  0.00    -0.026 C 
ATOM     14  C   UNL     1     163.576 174.090 153.904  1.00  0.00     0.005 C 
ATOM     15  C   UNL     1     163.722 175.466 153.250  1.00  0.00    -0.001 C 
ATOM     16  C   UNL     1     163.088 174.923 150.825  1.00  0.00     0.007 C 
ATOM     17  C   UNL     1     162.147 177.016 151.959  1.00  0.00     0.012 C 
ATOM     18  C   UNL     1     165.191 175.729 152.786  1.00  0.00     0.000 C 
ATOM     19  C   UNL     1     164.481 175.392 150.382  1.00  0.00     0.005 C 
ATOM     20  C   UNL     1     165.548 175.039 151.448  1.00  0.00     0.003 C 
ATOM     21  C   UNL     1     165.517 177.229 152.723  1.00  0.00     0.031 C 
ATOM     22  C   UNL     1     167.069 175.285 151.039  1.00  0.00    -0.008 C 
ATOM     23  C   UNL     1     166.946 177.453 152.352  1.00  0.00    -0.027 C 
ATOM     24  C   UNL     1     167.634 176.626 151.540  1.00  0.00    -0.065 C 
ATOM     25  C   UNL     1     167.936 174.164 151.698  1.00  0.00     0.014 C 
ATOM     26  C   UNL     1     167.244 175.202 149.497  1.00  0.00     0.016 C 
ATOM     27  C   UNL     1     169.118 176.871 151.359  1.00  0.00     0.063 C 
ATOM     28  C   UNL     1     169.458 174.370 151.552  1.00  0.00     0.033 C 
ATOM     29  C   UNL     1     169.904 175.753 152.057  1.00  0.00     0.118 C 
BRANCH  29  30
ATOM     30  O   UNL     1     171.274 175.932 151.810  1.00  0.00    -0.393 OA
ATOM     31  H   UNL     1     171.638 175.041 151.564  1.00  0.00     0.210 HD
ENDBRANCH  29  30
ENDBRANCH   1  11
TORSDOF 6
ENDMDL
MODEL 7
REMARK VINA RESULT:    -6.090      7.325     10.020
REMARK INTER + INTRA:          -9.692
REMARK INTER:                  -9.059
REMARK INTRA:                  -0.633
REMARK UNBOUND:                -1.644
REMARK SMILES CC[C@H](C=C[C@@H](C)[C@H]1CC[C@H]2[C@@H]3CC=C4C[C@H](O)CC[C@@]4(C)[C@@H]3CC[C@@]12C)C(C)C
REMARK SMILES IDX 6 1 7 2 5 3 4 4 3 5 2 6 1 7 28 8 29 9 30 10 8 11 9 12 26 13
REMARK SMILES IDX 10 14 11 15 25 16 27 17 12 18 24 19 23 20 13 21 21 22 14 23
REMARK SMILES IDX 15 24 20 25 22 26 16 27 19 28 17 29 18 30
REMARK H PARENT 18 31
REMARK Flexibility Score: inf
ROOT
ATOM      1  C   UNL     1     170.592 176.295 152.294  1.00  0.00     0.012 C 
ATOM      2  C   UNL     1     170.768 177.754 151.850  1.00  0.00     0.012 C 
ENDROOT
BRANCH   1   3
ATOM      3  C   UNL     1     171.856 175.542 151.924  1.00  0.00    -0.028 C 
ATOM      4  C   UNL     1     172.866 176.144 151.279  1.00  0.00    -0.027 C 
BRANCH   4   5
ATOM      5  C   UNL     1     174.118 175.387 150.879  1.00  0.00     0.014 C 
BRANCH   5   6
ATOM      6  C   UNL     1     175.336 176.350 150.898  1.00  0.00     0.004 C 
ATOM      7  C   UNL     1     174.957 177.833 150.858  1.00  0.00     0.004 C 
ENDBRANCH   5   6
BRANCH   5   8
ATOM      8  C   UNL     1     174.304 174.105 151.751  1.00  0.00    -0.011 C 
ATOM      9  C   UNL     1     175.437 174.259 152.782  1.00  0.00     0.008 C 
ATOM     10  C   UNL     1     174.600 172.876 150.870  1.00  0.00     0.008 C 
ENDBRANCH   5   8
ENDBRANCH   4   5
ENDBRANCH   1   3
BRANCH   1  11
ATOM     11  C   UNL     1     169.334 175.590 151.668  1.00  0.00     0.002 C 
ATOM     12  C   UNL     1     169.086 174.224 152.336  1.00  0.00     0.005 C 
ATOM     13  C   UNL     1     167.952 176.332 151.714  1.00  0.00    -0.026 C 
ATOM     14  C   UNL     1     167.586 173.977 152.347  1.00  0.00     0.005 C 
ATOM     15  C   UNL     1     166.933 175.156 151.624  1.00  0.00    -0.001 C 
ATOM     16  C   UNL     1     167.768 177.122 153.043  1.00  0.00     0.007 C 
ATOM     17  C   UNL     1     167.809 177.276 150.488  1.00  0.00     0.012 C 
ATOM     18  C   UNL     1     165.484 175.419 152.149  1.00  0.00     0.000 C 
ATOM     19  C   UNL     1     166.310 177.477 153.366  1.00  0.00     0.005 C 
ATOM     20  C   UNL     1     165.444 176.198 153.486  1.00  0.00     0.003 C 
ATOM     21  C   UNL     1     164.606 176.111 151.095  1.00  0.00     0.031 C 
ATOM     22  C   UNL     1     163.954 176.396 154.014  1.00  0.00    -0.008 C 
ATOM     23  C   UNL     1     163.207 176.283 151.591  1.00  0.00    -0.027 C 
ATOM     24  C   UNL     1     162.906 176.482 152.890  1.00  0.00    -0.065 C 
ATOM     25  C   UNL     1     163.575 175.150 154.878  1.00  0.00     0.014 C 
ATOM     26  C   UNL     1     163.850 177.664 154.905  1.00  0.00     0.016 C 
ATOM     27  C   UNL     1     161.446 176.489 153.294  1.00  0.00     0.063 C 
ATOM     28  C   UNL     1     162.094 175.102 155.310  1.00  0.00     0.033 C 
ATOM     29  C   UNL     1     161.141 175.226 154.108  1.00  0.00     0.118 C 
BRANCH  29  30
ATOM     30  O   UNL     1     159.812 175.279 154.558  1.00  0.00    -0.393 OA
ATOM     31  H   UNL     1     159.391 174.416 154.306  1.00  0.00     0.210 HD
ENDBRANCH  29  30
ENDBRANCH   1  11
TORSDOF 6
ENDMDL
MODEL 8
REMARK VINA RESULT:    -6.003     15.448     18.058
REMARK INTER + INTRA:          -9.577
REMARK INTER:                  -8.535
REMARK INTRA:                  -1.042
REMARK UNBOUND:                -1.644
REMARK SMILES CC[C@H](C=C[C@@H](C)[C@H]1CC[C@H]2[C@@H]3CC=C4C[C@H](O)CC[C@@]4(C)[C@@H]3CC[C@@]12C)C(C)C
REMARK SMILES IDX 6 1 7 2 5 3 4 4 3 5 2 6 1 7 28 8 29 9 30 10 8 11 9 12 26 13
REMARK SMILES IDX 10 14 11 15 25 16 27 17 12 18 24 19 23 20 13 21 21 22 14 23
REMARK SMILES IDX 15 24 20 25 22 26 16 27 19 28 17 29 18 30
REMARK H PARENT 18 31
REMARK Flexibility Score: inf
ROOT
ATOM      1  C   UNL     1     160.264 162.871 151.927  1.00  0.00     0.012 C 
ATOM      2  C   UNL     1     159.160 161.805 151.926  1.00  0.00     0.012 C 
ENDROOT
BRANCH   1   3
ATOM      3  C   UNL     1     161.573 162.184 152.264  1.00  0.00    -0.028 C 
ATOM      4  C   UNL     1     162.116 161.270 151.445  1.00  0.00    -0.027 C 
BRANCH   4   5
ATOM      5  C   UNL     1     163.407 160.557 151.794  1.00  0.00     0.014 C 
BRANCH   5   6
ATOM      6  C   UNL     1     163.144 159.532 152.931  1.00  0.00     0.004 C 
ATOM      7  C   UNL     1     164.106 159.656 154.115  1.00  0.00     0.004 C 
ENDBRANCH   5   6
BRANCH   5   8
ATOM      8  C   UNL     1     164.073 159.942 150.522  1.00  0.00    -0.011 C 
ATOM      9  C   UNL     1     163.513 160.544 149.221  1.00  0.00     0.008 C 
ATOM     10  C   UNL     1     163.883 158.414 150.483  1.00  0.00     0.008 C 
ENDBRANCH   5   8
ENDBRANCH   4   5
ENDBRANCH   1   3
BRANCH   1  11
ATOM     11  C   UNL     1     159.998 164.057 152.923  1.00  0.00     0.002 C 
ATOM     12  C   UNL     1     161.286 164.433 153.681  1.00  0.00     0.005 C 
ATOM     13  C   UNL     1     159.441 165.411 152.356  1.00  0.00    -0.026 C 
ATOM     14  C   UNL     1     161.248 165.928 153.953  1.00  0.00     0.005 C 
ATOM     15  C   UNL     1     159.908 166.445 153.424  1.00  0.00    -0.001 C 
ATOM     16  C   UNL     1     160.051 165.743 150.962  1.00  0.00     0.007 C 
ATOM     17  C   UNL     1     157.890 165.363 152.281  1.00  0.00     0.012 C 
ATOM     18  C   UNL     1     160.004 167.941 152.982  1.00  0.00     0.000 C 
ATOM     19  C   UNL     1     159.929 167.219 150.559  1.00  0.00     0.005 C 
ATOM     20  C   UNL     1     160.645 168.132 151.587  1.00  0.00     0.003 C 
ATOM     21  C   UNL     1     158.644 168.652 153.054  1.00  0.00     0.031 C 
ATOM     22  C   UNL     1     160.775 169.672 151.198  1.00  0.00    -0.008 C 
ATOM     23  C   UNL     1     158.774 170.098 152.701  1.00  0.00    -0.027 C 
ATOM     24  C   UNL     1     159.680 170.561 151.816  1.00  0.00    -0.065 C 
ATOM     25  C   UNL     1     162.139 170.199 151.752  1.00  0.00     0.014 C 
ATOM     26  C   UNL     1     160.766 169.853 149.655  1.00  0.00     0.016 C 
ATOM     27  C   UNL     1     159.822 172.060 151.654  1.00  0.00     0.063 C 
ATOM     28  C   UNL     1     162.331 171.724 151.621  1.00  0.00     0.033 C 
ATOM     29  C   UNL     1     161.164 172.508 152.247  1.00  0.00     0.118 C 
BRANCH  29  30
ATOM     30  O   UNL     1     161.333 173.882 152.014  1.00  0.00    -0.393 OA
ATOM     31  H   UNL     1     160.448 174.307 152.163  1.00  0.00     0.210 HD
ENDBRANCH  29  30
ENDBRANCH   1  11
TORSDOF 6
ENDMDL
MODEL 9
REMARK VINA RESULT:    -6.002      2.153      4.579
REMARK INTER + INTRA:          -9.576
REMARK INTER:                  -8.148
REMARK INTRA:                  -1.428
REMARK UNBOUND:                -1.644
REMARK SMILES CC[C@H](C=C[C@@H](C)[C@H]1CC[C@H]2[C@@H]3CC=C4C[C@H](O)CC[C@@]4(C)[C@@H]3CC[C@@]12C)C(C)C
REMARK SMILES IDX 6 1 7 2 5 3 4 4 3 5 2 6 1 7 28 8 29 9 30 10 8 11 9 12 26 13
REMARK SMILES IDX 10 14 11 15 25 16 27 17 12 18 24 19 23 20 13 21 21 22 14 23
REMARK SMILES IDX 15 24 20 25 22 26 16 27 19 28 17 29 18 30
REMARK H PARENT 18 31
REMARK Flexibility Score: inf
ROOT
ATOM      1  C   UNL     1     173.666 173.733 151.730  1.00  0.00     0.012 C 
ATOM      2  C   UNL     1     173.975 173.071 150.380  1.00  0.00     0.012 C 
ENDROOT
BRANCH   1   3
ATOM      3  C   UNL     1     172.642 174.825 151.488  1.00  0.00    -0.028 C 
ATOM      4  C   UNL     1     171.431 174.790 152.063  1.00  0.00    -0.027 C 
BRANCH   4   5
ATOM      5  C   UNL     1     170.393 175.862 151.797  1.00  0.00     0.014 C 
BRANCH   5   6
ATOM      6  C   UNL     1     168.972 175.240 151.874  1.00  0.00     0.004 C 
ATOM      7  C   UNL     1     168.021 175.724 150.775  1.00  0.00     0.004 C 
ENDBRANCH   5   6
BRANCH   5   8
ATOM      8  C   UNL     1     170.602 177.094 152.735  1.00  0.00    -0.011 C 
ATOM      9  C   UNL     1     171.576 178.125 152.136  1.00  0.00     0.008 C 
ATOM     10  C   UNL     1     171.131 176.655 154.113  1.00  0.00     0.008 C 
ENDBRANCH   5   8
ENDBRANCH   4   5
ENDBRANCH   1   3
BRANCH   1  11
ATOM     11  C   UNL     1     174.932 174.323 152.451  1.00  0.00     0.002 C 
ATOM     12  C   UNL     1     174.801 175.848 152.623  1.00  0.00     0.005 C 
ATOM     13  C   UNL     1     175.315 173.777 153.872  1.00  0.00    -0.026 C 
ATOM     14  C   UNL     1     175.510 176.235 153.910  1.00  0.00     0.005 C 
ATOM     15  C   UNL     1     176.130 174.958 154.481  1.00  0.00    -0.001 C 
ATOM     16  C   UNL     1     174.052 173.476 154.731  1.00  0.00     0.007 C 
ATOM     17  C   UNL     1     176.204 172.509 153.738  1.00  0.00     0.012 C 
ATOM     18  C   UNL     1     176.247 175.022 156.039  1.00  0.00     0.000 C 
ATOM     19  C   UNL     1     174.324 173.391 156.239  1.00  0.00     0.005 C 
ATOM     20  C   UNL     1     174.916 174.721 156.770  1.00  0.00     0.003 C 
ATOM     21  C   UNL     1     177.371 174.121 156.571  1.00  0.00     0.031 C 
ATOM     22  C   UNL     1     175.064 174.852 158.351  1.00  0.00    -0.008 C 
ATOM     23  C   UNL     1     177.513 174.258 158.052  1.00  0.00    -0.027 C 
ATOM     24  C   UNL     1     176.473 174.516 158.871  1.00  0.00    -0.065 C 
ATOM     25  C   UNL     1     174.791 176.341 158.743  1.00  0.00     0.014 C 
ATOM     26  C   UNL     1     174.026 173.953 159.077  1.00  0.00     0.016 C 
ATOM     27  C   UNL     1     176.763 174.785 160.333  1.00  0.00     0.063 C 
ATOM     28  C   UNL     1     175.079 176.672 160.222  1.00  0.00     0.033 C 
ATOM     29  C   UNL     1     176.505 176.266 160.635  1.00  0.00     0.118 C 
BRANCH  29  30
ATOM     30  O   UNL     1     176.685 176.493 162.009  1.00  0.00    -0.393 OA
ATOM     31  H   UNL     1     175.780 176.613 162.399  1.00  0.00     0.210 HD
ENDBRANCH  29  30
ENDBRANCH   1  11
TORSDOF 6
ENDMDL
