MODEL 1
REMARK VINA RESULT:    -3.711      0.000      0.000
REMARK INTER + INTRA:          -5.432
REMARK INTER:                  -4.796
REMARK INTRA:                  -0.636
REMARK UNBOUND:                -0.636
REMARK SMILES CCO[C@@H]1O[C@H](CO)[C@@H](O)[C@H](O)[C@H]1O
REMARK SMILES IDX 4 1 13 2 11 3 9 4 6 5 5 6 3 7 2 8 1 9 14 10 12 12 7 14 8 15
REMARK SMILES IDX 10 17
REMARK H PARENT 14 11 12 13 8 16 10 18
REMARK Flexibility Score: inf
ROOT
ATOM      1  C   UNL     1      18.316  49.746  38.529  1.00  0.00     0.281 C 
ATOM      2  C   UNL     1      18.523  48.939  39.824  1.00  0.00     0.202 C 
ATOM      3  C   UNL     1      17.190  48.378  40.337  1.00  0.00     0.179 C 
ATOM      4  C   UNL     1      16.438  47.635  39.211  1.00  0.00     0.177 C 
ATOM      5  C   UNL     1      16.462  48.394  37.853  1.00  0.00     0.178 C 
ATOM      6  O   UNL     1      17.725  48.956  37.510  1.00  0.00    -0.341 OA
ENDROOT
BRANCH   1   7
ATOM      7  O   UNL     1      17.539  50.910  38.763  1.00  0.00    -0.350 OA
BRANCH   7   8
ATOM      8  C   UNL     1      17.970  51.985  37.956  1.00  0.00     0.160 C 
ATOM      9  C   UNL     1      16.756  52.778  37.495  1.00  0.00     0.035 C 
ENDBRANCH   7   8
ENDBRANCH   1   7
BRANCH   2  10
ATOM     10  O   UNL     1      19.426  47.892  39.572  1.00  0.00    -0.385 OA
ATOM     11  H   UNL     1      19.788  47.605  40.450  1.00  0.00     0.211 HD
ENDBRANCH   2  10
BRANCH   3  12
ATOM     12  O   UNL     1      16.412  49.420  40.866  1.00  0.00    -0.387 OA
ATOM     13  H   UNL     1      16.926  50.259  40.734  1.00  0.00     0.211 HD
ENDBRANCH   3  12
BRANCH   5  14
ATOM     14  C   UNL     1      15.282  49.364  37.601  1.00  0.00     0.191 C 
BRANCH  14  15
ATOM     15  O   UNL     1      14.743  49.885  38.785  1.00  0.00    -0.394 OA
ATOM     16  H   UNL     1      14.374  49.121  39.300  1.00  0.00     0.210 HD
ENDBRANCH  14  15
ENDBRANCH   5  14
BRANCH   4  17
ATOM     17  O   UNL     1      17.022  46.368  39.025  1.00  0.00    -0.387 OA
ATOM     18  H   UNL     1      17.911  46.389  39.466  1.00  0.00     0.211 HD
ENDBRANCH   4  17
TORSDOF 7
ENDMDL
MODEL 2
REMARK VINA RESULT:    -3.699      8.937     10.487
REMARK INTER + INTRA:          -5.416
REMARK INTER:                  -4.802
REMARK INTRA:                  -0.615
REMARK UNBOUND:                -0.636
REMARK SMILES CCO[C@@H]1O[C@H](CO)[C@@H](O)[C@H](O)[C@H]1O
REMARK SMILES IDX 4 1 13 2 11 3 9 4 6 5 5 6 3 7 2 8 1 9 14 10 12 12 7 14 8 15
REMARK SMILES IDX 10 17
REMARK H PARENT 14 11 12 13 8 16 10 18
REMARK Flexibility Score: inf
ROOT
ATOM      1  C   UNL     1      19.581  40.327  36.199  1.00  0.00     0.281 C 
ATOM      2  C   UNL     1      20.800  39.594  36.787  1.00  0.00     0.202 C 
ATOM      3  C   UNL     1      22.066  39.903  35.976  1.00  0.00     0.179 C 
ATOM      4  C   UNL     1      22.240  41.427  35.789  1.00  0.00     0.177 C 
ATOM      5  C   UNL     1      20.915  42.154  35.421  1.00  0.00     0.178 C 
ATOM      6  O   UNL     1      19.778  41.731  36.168  1.00  0.00    -0.341 OA
ENDROOT
BRANCH   1   7
ATOM      7  O   UNL     1      19.263  39.846  34.902  1.00  0.00    -0.350 OA
BRANCH   7   8
ATOM      8  C   UNL     1      17.869  39.847  34.680  1.00  0.00     0.160 C 
ATOM      9  C   UNL     1      17.177  39.205  35.872  1.00  0.00     0.035 C 
ENDBRANCH   7   8
ENDBRANCH   1   7
BRANCH   2  10
ATOM     10  O   UNL     1      20.971  39.991  38.124  1.00  0.00    -0.385 OA
ATOM     11  H   UNL     1      21.290  39.194  38.624  1.00  0.00     0.211 HD
ENDBRANCH   2  10
BRANCH   3  12
ATOM     12  O   UNL     1      22.006  39.242  34.739  1.00  0.00    -0.387 OA
ATOM     13  H   UNL     1      21.938  38.271  34.934  1.00  0.00     0.211 HD
ENDBRANCH   3  12
BRANCH   5  14
ATOM     14  C   UNL     1      20.621  42.296  33.907  1.00  0.00     0.191 C 
BRANCH  14  15
ATOM     15  O   UNL     1      21.244  41.306  33.136  1.00  0.00    -0.394 OA
ATOM     16  H   UNL     1      20.621  40.535  33.091  1.00  0.00     0.210 HD
ENDBRANCH  14  15
ENDBRANCH   5  14
BRANCH   4  17
ATOM     17  O   UNL     1      22.738  41.983  36.981  1.00  0.00    -0.387 OA
ATOM     18  H   UNL     1      23.421  41.355  37.334  1.00  0.00     0.211 HD
ENDBRANCH   4  17
TORSDOF 7
ENDMDL
MODEL 3
REMARK VINA RESULT:    -3.667      8.334     10.092
REMARK INTER + INTRA:          -5.375
REMARK INTER:                  -4.921
REMARK INTRA:                  -0.454
REMARK UNBOUND:                -0.636
REMARK SMILES CCO[C@@H]1O[C@H](CO)[C@@H](O)[C@H](O)[C@H]1O
REMARK SMILES IDX 4 1 13 2 11 3 9 4 6 5 5 6 3 7 2 8 1 9 14 10 12 12 7 14 8 15
REMARK SMILES IDX 10 17
REMARK H PARENT 14 11 12 13 8 16 10 18
REMARK Flexibility Score: inf
ROOT
ATOM      1  C   UNL     1      19.553  41.008  35.846  1.00  0.00     0.281 C 
ATOM      2  C   UNL     1      20.102  41.552  34.514  1.00  0.00     0.202 C 
ATOM      3  C   UNL     1      21.634  41.482  34.485  1.00  0.00     0.179 C 
ATOM      4  C   UNL     1      22.126  40.069  34.873  1.00  0.00     0.177 C 
ATOM      5  C   UNL     1      21.369  39.470  36.092  1.00  0.00     0.178 C 
ATOM      6  O   UNL     1      19.958  39.667  36.070  1.00  0.00    -0.341 OA
ENDROOT
BRANCH   1   7
ATOM      7  O   UNL     1      19.939  41.828  36.938  1.00  0.00    -0.350 OA
BRANCH   7   8
ATOM      8  C   UNL     1      19.040  42.902  37.117  1.00  0.00     0.160 C 
ATOM      9  C   UNL     1      19.833  44.183  37.325  1.00  0.00     0.035 C 
ENDBRANCH   7   8
ENDBRANCH   1   7
BRANCH   2  10
ATOM     10  O   UNL     1      19.561  40.801  33.456  1.00  0.00    -0.385 OA
ATOM     11  H   UNL     1      19.304  41.447  32.746  1.00  0.00     0.211 HD
ENDBRANCH   2  10
BRANCH   3  12
ATOM     12  O   UNL     1      22.167  42.458  35.341  1.00  0.00    -0.387 OA
ATOM     13  H   UNL     1      21.502  43.194  35.389  1.00  0.00     0.211 HD
ENDBRANCH   3  12
BRANCH   5  14
ATOM     14  C   UNL     1      21.994  39.750  37.480  1.00  0.00     0.191 C 
BRANCH  14  15
ATOM     15  O   UNL     1      21.074  39.617  38.529  1.00  0.00    -0.394 OA
ATOM     16  H   UNL     1      21.588  39.358  39.338  1.00  0.00     0.210 HD
ENDBRANCH  14  15
ENDBRANCH   5  14
BRANCH   4  17
ATOM     17  O   UNL     1      21.959  39.206  33.774  1.00  0.00    -0.387 OA
ATOM     18  H   UNL     1      22.848  39.107  33.342  1.00  0.00     0.211 HD
ENDBRANCH   4  17
TORSDOF 7
ENDMDL
MODEL 4
REMARK VINA RESULT:    -3.650      8.176     10.200
REMARK INTER + INTRA:          -5.354
REMARK INTER:                  -4.841
REMARK INTRA:                  -0.512
REMARK UNBOUND:                -0.636
REMARK SMILES CCO[C@@H]1O[C@H](CO)[C@@H](O)[C@H](O)[C@H]1O
REMARK SMILES IDX 4 1 13 2 11 3 9 4 6 5 5 6 3 7 2 8 1 9 14 10 12 12 7 14 8 15
REMARK SMILES IDX 10 17
REMARK H PARENT 14 11 12 13 8 16 10 18
REMARK Flexibility Score: inf
ROOT
ATOM      1  C   UNL     1      19.730  40.548  35.058  1.00  0.00     0.281 C 
ATOM      2  C   UNL     1      19.654  42.081  35.168  1.00  0.00     0.202 C 
ATOM      3  C   UNL     1      20.457  42.583  36.375  1.00  0.00     0.179 C 
ATOM      4  C   UNL     1      21.885  41.993  36.368  1.00  0.00     0.177 C 
ATOM      5  C   UNL     1      21.920  40.478  36.018  1.00  0.00     0.178 C 
ATOM      6  O   UNL     1      21.070  40.098  34.940  1.00  0.00    -0.341 OA
ENDROOT
BRANCH   1   7
ATOM      7  O   UNL     1      19.094  39.917  36.158  1.00  0.00    -0.350 OA
BRANCH   7   8
ATOM      8  C   UNL     1      17.710  39.758  35.930  1.00  0.00     0.160 C 
ATOM      9  C   UNL     1      17.443  38.335  35.467  1.00  0.00     0.035 C 
ENDBRANCH   7   8
ENDBRANCH   1   7
BRANCH   2  10
ATOM     10  O   UNL     1      20.151  42.650  33.983  1.00  0.00    -0.385 OA
ATOM     11  H   UNL     1      20.903  42.076  33.680  1.00  0.00     0.211 HD
ENDBRANCH   2  10
BRANCH   3  12
ATOM     12  O   UNL     1      19.779  42.258  37.560  1.00  0.00    -0.387 OA
ATOM     13  H   UNL     1      20.340  41.593  38.040  1.00  0.00     0.211 HD
ENDBRANCH   3  12
BRANCH   5  14
ATOM     14  C   UNL     1      21.840  39.505  37.220  1.00  0.00     0.191 C 
BRANCH  14  15
ATOM     15  O   UNL     1      20.964  39.948  38.221  1.00  0.00    -0.394 OA
ATOM     16  H   UNL     1      20.408  39.170  38.487  1.00  0.00     0.210 HD
ENDBRANCH  14  15
ENDBRANCH   5  14
BRANCH   4  17
ATOM     17  O   UNL     1      22.665  42.688  35.425  1.00  0.00    -0.387 OA
ATOM     18  H   UNL     1      22.171  43.516  35.191  1.00  0.00     0.211 HD
ENDBRANCH   4  17
TORSDOF 7
ENDMDL
MODEL 5
REMARK VINA RESULT:    -3.636     15.365     16.659
REMARK INTER + INTRA:          -5.335
REMARK INTER:                  -4.703
REMARK INTRA:                  -0.633
REMARK UNBOUND:                -0.636
REMARK SMILES CCO[C@@H]1O[C@H](CO)[C@@H](O)[C@H](O)[C@H]1O
REMARK SMILES IDX 4 1 13 2 11 3 9 4 6 5 5 6 3 7 2 8 1 9 14 10 12 12 7 14 8 15
REMARK SMILES IDX 10 17
REMARK H PARENT 14 11 12 13 8 16 10 18
REMARK Flexibility Score: inf
ROOT
ATOM      1  C   UNL     1      17.549  47.455  23.386  1.00  0.00     0.281 C 
ATOM      2  C   UNL     1      16.039  47.501  23.090  1.00  0.00     0.202 C 
ATOM      3  C   UNL     1      15.626  46.340  22.176  1.00  0.00     0.179 C 
ATOM      4  C   UNL     1      16.149  44.995  22.727  1.00  0.00     0.177 C 
ATOM      5  C   UNL     1      17.618  45.069  23.231  1.00  0.00     0.178 C 
ATOM      6  O   UNL     1      17.926  46.231  23.996  1.00  0.00    -0.341 OA
ENDROOT
BRANCH   1   7
ATOM      7  O   UNL     1      18.314  47.676  22.211  1.00  0.00    -0.350 OA
BRANCH   7   8
ATOM      8  C   UNL     1      19.353  48.604  22.442  1.00  0.00     0.160 C 
ATOM      9  C   UNL     1      20.688  47.877  22.392  1.00  0.00     0.035 C 
ENDBRANCH   7   8
ENDBRANCH   1   7
BRANCH   2  10
ATOM     10  O   UNL     1      15.333  47.439  24.304  1.00  0.00    -0.385 OA
ATOM     11  H   UNL     1      15.708  46.676  24.817  1.00  0.00     0.211 HD
ENDBRANCH   2  10
BRANCH   3  12
ATOM     12  O   UNL     1      16.098  46.574  20.875  1.00  0.00    -0.387 OA
ATOM     13  H   UNL     1      15.852  47.508  20.642  1.00  0.00     0.211 HD
ENDBRANCH   3  12
BRANCH   5  14
ATOM     14  C   UNL     1      18.709  44.729  22.186  1.00  0.00     0.191 C 
BRANCH  14  15
ATOM     15  O   UNL     1      18.325  45.048  20.876  1.00  0.00    -0.394 OA
ATOM     16  H   UNL     1      19.147  45.316  20.387  1.00  0.00     0.210 HD
ENDBRANCH  14  15
ENDBRANCH   5  14
BRANCH   4  17
ATOM     17  O   UNL     1      15.330  44.585  23.795  1.00  0.00    -0.387 OA
ATOM     18  H   UNL     1      14.389  44.648  23.483  1.00  0.00     0.211 HD
ENDBRANCH   4  17
TORSDOF 7
ENDMDL
MODEL 6
REMARK VINA RESULT:    -3.631     11.648     13.366
REMARK INTER + INTRA:          -5.328
REMARK INTER:                  -5.090
REMARK INTRA:                  -0.238
REMARK UNBOUND:                -0.636
REMARK SMILES CCO[C@@H]1O[C@H](CO)[C@@H](O)[C@H](O)[C@H]1O
REMARK SMILES IDX 4 1 13 2 11 3 9 4 6 5 5 6 3 7 2 8 1 9 14 10 12 12 7 14 8 15
REMARK SMILES IDX 10 17
REMARK H PARENT 14 11 12 13 8 16 10 18
REMARK Flexibility Score: inf
ROOT
ATOM      1  C   UNL     1      12.285  49.860  27.460  1.00  0.00     0.281 C 
ATOM      2  C   UNL     1      11.063  50.779  27.280  1.00  0.00     0.202 C 
ATOM      3  C   UNL     1      11.485  52.145  26.724  1.00  0.00     0.179 C 
ATOM      4  C   UNL     1      12.374  51.977  25.471  1.00  0.00     0.177 C 
ATOM      5  C   UNL     1      13.449  50.865  25.628  1.00  0.00     0.178 C 
ATOM      6  O   UNL     1      12.979  49.666  26.238  1.00  0.00    -0.341 OA
ENDROOT
BRANCH   1   7
ATOM      7  O   UNL     1      13.167  50.359  28.454  1.00  0.00    -0.350 OA
BRANCH   7   8
ATOM      8  C   UNL     1      12.835  49.862  29.732  1.00  0.00     0.160 C 
ATOM      9  C   UNL     1      12.626  51.031  30.682  1.00  0.00     0.035 C 
ENDBRANCH   7   8
ENDBRANCH   1   7
BRANCH   2  10
ATOM     10  O   UNL     1      10.150  50.160  26.408  1.00  0.00    -0.385 OA
ATOM     11  H   UNL     1       9.762  49.388  26.897  1.00  0.00     0.211 HD
ENDBRANCH   2  10
BRANCH   3  12
ATOM     12  O   UNL     1      12.147  52.877  27.722  1.00  0.00    -0.387 OA
ATOM     13  H   UNL     1      12.891  53.361  27.278  1.00  0.00     0.211 HD
ENDBRANCH   3  12
BRANCH   5  14
ATOM     14  C   UNL     1      14.821  51.324  26.180  1.00  0.00     0.191 C 
BRANCH  14  15
ATOM     15  O   UNL     1      15.694  51.760  25.174  1.00  0.00    -0.394 OA
ATOM     16  H   UNL     1      16.502  52.122  25.624  1.00  0.00     0.210 HD
ENDBRANCH  14  15
ENDBRANCH   5  14
BRANCH   4  17
ATOM     17  O   UNL     1      11.560  51.660  24.368  1.00  0.00    -0.387 OA
ATOM     18  H   UNL     1      11.711  50.702  24.159  1.00  0.00     0.211 HD
ENDBRANCH   4  17
TORSDOF 7
ENDMDL
MODEL 7
REMARK VINA RESULT:    -3.536     15.252     16.596
REMARK INTER + INTRA:          -5.206
REMARK INTER:                  -4.583
REMARK INTRA:                  -0.623
REMARK UNBOUND:                -0.636
REMARK SMILES CCO[C@@H]1O[C@H](CO)[C@@H](O)[C@H](O)[C@H]1O
REMARK SMILES IDX 4 1 13 2 11 3 9 4 6 5 5 6 3 7 2 8 1 9 14 10 12 12 7 14 8 15
REMARK SMILES IDX 10 17
REMARK H PARENT 14 11 12 13 8 16 10 18
REMARK Flexibility Score: inf
ROOT
ATOM      1  C   UNL     1      17.355  44.767  23.835  1.00  0.00     0.281 C 
ATOM      2  C   UNL     1      18.394  44.596  22.712  1.00  0.00     0.202 C 
ATOM      3  C   UNL     1      18.189  45.647  21.614  1.00  0.00     0.179 C 
ATOM      4  C   UNL     1      18.102  47.066  22.220  1.00  0.00     0.177 C 
ATOM      5  C   UNL     1      17.218  47.132  23.499  1.00  0.00     0.178 C 
ATOM      6  O   UNL     1      17.420  46.060  24.415  1.00  0.00    -0.341 OA
ENDROOT
BRANCH   1   7
ATOM      7  O   UNL     1      16.041  44.502  23.369  1.00  0.00    -0.350 OA
BRANCH   7   8
ATOM      8  C   UNL     1      15.326  43.695  24.281  1.00  0.00     0.160 C 
ATOM      9  C   UNL     1      13.926  44.264  24.456  1.00  0.00     0.035 C 
ENDBRANCH   7   8
ENDBRANCH   1   7
BRANCH   2  10
ATOM     10  O   UNL     1      19.683  44.711  23.260  1.00  0.00    -0.385 OA
ATOM     11  H   UNL     1      19.590  44.602  24.243  1.00  0.00     0.211 HD
ENDBRANCH   2  10
BRANCH   3  12
ATOM     12  O   UNL     1      17.036  45.339  20.875  1.00  0.00    -0.387 OA
ATOM     13  H   UNL     1      16.996  44.350  20.802  1.00  0.00     0.211 HD
ENDBRANCH   3  12
BRANCH   5  14
ATOM     14  C   UNL     1      15.722  47.456  23.269  1.00  0.00     0.191 C 
BRANCH  14  15
ATOM     15  O   UNL     1      15.262  47.042  22.012  1.00  0.00    -0.394 OA
ATOM     16  H   UNL     1      15.992  47.215  21.362  1.00  0.00     0.210 HD
ENDBRANCH  14  15
ENDBRANCH   5  14
BRANCH   4  17
ATOM     17  O   UNL     1      19.397  47.506  22.549  1.00  0.00    -0.387 OA
ATOM     18  H   UNL     1      20.026  46.780  22.297  1.00  0.00     0.211 HD
ENDBRANCH   4  17
TORSDOF 7
ENDMDL
MODEL 8
REMARK VINA RESULT:    -3.524     19.140     20.599
REMARK INTER + INTRA:          -5.191
REMARK INTER:                  -4.761
REMARK INTRA:                  -0.430
REMARK UNBOUND:                -0.636
REMARK SMILES CCO[C@@H]1O[C@H](CO)[C@@H](O)[C@H](O)[C@H]1O
REMARK SMILES IDX 4 1 13 2 11 3 9 4 6 5 5 6 3 7 2 8 1 9 14 10 12 12 7 14 8 15
REMARK SMILES IDX 10 17
REMARK H PARENT 14 11 12 13 8 16 10 18
REMARK Flexibility Score: inf
ROOT
ATOM      1  C   UNL     1       7.837  41.209  23.913  1.00  0.00     0.281 C 
ATOM      2  C   UNL     1       7.156  42.527  23.501  1.00  0.00     0.202 C 
ATOM      3  C   UNL     1       5.894  42.255  22.673  1.00  0.00     0.179 C 
ATOM      4  C   UNL     1       4.978  41.236  23.387  1.00  0.00     0.177 C 
ATOM      5  C   UNL     1       5.756  40.032  23.991  1.00  0.00     0.178 C 
ATOM      6  O   UNL     1       6.963  40.381  24.663  1.00  0.00    -0.341 OA
ENDROOT
BRANCH   1   7
ATOM      7  O   UNL     1       8.332  40.507  22.784  1.00  0.00    -0.350 OA
BRANCH   7   8
ATOM      8  C   UNL     1       9.735  40.360  22.845  1.00  0.00     0.160 C 
ATOM      9  C   UNL     1      10.384  41.427  21.977  1.00  0.00     0.035 C 
ENDBRANCH   7   8
ENDBRANCH   1   7
BRANCH   2  10
ATOM     10  O   UNL     1       6.830  43.255  24.659  1.00  0.00    -0.385 OA
ATOM     11  H   UNL     1       6.424  44.110  24.358  1.00  0.00     0.211 HD
ENDBRANCH   2  10
BRANCH   3  12
ATOM     12  O   UNL     1       6.258  41.803  21.395  1.00  0.00    -0.387 OA
ATOM     13  H   UNL     1       5.414  41.621  20.903  1.00  0.00     0.211 HD
ENDBRANCH   3  12
BRANCH   5  14
ATOM     14  C   UNL     1       5.916  38.799  23.068  1.00  0.00     0.191 C 
BRANCH  14  15
ATOM     15  O   UNL     1       6.949  37.944  23.475  1.00  0.00    -0.394 OA
ATOM     16  H   UNL     1       6.610  37.015  23.390  1.00  0.00     0.210 HD
ENDBRANCH  14  15
ENDBRANCH   5  14
BRANCH   4  17
ATOM     17  O   UNL     1       4.286  41.887  24.424  1.00  0.00    -0.387 OA
ATOM     18  H   UNL     1       3.990  42.766  24.071  1.00  0.00     0.211 HD
ENDBRANCH   4  17
TORSDOF 7
ENDMDL
