MODEL 1
REMARK VINA RESULT:    -4.012      0.000      0.000
REMARK INTER + INTRA:          -4.953
REMARK INTER:                  -4.833
REMARK INTRA:                  -0.120
REMARK UNBOUND:                -0.120
REMARK SMILES CC[C@H](C)[C@H]([NH3+])C(=O)[O-]
REMARK SMILES IDX 3 1 4 2 5 3 6 4 7 8 8 9 9 10 2 11 1 12
REMARK H PARENT 6 5 6 6 6 7
REMARK Flexibility Score: inf
ROOT
ATOM      1  C   UNL     1      19.511  -4.381  18.709  1.00  0.00     0.050 C 
ATOM      2  C   UNL     1      18.770  -4.883  19.962  1.00  0.00     0.014 C 
ENDROOT
BRANCH   1   3
ATOM      3  C   UNL     1      21.044  -4.686  18.746  1.00  0.00     0.230 C 
BRANCH   3   4
ATOM      4  N   UNL     1      21.831  -3.496  19.107  1.00  0.00    -0.350 N 
ATOM      5  H   UNL     1      22.796  -3.779  19.396  1.00  0.00     0.345 HD
ATOM      6  H   UNL     1      21.913  -2.868  18.273  1.00  0.00     0.345 HD
ATOM      7  H   UNL     1      21.383  -2.957  19.882  1.00  0.00     0.345 HD
ENDBRANCH   3   4
BRANCH   3   8
ATOM      8  C   UNL     1      21.551  -5.292  17.459  1.00  0.00     0.099 C 
ATOM      9  O   UNL     1      22.530  -4.787  16.849  1.00  0.00    -0.544 OA
ATOM     10  O   UNL     1      20.916  -6.406  16.924  1.00  0.00    -0.544 OA
ENDBRANCH   3   8
ENDBRANCH   1   3
BRANCH   1  11
ATOM     11  C   UNL     1      19.198  -2.877  18.496  1.00  0.00     0.006 C 
ATOM     12  C   UNL     1      18.811  -2.537  17.055  1.00  0.00     0.004 C 
ENDBRANCH   1  11
TORSDOF 4
ENDMDL
MODEL 2
REMARK VINA RESULT:    -4.004      1.503      2.126
REMARK INTER + INTRA:          -4.943
REMARK INTER:                  -4.849
REMARK INTRA:                  -0.094
REMARK UNBOUND:                -0.120
REMARK SMILES CC[C@H](C)[C@H]([NH3+])C(=O)[O-]
REMARK SMILES IDX 3 1 4 2 5 3 6 4 7 8 8 9 9 10 2 11 1 12
REMARK H PARENT 6 5 6 6 6 7
REMARK Flexibility Score: inf
ROOT
ATOM      1  C   UNL     1      20.745  -4.143  19.239  1.00  0.00     0.050 C 
ATOM      2  C   UNL     1      21.718  -3.415  20.185  1.00  0.00     0.014 C 
ENDROOT
BRANCH   1   3
ATOM      3  C   UNL     1      21.065  -3.893  17.729  1.00  0.00     0.230 C 
BRANCH   3   4
ATOM      4  N   UNL     1      19.869  -3.487  16.975  1.00  0.00    -0.350 N 
ATOM      5  H   UNL     1      19.470  -4.308  16.465  1.00  0.00     0.345 HD
ATOM      6  H   UNL     1      19.142  -3.134  17.641  1.00  0.00     0.345 HD
ATOM      7  H   UNL     1      20.084  -2.727  16.290  1.00  0.00     0.345 HD
ENDBRANCH   3   4
BRANCH   3   8
ATOM      8  C   UNL     1      21.737  -5.075  17.070  1.00  0.00     0.099 C 
ATOM      9  O   UNL     1      22.892  -4.970  16.579  1.00  0.00    -0.544 OA
ATOM     10  O   UNL     1      21.065  -6.287  16.979  1.00  0.00    -0.544 OA
ENDBRANCH   3   8
ENDBRANCH   1   3
BRANCH   1  11
ATOM     11  C   UNL     1      19.288  -3.775  19.617  1.00  0.00     0.006 C 
ATOM     12  C   UNL     1      18.463  -4.973  20.090  1.00  0.00     0.004 C 
ENDBRANCH   1  11
TORSDOF 4
ENDMDL
MODEL 3
REMARK VINA RESULT:    -3.999      4.112      5.209
REMARK INTER + INTRA:          -4.937
REMARK INTER:                  -4.845
REMARK INTRA:                  -0.093
REMARK UNBOUND:                -0.120
REMARK SMILES CC[C@H](C)[C@H]([NH3+])C(=O)[O-]
REMARK SMILES IDX 3 1 4 2 5 3 6 4 7 8 8 9 9 10 2 11 1 12
REMARK H PARENT 6 5 6 6 6 7
REMARK Flexibility Score: inf
ROOT
ATOM      1  C   UNL     1      17.398  -3.819  17.740  1.00  0.00     0.050 C 
ATOM      2  C   UNL     1      18.178  -2.675  17.067  1.00  0.00     0.014 C 
ENDROOT
BRANCH   1   3
ATOM      3  C   UNL     1      15.876  -3.810  17.382  1.00  0.00     0.230 C 
BRANCH   3   4
ATOM      4  N   UNL     1      15.060  -3.248  18.470  1.00  0.00    -0.350 N 
ATOM      5  H   UNL     1      14.208  -2.786  18.077  1.00  0.00     0.345 HD
ATOM      6  H   UNL     1      14.746  -4.022  19.103  1.00  0.00     0.345 HD
ATOM      7  H   UNL     1      15.598  -2.556  19.039  1.00  0.00     0.345 HD
ENDBRANCH   3   4
BRANCH   3   8
ATOM      8  C   UNL     1      15.362  -5.171  16.976  1.00  0.00     0.099 C 
ATOM      9  O   UNL     1      14.354  -5.675  17.538  1.00  0.00    -0.544 OA
ATOM     10  O   UNL     1      16.022  -5.890  15.988  1.00  0.00    -0.544 OA
ENDBRANCH   3   8
ENDBRANCH   1   3
BRANCH   1  11
ATOM     11  C   UNL     1      17.660  -3.791  19.268  1.00  0.00     0.006 C 
ATOM     12  C   UNL     1      18.423  -5.016  19.775  1.00  0.00     0.004 C 
ENDBRANCH   1  11
TORSDOF 4
ENDMDL
MODEL 4
REMARK VINA RESULT:    -3.957      5.951      6.579
REMARK INTER + INTRA:          -4.886
REMARK INTER:                  -4.754
REMARK INTRA:                  -0.132
REMARK UNBOUND:                -0.120
REMARK SMILES CC[C@H](C)[C@H]([NH3+])C(=O)[O-]
REMARK SMILES IDX 3 1 4 2 5 3 6 4 7 8 8 9 9 10 2 11 1 12
REMARK H PARENT 6 5 6 6 6 7
REMARK Flexibility Score: inf
ROOT
ATOM      1  C   UNL     1      22.071  -1.544  21.815  1.00  0.00     0.050 C 
ATOM      2  C   UNL     1      21.680  -2.528  20.697  1.00  0.00     0.014 C 
ENDROOT
BRANCH   1   3
ATOM      3  C   UNL     1      23.602  -1.228  21.840  1.00  0.00     0.230 C 
BRANCH   3   4
ATOM      4  N   UNL     1      24.409  -2.440  22.054  1.00  0.00    -0.350 N 
ATOM      5  H   UNL     1      24.745  -2.476  23.044  1.00  0.00     0.345 HD
ATOM      6  H   UNL     1      23.816  -3.286  21.882  1.00  0.00     0.345 HD
ATOM      7  H   UNL     1      25.230  -2.477  21.409  1.00  0.00     0.345 HD
ENDBRANCH   3   4
BRANCH   3   8
ATOM      8  C   UNL     1      23.963  -0.160  22.845  1.00  0.00     0.099 C 
ATOM      9  O   UNL     1      24.955  -0.301  23.608  1.00  0.00    -0.544 OA
ATOM     10  O   UNL     1      23.179   0.982  22.950  1.00  0.00    -0.544 OA
ENDBRANCH   3   8
ENDBRANCH   1   3
BRANCH   1  11
ATOM     11  C   UNL     1      21.540  -2.072  23.173  1.00  0.00     0.006 C 
ATOM     12  C   UNL     1      20.426  -1.207  23.766  1.00  0.00     0.004 C 
ENDBRANCH   1  11
TORSDOF 4
ENDMDL
MODEL 5
REMARK VINA RESULT:    -3.912      4.758      5.369
REMARK INTER + INTRA:          -4.832
REMARK INTER:                  -4.702
REMARK INTRA:                  -0.130
REMARK UNBOUND:                -0.120
REMARK SMILES CC[C@H](C)[C@H]([NH3+])C(=O)[O-]
REMARK SMILES IDX 3 1 4 2 5 3 6 4 7 8 8 9 9 10 2 11 1 12
REMARK H PARENT 6 5 6 6 6 7
REMARK Flexibility Score: inf
ROOT
ATOM      1  C   UNL     1      21.609  -2.769  22.524  1.00  0.00     0.050 C 
ATOM      2  C   UNL     1      21.203  -1.812  23.660  1.00  0.00     0.014 C 
ENDROOT
BRANCH   1   3
ATOM      3  C   UNL     1      22.662  -2.144  21.550  1.00  0.00     0.230 C 
BRANCH   3   4
ATOM      4  N   UNL     1      24.040  -2.474  21.947  1.00  0.00    -0.350 N 
ATOM      5  H   UNL     1      24.440  -3.185  21.293  1.00  0.00     0.345 HD
ATOM      6  H   UNL     1      24.632  -1.612  21.891  1.00  0.00     0.345 HD
ATOM      7  H   UNL     1      24.083  -2.840  22.925  1.00  0.00     0.345 HD
ENDBRANCH   3   4
BRANCH   3   8
ATOM      8  C   UNL     1      22.495  -0.652  21.388  1.00  0.00     0.099 C 
ATOM      9  O   UNL     1      21.590  -0.180  20.649  1.00  0.00    -0.544 OA
ATOM     10  O   UNL     1      23.364   0.215  22.038  1.00  0.00    -0.544 OA
ENDBRANCH   3   8
ENDBRANCH   1   3
BRANCH   1  11
ATOM     11  C   UNL     1      20.337  -3.272  21.796  1.00  0.00     0.006 C 
ATOM     12  C   UNL     1      20.586  -3.659  20.337  1.00  0.00     0.004 C 
ENDBRANCH   1  11
TORSDOF 4
ENDMDL
MODEL 6
REMARK VINA RESULT:    -3.872      2.329      3.205
REMARK INTER + INTRA:          -4.784
REMARK INTER:                  -4.736
REMARK INTRA:                  -0.049
REMARK UNBOUND:                -0.120
REMARK SMILES CC[C@H](C)[C@H]([NH3+])C(=O)[O-]
REMARK SMILES IDX 3 1 4 2 5 3 6 4 7 8 8 9 9 10 2 11 1 12
REMARK H PARENT 6 5 6 6 6 7
REMARK Flexibility Score: inf
ROOT
ATOM      1  C   UNL     1      20.489  -4.534  19.140  1.00  0.00     0.050 C 
ATOM      2  C   UNL     1      21.400  -3.787  20.131  1.00  0.00     0.014 C 
ENDROOT
BRANCH   1   3
ATOM      3  C   UNL     1      20.565  -3.955  17.689  1.00  0.00     0.230 C 
BRANCH   3   4
ATOM      4  N   UNL     1      21.954  -3.724  17.263  1.00  0.00    -0.350 N 
ATOM      5  H   UNL     1      22.031  -2.802  16.776  1.00  0.00     0.345 HD
ATOM      6  H   UNL     1      22.576  -3.699  18.105  1.00  0.00     0.345 HD
ATOM      7  H   UNL     1      22.293  -4.481  16.626  1.00  0.00     0.345 HD
ENDBRANCH   3   4
BRANCH   3   8
ATOM      8  C   UNL     1      19.737  -2.704  17.514  1.00  0.00     0.099 C 
ATOM      9  O   UNL     1      18.712  -2.705  16.782  1.00  0.00    -0.544 OA
ATOM     10  O   UNL     1      20.122  -1.528  18.146  1.00  0.00    -0.544 OA
ENDBRANCH   3   8
ENDBRANCH   1   3
BRANCH   1  11
ATOM     11  C   UNL     1      19.044  -4.574  19.699  1.00  0.00     0.006 C 
ATOM     12  C   UNL     1      18.925  -4.002  21.113  1.00  0.00     0.004 C 
ENDBRANCH   1  11
TORSDOF 4
ENDMDL
MODEL 7
REMARK VINA RESULT:    -3.858      3.507      4.259
REMARK INTER + INTRA:          -4.768
REMARK INTER:                  -4.624
REMARK INTRA:                  -0.144
REMARK UNBOUND:                -0.120
REMARK SMILES CC[C@H](C)[C@H]([NH3+])C(=O)[O-]
REMARK SMILES IDX 3 1 4 2 5 3 6 4 7 8 8 9 9 10 2 11 1 12
REMARK H PARENT 6 5 6 6 6 7
REMARK Flexibility Score: inf
ROOT
ATOM      1  C   UNL     1      19.913  -3.000  21.250  1.00  0.00     0.050 C 
ATOM      2  C   UNL     1      18.856  -4.113  21.128  1.00  0.00     0.014 C 
ENDROOT
BRANCH   1   3
ATOM      3  C   UNL     1      20.711  -2.773  19.924  1.00  0.00     0.230 C 
BRANCH   3   4
ATOM      4  N   UNL     1      22.118  -3.185  20.053  1.00  0.00    -0.350 N 
ATOM      5  H   UNL     1      22.184  -4.228  20.095  1.00  0.00     0.345 HD
ATOM      6  H   UNL     1      22.652  -2.860  19.213  1.00  0.00     0.345 HD
ATOM      7  H   UNL     1      22.564  -2.775  20.905  1.00  0.00     0.345 HD
ENDBRANCH   3   4
BRANCH   3   8
ATOM      8  C   UNL     1      20.614  -1.352  19.419  1.00  0.00     0.099 C 
ATOM      9  O   UNL     1      21.171  -0.407  20.039  1.00  0.00    -0.544 OA
ATOM     10  O   UNL     1      19.882  -1.077  18.272  1.00  0.00    -0.544 OA
ENDBRANCH   3   8
ENDBRANCH   1   3
BRANCH   1  11
ATOM     11  C   UNL     1      20.830  -3.292  22.465  1.00  0.00     0.006 C 
ATOM     12  C   UNL     1      21.001  -2.091  23.398  1.00  0.00     0.004 C 
ENDBRANCH   1  11
TORSDOF 4
ENDMDL
MODEL 8
REMARK VINA RESULT:    -3.850      3.304      4.078
REMARK INTER + INTRA:          -4.757
REMARK INTER:                  -4.625
REMARK INTRA:                  -0.132
REMARK UNBOUND:                -0.120
REMARK SMILES CC[C@H](C)[C@H]([NH3+])C(=O)[O-]
REMARK SMILES IDX 3 1 4 2 5 3 6 4 7 8 8 9 9 10 2 11 1 12
REMARK H PARENT 6 5 6 6 6 7
REMARK Flexibility Score: inf
ROOT
ATOM      1  C   UNL     1      16.263  -3.299  18.151  1.00  0.00     0.050 C 
ATOM      2  C   UNL     1      15.608  -1.906  18.172  1.00  0.00     0.014 C 
ENDROOT
BRANCH   1   3
ATOM      3  C   UNL     1      17.821  -3.237  18.038  1.00  0.00     0.230 C 
BRANCH   3   4
ATOM      4  N   UNL     1      18.259  -2.920  16.669  1.00  0.00    -0.350 N 
ATOM      5  H   UNL     1      18.465  -3.802  16.146  1.00  0.00     0.345 HD
ATOM      6  H   UNL     1      17.491  -2.417  16.167  1.00  0.00     0.345 HD
ATOM      7  H   UNL     1      19.108  -2.311  16.666  1.00  0.00     0.345 HD
ENDBRANCH   3   4
BRANCH   3   8
ATOM      8  C   UNL     1      18.496  -4.492  18.538  1.00  0.00     0.099 C 
ATOM      9  O   UNL     1      18.120  -5.046  19.605  1.00  0.00    -0.544 OA
ATOM     10  O   UNL     1      19.562  -5.032  17.830  1.00  0.00    -0.544 OA
ENDBRANCH   3   8
ENDBRANCH   1   3
BRANCH   1  11
ATOM     11  C   UNL     1      15.610  -4.158  17.039  1.00  0.00     0.006 C 
ATOM     12  C   UNL     1      14.833  -5.361  17.578  1.00  0.00     0.004 C 
ENDBRANCH   1  11
TORSDOF 4
ENDMDL
MODEL 9
REMARK VINA RESULT:    -3.841      2.935      3.588
REMARK INTER + INTRA:          -4.747
REMARK INTER:                  -4.650
REMARK INTRA:                  -0.097
REMARK UNBOUND:                -0.120
REMARK SMILES CC[C@H](C)[C@H]([NH3+])C(=O)[O-]
REMARK SMILES IDX 3 1 4 2 5 3 6 4 7 8 8 9 9 10 2 11 1 12
REMARK H PARENT 6 5 6 6 6 7
REMARK Flexibility Score: inf
ROOT
ATOM      1  C   UNL     1      19.983  -3.195  21.113  1.00  0.00     0.050 C 
ATOM      2  C   UNL     1      18.752  -4.121  21.128  1.00  0.00     0.014 C 
ENDROOT
BRANCH   1   3
ATOM      3  C   UNL     1      20.884  -3.403  19.853  1.00  0.00     0.230 C 
BRANCH   3   4
ATOM      4  N   UNL     1      22.293  -3.077  20.126  1.00  0.00    -0.350 N 
ATOM      5  H   UNL     1      22.497  -2.095  19.831  1.00  0.00     0.345 HD
ATOM      6  H   UNL     1      22.473  -3.152  21.155  1.00  0.00     0.345 HD
ATOM      7  H   UNL     1      22.943  -3.729  19.631  1.00  0.00     0.345 HD
ENDBRANCH   3   4
BRANCH   3   8
ATOM      8  C   UNL     1      20.385  -2.646  18.645  1.00  0.00     0.099 C 
ATOM      9  O   UNL     1      20.041  -1.437  18.737  1.00  0.00    -0.544 OA
ATOM     10  O   UNL     1      20.276  -3.293  17.421  1.00  0.00    -0.544 OA
ENDBRANCH   3   8
ENDBRANCH   1   3
BRANCH   1  11
ATOM     11  C   UNL     1      20.760  -3.352  22.445  1.00  0.00     0.006 C 
ATOM     12  C   UNL     1      20.809  -2.067  23.274  1.00  0.00     0.004 C 
ENDBRANCH   1  11
TORSDOF 4
ENDMDL
