MODEL 1
REMARK VINA RESULT:    -2.700      0.000      0.000
REMARK INTER + INTRA:          -4.599
REMARK INTER:                  -4.120
REMARK INTRA:                  -0.479
REMARK UNBOUND:                -0.479
REMARK SMILES OC[C@@H]1O[C@](CO)(O[C@H]2O[C@H](CO)[C@H](O)[C@@H](O)[C@H]2O)[C@H](O)[C@@H]1O
REMARK SMILES IDX 8 1 9 2 11 3 14 4 10 5 16 6 18 7 12 8 13 9 15 11 17 13 19 15
REMARK SMILES IDX 5 17 20 18 4 19 22 20 3 21 6 22 7 23 21 25 23 27 2 29 1 30
REMARK H PARENT 13 10 15 12 17 14 19 16 7 24 21 26 23 28 1 31
REMARK Flexibility Score: inf
ROOT
ATOM      1  O   UNL     1       7.289  -4.980  -1.822  1.00  0.00    -0.313 OA
ENDROOT
BRANCH   1   2
ATOM      2  C   UNL     1       8.515  -5.505  -2.323  1.00  0.00     0.285 C 
ATOM      3  C   UNL     1      10.506  -6.108  -1.105  1.00  0.00     0.178 C 
ATOM      4  C   UNL     1      10.891  -7.094  -2.261  1.00  0.00     0.177 C 
ATOM      5  O   UNL     1       9.617  -5.077  -1.518  1.00  0.00    -0.341 OA
ATOM      6  C   UNL     1       9.662  -7.591  -3.068  1.00  0.00     0.179 C 
ATOM      7  C   UNL     1       8.350  -7.027  -2.494  1.00  0.00     0.202 C 
BRANCH   3   8
ATOM      8  C   UNL     1      11.747  -5.476  -0.436  1.00  0.00     0.191 C 
BRANCH   8   9
ATOM      9  O   UNL     1      12.729  -5.125  -1.376  1.00  0.00    -0.394 OA
ATOM     10  H   UNL     1      13.151  -4.287  -1.059  1.00  0.00     0.210 HD
ENDBRANCH   8   9
ENDBRANCH   3   8
BRANCH   4  11
ATOM     11  O   UNL     1      11.844  -6.524  -3.125  1.00  0.00    -0.387 OA
ATOM     12  H   UNL     1      12.662  -6.343  -2.595  1.00  0.00     0.211 HD
ENDBRANCH   4  11
BRANCH   6  13
ATOM     13  O   UNL     1       9.627  -8.996  -3.109  1.00  0.00    -0.387 OA
ATOM     14  H   UNL     1       9.537  -9.313  -2.170  1.00  0.00     0.211 HD
ENDBRANCH   6  13
BRANCH   7  15
ATOM     15  O   UNL     1       8.024  -7.631  -1.265  1.00  0.00    -0.385 OA
ATOM     16  H   UNL     1       7.188  -8.154  -1.398  1.00  0.00     0.211 HD
ENDBRANCH   7  15
ENDBRANCH   1   2
BRANCH   1  17
ATOM     17  C   UNL     1       6.960  -3.638  -2.199  1.00  0.00     0.224 C 
ATOM     18  C   UNL     1       6.546  -2.786  -0.959  1.00  0.00     0.208 C 
ATOM     19  O   UNL     1       5.813  -3.744  -3.024  1.00  0.00    -0.337 OA
ATOM     20  C   UNL     1       5.132  -2.299  -1.255  1.00  0.00     0.180 C 
ATOM     21  C   UNL     1       4.950  -2.669  -2.725  1.00  0.00     0.179 C 
BRANCH  17  22
ATOM     22  C   UNL     1       8.054  -2.937  -3.073  1.00  0.00     0.225 C 
BRANCH  22  23
ATOM     23  O   UNL     1       9.037  -2.317  -2.285  1.00  0.00    -0.391 OA
ATOM     24  H   UNL     1       9.062  -1.359  -2.554  1.00  0.00     0.210 HD
ENDBRANCH  22  23
ENDBRANCH  17  22
BRANCH  18  25
ATOM     25  O   UNL     1       6.618  -3.487   0.263  1.00  0.00    -0.385 OA
ATOM     26  H   UNL     1       5.755  -3.373   0.743  1.00  0.00     0.211 HD
ENDBRANCH  18  25
BRANCH  20  27
ATOM     27  O   UNL     1       4.187  -2.951  -0.437  1.00  0.00    -0.387 OA
ATOM     28  H   UNL     1       4.562  -3.835  -0.193  1.00  0.00     0.211 HD
ENDBRANCH  20  27
BRANCH  21  29
ATOM     29  C   UNL     1       3.500  -3.016  -3.125  1.00  0.00     0.191 C 
BRANCH  29  30
ATOM     30  O   UNL     1       3.272  -4.400  -3.095  1.00  0.00    -0.394 OA
ATOM     31  H   UNL     1       3.739  -4.748  -2.292  1.00  0.00     0.210 HD
ENDBRANCH  29  30
ENDBRANCH  21  29
ENDBRANCH   1  17
TORSDOF 13
ENDMDL
MODEL 2
REMARK VINA RESULT:    -2.409      1.701      6.282
REMARK INTER + INTRA:          -4.156
REMARK INTER:                  -4.548
REMARK INTRA:                   0.391
REMARK UNBOUND:                -0.479
REMARK SMILES OC[C@@H]1O[C@](CO)(O[C@H]2O[C@H](CO)[C@H](O)[C@@H](O)[C@H]2O)[C@H](O)[C@@H]1O
REMARK SMILES IDX 8 1 9 2 11 3 14 4 10 5 16 6 18 7 12 8 13 9 15 11 17 13 19 15
REMARK SMILES IDX 5 17 20 18 4 19 22 20 3 21 6 22 7 23 21 25 23 27 2 29 1 30
REMARK H PARENT 13 10 15 12 17 14 19 16 7 24 21 26 23 28 1 31
REMARK Flexibility Score: inf
ROOT
ATOM      1  O   UNL     1       9.593  -4.061  -1.868  1.00  0.00    -0.313 OA
ENDROOT
BRANCH   1   2
ATOM      2  C   UNL     1       8.212  -4.089  -2.213  1.00  0.00     0.285 C 
ATOM      3  C   UNL     1       6.569  -5.784  -1.722  1.00  0.00     0.178 C 
ATOM      4  C   UNL     1       5.442  -4.701  -1.848  1.00  0.00     0.177 C 
ATOM      5  O   UNL     1       7.764  -5.434  -2.409  1.00  0.00    -0.341 OA
ATOM      6  C   UNL     1       5.950  -3.263  -1.558  1.00  0.00     0.179 C 
ATOM      7  C   UNL     1       7.439  -3.263  -1.167  1.00  0.00     0.202 C 
BRANCH   3   8
ATOM      8  C   UNL     1       6.097  -7.177  -2.196  1.00  0.00     0.191 C 
BRANCH   8   9
ATOM      9  O   UNL     1       6.969  -8.196  -1.781  1.00  0.00    -0.394 OA
ATOM     10  H   UNL     1       7.552  -8.415  -2.552  1.00  0.00     0.210 HD
ENDBRANCH   8   9
ENDBRANCH   3   8
BRANCH   4  11
ATOM     11  O   UNL     1       4.816  -4.754  -3.106  1.00  0.00    -0.387 OA
ATOM     12  H   UNL     1       4.144  -4.027  -3.140  1.00  0.00     0.211 HD
ENDBRANCH   4  11
BRANCH   6  13
ATOM     13  O   UNL     1       5.171  -2.649  -0.563  1.00  0.00    -0.387 OA
ATOM     14  H   UNL     1       5.632  -1.802  -0.314  1.00  0.00     0.211 HD
ENDBRANCH   6  13
BRANCH   7  15
ATOM     15  O   UNL     1       7.632  -3.792   0.123  1.00  0.00    -0.385 OA
ATOM     16  H   UNL     1       8.427  -3.342   0.518  1.00  0.00     0.211 HD
ENDBRANCH   7  15
ENDBRANCH   1   2
BRANCH   1  17
ATOM     17  C   UNL     1      10.374  -5.203  -2.239  1.00  0.00     0.224 C 
ATOM     18  C   UNL     1      11.046  -5.860  -0.993  1.00  0.00     0.208 C 
ATOM     19  O   UNL     1      11.422  -4.700  -3.052  1.00  0.00    -0.337 OA
ATOM     20  C   UNL     1      12.544  -5.820  -1.272  1.00  0.00     0.180 C 
ATOM     21  C   UNL     1      12.602  -5.407  -2.740  1.00  0.00     0.179 C 
BRANCH  17  22
ATOM     22  C   UNL     1       9.604  -6.240  -3.124  1.00  0.00     0.225 C 
BRANCH  22  23
ATOM     23  O   UNL     1       9.836  -7.560  -2.707  1.00  0.00    -0.391 OA
ATOM     24  H   UNL     1      10.685  -7.854  -3.133  1.00  0.00     0.210 HD
ENDBRANCH  22  23
ENDBRANCH  17  22
BRANCH  18  25
ATOM     25  O   UNL     1      10.721  -5.230   0.227  1.00  0.00    -0.385 OA
ATOM     26  H   UNL     1      10.157  -5.851   0.761  1.00  0.00     0.211 HD
ENDBRANCH  18  25
BRANCH  20  27
ATOM     27  O   UNL     1      13.193  -4.882  -0.445  1.00  0.00    -0.387 OA
ATOM     28  H   UNL     1      13.240  -4.027  -0.944  1.00  0.00     0.211 HD
ENDBRANCH  20  27
BRANCH  21  29
ATOM     29  C   UNL     1      13.844  -4.575  -3.125  1.00  0.00     0.191 C 
BRANCH  29  30
ATOM     30  O   UNL     1      13.683  -3.221  -2.793  1.00  0.00    -0.394 OA
ATOM     31  H   UNL     1      12.850  -3.157  -2.256  1.00  0.00     0.210 HD
ENDBRANCH  29  30
ENDBRANCH  21  29
ENDBRANCH   1  17
TORSDOF 13
ENDMDL
MODEL 3
REMARK VINA RESULT:    -1.390      1.656      6.431
REMARK INTER + INTRA:          -2.601
REMARK INTER:                  -1.632
REMARK INTRA:                  -0.969
REMARK UNBOUND:                -0.479
REMARK SMILES OC[C@@H]1O[C@](CO)(O[C@H]2O[C@H](CO)[C@H](O)[C@@H](O)[C@H]2O)[C@H](O)[C@@H]1O
REMARK SMILES IDX 8 1 9 2 11 3 14 4 10 5 16 6 18 7 12 8 13 9 15 11 17 13 19 15
REMARK SMILES IDX 5 17 20 18 4 19 22 20 3 21 6 22 7 23 21 25 23 27 2 29 1 30
REMARK H PARENT 13 10 15 12 17 14 19 16 7 24 21 26 23 28 1 31
REMARK Flexibility Score: inf
ROOT
ATOM      1  O   UNL     1       8.587  -5.596  -1.464  1.00  0.00    -0.313 OA
ENDROOT
BRANCH   1   2
ATOM      2  C   UNL     1       8.074  -4.360  -1.951  1.00  0.00     0.285 C 
ATOM      3  C   UNL     1       6.000  -3.265  -1.395  1.00  0.00     0.178 C 
ATOM      4  C   UNL     1       6.637  -1.892  -1.805  1.00  0.00     0.177 C 
ATOM      5  O   UNL     1       6.644  -4.384  -1.990  1.00  0.00    -0.341 OA
ATOM      6  C   UNL     1       8.183  -1.882  -1.682  1.00  0.00     0.179 C 
ATOM      7  C   UNL     1       8.711  -3.220  -1.133  1.00  0.00     0.202 C 
BRANCH   3   8
ATOM      8  C   UNL     1       4.487  -3.324  -1.702  1.00  0.00     0.191 C 
BRANCH   8   9
ATOM      9  O   UNL     1       3.838  -2.119  -1.385  1.00  0.00    -0.394 OA
ATOM     10  H   UNL     1       3.427  -2.235  -0.491  1.00  0.00     0.210 HD
ENDBRANCH   8   9
ENDBRANCH   3   8
BRANCH   4  11
ATOM     11  O   UNL     1       6.247  -1.513  -3.102  1.00  0.00    -0.387 OA
ATOM     12  H   UNL     1       6.527  -0.572  -3.239  1.00  0.00     0.211 HD
ENDBRANCH   4  11
BRANCH   6  13
ATOM     13  O   UNL     1       8.614  -0.809  -0.882  1.00  0.00    -0.387 OA
ATOM     14  H   UNL     1       9.319  -1.163  -0.275  1.00  0.00     0.211 HD
ENDBRANCH   6  13
BRANCH   7  15
ATOM     15  O   UNL     1       8.415  -3.368   0.235  1.00  0.00    -0.385 OA
ATOM     16  H   UNL     1       8.208  -4.327   0.397  1.00  0.00     0.211 HD
ENDBRANCH   7  15
ENDBRANCH   1   2
BRANCH   1  17
ATOM     17  C   UNL     1       9.755  -6.111  -2.113  1.00  0.00     0.224 C 
ATOM     18  C   UNL     1      10.863  -6.483  -1.078  1.00  0.00     0.208 C 
ATOM     19  O   UNL     1      10.264  -5.038  -2.889  1.00  0.00    -0.337 OA
ATOM     20  C   UNL     1      12.074  -5.640  -1.460  1.00  0.00     0.180 C 
ATOM     21  C   UNL     1      11.672  -5.068  -2.816  1.00  0.00     0.179 C 
BRANCH  17  22
ATOM     22  C   UNL     1       9.462  -7.270  -3.124  1.00  0.00     0.225 C 
BRANCH  22  23
ATOM     23  O   UNL     1       9.423  -8.522  -2.489  1.00  0.00    -0.391 OA
ATOM     24  H   UNL     1      10.348  -8.721  -2.184  1.00  0.00     0.210 HD
ENDBRANCH  22  23
ENDBRANCH  17  22
BRANCH  18  25
ATOM     25  O   UNL     1      10.479  -6.277   0.264  1.00  0.00    -0.385 OA
ATOM     26  H   UNL     1      10.297  -5.309   0.395  1.00  0.00     0.211 HD
ENDBRANCH  18  25
BRANCH  20  27
ATOM     27  O   UNL     1      12.303  -4.619  -0.516  1.00  0.00    -0.387 OA
ATOM     28  H   UNL     1      12.918  -3.961  -0.930  1.00  0.00     0.211 HD
ENDBRANCH  20  27
BRANCH  21  29
ATOM     29  C   UNL     1      12.255  -3.672  -3.124  1.00  0.00     0.191 C 
BRANCH  29  30
ATOM     30  O   UNL     1      13.612  -3.590  -2.776  1.00  0.00    -0.394 OA
ATOM     31  H   UNL     1      13.693  -3.958  -1.858  1.00  0.00     0.210 HD
ENDBRANCH  29  30
ENDBRANCH  21  29
ENDBRANCH   1  17
TORSDOF 13
ENDMDL
MODEL 4
REMARK VINA RESULT:    -0.923      1.691      2.536
REMARK INTER + INTRA:          -1.887
REMARK INTER:                  -3.261
REMARK INTRA:                   1.373
REMARK UNBOUND:                -0.479
REMARK SMILES OC[C@@H]1O[C@](CO)(O[C@H]2O[C@H](CO)[C@H](O)[C@@H](O)[C@H]2O)[C@H](O)[C@@H]1O
REMARK SMILES IDX 8 1 9 2 11 3 14 4 10 5 16 6 18 7 12 8 13 9 15 11 17 13 19 15
REMARK SMILES IDX 5 17 20 18 4 19 22 20 3 21 6 22 7 23 21 25 23 27 2 29 1 30
REMARK H PARENT 13 10 15 12 17 14 19 16 7 24 21 26 23 28 1 31
REMARK Flexibility Score: inf
ROOT
ATOM      1  O   UNL     1       5.827  -4.871  -2.868  1.00  0.00    -0.313 OA
ENDROOT
BRANCH   1   2
ATOM      2  C   UNL     1       7.124  -5.440  -3.020  1.00  0.00     0.285 C 
ATOM      3  C   UNL     1       8.868  -5.681  -1.373  1.00  0.00     0.178 C 
ATOM      4  C   UNL     1       9.456  -6.877  -2.198  1.00  0.00     0.177 C 
ATOM      5  O   UNL     1       8.064  -4.802  -2.151  1.00  0.00    -0.341 OA
ATOM      6  C   UNL     1       8.392  -7.589  -3.075  1.00  0.00     0.179 C 
ATOM      7  C   UNL     1       6.996  -6.969  -2.877  1.00  0.00     0.202 C 
BRANCH   3   8
ATOM      8  C   UNL     1       9.968  -4.867  -0.656  1.00  0.00     0.191 C 
BRANCH   8   9
ATOM      9  O   UNL     1      11.050  -5.673  -0.268  1.00  0.00    -0.394 OA
ATOM     10  H   UNL     1      11.724  -5.626  -0.993  1.00  0.00     0.210 HD
ENDBRANCH   8   9
ENDBRANCH   3   8
BRANCH   4  11
ATOM     11  O   UNL     1      10.546  -6.468  -2.987  1.00  0.00    -0.387 OA
ATOM     12  H   UNL     1      10.881  -7.264  -3.475  1.00  0.00     0.211 HD
ENDBRANCH   4  11
BRANCH   6  13
ATOM     13  O   UNL     1       8.368  -8.969  -2.811  1.00  0.00    -0.387 OA
ATOM     14  H   UNL     1       7.483  -9.172  -2.404  1.00  0.00     0.211 HD
ENDBRANCH   6  13
BRANCH   7  15
ATOM     15  O   UNL     1       6.458  -7.305  -1.620  1.00  0.00    -0.385 OA
ATOM     16  H   UNL     1       6.988  -6.826  -0.927  1.00  0.00     0.211 HD
ENDBRANCH   7  15
ENDBRANCH   1   2
BRANCH   1  17
ATOM     17  C   UNL     1       5.686  -3.841  -1.883  1.00  0.00     0.224 C 
ATOM     18  C   UNL     1       4.183  -3.546  -1.582  1.00  0.00     0.208 C 
ATOM     19  O   UNL     1       6.222  -2.670  -2.475  1.00  0.00    -0.337 OA
ATOM     20  C   UNL     1       3.987  -2.070  -1.906  1.00  0.00     0.180 C 
ATOM     21  C   UNL     1       5.418  -1.575  -2.098  1.00  0.00     0.179 C 
BRANCH  17  22
ATOM     22  C   UNL     1       6.523  -4.086  -0.582  1.00  0.00     0.225 C 
BRANCH  22  23
ATOM     23  O   UNL     1       5.789  -3.792   0.577  1.00  0.00    -0.391 OA
ATOM     24  H   UNL     1       6.436  -3.769   1.332  1.00  0.00     0.210 HD
ENDBRANCH  22  23
ENDBRANCH  17  22
BRANCH  18  25
ATOM     25  O   UNL     1       3.288  -4.367  -2.300  1.00  0.00    -0.385 OA
ATOM     26  H   UNL     1       3.129  -3.957  -3.191  1.00  0.00     0.211 HD
ENDBRANCH  18  25
BRANCH  20  27
ATOM     27  O   UNL     1       3.220  -1.901  -3.076  1.00  0.00    -0.387 OA
ATOM     28  H   UNL     1       3.831  -1.590  -3.792  1.00  0.00     0.211 HD
ENDBRANCH  20  27
BRANCH  21  29
ATOM     29  C   UNL     1       5.568  -0.423  -3.115  1.00  0.00     0.191 C 
BRANCH  29  30
ATOM     30  O   UNL     1       5.831   0.799  -2.479  1.00  0.00    -0.394 OA
ATOM     31  H   UNL     1       4.952   1.236  -2.327  1.00  0.00     0.210 HD
ENDBRANCH  29  30
ENDBRANCH  21  29
ENDBRANCH   1  17
TORSDOF 13
ENDMDL
