MODEL 1
REMARK VINA RESULT:    -4.750      0.000      0.000
REMARK INTER + INTRA:          -4.889
REMARK INTER:                  -4.889
REMARK INTRA:                   0.000
REMARK UNBOUND:                 0.000
REMARK SMILES Cc1ccccc1O
REMARK SMILES IDX 1 1 2 2 3 3 4 4 5 5 6 6 7 7 8 8
REMARK H PARENT 8 9
REMARK Flexibility Score: inf
ROOT
ATOM      1  C   UNL     1      -7.515   7.574 -14.875  1.00  0.00     0.048 C 
ATOM      2  C   UNL     1      -6.246   8.369 -15.002  1.00  0.00    -0.009 A 
ATOM      3  C   UNL     1      -5.532   8.374 -16.212  1.00  0.00     0.007 A 
ATOM      4  C   UNL     1      -4.352   9.114 -16.331  1.00  0.00     0.001 A 
ATOM      5  C   UNL     1      -3.875   9.852 -15.246  1.00  0.00     0.004 A 
ATOM      6  C   UNL     1      -4.577   9.854 -14.039  1.00  0.00     0.046 A 
ATOM      7  C   UNL     1      -5.763   9.115 -13.910  1.00  0.00     0.118 A 
ENDROOT
BRANCH   7   8
ATOM      8  O   UNL     1      -6.462   9.119 -12.703  1.00  0.00    -0.508 OA
ATOM      9  H   UNL     1      -7.440   9.379 -12.656  1.00  0.00     0.293 HD
ENDBRANCH   7   8
TORSDOF 1
ENDMDL
MODEL 2
REMARK VINA RESULT:    -4.742      1.536      2.750
REMARK INTER + INTRA:          -4.880
REMARK INTER:                  -4.880
REMARK INTRA:                   0.000
REMARK UNBOUND:                 0.000
REMARK SMILES Cc1ccccc1O
REMARK SMILES IDX 1 1 2 2 3 3 4 4 5 5 6 6 7 7 8 8
REMARK H PARENT 8 9
REMARK Flexibility Score: inf
ROOT
ATOM      1  C   UNL     1      -5.113   8.664 -17.016  1.00  0.00     0.048 C 
ATOM      2  C   UNL     1      -5.681   8.696 -15.625  1.00  0.00    -0.009 A 
ATOM      3  C   UNL     1      -6.855   7.984 -15.323  1.00  0.00     0.007 A 
ATOM      4  C   UNL     1      -7.383   8.013 -14.030  1.00  0.00     0.001 A 
ATOM      5  C   UNL     1      -6.747   8.750 -13.028  1.00  0.00     0.004 A 
ATOM      6  C   UNL     1      -5.580   9.460 -13.317  1.00  0.00     0.046 A 
ATOM      7  C   UNL     1      -5.041   9.438 -14.613  1.00  0.00     0.118 A 
ENDROOT
BRANCH   7   8
ATOM      8  O   UNL     1      -3.875  10.148 -14.898  1.00  0.00    -0.508 OA
ATOM      9  H   UNL     1      -3.878  11.156 -14.997  1.00  0.00     0.293 HD
ENDBRANCH   7   8
TORSDOF 1
ENDMDL
MODEL 3
REMARK VINA RESULT:    -4.715      1.174      1.922
REMARK INTER + INTRA:          -4.853
REMARK INTER:                  -4.853
REMARK INTRA:                   0.000
REMARK UNBOUND:                 0.000
REMARK SMILES Cc1ccccc1O
REMARK SMILES IDX 1 1 2 2 3 3 4 4 5 5 6 6 7 7 8 8
REMARK H PARENT 8 9
REMARK Flexibility Score: inf
ROOT
ATOM      1  C   UNL     1      -6.490   8.904 -12.373  1.00  0.00     0.048 C 
ATOM      2  C   UNL     1      -5.795   8.922 -13.705  1.00  0.00    -0.009 A 
ATOM      3  C   UNL     1      -6.415   8.364 -14.836  1.00  0.00     0.007 A 
ATOM      4  C   UNL     1      -5.769   8.381 -16.074  1.00  0.00     0.001 A 
ATOM      5  C   UNL     1      -4.501   8.953 -16.196  1.00  0.00     0.004 A 
ATOM      6  C   UNL     1      -3.875   9.511 -15.078  1.00  0.00     0.046 A 
ATOM      7  C   UNL     1      -4.517   9.499 -13.830  1.00  0.00     0.118 A 
ENDROOT
BRANCH   7   8
ATOM      8  O   UNL     1      -3.889  10.057 -12.717  1.00  0.00    -0.508 OA
ATOM      9  H   UNL     1      -4.353  10.745 -12.135  1.00  0.00     0.293 HD
ENDBRANCH   7   8
TORSDOF 1
ENDMDL
MODEL 4
REMARK VINA RESULT:    -4.674      0.941      2.320
REMARK INTER + INTRA:          -4.811
REMARK INTER:                  -4.811
REMARK INTRA:                   0.000
REMARK UNBOUND:                 0.000
REMARK SMILES Cc1ccccc1O
REMARK SMILES IDX 1 1 2 2 3 3 4 4 5 5 6 6 7 7 8 8
REMARK H PARENT 8 9
REMARK Flexibility Score: inf
ROOT
ATOM      1  C   UNL     1      -4.467   9.431 -12.743  1.00  0.00     0.048 C 
ATOM      2  C   UNL     1      -4.809   9.199 -14.188  1.00  0.00    -0.009 A 
ATOM      3  C   UNL     1      -3.875   9.501 -15.194  1.00  0.00     0.007 A 
ATOM      4  C   UNL     1      -4.192   9.285 -16.538  1.00  0.00     0.001 A 
ATOM      5  C   UNL     1      -5.441   8.767 -16.890  1.00  0.00     0.004 A 
ATOM      6  C   UNL     1      -6.376   8.464 -15.897  1.00  0.00     0.046 A 
ATOM      7  C   UNL     1      -6.067   8.677 -14.545  1.00  0.00     0.118 A 
ENDROOT
BRANCH   7   8
ATOM      8  O   UNL     1      -7.003   8.372 -13.558  1.00  0.00    -0.508 OA
ATOM      9  H   UNL     1      -7.967   8.678 -13.627  1.00  0.00     0.293 HD
ENDBRANCH   7   8
TORSDOF 1
ENDMDL
MODEL 5
REMARK VINA RESULT:    -4.615      1.753      2.070
REMARK INTER + INTRA:          -4.750
REMARK INTER:                  -4.750
REMARK INTRA:                   0.000
REMARK UNBOUND:                 0.000
REMARK SMILES Cc1ccccc1O
REMARK SMILES IDX 1 1 2 2 3 3 4 4 5 5 6 6 7 7 8 8
REMARK H PARENT 8 9
REMARK Flexibility Score: inf
ROOT
ATOM      1  C   UNL     1      -6.541   8.853 -13.249  1.00  0.00     0.048 C 
ATOM      2  C   UNL     1      -6.145   9.256 -14.642  1.00  0.00    -0.009 A 
ATOM      3  C   UNL     1      -5.741   8.283 -15.572  1.00  0.00     0.007 A 
ATOM      4  C   UNL     1      -5.373   8.657 -16.868  1.00  0.00     0.001 A 
ATOM      5  C   UNL     1      -5.405  10.002 -17.245  1.00  0.00     0.004 A 
ATOM      6  C   UNL     1      -5.806  10.976 -16.328  1.00  0.00     0.046 A 
ATOM      7  C   UNL     1      -6.177  10.610 -15.025  1.00  0.00     0.118 A 
ENDROOT
BRANCH   7   8
ATOM      8  O   UNL     1      -6.578  11.586 -14.113  1.00  0.00    -0.508 OA
ATOM      9  H   UNL     1      -6.205  11.618 -13.172  1.00  0.00     0.293 HD
ENDBRANCH   7   8
TORSDOF 1
ENDMDL
MODEL 6
REMARK VINA RESULT:    -4.533      1.094      2.925
REMARK INTER + INTRA:          -4.666
REMARK INTER:                  -4.666
REMARK INTRA:                   0.000
REMARK UNBOUND:                 0.000
REMARK SMILES Cc1ccccc1O
REMARK SMILES IDX 1 1 2 2 3 3 4 4 5 5 6 6 7 7 8 8
REMARK H PARENT 8 9
REMARK Flexibility Score: inf
ROOT
ATOM      1  C   UNL     1      -4.285   9.531 -14.986  1.00  0.00     0.048 C 
ATOM      2  C   UNL     1      -5.549   8.891 -14.485  1.00  0.00    -0.009 A 
ATOM      3  C   UNL     1      -6.259   7.992 -15.299  1.00  0.00     0.007 A 
ATOM      4  C   UNL     1      -7.435   7.397 -14.834  1.00  0.00     0.001 A 
ATOM      5  C   UNL     1      -7.911   7.692 -13.555  1.00  0.00     0.004 A 
ATOM      6  C   UNL     1      -7.213   8.584 -12.737  1.00  0.00     0.046 A 
ATOM      7  C   UNL     1      -6.032   9.187 -13.196  1.00  0.00     0.118 A 
ENDROOT
BRANCH   7   8
ATOM      8  O   UNL     1      -5.338  10.076 -12.376  1.00  0.00    -0.508 OA
ATOM      9  H   UNL     1      -5.573  11.061 -12.341  1.00  0.00     0.293 HD
ENDBRANCH   7   8
TORSDOF 1
ENDMDL
MODEL 7
REMARK VINA RESULT:    -4.515      1.970      3.403
REMARK INTER + INTRA:          -4.647
REMARK INTER:                  -4.647
REMARK INTRA:                   0.000
REMARK UNBOUND:                 0.000
REMARK SMILES Cc1ccccc1O
REMARK SMILES IDX 1 1 2 2 3 3 4 4 5 5 6 6 7 7 8 8
REMARK H PARENT 8 9
REMARK Flexibility Score: inf
ROOT
ATOM      1  C   UNL     1      -6.112  11.759 -14.528  1.00  0.00     0.048 C 
ATOM      2  C   UNL     1      -6.502  10.316 -14.684  1.00  0.00    -0.009 A 
ATOM      3  C   UNL     1      -7.755   9.869 -14.230  1.00  0.00     0.007 A 
ATOM      4  C   UNL     1      -8.119   8.527 -14.374  1.00  0.00     0.001 A 
ATOM      5  C   UNL     1      -7.238   7.622 -14.971  1.00  0.00     0.004 A 
ATOM      6  C   UNL     1      -5.991   8.057 -15.426  1.00  0.00     0.046 A 
ATOM      7  C   UNL     1      -5.617   9.402 -15.285  1.00  0.00     0.118 A 
ENDROOT
BRANCH   7   8
ATOM      8  O   UNL     1      -4.371   9.832 -15.741  1.00  0.00    -0.508 OA
ATOM      9  H   UNL     1      -3.567   9.215 -15.752  1.00  0.00     0.293 HD
ENDBRANCH   7   8
TORSDOF 1
ENDMDL
MODEL 8
REMARK VINA RESULT:    -4.495      1.673      2.419
REMARK INTER + INTRA:          -4.627
REMARK INTER:                  -4.627
REMARK INTRA:                   0.000
REMARK UNBOUND:                 0.000
REMARK SMILES Cc1ccccc1O
REMARK SMILES IDX 1 1 2 2 3 3 4 4 5 5 6 6 7 7 8 8
REMARK H PARENT 8 9
REMARK Flexibility Score: inf
ROOT
ATOM      1  C   UNL     1      -7.418   7.621 -14.876  1.00  0.00     0.048 C 
ATOM      2  C   UNL     1      -6.183   8.419 -14.565  1.00  0.00    -0.009 A 
ATOM      3  C   UNL     1      -5.906   8.808 -13.243  1.00  0.00     0.007 A 
ATOM      4  C   UNL     1      -4.758   9.549 -12.952  1.00  0.00     0.001 A 
ATOM      5  C   UNL     1      -3.877   9.908 -13.975  1.00  0.00     0.004 A 
ATOM      6  C   UNL     1      -4.143   9.526 -15.292  1.00  0.00     0.046 A 
ATOM      7  C   UNL     1      -5.294   8.782 -15.594  1.00  0.00     0.118 A 
ENDROOT
BRANCH   7   8
ATOM      8  O   UNL     1      -5.555   8.402 -16.910  1.00  0.00    -0.508 OA
ATOM      9  H   UNL     1      -4.994   7.704 -17.383  1.00  0.00     0.293 HD
ENDBRANCH   7   8
TORSDOF 1
ENDMDL
MODEL 9
REMARK VINA RESULT:    -4.388      1.763      3.101
REMARK INTER + INTRA:          -4.516
REMARK INTER:                  -4.516
REMARK INTRA:                   0.000
REMARK UNBOUND:                 0.000
REMARK SMILES Cc1ccccc1O
REMARK SMILES IDX 1 1 2 2 3 3 4 4 5 5 6 6 7 7 8 8
REMARK H PARENT 8 9
REMARK Flexibility Score: inf
ROOT
ATOM      1  C   UNL     1      -6.101  11.736 -14.585  1.00  0.00     0.048 C 
ATOM      2  C   UNL     1      -6.609  10.322 -14.604  1.00  0.00    -0.009 A 
ATOM      3  C   UNL     1      -5.949   9.342 -15.366  1.00  0.00     0.007 A 
ATOM      4  C   UNL     1      -6.421   8.027 -15.384  1.00  0.00     0.001 A 
ATOM      5  C   UNL     1      -7.553   7.678 -14.644  1.00  0.00     0.004 A 
ATOM      6  C   UNL     1      -8.216   8.643 -13.883  1.00  0.00     0.046 A 
ATOM      7  C   UNL     1      -7.749   9.967 -13.858  1.00  0.00     0.118 A 
ENDROOT
BRANCH   7   8
ATOM      8  O   UNL     1      -8.413  10.928 -13.096  1.00  0.00    -0.508 OA
ATOM      9  H   UNL     1      -8.399  10.906 -12.084  1.00  0.00     0.293 HD
ENDBRANCH   7   8
TORSDOF 1
ENDMDL
