MODEL 1
REMARK VINA RESULT:    -3.301      0.000      0.000
REMARK INTER + INTRA:          -4.275
REMARK INTER:                  -4.073
REMARK INTRA:                  -0.202
REMARK UNBOUND:                -0.202
REMARK SMILES Oc1cc(O)c2cc(O)c(-c3cc(O)c(O)c(O)c3)[o+]c2c1
REMARK SMILES IDX 10 1 20 2 21 3 22 4 2 5 3 6 4 7 6 8 7 9 8 10 11 11 12 12
REMARK SMILES IDX 13 13 19 14 15 15 17 16 14 17 16 19 18 21 9 23 1 25 5 27
REMARK H PARENT 14 18 16 20 18 22 9 24 1 26 5 28
REMARK Flexibility Score: inf
ROOT
ATOM      1  C   UNL     1      -4.450 -13.434  32.311  1.00  0.00     0.402 A 
ATOM      2  O   UNL     1      -4.631 -12.351  33.063  1.00  0.00    -0.202 OA
ATOM      3  C   UNL     1      -5.474 -12.307  34.089  1.00  0.00     0.368 A 
ATOM      4  C   UNL     1      -5.593 -11.124  34.823  1.00  0.00     0.162 A 
ATOM      5  C   UNL     1      -6.470 -11.052  35.909  1.00  0.00     0.128 A 
ATOM      6  C   UNL     1      -7.231 -12.168  36.263  1.00  0.00     0.093 A 
ATOM      7  C   UNL     1      -7.130 -13.366  35.545  1.00  0.00     0.136 A 
ATOM      8  C   UNL     1      -6.243 -13.443  34.440  1.00  0.00     0.125 A 
ATOM      9  C   UNL     1      -6.087 -14.598  33.654  1.00  0.00     0.078 A 
ATOM     10  C   UNL     1      -5.195 -14.597  32.577  1.00  0.00     0.223 A 
ENDROOT
BRANCH   1  11
ATOM     11  C   UNL     1      -3.473 -13.360  31.201  1.00  0.00     0.091 A 
ATOM     12  C   UNL     1      -2.112 -13.194  31.489  1.00  0.00     0.068 A 
ATOM     13  C   UNL     1      -1.159 -13.139  30.466  1.00  0.00     0.162 A 
ATOM     14  C   UNL     1      -3.874 -13.509  29.864  1.00  0.00     0.068 A 
ATOM     15  C   UNL     1      -1.572 -13.268  29.118  1.00  0.00     0.200 A 
ATOM     16  C   UNL     1      -2.935 -13.459  28.829  1.00  0.00     0.162 A 
BRANCH  13  17
ATOM     17  O   UNL     1       0.177 -12.959  30.833  1.00  0.00    -0.504 OA
ATOM     18  H   UNL     1       0.552 -13.194  31.740  1.00  0.00     0.293 HD
ENDBRANCH  13  17
BRANCH  15  19
ATOM     19  O   UNL     1      -0.668 -13.215  28.053  1.00  0.00    -0.502 OA
ATOM     20  H   UNL     1      -0.579 -12.430  27.423  1.00  0.00     0.293 HD
ENDBRANCH  15  19
BRANCH  16  21
ATOM     21  O   UNL     1      -3.380 -13.607  27.514  1.00  0.00    -0.504 OA
ATOM     22  H   UNL     1      -4.030 -14.333  27.242  1.00  0.00     0.293 HD
ENDBRANCH  16  21
ENDBRANCH   1  11
BRANCH  10  23
ATOM     23  O   UNL     1      -5.077 -15.726  31.767  1.00  0.00    -0.500 OA
ATOM     24  H   UNL     1      -4.184 -16.015  31.384  1.00  0.00     0.294 HD
ENDBRANCH  10  23
BRANCH   5  25
ATOM     25  O   UNL     1      -6.594  -9.875  36.644  1.00  0.00    -0.507 OA
ATOM     26  H   UNL     1      -7.388  -9.712  37.252  1.00  0.00     0.293 HD
ENDBRANCH   5  25
BRANCH   7  27
ATOM     27  O   UNL     1      -7.923 -14.438  35.965  1.00  0.00    -0.507 OA
ATOM     28  H   UNL     1      -8.923 -14.491  35.842  1.00  0.00     0.293 HD
ENDBRANCH   7  27
TORSDOF 7
ENDMDL
MODEL 2
REMARK VINA RESULT:    -3.248      0.098      1.807
REMARK INTER + INTRA:          -4.210
REMARK INTER:                  -4.012
REMARK INTRA:                  -0.197
REMARK UNBOUND:                -0.202
REMARK SMILES Oc1cc(O)c2cc(O)c(-c3cc(O)c(O)c(O)c3)[o+]c2c1
REMARK SMILES IDX 10 1 20 2 21 3 22 4 2 5 3 6 4 7 6 8 7 9 8 10 11 11 12 12
REMARK SMILES IDX 13 13 19 14 15 15 17 16 14 17 16 19 18 21 9 23 1 25 5 27
REMARK H PARENT 14 18 16 20 18 22 9 24 1 26 5 28
REMARK Flexibility Score: inf
ROOT
ATOM      1  C   UNL     1      -4.470 -13.493  32.285  1.00  0.00     0.402 A 
ATOM      2  O   UNL     1      -4.627 -12.405  33.033  1.00  0.00    -0.202 OA
ATOM      3  C   UNL     1      -5.468 -12.339  34.060  1.00  0.00     0.368 A 
ATOM      4  C   UNL     1      -5.562 -11.151  34.789  1.00  0.00     0.162 A 
ATOM      5  C   UNL     1      -6.436 -11.057  35.876  1.00  0.00     0.128 A 
ATOM      6  C   UNL     1      -7.220 -12.155  36.234  1.00  0.00     0.093 A 
ATOM      7  C   UNL     1      -7.145 -13.357  35.521  1.00  0.00     0.136 A 
ATOM      8  C   UNL     1      -6.261 -13.457  34.416  1.00  0.00     0.125 A 
ATOM      9  C   UNL     1      -6.129 -14.618  33.634  1.00  0.00     0.078 A 
ATOM     10  C   UNL     1      -5.239 -14.641  32.556  1.00  0.00     0.223 A 
ENDROOT
BRANCH   1  11
ATOM     11  C   UNL     1      -3.492 -13.444  31.174  1.00  0.00     0.091 A 
ATOM     12  C   UNL     1      -3.943 -13.561  29.852  1.00  0.00     0.068 A 
ATOM     13  C   UNL     1      -3.051 -13.500  28.776  1.00  0.00     0.162 A 
ATOM     14  C   UNL     1      -2.127 -13.226  31.411  1.00  0.00     0.068 A 
ATOM     15  C   UNL     1      -1.671 -13.302  29.023  1.00  0.00     0.200 A 
ATOM     16  C   UNL     1      -1.220 -13.159  30.349  1.00  0.00     0.162 A 
BRANCH  13  17
ATOM     17  O   UNL     1      -3.576 -13.637  27.489  1.00  0.00    -0.504 OA
ATOM     18  H   UNL     1      -4.451 -14.094  27.280  1.00  0.00     0.293 HD
ENDBRANCH  13  17
BRANCH  15  19
ATOM     19  O   UNL     1      -0.730 -13.238  27.992  1.00  0.00    -0.502 OA
ATOM     20  H   UNL     1       0.081 -13.837  27.926  1.00  0.00     0.293 HD
ENDBRANCH  15  19
BRANCH  16  21
ATOM     21  O   UNL     1       0.129 -12.947  30.632  1.00  0.00    -0.504 OA
ATOM     22  H   UNL     1       0.437 -12.262  31.311  1.00  0.00     0.293 HD
ENDBRANCH  16  21
ENDBRANCH   1  11
BRANCH  10  23
ATOM     23  O   UNL     1      -5.144 -15.775  31.750  1.00  0.00    -0.500 OA
ATOM     24  H   UNL     1      -5.738 -16.583  31.896  1.00  0.00     0.294 HD
ENDBRANCH  10  23
BRANCH   5  25
ATOM     25  O   UNL     1      -6.535  -9.875  36.606  1.00  0.00    -0.507 OA
ATOM     26  H   UNL     1      -6.321  -8.976  36.191  1.00  0.00     0.293 HD
ENDBRANCH   5  25
BRANCH   7  27
ATOM     27  O   UNL     1      -7.960 -14.411  35.946  1.00  0.00    -0.507 OA
ATOM     28  H   UNL     1      -8.068 -15.285  35.452  1.00  0.00     0.293 HD
ENDBRANCH   7  27
TORSDOF 7
ENDMDL
MODEL 3
REMARK VINA RESULT:    -2.547      1.062      3.135
REMARK INTER + INTRA:          -3.345
REMARK INTER:                  -3.014
REMARK INTRA:                  -0.331
REMARK UNBOUND:                -0.202
REMARK SMILES Oc1cc(O)c2cc(O)c(-c3cc(O)c(O)c(O)c3)[o+]c2c1
REMARK SMILES IDX 10 1 20 2 21 3 22 4 2 5 3 6 4 7 6 8 7 9 8 10 11 11 12 12
REMARK SMILES IDX 13 13 19 14 15 15 17 16 14 17 16 19 18 21 9 23 1 25 5 27
REMARK H PARENT 14 18 16 20 18 22 9 24 1 26 5 28
REMARK Flexibility Score: inf
ROOT
ATOM      1  C   UNL     1      -4.298 -12.180  32.400  1.00  0.00     0.402 A 
ATOM      2  O   UNL     1      -5.015 -13.079  33.069  1.00  0.00    -0.202 OA
ATOM      3  C   UNL     1      -5.753 -12.779  34.132  1.00  0.00     0.368 A 
ATOM      4  C   UNL     1      -6.476 -13.792  34.768  1.00  0.00     0.162 A 
ATOM      5  C   UNL     1      -7.263 -13.503  35.886  1.00  0.00     0.128 A 
ATOM      6  C   UNL     1      -7.329 -12.195  36.370  1.00  0.00     0.093 A 
ATOM      7  C   UNL     1      -6.616 -11.161  35.752  1.00  0.00     0.136 A 
ATOM      8  C   UNL     1      -5.813 -11.450  34.618  1.00  0.00     0.125 A 
ATOM      9  C   UNL     1      -5.053 -10.480  33.942  1.00  0.00     0.078 A 
ATOM     10  C   UNL     1      -4.281 -10.841  32.833  1.00  0.00     0.223 A 
ENDROOT
BRANCH   1  11
ATOM     11  C   UNL     1      -3.522 -12.638  31.224  1.00  0.00     0.091 A 
ATOM     12  C   UNL     1      -4.176 -12.831  29.999  1.00  0.00     0.068 A 
ATOM     13  C   UNL     1      -3.472 -13.244  28.863  1.00  0.00     0.162 A 
ATOM     14  C   UNL     1      -2.134 -12.829  31.293  1.00  0.00     0.068 A 
ATOM     15  C   UNL     1      -2.075 -13.457  28.944  1.00  0.00     0.200 A 
ATOM     16  C   UNL     1      -1.414 -13.239  30.167  1.00  0.00     0.162 A 
BRANCH  13  17
ATOM     17  O   UNL     1      -4.196 -13.427  27.682  1.00  0.00    -0.504 OA
ATOM     18  H   UNL     1      -4.431 -14.329  27.296  1.00  0.00     0.293 HD
ENDBRANCH  13  17
BRANCH  15  19
ATOM     19  O   UNL     1      -1.318 -13.876  27.846  1.00  0.00    -0.502 OA
ATOM     20  H   UNL     1      -1.711 -14.121  26.948  1.00  0.00     0.293 HD
ENDBRANCH  15  19
BRANCH  16  21
ATOM     21  O   UNL     1      -0.035 -13.422  30.284  1.00  0.00    -0.504 OA
ATOM     22  H   UNL     1       0.543 -12.819  30.855  1.00  0.00     0.293 HD
ENDBRANCH  16  21
ENDBRANCH   1  11
BRANCH  10  23
ATOM     23  O   UNL     1      -3.488  -9.889  32.192  1.00  0.00    -0.500 OA
ATOM     24  H   UNL     1      -3.806  -8.937  32.056  1.00  0.00     0.294 HD
ENDBRANCH  10  23
BRANCH   5  25
ATOM     25  O   UNL     1      -7.985 -14.509  36.524  1.00  0.00    -0.507 OA
ATOM     26  H   UNL     1      -8.456 -15.237  36.000  1.00  0.00     0.293 HD
ENDBRANCH   5  25
BRANCH   7  27
ATOM     27  O   UNL     1      -6.737  -9.879  36.295  1.00  0.00    -0.507 OA
ATOM     28  H   UNL     1      -7.521  -9.263  36.136  1.00  0.00     0.293 HD
ENDBRANCH   7  27
TORSDOF 7
ENDMDL
MODEL 4
REMARK VINA RESULT:    -2.505      1.070      2.588
REMARK INTER + INTRA:          -3.292
REMARK INTER:                  -2.945
REMARK INTRA:                  -0.347
REMARK UNBOUND:                -0.202
REMARK SMILES Oc1cc(O)c2cc(O)c(-c3cc(O)c(O)c(O)c3)[o+]c2c1
REMARK SMILES IDX 10 1 20 2 21 3 22 4 2 5 3 6 4 7 6 8 7 9 8 10 11 11 12 12
REMARK SMILES IDX 13 13 19 14 15 15 17 16 14 17 16 19 18 21 9 23 1 25 5 27
REMARK H PARENT 14 18 16 20 18 22 9 24 1 26 5 28
REMARK Flexibility Score: inf
ROOT
ATOM      1  C   UNL     1      -4.295 -12.160  32.403  1.00  0.00     0.402 A 
ATOM      2  O   UNL     1      -5.027 -13.054  33.062  1.00  0.00    -0.202 OA
ATOM      3  C   UNL     1      -5.749 -12.757  34.137  1.00  0.00     0.368 A 
ATOM      4  C   UNL     1      -6.489 -13.764  34.760  1.00  0.00     0.162 A 
ATOM      5  C   UNL     1      -7.260 -13.477  35.891  1.00  0.00     0.128 A 
ATOM      6  C   UNL     1      -7.290 -12.178  36.400  1.00  0.00     0.093 A 
ATOM      7  C   UNL     1      -6.558 -11.150  35.794  1.00  0.00     0.136 A 
ATOM      8  C   UNL     1      -5.772 -11.436  34.648  1.00  0.00     0.125 A 
ATOM      9  C   UNL     1      -4.995 -10.472  33.983  1.00  0.00     0.078 A 
ATOM     10  C   UNL     1      -4.242 -10.831  32.860  1.00  0.00     0.223 A 
ENDROOT
BRANCH   1  11
ATOM     11  C   UNL     1      -3.541 -12.614  31.211  1.00  0.00     0.091 A 
ATOM     12  C   UNL     1      -2.177 -12.914  31.330  1.00  0.00     0.068 A 
ATOM     13  C   UNL     1      -1.439 -13.364  30.230  1.00  0.00     0.162 A 
ATOM     14  C   UNL     1      -4.176 -12.806  29.975  1.00  0.00     0.068 A 
ATOM     15  C   UNL     1      -2.080 -13.534  28.979  1.00  0.00     0.200 A 
ATOM     16  C   UNL     1      -3.455 -13.256  28.865  1.00  0.00     0.162 A 
BRANCH  13  17
ATOM     17  O   UNL     1      -0.081 -13.630  30.425  1.00  0.00    -0.504 OA
ATOM     18  H   UNL     1       0.445 -14.308  29.895  1.00  0.00     0.293 HD
ENDBRANCH  13  17
BRANCH  15  19
ATOM     19  O   UNL     1      -1.395 -13.973  27.843  1.00  0.00    -0.502 OA
ATOM     20  H   UNL     1      -1.356 -13.463  26.972  1.00  0.00     0.293 HD
ENDBRANCH  15  19
BRANCH  16  21
ATOM     21  O   UNL     1      -4.126 -13.427  27.654  1.00  0.00    -0.504 OA
ATOM     22  H   UNL     1      -4.520 -14.316  27.375  1.00  0.00     0.293 HD
ENDBRANCH  16  21
ENDBRANCH   1  11
BRANCH  10  23
ATOM     23  O   UNL     1      -3.432  -9.886  32.230  1.00  0.00    -0.500 OA
ATOM     24  H   UNL     1      -2.441  -9.817  32.430  1.00  0.00     0.294 HD
ENDBRANCH  10  23
BRANCH   5  25
ATOM     25  O   UNL     1      -8.000 -14.477  36.518  1.00  0.00    -0.507 OA
ATOM     26  H   UNL     1      -7.552 -15.281  36.942  1.00  0.00     0.293 HD
ENDBRANCH   5  25
BRANCH   7  27
ATOM     27  O   UNL     1      -6.644  -9.875  36.363  1.00  0.00    -0.507 OA
ATOM     28  H   UNL     1      -6.697  -9.017  35.835  1.00  0.00     0.293 HD
ENDBRANCH   7  27
TORSDOF 7
ENDMDL
MODEL 5
REMARK VINA RESULT:    -1.771      3.809      5.491
REMARK INTER + INTRA:          -2.387
REMARK INTER:                  -2.019
REMARK INTRA:                  -0.368
REMARK UNBOUND:                -0.202
REMARK SMILES Oc1cc(O)c2cc(O)c(-c3cc(O)c(O)c(O)c3)[o+]c2c1
REMARK SMILES IDX 10 1 20 2 21 3 22 4 2 5 3 6 4 7 6 8 7 9 8 10 11 11 12 12
REMARK SMILES IDX 13 13 19 14 15 15 17 16 14 17 16 19 18 21 9 23 1 25 5 27
REMARK H PARENT 14 18 16 20 18 22 9 24 1 26 5 28
REMARK Flexibility Score: inf
ROOT
ATOM      1  C   UNL     1      -4.187 -13.581  29.740  1.00  0.00     0.402 A 
ATOM      2  O   UNL     1      -4.559 -14.722  30.312  1.00  0.00    -0.202 OA
ATOM      3  C   UNL     1      -5.663 -15.381  29.976  1.00  0.00     0.368 A 
ATOM      4  C   UNL     1      -5.970 -16.575  30.633  1.00  0.00     0.162 A 
ATOM      5  C   UNL     1      -7.123 -17.290  30.296  1.00  0.00     0.128 A 
ATOM      6  C   UNL     1      -7.972 -16.809  29.298  1.00  0.00     0.093 A 
ATOM      7  C   UNL     1      -7.688 -15.615  28.624  1.00  0.00     0.136 A 
ATOM      8  C   UNL     1      -6.520 -14.885  28.964  1.00  0.00     0.125 A 
ATOM      9  C   UNL     1      -6.162 -13.672  28.351  1.00  0.00     0.078 A 
ATOM     10  C   UNL     1      -4.996 -13.005  28.742  1.00  0.00     0.223 A 
ENDROOT
BRANCH   1  11
ATOM     11  C   UNL     1      -2.928 -12.947  30.196  1.00  0.00     0.091 A 
ATOM     12  C   UNL     1      -1.713 -13.326  29.610  1.00  0.00     0.068 A 
ATOM     13  C   UNL     1      -0.507 -12.734  30.003  1.00  0.00     0.162 A 
ATOM     14  C   UNL     1      -2.931 -11.931  31.165  1.00  0.00     0.068 A 
ATOM     15  C   UNL     1      -0.513 -11.726  30.997  1.00  0.00     0.200 A 
ATOM     16  C   UNL     1      -1.736 -11.328  31.568  1.00  0.00     0.162 A 
BRANCH  13  17
ATOM     17  O   UNL     1       0.664 -13.175  29.382  1.00  0.00    -0.504 OA
ATOM     18  H   UNL     1       1.222 -12.610  28.759  1.00  0.00     0.293 HD
ENDBRANCH  13  17
BRANCH  15  19
ATOM     19  O   UNL     1       0.659 -11.103  31.435  1.00  0.00    -0.502 OA
ATOM     20  H   UNL     1       0.684 -10.203  31.894  1.00  0.00     0.293 HD
ENDBRANCH  15  19
BRANCH  16  21
ATOM     21  O   UNL     1      -1.786 -10.326  32.538  1.00  0.00    -0.504 OA
ATOM     22  H   UNL     1      -2.592 -10.193  33.136  1.00  0.00     0.293 HD
ENDBRANCH  16  21
ENDBRANCH   1  11
BRANCH  10  23
ATOM     23  O   UNL     1      -4.666 -11.778  28.170  1.00  0.00    -0.500 OA
ATOM     24  H   UNL     1      -5.296 -10.985  28.210  1.00  0.00     0.294 HD
ENDBRANCH  10  23
BRANCH   5  25
ATOM     25  O   UNL     1      -7.436 -18.481  30.948  1.00  0.00    -0.507 OA
ATOM     26  H   UNL     1      -7.309 -18.586  31.948  1.00  0.00     0.293 HD
ENDBRANCH   5  25
BRANCH   7  27
ATOM     27  O   UNL     1      -8.586 -15.203  27.635  1.00  0.00    -0.507 OA
ATOM     28  H   UNL     1      -8.658 -14.259  27.287  1.00  0.00     0.293 HD
ENDBRANCH   7  27
TORSDOF 7
ENDMDL
MODEL 6
REMARK VINA RESULT:    -1.301      1.497      6.986
REMARK INTER + INTRA:          -1.807
REMARK INTER:                  -2.148
REMARK INTRA:                   0.341
REMARK UNBOUND:                -0.202
REMARK SMILES Oc1cc(O)c2cc(O)c(-c3cc(O)c(O)c(O)c3)[o+]c2c1
REMARK SMILES IDX 10 1 20 2 21 3 22 4 2 5 3 6 4 7 6 8 7 9 8 10 11 11 12 12
REMARK SMILES IDX 13 13 19 14 15 15 17 16 14 17 16 19 18 21 9 23 1 25 5 27
REMARK H PARENT 14 18 16 20 18 22 9 24 1 26 5 28
REMARK Flexibility Score: inf
ROOT
ATOM      1  C   UNL     1      -5.128 -12.849  33.294  1.00  0.00     0.402 A 
ATOM      2  O   UNL     1      -4.259 -11.894  32.976  1.00  0.00    -0.202 OA
ATOM      3  C   UNL     1      -3.476 -11.947  31.903  1.00  0.00     0.368 A 
ATOM      4  C   UNL     1      -2.595 -10.893  31.649  1.00  0.00     0.162 A 
ATOM      5  C   UNL     1      -1.764 -10.923  30.526  1.00  0.00     0.128 A 
ATOM      6  C   UNL     1      -1.815 -12.010  29.652  1.00  0.00     0.093 A 
ATOM      7  C   UNL     1      -2.689 -13.080  29.883  1.00  0.00     0.136 A 
ATOM      8  C   UNL     1      -3.533 -13.056  31.023  1.00  0.00     0.125 A 
ATOM      9  C   UNL     1      -4.431 -14.089  31.342  1.00  0.00     0.078 A 
ATOM     10  C   UNL     1      -5.228 -13.997  32.487  1.00  0.00     0.223 A 
ENDROOT
BRANCH   1  11
ATOM     11  C   UNL     1      -5.951 -12.668  34.512  1.00  0.00     0.091 A 
ATOM     12  C   UNL     1      -6.093 -11.388  35.066  1.00  0.00     0.068 A 
ATOM     13  C   UNL     1      -6.879 -11.177  36.205  1.00  0.00     0.162 A 
ATOM     14  C   UNL     1      -6.641 -13.742  35.095  1.00  0.00     0.068 A 
ATOM     15  C   UNL     1      -7.554 -12.269  36.801  1.00  0.00     0.200 A 
ATOM     16  C   UNL     1      -7.432 -13.550  36.231  1.00  0.00     0.162 A 
BRANCH  13  17
ATOM     17  O   UNL     1      -6.960  -9.875  36.704  1.00  0.00    -0.504 OA
ATOM     18  H   UNL     1      -7.689  -9.220  36.463  1.00  0.00     0.293 HD
ENDBRANCH  13  17
BRANCH  15  19
ATOM     19  O   UNL     1      -8.347 -12.123  37.942  1.00  0.00    -0.502 OA
ATOM     20  H   UNL     1      -8.142 -12.551  38.834  1.00  0.00     0.293 HD
ENDBRANCH  15  19
BRANCH  16  21
ATOM     21  O   UNL     1      -8.095 -14.649  36.780  1.00  0.00    -0.504 OA
ATOM     22  H   UNL     1      -8.910 -14.548  37.371  1.00  0.00     0.293 HD
ENDBRANCH  16  21
ENDBRANCH   1  11
BRANCH  10  23
ATOM     23  O   UNL     1      -6.083 -15.044  32.830  1.00  0.00    -0.500 OA
ATOM     24  H   UNL     1      -6.991 -15.154  32.395  1.00  0.00     0.294 HD
ENDBRANCH  10  23
BRANCH   5  25
ATOM     25  O   UNL     1      -0.883  -9.875  30.267  1.00  0.00    -0.507 OA
ATOM     26  H   UNL     1      -0.513  -9.711  29.338  1.00  0.00     0.293 HD
ENDBRANCH   5  25
BRANCH   7  27
ATOM     27  O   UNL     1      -2.681 -14.129  28.960  1.00  0.00    -0.507 OA
ATOM     28  H   UNL     1      -1.867 -14.676  28.723  1.00  0.00     0.293 HD
ENDBRANCH   7  27
TORSDOF 7
ENDMDL
MODEL 7
REMARK VINA RESULT:    -0.682      3.079      6.644
REMARK INTER + INTRA:          -1.043
REMARK INTER:                  -0.727
REMARK INTRA:                  -0.316
REMARK UNBOUND:                -0.202
REMARK SMILES Oc1cc(O)c2cc(O)c(-c3cc(O)c(O)c(O)c3)[o+]c2c1
REMARK SMILES IDX 10 1 20 2 21 3 22 4 2 5 3 6 4 7 6 8 7 9 8 10 11 11 12 12
REMARK SMILES IDX 13 13 19 14 15 15 17 16 14 17 16 19 18 21 9 23 1 25 5 27
REMARK H PARENT 14 18 16 20 18 22 9 24 1 26 5 28
REMARK Flexibility Score: inf
ROOT
ATOM      1  C   UNL     1      -4.242 -14.167  30.522  1.00  0.00     0.402 A 
ATOM      2  O   UNL     1      -3.168 -14.105  29.739  1.00  0.00    -0.202 OA
ATOM      3  C   UNL     1      -2.069 -13.430  30.060  1.00  0.00     0.368 A 
ATOM      4  C   UNL     1      -0.989 -13.425  29.173  1.00  0.00     0.162 A 
ATOM      5  C   UNL     1       0.179 -12.726  29.488  1.00  0.00     0.128 A 
ATOM      6  C   UNL     1       0.268 -12.028  30.694  1.00  0.00     0.093 A 
ATOM      7  C   UNL     1      -0.799 -12.016  31.600  1.00  0.00     0.136 A 
ATOM      8  C   UNL     1      -1.989 -12.723  31.284  1.00  0.00     0.125 A 
ATOM      9  C   UNL     1      -3.114 -12.756  32.125  1.00  0.00     0.078 A 
ATOM     10  C   UNL     1      -4.254 -13.471  31.744  1.00  0.00     0.223 A 
ENDROOT
BRANCH   1  11
ATOM     11  C   UNL     1      -5.402 -14.962  30.056  1.00  0.00     0.091 A 
ATOM     12  C   UNL     1      -6.143 -14.520  28.952  1.00  0.00     0.068 A 
ATOM     13  C   UNL     1      -7.234 -15.255  28.473  1.00  0.00     0.162 A 
ATOM     14  C   UNL     1      -5.743 -16.181  30.662  1.00  0.00     0.068 A 
ATOM     15  C   UNL     1      -7.586 -16.473  29.103  1.00  0.00     0.200 A 
ATOM     16  C   UNL     1      -6.827 -16.930  30.196  1.00  0.00     0.162 A 
BRANCH  13  17
ATOM     17  O   UNL     1      -7.930 -14.742  27.376  1.00  0.00    -0.504 OA
ATOM     18  H   UNL     1      -7.489 -14.322  26.572  1.00  0.00     0.293 HD
ENDBRANCH  13  17
BRANCH  15  19
ATOM     19  O   UNL     1      -8.668 -17.248  28.675  1.00  0.00    -0.502 OA
ATOM     20  H   UNL     1      -9.159 -17.104  27.804  1.00  0.00     0.293 HD
ENDBRANCH  15  19
BRANCH  16  21
ATOM     21  O   UNL     1      -7.133 -18.133  30.834  1.00  0.00    -0.504 OA
ATOM     22  H   UNL     1      -7.943 -18.686  30.584  1.00  0.00     0.293 HD
ENDBRANCH  16  21
ENDBRANCH   1  11
BRANCH  10  23
ATOM     23  O   UNL     1      -5.388 -13.463  32.555  1.00  0.00    -0.500 OA
ATOM     24  H   UNL     1      -5.717 -12.615  33.002  1.00  0.00     0.294 HD
ENDBRANCH  10  23
BRANCH   5  25
ATOM     25  O   UNL     1       1.259 -12.717  28.608  1.00  0.00    -0.507 OA
ATOM     26  H   UNL     1       2.156 -13.115  28.866  1.00  0.00     0.293 HD
ENDBRANCH   5  25
BRANCH   7  27
ATOM     27  O   UNL     1      -0.630 -11.297  32.786  1.00  0.00    -0.507 OA
ATOM     28  H   UNL     1      -1.303 -11.268  33.538  1.00  0.00     0.293 HD
ENDBRANCH   7  27
TORSDOF 7
ENDMDL
MODEL 8
REMARK VINA RESULT:    -0.457      3.105      6.533
REMARK INTER + INTRA:          -0.766
REMARK INTER:                  -0.451
REMARK INTRA:                  -0.315
REMARK UNBOUND:                -0.202
REMARK SMILES Oc1cc(O)c2cc(O)c(-c3cc(O)c(O)c(O)c3)[o+]c2c1
REMARK SMILES IDX 10 1 20 2 21 3 22 4 2 5 3 6 4 7 6 8 7 9 8 10 11 11 12 12
REMARK SMILES IDX 13 13 19 14 15 15 17 16 14 17 16 19 18 21 9 23 1 25 5 27
REMARK H PARENT 14 18 16 20 18 22 9 24 1 26 5 28
REMARK Flexibility Score: inf
ROOT
ATOM      1  C   UNL     1      -4.248 -14.168  30.453  1.00  0.00     0.402 A 
ATOM      2  O   UNL     1      -3.155 -14.122  29.696  1.00  0.00    -0.202 OA
ATOM      3  C   UNL     1      -2.062 -13.445  30.032  1.00  0.00     0.368 A 
ATOM      4  C   UNL     1      -0.961 -13.459  29.172  1.00  0.00     0.162 A 
ATOM      5  C   UNL     1       0.202 -12.758  29.504  1.00  0.00     0.128 A 
ATOM      6  C   UNL     1       0.264 -12.042  30.700  1.00  0.00     0.093 A 
ATOM      7  C   UNL     1      -0.824 -12.011  31.579  1.00  0.00     0.136 A 
ATOM      8  C   UNL     1      -2.008 -12.719  31.246  1.00  0.00     0.125 A 
ATOM      9  C   UNL     1      -3.154 -12.735  32.060  1.00  0.00     0.078 A 
ATOM     10  C   UNL     1      -4.287 -13.453  31.664  1.00  0.00     0.223 A 
ENDROOT
BRANCH   1  11
ATOM     11  C   UNL     1      -5.399 -14.967  29.972  1.00  0.00     0.091 A 
ATOM     12  C   UNL     1      -5.706 -16.182  30.598  1.00  0.00     0.068 A 
ATOM     13  C   UNL     1      -6.797 -16.954  30.183  1.00  0.00     0.162 A 
ATOM     14  C   UNL     1      -6.228 -14.505  28.938  1.00  0.00     0.068 A 
ATOM     15  C   UNL     1      -7.616 -16.493  29.124  1.00  0.00     0.200 A 
ATOM     16  C   UNL     1      -7.324 -15.261  28.512  1.00  0.00     0.162 A 
BRANCH  13  17
ATOM     17  O   UNL     1      -7.029 -18.159  30.848  1.00  0.00    -0.504 OA
ATOM     18  H   UNL     1      -7.537 -18.936  30.453  1.00  0.00     0.293 HD
ENDBRANCH  13  17
BRANCH  15  19
ATOM     19  O   UNL     1      -8.716 -17.221  28.661  1.00  0.00    -0.502 OA
ATOM     20  H   UNL     1      -9.521 -17.453  29.226  1.00  0.00     0.293 HD
ENDBRANCH  15  19
BRANCH  16  21
ATOM     21  O   UNL     1      -8.117 -14.765  27.475  1.00  0.00    -0.504 OA
ATOM     22  H   UNL     1      -8.655 -15.371  26.870  1.00  0.00     0.293 HD
ENDBRANCH  16  21
ENDBRANCH   1  11
BRANCH  10  23
ATOM     23  O   UNL     1      -5.440 -13.428  32.447  1.00  0.00    -0.500 OA
ATOM     24  H   UNL     1      -6.216 -14.056  32.271  1.00  0.00     0.294 HD
ENDBRANCH  10  23
BRANCH   5  25
ATOM     25  O   UNL     1       1.303 -12.767  28.650  1.00  0.00    -0.507 OA
ATOM     26  H   UNL     1       1.355 -12.153  27.845  1.00  0.00     0.293 HD
ENDBRANCH   5  25
BRANCH   7  27
ATOM     27  O   UNL     1      -0.681 -11.274  32.758  1.00  0.00    -0.507 OA
ATOM     28  H   UNL     1       0.183 -11.178  33.271  1.00  0.00     0.293 HD
ENDBRANCH   7  27
TORSDOF 7
ENDMDL
