MODEL 1
REMARK VINA RESULT:    -2.403      0.000      0.000
REMARK INTER + INTRA:          -2.650
REMARK INTER:                  -2.614
REMARK INTRA:                  -0.036
REMARK UNBOUND:                -0.036
REMARK SMILES O=C([O-])c1ccc(O)cc1
REMARK SMILES IDX 7 1 6 2 9 3 5 4 10 5 4 6 8 7 2 9 1 10 3 11
REMARK H PARENT 8 8
REMARK Flexibility Score: inf
ROOT
ATOM      1  C   UNL     1     135.519 128.058  94.123  1.00  0.00     0.115 A 
ATOM      2  C   UNL     1     134.824 127.627  95.261  1.00  0.00     0.047 A 
ATOM      3  C   UNL     1     135.937 129.388  94.029  1.00  0.00     0.047 A 
ATOM      4  C   UNL     1     134.549 128.524  96.299  1.00  0.00     0.014 A 
ATOM      5  C   UNL     1     135.664 130.287  95.064  1.00  0.00     0.014 A 
ATOM      6  C   UNL     1     134.966 129.864  96.210  1.00  0.00    -0.003 A 
ENDROOT
BRANCH   1   7
ATOM      7  O   UNL     1     135.797 127.173  93.084  1.00  0.00    -0.508 OA
ATOM      8  H   UNL     1     136.144 126.238  93.264  1.00  0.00     0.293 HD
ENDBRANCH   1   7
BRANCH   6   9
ATOM      9  C   UNL     1     134.674 130.810  97.309  1.00  0.00     0.071 C 
ATOM     10  O   UNL     1     134.173 130.402  98.391  1.00  0.00    -0.545 OA
ATOM     11  O   UNL     1     134.948 132.166  97.164  1.00  0.00    -0.545 OA
ENDBRANCH   6   9
TORSDOF 2
ENDMDL
MODEL 2
REMARK VINA RESULT:    -2.402      0.022      1.532
REMARK INTER + INTRA:          -2.649
REMARK INTER:                  -2.613
REMARK INTRA:                  -0.036
REMARK UNBOUND:                -0.036
REMARK SMILES O=C([O-])c1ccc(O)cc1
REMARK SMILES IDX 7 1 6 2 9 3 5 4 10 5 4 6 8 7 2 9 1 10 3 11
REMARK H PARENT 8 8
REMARK Flexibility Score: inf
ROOT
ATOM      1  C   UNL     1     135.519 128.048  94.118  1.00  0.00     0.115 A 
ATOM      2  C   UNL     1     135.930 129.383  94.019  1.00  0.00     0.047 A 
ATOM      3  C   UNL     1     134.831 127.617  95.256  1.00  0.00     0.047 A 
ATOM      4  C   UNL     1     135.654 130.283  95.054  1.00  0.00     0.014 A 
ATOM      5  C   UNL     1     134.554 128.514  96.293  1.00  0.00     0.014 A 
ATOM      6  C   UNL     1     134.963 129.856  96.202  1.00  0.00    -0.003 A 
ENDROOT
BRANCH   1   7
ATOM      7  O   UNL     1     135.788 127.144  93.093  1.00  0.00    -0.508 OA
ATOM      8  H   UNL     1     136.368 127.398  92.302  1.00  0.00     0.293 HD
ENDBRANCH   1   7
BRANCH   6   9
ATOM      9  C   UNL     1     134.673 130.810  97.295  1.00  0.00     0.071 C 
ATOM     10  O   UNL     1     134.197 130.405  98.390  1.00  0.00    -0.545 OA
ATOM     11  O   UNL     1     134.921 132.168  97.131  1.00  0.00    -0.545 OA
ENDBRANCH   6   9
TORSDOF 2
ENDMDL
MODEL 3
REMARK VINA RESULT:    -2.320     12.387     13.731
REMARK INTER + INTRA:          -2.559
REMARK INTER:                  -2.530
REMARK INTRA:                  -0.029
REMARK UNBOUND:                -0.036
REMARK SMILES O=C([O-])c1ccc(O)cc1
REMARK SMILES IDX 7 1 6 2 9 3 5 4 10 5 4 6 8 7 2 9 1 10 3 11
REMARK H PARENT 8 8
REMARK Flexibility Score: inf
ROOT
ATOM      1  C   UNL     1     133.353 125.746 106.622  1.00  0.00     0.115 A 
ATOM      2  C   UNL     1     132.573 125.005 107.519  1.00  0.00     0.047 A 
ATOM      3  C   UNL     1     134.731 125.855 106.828  1.00  0.00     0.047 A 
ATOM      4  C   UNL     1     133.170 124.377 108.617  1.00  0.00     0.014 A 
ATOM      5  C   UNL     1     135.331 125.228 107.925  1.00  0.00     0.014 A 
ATOM      6  C   UNL     1     134.555 124.482 108.831  1.00  0.00    -0.003 A 
ENDROOT
BRANCH   1   7
ATOM      7  O   UNL     1     132.770 126.376 105.525  1.00  0.00    -0.508 OA
ATOM      8  H   UNL     1     132.759 127.385 105.438  1.00  0.00     0.293 HD
ENDBRANCH   1   7
BRANCH   6   9
ATOM      9  C   UNL     1     135.184 123.817 109.993  1.00  0.00     0.071 C 
ATOM     10  O   UNL     1     136.125 122.995 109.830  1.00  0.00    -0.545 OA
ATOM     11  O   UNL     1     134.744 124.088 111.284  1.00  0.00    -0.545 OA
ENDBRANCH   6   9
TORSDOF 2
ENDMDL
MODEL 4
REMARK VINA RESULT:    -2.240      1.576      4.633
REMARK INTER + INTRA:          -2.472
REMARK INTER:                  -2.441
REMARK INTRA:                  -0.031
REMARK UNBOUND:                -0.036
REMARK SMILES O=C([O-])c1ccc(O)cc1
REMARK SMILES IDX 7 1 6 2 9 3 5 4 10 5 4 6 8 7 2 9 1 10 3 11
REMARK H PARENT 8 8
REMARK Flexibility Score: inf
ROOT
ATOM      1  C   UNL     1     134.593 131.181  98.496  1.00  0.00     0.115 A 
ATOM      2  C   UNL     1     135.622 131.704  97.701  1.00  0.00     0.047 A 
ATOM      3  C   UNL     1     133.879 130.063  98.056  1.00  0.00     0.047 A 
ATOM      4  C   UNL     1     135.933 131.111  96.473  1.00  0.00     0.014 A 
ATOM      5  C   UNL     1     134.187 129.468  96.829  1.00  0.00     0.014 A 
ATOM      6  C   UNL     1     135.217 129.987  96.024  1.00  0.00    -0.003 A 
ENDROOT
BRANCH   1   7
ATOM      7  O   UNL     1     134.275 131.764  99.720  1.00  0.00    -0.508 OA
ATOM      8  H   UNL     1     134.913 131.725 100.506  1.00  0.00     0.293 HD
ENDBRANCH   1   7
BRANCH   6   9
ATOM      9  C   UNL     1     135.548 129.361  94.725  1.00  0.00     0.071 C 
ATOM     10  O   UNL     1     135.746 130.072  93.703  1.00  0.00    -0.545 OA
ATOM     11  O   UNL     1     135.646 127.979  94.612  1.00  0.00    -0.545 OA
ENDBRANCH   6   9
TORSDOF 2
ENDMDL
MODEL 5
REMARK VINA RESULT:    -2.227     20.552     21.604
REMARK INTER + INTRA:          -2.458
REMARK INTER:                  -2.428
REMARK INTRA:                  -0.030
REMARK UNBOUND:                -0.036
REMARK SMILES O=C([O-])c1ccc(O)cc1
REMARK SMILES IDX 7 1 6 2 9 3 5 4 10 5 4 6 8 7 2 9 1 10 3 11
REMARK H PARENT 8 8
REMARK Flexibility Score: inf
ROOT
ATOM      1  C   UNL     1     117.054 125.613 106.627  1.00  0.00     0.115 A 
ATOM      2  C   UNL     1     118.423 125.905 106.667  1.00  0.00     0.047 A 
ATOM      3  C   UNL     1     116.220 126.065 107.654  1.00  0.00     0.047 A 
ATOM      4  C   UNL     1     118.956 126.644 107.728  1.00  0.00     0.014 A 
ATOM      5  C   UNL     1     116.749 126.805 108.717  1.00  0.00     0.014 A 
ATOM      6  C   UNL     1     118.122 127.101 108.765  1.00  0.00    -0.003 A 
ENDROOT
BRANCH   1   7
ATOM      7  O   UNL     1     116.514 124.878 105.575  1.00  0.00    -0.508 OA
ATOM      8  H   UNL     1     115.522 124.896 105.371  1.00  0.00     0.293 HD
ENDBRANCH   1   7
BRANCH   6   9
ATOM      9  C   UNL     1     118.688 127.883 109.886  1.00  0.00     0.071 C 
ATOM     10  O   UNL     1     119.355 128.930 109.666  1.00  0.00    -0.545 OA
ATOM     11  O   UNL     1     118.491 127.475 111.200  1.00  0.00    -0.545 OA
ENDBRANCH   6   9
TORSDOF 2
ENDMDL
MODEL 6
REMARK VINA RESULT:    -2.221     12.297     13.669
REMARK INTER + INTRA:          -2.452
REMARK INTER:                  -2.422
REMARK INTRA:                  -0.030
REMARK UNBOUND:                -0.036
REMARK SMILES O=C([O-])c1ccc(O)cc1
REMARK SMILES IDX 7 1 6 2 9 3 5 4 10 5 4 6 8 7 2 9 1 10 3 11
REMARK H PARENT 8 8
REMARK Flexibility Score: inf
ROOT
ATOM      1  C   UNL     1     134.569 125.895 106.562  1.00  0.00     0.115 A 
ATOM      2  C   UNL     1     133.198 125.608 106.592  1.00  0.00     0.047 A 
ATOM      3  C   UNL     1     135.392 125.452 107.601  1.00  0.00     0.047 A 
ATOM      4  C   UNL     1     132.654 124.882 107.657  1.00  0.00     0.014 A 
ATOM      5  C   UNL     1     134.852 124.726 108.667  1.00  0.00     0.014 A 
ATOM      6  C   UNL     1     133.477 124.433 108.706  1.00  0.00    -0.003 A 
ENDROOT
BRANCH   1   7
ATOM      7  O   UNL     1     135.120 126.617 105.507  1.00  0.00    -0.508 OA
ATOM      8  H   UNL     1     135.842 127.311 105.660  1.00  0.00     0.293 HD
ENDBRANCH   1   7
BRANCH   6   9
ATOM      9  C   UNL     1     132.900 123.665 109.831  1.00  0.00     0.071 C 
ATOM     10  O   UNL     1     133.109 124.018 111.022  1.00  0.00    -0.545 OA
ATOM     11  O   UNL     1     132.118 122.542 109.589  1.00  0.00    -0.545 OA
ENDBRANCH   6   9
TORSDOF 2
ENDMDL
MODEL 7
REMARK VINA RESULT:    -2.214      2.074      4.515
REMARK INTER + INTRA:          -2.444
REMARK INTER:                  -2.415
REMARK INTRA:                  -0.028
REMARK UNBOUND:                -0.036
REMARK SMILES O=C([O-])c1ccc(O)cc1
REMARK SMILES IDX 7 1 6 2 9 3 5 4 10 5 4 6 8 7 2 9 1 10 3 11
REMARK H PARENT 8 8
REMARK Flexibility Score: inf
ROOT
ATOM      1  C   UNL     1     134.891 131.570  98.968  1.00  0.00     0.115 A 
ATOM      2  C   UNL     1     134.097 130.563  98.403  1.00  0.00     0.047 A 
ATOM      3  C   UNL     1     135.895 132.170  98.204  1.00  0.00     0.047 A 
ATOM      4  C   UNL     1     134.307 130.160  97.080  1.00  0.00     0.014 A 
ATOM      5  C   UNL     1     136.108 131.769  96.881  1.00  0.00     0.014 A 
ATOM      6  C   UNL     1     135.316 130.759  96.306  1.00  0.00    -0.003 A 
ENDROOT
BRANCH   1   7
ATOM      7  O   UNL     1     134.690 131.978 100.284  1.00  0.00    -0.508 OA
ATOM      8  H   UNL     1     134.657 131.312 101.046  1.00  0.00     0.293 HD
ENDBRANCH   1   7
BRANCH   6   9
ATOM      9  C   UNL     1     135.536 130.331  94.907  1.00  0.00     0.071 C 
ATOM     10  O   UNL     1     135.911 129.156  94.648  1.00  0.00    -0.545 OA
ATOM     11  O   UNL     1     135.334 131.220  93.857  1.00  0.00    -0.545 OA
ENDBRANCH   6   9
TORSDOF 2
ENDMDL
MODEL 8
REMARK VINA RESULT:    -2.166      1.074      4.416
REMARK INTER + INTRA:          -2.392
REMARK INTER:                  -2.361
REMARK INTRA:                  -0.031
REMARK UNBOUND:                -0.036
REMARK SMILES O=C([O-])c1ccc(O)cc1
REMARK SMILES IDX 7 1 6 2 9 3 5 4 10 5 4 6 8 7 2 9 1 10 3 11
REMARK H PARENT 8 8
REMARK Flexibility Score: inf
ROOT
ATOM      1  C   UNL     1     134.842 130.543  96.067  1.00  0.00     0.115 A 
ATOM      2  C   UNL     1     135.596 130.412  94.894  1.00  0.00     0.047 A 
ATOM      3  C   UNL     1     134.302 129.406  96.674  1.00  0.00     0.047 A 
ATOM      4  C   UNL     1     135.807 129.149  94.330  1.00  0.00     0.014 A 
ATOM      5  C   UNL     1     134.511 128.142  96.114  1.00  0.00     0.014 A 
ATOM      6  C   UNL     1     135.266 128.001  94.936  1.00  0.00    -0.003 A 
ENDROOT
BRANCH   1   7
ATOM      7  O   UNL     1     134.625 131.796  96.635  1.00  0.00    -0.508 OA
ATOM      8  H   UNL     1     133.961 131.928  97.389  1.00  0.00     0.293 HD
ENDBRANCH   1   7
BRANCH   6   9
ATOM      9  C   UNL     1     135.492 126.666  94.338  1.00  0.00     0.071 C 
ATOM     10  O   UNL     1     135.886 125.704  95.050  1.00  0.00    -0.545 OA
ATOM     11  O   UNL     1     135.272 126.455  92.982  1.00  0.00    -0.545 OA
ENDBRANCH   6   9
TORSDOF 2
ENDMDL
MODEL 9
REMARK VINA RESULT:    -2.128     19.287     20.037
REMARK INTER + INTRA:          -2.351
REMARK INTER:                  -2.323
REMARK INTRA:                  -0.027
REMARK UNBOUND:                -0.036
REMARK SMILES O=C([O-])c1ccc(O)cc1
REMARK SMILES IDX 7 1 6 2 9 3 5 4 10 5 4 6 8 7 2 9 1 10 3 11
REMARK H PARENT 8 8
REMARK Flexibility Score: inf
ROOT
ATOM      1  C   UNL     1     116.217 123.730  94.483  1.00  0.00     0.115 A 
ATOM      2  C   UNL     1     116.898 124.003  95.676  1.00  0.00     0.047 A 
ATOM      3  C   UNL     1     115.875 122.413  94.166  1.00  0.00     0.047 A 
ATOM      4  C   UNL     1     117.236 122.962  96.547  1.00  0.00     0.014 A 
ATOM      5  C   UNL     1     116.211 121.370  95.035  1.00  0.00     0.014 A 
ATOM      6  C   UNL     1     116.896 121.634  96.234  1.00  0.00    -0.003 A 
ENDROOT
BRANCH   1   7
ATOM      7  O   UNL     1     115.876 124.759  93.609  1.00  0.00    -0.508 OA
ATOM      8  H   UNL     1     115.836 125.724  93.916  1.00  0.00     0.293 HD
ENDBRANCH   1   7
BRANCH   6   9
ATOM      9  C   UNL     1     117.254 120.535  97.158  1.00  0.00     0.071 C 
ATOM     10  O   UNL     1     116.626 120.375  98.239  1.00  0.00    -0.545 OA
ATOM     11  O   UNL     1     118.290 119.661  96.846  1.00  0.00    -0.545 OA
ENDBRANCH   6   9
TORSDOF 2
ENDMDL
