MODEL 1
REMARK VINA RESULT:    -3.243      0.000      0.000
REMARK INTER + INTRA:          -3.913
REMARK INTER:                  -3.812
REMARK INTRA:                  -0.101
REMARK UNBOUND:                -0.101
REMARK SMILES CCCCC(=O)[O-]
REMARK SMILES IDX 4 1 5 2 6 3 7 4 3 5 2 6 1 7
REMARK H PARENT
REMARK Flexibility Score: inf
ROOT
ATOM      1  C   UNL     1       3.716  11.533   7.083  1.00  0.00     0.053 C 
ENDROOT
BRANCH   1   2
ATOM      2  C   UNL     1       4.472  10.587   7.962  1.00  0.00     0.041 C 
ATOM      3  O   UNL     1       4.866  10.957   9.099  1.00  0.00    -0.550 OA
ATOM      4  O   UNL     1       4.785   9.313   7.506  1.00  0.00    -0.550 OA
ENDBRANCH   1   2
BRANCH   1   5
ATOM      5  C   UNL     1       4.681  12.426   6.299  1.00  0.00     0.006 C 
BRANCH   5   6
ATOM      6  C   UNL     1       4.523  13.896   6.706  1.00  0.00    -0.003 C 
ATOM      7  C   UNL     1       5.661  14.341   7.620  1.00  0.00     0.004 C 
ENDBRANCH   5   6
ENDBRANCH   1   5
TORSDOF 3
ENDMDL
MODEL 2
REMARK VINA RESULT:    -3.242      1.807      2.232
REMARK INTER + INTRA:          -3.912
REMARK INTER:                  -3.813
REMARK INTRA:                  -0.099
REMARK UNBOUND:                -0.101
REMARK SMILES CCCCC(=O)[O-]
REMARK SMILES IDX 4 1 5 2 6 3 7 4 3 5 2 6 1 7
REMARK H PARENT
REMARK Flexibility Score: inf
ROOT
ATOM      1  C   UNL     1       4.266  12.393   7.046  1.00  0.00     0.053 C 
ENDROOT
BRANCH   1   2
ATOM      2  C   UNL     1       5.147  11.512   6.218  1.00  0.00     0.041 C 
ATOM      3  O   UNL     1       4.667  10.871   5.245  1.00  0.00    -0.550 OA
ATOM      4  O   UNL     1       6.487  11.358   6.549  1.00  0.00    -0.550 OA
ENDBRANCH   1   2
BRANCH   1   5
ATOM      5  C   UNL     1       4.540  13.868   6.737  1.00  0.00     0.006 C 
BRANCH   5   6
ATOM      6  C   UNL     1       5.456  14.490   7.798  1.00  0.00    -0.003 C 
ATOM      7  C   UNL     1       6.712  15.081   7.164  1.00  0.00     0.004 C 
ENDBRANCH   5   6
ENDBRANCH   1   5
TORSDOF 3
ENDMDL
MODEL 3
REMARK VINA RESULT:    -3.227      2.157      3.577
REMARK INTER + INTRA:          -3.894
REMARK INTER:                  -3.795
REMARK INTRA:                  -0.099
REMARK UNBOUND:                -0.101
REMARK SMILES CCCCC(=O)[O-]
REMARK SMILES IDX 4 1 5 2 6 3 7 4 3 5 2 6 1 7
REMARK H PARENT
REMARK Flexibility Score: inf
ROOT
ATOM      1  C   UNL     1       3.952  12.029   6.893  1.00  0.00     0.053 C 
ENDROOT
BRANCH   1   2
ATOM      2  C   UNL     1       4.692  13.320   7.048  1.00  0.00     0.041 C 
ATOM      3  O   UNL     1       4.775  14.123   6.081  1.00  0.00    -0.550 OA
ATOM      4  O   UNL     1       5.332  13.616   8.244  1.00  0.00    -0.550 OA
ENDBRANCH   1   2
BRANCH   1   5
ATOM      5  C   UNL     1       4.898  10.922   6.419  1.00  0.00     0.006 C 
BRANCH   5   6
ATOM      6  C   UNL     1       5.295  10.004   7.580  1.00  0.00    -0.003 C 
ATOM      7  C   UNL     1       4.141   9.831   8.565  1.00  0.00     0.004 C 
ENDBRANCH   5   6
ENDBRANCH   1   5
TORSDOF 3
ENDMDL
MODEL 4
REMARK VINA RESULT:    -3.152      2.248      3.631
REMARK INTER + INTRA:          -3.807
REMARK INTER:                  -3.694
REMARK INTRA:                  -0.113
REMARK UNBOUND:                -0.101
REMARK SMILES CCCCC(=O)[O-]
REMARK SMILES IDX 4 1 5 2 6 3 7 4 3 5 2 6 1 7
REMARK H PARENT
REMARK Flexibility Score: inf
ROOT
ATOM      1  C   UNL     1       4.517  13.914   6.686  1.00  0.00     0.053 C 
ENDROOT
BRANCH   1   2
ATOM      2  C   UNL     1       5.661  14.367   7.538  1.00  0.00     0.041 C 
ATOM      3  O   UNL     1       6.618  15.005   7.026  1.00  0.00    -0.550 OA
ATOM      4  O   UNL     1       5.695  14.041   8.887  1.00  0.00    -0.550 OA
ENDBRANCH   1   2
BRANCH   1   5
ATOM      5  C   UNL     1       4.693  12.446   6.287  1.00  0.00     0.006 C 
BRANCH   5   6
ATOM      6  C   UNL     1       3.736  11.544   7.075  1.00  0.00    -0.003 C 
ATOM      7  C   UNL     1       4.489  10.711   8.109  1.00  0.00     0.004 C 
ENDBRANCH   5   6
ENDBRANCH   1   5
TORSDOF 3
ENDMDL
MODEL 5
REMARK VINA RESULT:    -3.028     17.025     17.754
REMARK INTER + INTRA:          -3.660
REMARK INTER:                  -3.579
REMARK INTRA:                  -0.081
REMARK UNBOUND:                -0.101
REMARK SMILES CCCCC(=O)[O-]
REMARK SMILES IDX 4 1 5 2 6 3 7 4 3 5 2 6 1 7
REMARK H PARENT
REMARK Flexibility Score: inf
ROOT
ATOM      1  C   UNL     1       5.232   1.593  -7.455  1.00  0.00     0.053 C 
ENDROOT
BRANCH   1   2
ATOM      2  C   UNL     1       6.402   2.441  -7.068  1.00  0.00     0.041 C 
ATOM      3  O   UNL     1       7.424   2.483  -7.802  1.00  0.00    -0.550 OA
ATOM      4  O   UNL     1       6.384   3.145  -5.871  1.00  0.00    -0.550 OA
ENDBRANCH   1   2
BRANCH   1   5
ATOM      5  C   UNL     1       4.173   1.601  -6.350  1.00  0.00     0.006 C 
BRANCH   5   6
ATOM      6  C   UNL     1       3.766   0.172  -5.969  1.00  0.00    -0.003 C 
ATOM      7  C   UNL     1       4.896  -0.547  -5.237  1.00  0.00     0.004 C 
ENDBRANCH   5   6
ENDBRANCH   1   5
TORSDOF 3
ENDMDL
MODEL 6
REMARK VINA RESULT:    -2.987      2.258      3.967
REMARK INTER + INTRA:          -3.612
REMARK INTER:                  -3.590
REMARK INTRA:                  -0.022
REMARK UNBOUND:                -0.101
REMARK SMILES CCCCC(=O)[O-]
REMARK SMILES IDX 4 1 5 2 6 3 7 4 3 5 2 6 1 7
REMARK H PARENT
REMARK Flexibility Score: inf
ROOT
ATOM      1  C   UNL     1       4.223  11.385   7.677  1.00  0.00     0.053 C 
ENDROOT
BRANCH   1   2
ATOM      2  C   UNL     1       4.591  11.934   6.334  1.00  0.00     0.041 C 
ATOM      3  O   UNL     1       4.685  13.179   6.163  1.00  0.00    -0.550 OA
ATOM      4  O   UNL     1       4.780  11.075   5.259  1.00  0.00    -0.550 OA
ENDBRANCH   1   2
BRANCH   1   5
ATOM      5  C   UNL     1       4.713   9.942   7.819  1.00  0.00     0.006 C 
BRANCH   5   6
ATOM      6  C   UNL     1       3.958   9.213   8.937  1.00  0.00    -0.003 C 
ATOM      7  C   UNL     1       4.236   7.713   8.903  1.00  0.00     0.004 C 
ENDBRANCH   5   6
ENDBRANCH   1   5
TORSDOF 3
ENDMDL
MODEL 7
REMARK VINA RESULT:    -2.970      2.448      3.380
REMARK INTER + INTRA:          -3.593
REMARK INTER:                  -3.479
REMARK INTRA:                  -0.114
REMARK UNBOUND:                -0.101
REMARK SMILES CCCCC(=O)[O-]
REMARK SMILES IDX 4 1 5 2 6 3 7 4 3 5 2 6 1 7
REMARK H PARENT
REMARK Flexibility Score: inf
ROOT
ATOM      1  C   UNL     1       4.143  11.293   7.487  1.00  0.00     0.053 C 
ENDROOT
BRANCH   1   2
ATOM      2  C   UNL     1       4.405  12.431   6.553  1.00  0.00     0.041 C 
ATOM      3  O   UNL     1       4.585  12.215   5.325  1.00  0.00    -0.550 OA
ATOM      4  O   UNL     1       4.500  13.727   7.044  1.00  0.00    -0.550 OA
ENDBRANCH   1   2
BRANCH   1   5
ATOM      5  C   UNL     1       5.242  10.234   7.365  1.00  0.00     0.006 C 
BRANCH   5   6
ATOM      6  C   UNL     1       6.503  10.660   8.127  1.00  0.00    -0.003 C 
ATOM      7  C   UNL     1       7.661  10.930   7.170  1.00  0.00     0.004 C 
ENDBRANCH   5   6
ENDBRANCH   1   5
TORSDOF 3
ENDMDL
MODEL 8
REMARK VINA RESULT:    -2.785      1.353      2.045
REMARK INTER + INTRA:          -3.374
REMARK INTER:                  -3.283
REMARK INTRA:                  -0.091
REMARK UNBOUND:                -0.101
REMARK SMILES CCCCC(=O)[O-]
REMARK SMILES IDX 4 1 5 2 6 3 7 4 3 5 2 6 1 7
REMARK H PARENT
REMARK Flexibility Score: inf
ROOT
ATOM      1  C   UNL     1       5.715  10.413   7.662  1.00  0.00     0.053 C 
ENDROOT
BRANCH   1   2
ATOM      2  C   UNL     1       5.458  10.981   9.022  1.00  0.00     0.041 C 
ATOM      3  O   UNL     1       4.583  10.466   9.768  1.00  0.00    -0.550 OA
ATOM      4  O   UNL     1       6.148  12.109   9.447  1.00  0.00    -0.550 OA
ENDBRANCH   1   2
BRANCH   1   5
ATOM      5  C   UNL     1       5.665  11.515   6.602  1.00  0.00     0.006 C 
BRANCH   5   6
ATOM      6  C   UNL     1       4.312  12.236   6.622  1.00  0.00    -0.003 C 
ATOM      7  C   UNL     1       4.495  13.749   6.717  1.00  0.00     0.004 C 
ENDBRANCH   5   6
ENDBRANCH   1   5
TORSDOF 3
ENDMDL
MODEL 9
REMARK VINA RESULT:    -2.727     17.559     18.052
REMARK INTER + INTRA:          -3.306
REMARK INTER:                  -3.279
REMARK INTRA:                  -0.027
REMARK UNBOUND:                -0.101
REMARK SMILES CCCCC(=O)[O-]
REMARK SMILES IDX 4 1 5 2 6 3 7 4 3 5 2 6 1 7
REMARK H PARENT
REMARK Flexibility Score: inf
ROOT
ATOM      1  C   UNL     1       4.873   1.027  -7.749  1.00  0.00     0.053 C 
ENDROOT
BRANCH   1   2
ATOM      2  C   UNL     1       4.607   0.616  -6.336  1.00  0.00     0.041 C 
ATOM      3  O   UNL     1       3.654  -0.166  -6.073  1.00  0.00    -0.550 OA
ATOM      4  O   UNL     1       5.377   1.133  -5.303  1.00  0.00    -0.550 OA
ENDBRANCH   1   2
BRANCH   1   5
ATOM      5  C   UNL     1       5.377   2.472  -7.801  1.00  0.00     0.006 C 
BRANCH   5   6
ATOM      6  C   UNL     1       5.008   3.134  -9.134  1.00  0.00    -0.003 C 
ATOM      7  C   UNL     1       3.636   3.800  -9.059  1.00  0.00     0.004 C 
ENDBRANCH   5   6
ENDBRANCH   1   5
TORSDOF 3
ENDMDL
