MODEL 1
REMARK VINA RESULT:    -3.844      0.000      0.000
REMARK INTER + INTRA:          -6.219
REMARK INTER:                  -5.642
REMARK INTRA:                  -0.576
REMARK UNBOUND:                -0.576
REMARK SMILES O=C([O-])CCCCCCCC(=O)[O-]
REMARK SMILES IDX 7 1 6 2 5 3 4 4 2 5 1 6 3 7 8 8 9 9 10 10 11 11 12 12 13 13
REMARK H PARENT
REMARK Flexibility Score: inf
ROOT
ATOM      1  C   UNL     1      12.042  45.997  18.156  1.00  0.00     0.000 C 
ENDROOT
BRANCH   1   2
ATOM      2  C   UNL     1      11.033  46.801  18.991  1.00  0.00     0.000 C 
BRANCH   2   3
ATOM      3  C   UNL     1       9.841  45.948  19.459  1.00  0.00     0.006 C 
BRANCH   3   4
ATOM      4  C   UNL     1      10.285  44.754  20.315  1.00  0.00     0.053 C 
BRANCH   4   5
ATOM      5  C   UNL     1       9.660  43.474  19.851  1.00  0.00     0.041 C 
ATOM      6  O   UNL     1      10.353  42.427  19.761  1.00  0.00    -0.550 OA
ATOM      7  O   UNL     1       8.304  43.431  19.550  1.00  0.00    -0.550 OA
ENDBRANCH   4   5
ENDBRANCH   3   4
ENDBRANCH   2   3
ENDBRANCH   1   2
BRANCH   1   8
ATOM      8  C   UNL     1      13.493  46.204  18.623  1.00  0.00     0.000 C 
BRANCH   8   9
ATOM      9  C   UNL     1      13.631  46.199  20.156  1.00  0.00     0.006 C 
BRANCH   9  10
ATOM     10  C   UNL     1      14.213  44.898  20.733  1.00  0.00     0.053 C 
BRANCH  10  11
ATOM     11  C   UNL     1      15.610  44.647  20.258  1.00  0.00     0.041 C 
ATOM     12  O   UNL     1      16.572  45.290  20.754  1.00  0.00    -0.550 OA
ATOM     13  O   UNL     1      15.854  43.678  19.293  1.00  0.00    -0.550 OA
ENDBRANCH  10  11
ENDBRANCH   9  10
ENDBRANCH   8   9
ENDBRANCH   1   8
TORSDOF 8
ENDMDL
MODEL 2
REMARK VINA RESULT:    -3.796      1.678      2.269
REMARK INTER + INTRA:          -6.147
REMARK INTER:                  -5.560
REMARK INTRA:                  -0.587
REMARK UNBOUND:                -0.576
REMARK SMILES O=C([O-])CCCCCCCC(=O)[O-]
REMARK SMILES IDX 7 1 6 2 5 3 4 4 2 5 1 6 3 7 8 8 9 9 10 10 11 11 12 12 13 13
REMARK H PARENT
REMARK Flexibility Score: inf
ROOT
ATOM      1  C   UNL     1      13.965  47.082  16.775  1.00  0.00     0.000 C 
ENDROOT
BRANCH   1   2
ATOM      2  C   UNL     1      12.943  46.035  17.243  1.00  0.00     0.000 C 
BRANCH   2   3
ATOM      3  C   UNL     1      11.803  46.652  18.072  1.00  0.00     0.006 C 
BRANCH   3   4
ATOM      4  C   UNL     1      11.785  46.126  19.514  1.00  0.00     0.053 C 
BRANCH   4   5
ATOM      5  C   UNL     1      10.999  44.857  19.632  1.00  0.00     0.041 C 
ATOM      6  O   UNL     1      11.590  43.744  19.623  1.00  0.00    -0.550 OA
ATOM      7  O   UNL     1       9.620  44.903  19.787  1.00  0.00    -0.550 OA
ENDBRANCH   4   5
ENDBRANCH   3   4
ENDBRANCH   2   3
ENDBRANCH   1   2
BRANCH   1   8
ATOM      8  C   UNL     1      15.279  47.022  17.572  1.00  0.00     0.000 C 
BRANCH   8   9
ATOM      9  C   UNL     1      15.407  45.739  18.414  1.00  0.00     0.006 C 
BRANCH   9  10
ATOM     10  C   UNL     1      15.493  45.985  19.929  1.00  0.00     0.053 C 
BRANCH  10  11
ATOM     11  C   UNL     1      16.909  46.117  20.398  1.00  0.00     0.041 C 
ATOM     12  O   UNL     1      17.484  47.236  20.366  1.00  0.00    -0.550 OA
ATOM     13  O   UNL     1      17.580  45.012  20.905  1.00  0.00    -0.550 OA
ENDBRANCH  10  11
ENDBRANCH   9  10
ENDBRANCH   8   9
ENDBRANCH   1   8
TORSDOF 8
ENDMDL
MODEL 3
REMARK VINA RESULT:    -3.794      3.136      5.844
REMARK INTER + INTRA:          -6.145
REMARK INTER:                  -5.711
REMARK INTRA:                  -0.433
REMARK UNBOUND:                -0.576
REMARK SMILES O=C([O-])CCCCCCCC(=O)[O-]
REMARK SMILES IDX 7 1 6 2 5 3 4 4 2 5 1 6 3 7 8 8 9 9 10 10 11 11 12 12 13 13
REMARK H PARENT
REMARK Flexibility Score: inf
ROOT
ATOM      1  C   UNL     1      11.083  45.328  19.028  1.00  0.00     0.000 C 
ENDROOT
BRANCH   1   2
ATOM      2  C   UNL     1      12.168  45.182  20.106  1.00  0.00     0.000 C 
BRANCH   2   3
ATOM      3  C   UNL     1      13.267  46.251  19.987  1.00  0.00     0.006 C 
BRANCH   3   4
ATOM      4  C   UNL     1      13.845  46.332  18.567  1.00  0.00     0.053 C 
BRANCH   4   5
ATOM      5  C   UNL     1      14.521  45.056  18.169  1.00  0.00     0.041 C 
ATOM      6  O   UNL     1      15.661  44.774  18.627  1.00  0.00    -0.550 OA
ATOM      7  O   UNL     1      13.879  44.162  17.322  1.00  0.00    -0.550 OA
ENDBRANCH   4   5
ENDBRANCH   3   4
ENDBRANCH   2   3
ENDBRANCH   1   2
BRANCH   1   8
ATOM      8  C   UNL     1       9.893  46.180  19.500  1.00  0.00     0.000 C 
BRANCH   8   9
ATOM      9  C   UNL     1      10.189  47.690  19.460  1.00  0.00     0.006 C 
BRANCH   9  10
ATOM     10  C   UNL     1      10.329  48.268  18.041  1.00  0.00     0.053 C 
BRANCH  10  11
ATOM     11  C   UNL     1       9.392  49.412  17.805  1.00  0.00     0.041 C 
ATOM     12  O   UNL     1       9.827  50.593  17.793  1.00  0.00    -0.550 OA
ATOM     13  O   UNL     1       8.047  49.171  17.562  1.00  0.00    -0.550 OA
ENDBRANCH  10  11
ENDBRANCH   9  10
ENDBRANCH   8   9
ENDBRANCH   1   8
TORSDOF 8
ENDMDL
MODEL 4
REMARK VINA RESULT:    -3.788      2.754      5.290
REMARK INTER + INTRA:          -6.136
REMARK INTER:                  -5.396
REMARK INTRA:                  -0.740
REMARK UNBOUND:                -0.576
REMARK SMILES O=C([O-])CCCCCCCC(=O)[O-]
REMARK SMILES IDX 7 1 6 2 5 3 4 4 2 5 1 6 3 7 8 8 9 9 10 10 11 11 12 12 13 13
REMARK H PARENT
REMARK Flexibility Score: inf
ROOT
ATOM      1  C   UNL     1      14.591  45.047  20.402  1.00  0.00     0.000 C 
ENDROOT
BRANCH   1   2
ATOM      2  C   UNL     1      15.811  45.388  19.533  1.00  0.00     0.000 C 
BRANCH   2   3
ATOM      3  C   UNL     1      15.475  45.426  18.033  1.00  0.00     0.006 C 
BRANCH   3   4
ATOM      4  C   UNL     1      14.990  46.811  17.582  1.00  0.00     0.053 C 
BRANCH   4   5
ATOM      5  C   UNL     1      13.725  46.725  16.785  1.00  0.00     0.041 C 
ATOM      6  O   UNL     1      13.231  45.601  16.500  1.00  0.00    -0.550 OA
ATOM      7  O   UNL     1      13.073  47.884  16.388  1.00  0.00    -0.550 OA
ENDBRANCH   4   5
ENDBRANCH   3   4
ENDBRANCH   2   3
ENDBRANCH   1   2
BRANCH   1   8
ATOM      8  C   UNL     1      13.630  44.063  19.711  1.00  0.00     0.000 C 
BRANCH   8   9
ATOM      9  C   UNL     1      12.152  44.461  19.876  1.00  0.00     0.006 C 
BRANCH   9  10
ATOM     10  C   UNL     1      11.891  45.973  19.779  1.00  0.00     0.053 C 
BRANCH  10  11
ATOM     11  C   UNL     1      10.453  46.279  19.495  1.00  0.00     0.041 C 
ATOM     12  O   UNL     1      10.107  47.443  19.167  1.00  0.00    -0.550 OA
ATOM     13  O   UNL     1       9.502  45.269  19.557  1.00  0.00    -0.550 OA
ENDBRANCH  10  11
ENDBRANCH   9  10
ENDBRANCH   8   9
ENDBRANCH   1   8
TORSDOF 8
ENDMDL
MODEL 5
REMARK VINA RESULT:    -3.777      2.580      3.526
REMARK INTER + INTRA:          -6.120
REMARK INTER:                  -5.320
REMARK INTRA:                  -0.800
REMARK UNBOUND:                -0.576
REMARK SMILES O=C([O-])CCCCCCCC(=O)[O-]
REMARK SMILES IDX 7 1 6 2 5 3 4 4 2 5 1 6 3 7 8 8 9 9 10 10 11 11 12 12 13 13
REMARK H PARENT
REMARK Flexibility Score: inf
ROOT
ATOM      1  C   UNL     1      14.368  44.329  19.941  1.00  0.00     0.000 C 
ENDROOT
BRANCH   1   2
ATOM      2  C   UNL     1      13.538  43.201  19.309  1.00  0.00     0.000 C 
BRANCH   2   3
ATOM      3  C   UNL     1      12.024  43.460  19.399  1.00  0.00     0.006 C 
BRANCH   3   4
ATOM      4  C   UNL     1      11.707  44.826  20.023  1.00  0.00     0.053 C 
BRANCH   4   5
ATOM      5  C   UNL     1      10.286  45.232  19.778  1.00  0.00     0.041 C 
ATOM      6  O   UNL     1       9.996  46.445  19.601  1.00  0.00    -0.550 OA
ATOM      7  O   UNL     1       9.288  44.268  19.710  1.00  0.00    -0.550 OA
ENDBRANCH   4   5
ENDBRANCH   3   4
ENDBRANCH   2   3
ENDBRANCH   1   2
BRANCH   1   8
ATOM      8  C   UNL     1      15.363  44.956  18.949  1.00  0.00     0.000 C 
BRANCH   8   9
ATOM      9  C   UNL     1      15.122  46.461  18.736  1.00  0.00     0.006 C 
BRANCH   9  10
ATOM     10  C   UNL     1      14.678  46.832  17.311  1.00  0.00     0.053 C 
BRANCH  10  11
ATOM     11  C   UNL     1      13.262  46.429  17.040  1.00  0.00     0.041 C 
ATOM     12  O   UNL     1      12.312  47.166  17.410  1.00  0.00    -0.550 OA
ATOM     13  O   UNL     1      12.994  45.256  16.346  1.00  0.00    -0.550 OA
ENDBRANCH  10  11
ENDBRANCH   9  10
ENDBRANCH   8   9
ENDBRANCH   1   8
TORSDOF 8
ENDMDL
MODEL 6
REMARK VINA RESULT:    -3.764      1.904      6.011
REMARK INTER + INTRA:          -6.100
REMARK INTER:                  -5.527
REMARK INTRA:                  -0.573
REMARK UNBOUND:                -0.576
REMARK SMILES O=C([O-])CCCCCCCC(=O)[O-]
REMARK SMILES IDX 7 1 6 2 5 3 4 4 2 5 1 6 3 7 8 8 9 9 10 10 11 11 12 12 13 13
REMARK H PARENT
REMARK Flexibility Score: inf
ROOT
ATOM      1  C   UNL     1      14.698  46.432  17.831  1.00  0.00     0.000 C 
ENDROOT
BRANCH   1   2
ATOM      2  C   UNL     1      15.374  45.084  18.125  1.00  0.00     0.000 C 
BRANCH   2   3
ATOM      3  C   UNL     1      15.312  44.705  19.615  1.00  0.00     0.006 C 
BRANCH   3   4
ATOM      4  C   UNL     1      15.545  45.915  20.531  1.00  0.00     0.053 C 
BRANCH   4   5
ATOM      5  C   UNL     1      17.002  46.228  20.677  1.00  0.00     0.041 C 
ATOM      6  O   UNL     1      17.460  47.323  20.254  1.00  0.00    -0.550 OA
ATOM      7  O   UNL     1      17.847  45.327  21.312  1.00  0.00    -0.550 OA
ENDBRANCH   4   5
ENDBRANCH   3   4
ENDBRANCH   2   3
ENDBRANCH   1   2
BRANCH   1   8
ATOM      8  C   UNL     1      13.426  46.280  16.979  1.00  0.00     0.000 C 
BRANCH   8   9
ATOM      9  C   UNL     1      12.145  46.640  17.753  1.00  0.00     0.006 C 
BRANCH   9  10
ATOM     10  C   UNL     1      11.728  45.598  18.804  1.00  0.00     0.053 C 
BRANCH  10  11
ATOM     11  C   UNL     1      10.412  45.930  19.435  1.00  0.00     0.041 C 
ATOM     12  O   UNL     1       9.854  45.106  20.206  1.00  0.00    -0.550 OA
ATOM     13  O   UNL     1       9.820  47.164  19.202  1.00  0.00    -0.550 OA
ENDBRANCH  10  11
ENDBRANCH   9  10
ENDBRANCH   8   9
ENDBRANCH   1   8
TORSDOF 8
ENDMDL
MODEL 7
REMARK VINA RESULT:    -3.726      2.102      5.171
REMARK INTER + INTRA:          -6.045
REMARK INTER:                  -5.306
REMARK INTRA:                  -0.739
REMARK UNBOUND:                -0.576
REMARK SMILES O=C([O-])CCCCCCCC(=O)[O-]
REMARK SMILES IDX 7 1 6 2 5 3 4 4 2 5 1 6 3 7 8 8 9 9 10 10 11 11 12 12 13 13
REMARK H PARENT
REMARK Flexibility Score: inf
ROOT
ATOM      1  C   UNL     1      14.115  46.819  17.641  1.00  0.00     0.000 C 
ENDROOT
BRANCH   1   2
ATOM      2  C   UNL     1      15.548  46.308  17.858  1.00  0.00     0.000 C 
BRANCH   2   3
ATOM      3  C   UNL     1      15.946  46.280  19.344  1.00  0.00     0.006 C 
BRANCH   3   4
ATOM      4  C   UNL     1      16.125  44.849  19.869  1.00  0.00     0.053 C 
BRANCH   4   5
ATOM      5  C   UNL     1      14.811  44.213  20.203  1.00  0.00     0.041 C 
ATOM      6  O   UNL     1      14.042  44.751  21.043  1.00  0.00    -0.550 OA
ATOM      7  O   UNL     1      14.420  43.044  19.562  1.00  0.00    -0.550 OA
ENDBRANCH   4   5
ENDBRANCH   3   4
ENDBRANCH   2   3
ENDBRANCH   1   2
BRANCH   1   8
ATOM      8  C   UNL     1      13.165  45.717  17.142  1.00  0.00     0.000 C 
BRANCH   8   9
ATOM      9  C   UNL     1      12.046  45.394  18.149  1.00  0.00     0.006 C 
BRANCH   9  10
ATOM     10  C   UNL     1      11.764  46.519  19.159  1.00  0.00     0.053 C 
BRANCH  10  11
ATOM     11  C   UNL     1      10.305  46.840  19.251  1.00  0.00     0.041 C 
ATOM     12  O   UNL     1       9.463  45.918  19.409  1.00  0.00    -0.550 OA
ATOM     13  O   UNL     1       9.878  48.160  19.200  1.00  0.00    -0.550 OA
ENDBRANCH  10  11
ENDBRANCH   9  10
ENDBRANCH   8   9
ENDBRANCH   1   8
TORSDOF 8
ENDMDL
MODEL 8
REMARK VINA RESULT:    -3.636      3.535      5.812
REMARK INTER + INTRA:          -5.913
REMARK INTER:                  -5.380
REMARK INTRA:                  -0.533
REMARK UNBOUND:                -0.576
REMARK SMILES O=C([O-])CCCCCCCC(=O)[O-]
REMARK SMILES IDX 7 1 6 2 5 3 4 4 2 5 1 6 3 7 8 8 9 9 10 10 11 11 12 12 13 13
REMARK H PARENT
REMARK Flexibility Score: inf
ROOT
ATOM      1  C   UNL     1      17.592  44.406  20.150  1.00  0.00     0.000 C 
ENDROOT
BRANCH   1   2
ATOM      2  C   UNL     1      17.009  43.843  18.844  1.00  0.00     0.000 C 
BRANCH   2   3
ATOM      3  C   UNL     1      15.842  44.687  18.307  1.00  0.00     0.006 C 
BRANCH   3   4
ATOM      4  C   UNL     1      15.588  45.936  19.162  1.00  0.00     0.053 C 
BRANCH   4   5
ATOM      5  C   UNL     1      14.190  45.967  19.699  1.00  0.00     0.041 C 
ATOM      6  O   UNL     1      13.243  46.381  18.978  1.00  0.00    -0.550 OA
ATOM      7  O   UNL     1      13.927  45.504  20.982  1.00  0.00    -0.550 OA
ENDBRANCH   4   5
ENDBRANCH   3   4
ENDBRANCH   2   3
ENDBRANCH   1   2
BRANCH   1   8
ATOM      8  C   UNL     1      19.126  44.306  20.203  1.00  0.00     0.000 C 
BRANCH   8   9
ATOM      9  C   UNL     1      19.809  45.683  20.297  1.00  0.00     0.006 C 
BRANCH   9  10
ATOM     10  C   UNL     1      18.865  46.828  20.702  1.00  0.00     0.053 C 
BRANCH  10  11
ATOM     11  C   UNL     1      19.607  48.100  20.972  1.00  0.00     0.041 C 
ATOM     12  O   UNL     1      19.275  48.833  21.939  1.00  0.00    -0.550 OA
ATOM     13  O   UNL     1      20.690  48.456  20.178  1.00  0.00    -0.550 OA
ENDBRANCH  10  11
ENDBRANCH   9  10
ENDBRANCH   8   9
ENDBRANCH   1   8
TORSDOF 8
ENDMDL
MODEL 9
REMARK VINA RESULT:    -3.635      2.619      6.890
REMARK INTER + INTRA:          -5.911
REMARK INTER:                  -5.547
REMARK INTRA:                  -0.364
REMARK UNBOUND:                -0.576
REMARK SMILES O=C([O-])CCCCCCCC(=O)[O-]
REMARK SMILES IDX 7 1 6 2 5 3 4 4 2 5 1 6 3 7 8 8 9 9 10 10 11 11 12 12 13 13
REMARK H PARENT
REMARK Flexibility Score: inf
ROOT
ATOM      1  C   UNL     1      14.305  45.351  20.963  1.00  0.00     0.000 C 
ENDROOT
BRANCH   1   2
ATOM      2  C   UNL     1      15.482  45.057  20.020  1.00  0.00     0.000 C 
BRANCH   2   3
ATOM      3  C   UNL     1      16.386  46.284  19.804  1.00  0.00     0.006 C 
BRANCH   3   4
ATOM      4  C   UNL     1      17.448  46.421  20.903  1.00  0.00     0.053 C 
BRANCH   4   5
ATOM      5  C   UNL     1      18.553  47.347  20.495  1.00  0.00     0.041 C 
ATOM      6  O   UNL     1      19.740  47.108  20.843  1.00  0.00    -0.550 OA
ATOM      7  O   UNL     1      18.277  48.452  19.701  1.00  0.00    -0.550 OA
ENDBRANCH   4   5
ENDBRANCH   3   4
ENDBRANCH   2   3
ENDBRANCH   1   2
BRANCH   1   8
ATOM      8  C   UNL     1      13.244  46.258  20.317  1.00  0.00     0.000 C 
BRANCH   8   9
ATOM      9  C   UNL     1      12.760  45.731  18.954  1.00  0.00     0.006 C 
BRANCH   9  10
ATOM     10  C   UNL     1      11.681  46.601  18.288  1.00  0.00     0.053 C 
BRANCH  10  11
ATOM     11  C   UNL     1      10.493  46.801  19.176  1.00  0.00     0.041 C 
ATOM     12  O   UNL     1       9.821  45.811  19.567  1.00  0.00    -0.550 OA
ATOM     13  O   UNL     1      10.150  48.078  19.602  1.00  0.00    -0.550 OA
ENDBRANCH  10  11
ENDBRANCH   9  10
ENDBRANCH   8   9
ENDBRANCH   1   8
TORSDOF 8
ENDMDL
