MODEL 1
REMARK VINA RESULT:    -3.311      0.000      0.000
REMARK INTER + INTRA:          -6.893
REMARK INTER:                  -5.634
REMARK INTRA:                  -1.259
REMARK UNBOUND:                -1.259
REMARK SMILES CCCCCCCCCCCCCC(=O)[O-]
REMARK SMILES IDX 8 1 9 2 10 3 11 4 12 5 13 6 14 7 15 8 16 9 7 10 6 11 5 12
REMARK SMILES IDX 4 13 3 14 2 15 1 16
REMARK H PARENT
REMARK Flexibility Score: inf
ROOT
ATOM      1  C   UNL     1      14.131  38.752   9.299  1.00  0.00     0.000 C 
ENDROOT
BRANCH   1   2
ATOM      2  C   UNL     1      13.797  38.242   7.884  1.00  0.00     0.000 C 
BRANCH   2   3
ATOM      3  C   UNL     1      14.580  38.919   6.743  1.00  0.00     0.000 C 
BRANCH   3   4
ATOM      4  C   UNL     1      16.109  38.737   6.844  1.00  0.00     0.000 C 
BRANCH   4   5
ATOM      5  C   UNL     1      16.838  40.054   7.164  1.00  0.00     0.006 C 
BRANCH   5   6
ATOM      6  C   UNL     1      15.890  41.261   7.140  1.00  0.00     0.053 C 
BRANCH   6   7
ATOM      7  C   UNL     1      15.760  41.891   8.492  1.00  0.00     0.041 C 
ATOM      8  O   UNL     1      14.975  42.859   8.668  1.00  0.00    -0.550 OA
ATOM      9  O   UNL     1      16.533  41.431   9.551  1.00  0.00    -0.550 OA
ENDBRANCH   6   7
ENDBRANCH   5   6
ENDBRANCH   4   5
ENDBRANCH   3   4
ENDBRANCH   2   3
ENDBRANCH   1   2
BRANCH   1  10
ATOM     10  C   UNL     1      14.402  37.653  10.344  1.00  0.00     0.000 C 
BRANCH  10  11
ATOM     11  C   UNL     1      15.764  37.813  11.039  1.00  0.00    -0.000 C 
BRANCH  11  12
ATOM     12  C   UNL     1      15.929  36.888  12.260  1.00  0.00    -0.000 C 
BRANCH  12  13
ATOM     13  C   UNL     1      15.617  37.533  13.623  1.00  0.00    -0.000 C 
BRANCH  13  14
ATOM     14  C   UNL     1      15.474  39.062  13.546  1.00  0.00    -0.000 C 
BRANCH  14  15
ATOM     15  C   UNL     1      14.139  39.558  14.125  1.00  0.00    -0.003 C 
ATOM     16  C   UNL     1      12.955  38.679  13.724  1.00  0.00     0.004 C 
ENDBRANCH  14  15
ENDBRANCH  13  14
ENDBRANCH  12  13
ENDBRANCH  11  12
ENDBRANCH  10  11
ENDBRANCH   1  10
TORSDOF 12
ENDMDL
MODEL 2
REMARK VINA RESULT:    -3.279      2.013      4.965
REMARK INTER + INTRA:          -6.839
REMARK INTER:                  -5.308
REMARK INTRA:                  -1.531
REMARK UNBOUND:                -1.259
REMARK SMILES CCCCCCCCCCCCCC(=O)[O-]
REMARK SMILES IDX 8 1 9 2 10 3 11 4 12 5 13 6 14 7 15 8 16 9 7 10 6 11 5 12
REMARK SMILES IDX 4 13 3 14 2 15 1 16
REMARK H PARENT
REMARK Flexibility Score: inf
ROOT
ATOM      1  C   UNL     1      14.275  38.763   9.276  1.00  0.00     0.000 C 
ENDROOT
BRANCH   1   2
ATOM      2  C   UNL     1      14.002  37.698  10.355  1.00  0.00     0.000 C 
BRANCH   2   3
ATOM      3  C   UNL     1      15.244  37.224  11.135  1.00  0.00     0.000 C 
BRANCH   3   4
ATOM      4  C   UNL     1      16.492  38.103  10.912  1.00  0.00     0.000 C 
BRANCH   4   5
ATOM      5  C   UNL     1      16.671  39.160  12.018  1.00  0.00     0.006 C 
BRANCH   5   6
ATOM      6  C   UNL     1      16.881  40.568  11.444  1.00  0.00     0.053 C 
BRANCH   6   7
ATOM      7  C   UNL     1      16.625  41.628  12.472  1.00  0.00     0.041 C 
ATOM      8  O   UNL     1      16.055  41.336  13.555  1.00  0.00    -0.550 OA
ATOM      9  O   UNL     1      16.987  42.945  12.217  1.00  0.00    -0.550 OA
ENDBRANCH   6   7
ENDBRANCH   5   6
ENDBRANCH   4   5
ENDBRANCH   3   4
ENDBRANCH   2   3
ENDBRANCH   1   2
BRANCH   1  10
ATOM     10  C   UNL     1      13.895  38.353   7.841  1.00  0.00     0.000 C 
BRANCH  10  11
ATOM     11  C   UNL     1      14.866  38.907   6.785  1.00  0.00    -0.000 C 
BRANCH  11  12
ATOM     12  C   UNL     1      16.281  39.155   7.340  1.00  0.00    -0.000 C 
BRANCH  12  13
ATOM     13  C   UNL     1      16.803  40.597   7.193  1.00  0.00    -0.000 C 
BRANCH  13  14
ATOM     14  C   UNL     1      15.676  41.641   7.133  1.00  0.00    -0.000 C 
BRANCH  14  15
ATOM     15  C   UNL     1      15.242  42.121   8.526  1.00  0.00    -0.003 C 
ATOM     16  C   UNL     1      15.854  43.469   8.907  1.00  0.00     0.004 C 
ENDBRANCH  14  15
ENDBRANCH  13  14
ENDBRANCH  12  13
ENDBRANCH  11  12
ENDBRANCH  10  11
ENDBRANCH   1  10
TORSDOF 12
ENDMDL
MODEL 3
REMARK VINA RESULT:    -3.243      2.116      5.487
REMARK INTER + INTRA:          -6.778
REMARK INTER:                  -5.409
REMARK INTRA:                  -1.369
REMARK UNBOUND:                -1.259
REMARK SMILES CCCCCCCCCCCCCC(=O)[O-]
REMARK SMILES IDX 8 1 9 2 10 3 11 4 12 5 13 6 14 7 15 8 16 9 7 10 6 11 5 12
REMARK SMILES IDX 4 13 3 14 2 15 1 16
REMARK H PARENT
REMARK Flexibility Score: inf
ROOT
ATOM      1  C   UNL     1      14.238  38.695   9.170  1.00  0.00     0.000 C 
ENDROOT
BRANCH   1   2
ATOM      2  C   UNL     1      13.952  37.627  10.242  1.00  0.00     0.000 C 
BRANCH   2   3
ATOM      3  C   UNL     1      15.174  37.193  11.076  1.00  0.00     0.000 C 
BRANCH   3   4
ATOM      4  C   UNL     1      16.249  38.290  11.221  1.00  0.00     0.000 C 
BRANCH   4   5
ATOM      5  C   UNL     1      16.361  38.815  12.663  1.00  0.00     0.006 C 
BRANCH   5   6
ATOM      6  C   UNL     1      15.283  38.222  13.581  1.00  0.00     0.053 C 
BRANCH   6   7
ATOM      7  C   UNL     1      14.143  39.172  13.782  1.00  0.00     0.041 C 
ATOM      8  O   UNL     1      14.363  40.363  14.125  1.00  0.00    -0.550 OA
ATOM      9  O   UNL     1      12.835  38.732  13.623  1.00  0.00    -0.550 OA
ENDBRANCH   6   7
ENDBRANCH   5   6
ENDBRANCH   4   5
ENDBRANCH   3   4
ENDBRANCH   2   3
ENDBRANCH   1   2
BRANCH   1  10
ATOM     10  C   UNL     1      13.764  38.337   7.748  1.00  0.00     0.000 C 
BRANCH  10  11
ATOM     11  C   UNL     1      14.687  38.897   6.653  1.00  0.00    -0.000 C 
BRANCH  11  12
ATOM     12  C   UNL     1      16.141  39.081   7.128  1.00  0.00    -0.000 C 
BRANCH  12  13
ATOM     13  C   UNL     1      16.693  40.515   7.024  1.00  0.00    -0.000 C 
BRANCH  13  14
ATOM     14  C   UNL     1      15.634  41.589   7.323  1.00  0.00    -0.000 C 
BRANCH  14  15
ATOM     15  C   UNL     1      15.780  42.184   8.733  1.00  0.00    -0.003 C 
ATOM     16  C   UNL     1      16.913  41.541   9.533  1.00  0.00     0.004 C 
ENDBRANCH  14  15
ENDBRANCH  13  14
ENDBRANCH  12  13
ENDBRANCH  11  12
ENDBRANCH  10  11
ENDBRANCH   1  10
TORSDOF 12
ENDMDL
MODEL 4
REMARK VINA RESULT:    -3.193      2.920      5.966
REMARK INTER + INTRA:          -6.692
REMARK INTER:                  -5.643
REMARK INTRA:                  -1.049
REMARK UNBOUND:                -1.259
REMARK SMILES CCCCCCCCCCCCCC(=O)[O-]
REMARK SMILES IDX 8 1 9 2 10 3 11 4 12 5 13 6 14 7 15 8 16 9 7 10 6 11 5 12
REMARK SMILES IDX 4 13 3 14 2 15 1 16
REMARK H PARENT
REMARK Flexibility Score: inf
ROOT
ATOM      1  C   UNL     1      13.878  38.354   7.757  1.00  0.00     0.000 C 
ENDROOT
BRANCH   1   2
ATOM      2  C   UNL     1      14.156  38.968   9.142  1.00  0.00     0.000 C 
BRANCH   2   3
ATOM      3  C   UNL     1      14.384  37.949  10.276  1.00  0.00     0.000 C 
BRANCH   3   4
ATOM      4  C   UNL     1      15.321  38.458  11.391  1.00  0.00     0.000 C 
BRANCH   4   5
ATOM      5  C   UNL     1      15.187  37.640  12.688  1.00  0.00     0.006 C 
BRANCH   5   6
ATOM      6  C   UNL     1      16.535  37.074  13.158  1.00  0.00     0.053 C 
BRANCH   6   7
ATOM      7  C   UNL     1      16.651  35.609  12.868  1.00  0.00     0.041 C 
ATOM      8  O   UNL     1      16.889  34.796  13.799  1.00  0.00    -0.550 OA
ATOM      9  O   UNL     1      16.531  35.146  11.564  1.00  0.00    -0.550 OA
ENDBRANCH   6   7
ENDBRANCH   5   6
ENDBRANCH   4   5
ENDBRANCH   3   4
ENDBRANCH   2   3
ENDBRANCH   1   2
BRANCH   1  10
ATOM     10  C   UNL     1      14.852  38.784   6.643  1.00  0.00     0.000 C 
BRANCH  10  11
ATOM     11  C   UNL     1      16.302  38.914   7.136  1.00  0.00    -0.000 C 
BRANCH  11  12
ATOM     12  C   UNL     1      16.874  40.333   6.954  1.00  0.00    -0.000 C 
BRANCH  12  13
ATOM     13  C   UNL     1      16.742  41.260   8.177  1.00  0.00    -0.000 C 
BRANCH  13  14
ATOM     14  C   UNL     1      15.550  42.226   8.073  1.00  0.00    -0.000 C 
BRANCH  14  15
ATOM     15  C   UNL     1      15.505  43.232   9.234  1.00  0.00    -0.003 C 
ATOM     16  C   UNL     1      16.496  42.897  10.348  1.00  0.00     0.004 C 
ENDBRANCH  14  15
ENDBRANCH  13  14
ENDBRANCH  12  13
ENDBRANCH  11  12
ENDBRANCH  10  11
ENDBRANCH   1  10
TORSDOF 12
ENDMDL
MODEL 5
REMARK VINA RESULT:    -2.907      2.525      5.720
REMARK INTER + INTRA:          -6.205
REMARK INTER:                  -5.031
REMARK INTRA:                  -1.174
REMARK UNBOUND:                -1.259
REMARK SMILES CCCCCCCCCCCCCC(=O)[O-]
REMARK SMILES IDX 8 1 9 2 10 3 11 4 12 5 13 6 14 7 15 8 16 9 7 10 6 11 5 12
REMARK SMILES IDX 4 13 3 14 2 15 1 16
REMARK H PARENT
REMARK Flexibility Score: inf
ROOT
ATOM      1  C   UNL     1      16.057  43.127   8.887  1.00  0.00     0.000 C 
ENDROOT
BRANCH   1   2
ATOM      2  C   UNL     1      16.604  42.886  10.307  1.00  0.00     0.000 C 
BRANCH   2   3
ATOM      3  C   UNL     1      16.580  41.418  10.777  1.00  0.00     0.000 C 
BRANCH   3   4
ATOM      4  C   UNL     1      17.123  41.214  12.206  1.00  0.00     0.000 C 
BRANCH   4   5
ATOM      5  C   UNL     1      16.626  39.902  12.841  1.00  0.00     0.006 C 
BRANCH   5   6
ATOM      6  C   UNL     1      15.228  40.051  13.458  1.00  0.00     0.053 C 
BRANCH   6   7
ATOM      7  C   UNL     1      14.580  38.721  13.689  1.00  0.00     0.041 C 
ATOM      8  O   UNL     1      13.331  38.639  13.825  1.00  0.00    -0.550 OA
ATOM      9  O   UNL     1      15.359  37.575  13.786  1.00  0.00    -0.550 OA
ENDBRANCH   6   7
ENDBRANCH   5   6
ENDBRANCH   4   5
ENDBRANCH   3   4
ENDBRANCH   2   3
ENDBRANCH   1   2
BRANCH   1  10
ATOM     10  C   UNL     1      15.158  42.005   8.333  1.00  0.00     0.000 C 
BRANCH  10  11
ATOM     11  C   UNL     1      15.748  41.328   7.085  1.00  0.00    -0.000 C 
BRANCH  11  12
ATOM     12  C   UNL     1      15.894  39.802   7.241  1.00  0.00    -0.000 C 
BRANCH  12  13
ATOM     13  C   UNL     1      14.694  38.972   6.751  1.00  0.00    -0.000 C 
BRANCH  13  14
ATOM     14  C   UNL     1      13.864  38.378   7.902  1.00  0.00    -0.000 C 
BRANCH  14  15
ATOM     15  C   UNL     1      14.493  38.643   9.279  1.00  0.00    -0.003 C 
ATOM     16  C   UNL     1      14.107  37.592  10.320  1.00  0.00     0.004 C 
ENDBRANCH  14  15
ENDBRANCH  13  14
ENDBRANCH  12  13
ENDBRANCH  11  12
ENDBRANCH  10  11
ENDBRANCH   1  10
TORSDOF 12
ENDMDL
MODEL 6
REMARK VINA RESULT:    -2.856      2.413      3.708
REMARK INTER + INTRA:          -6.119
REMARK INTER:                  -4.762
REMARK INTRA:                  -1.357
REMARK UNBOUND:                -1.259
REMARK SMILES CCCCCCCCCCCCCC(=O)[O-]
REMARK SMILES IDX 8 1 9 2 10 3 11 4 12 5 13 6 14 7 15 8 16 9 7 10 6 11 5 12
REMARK SMILES IDX 4 13 3 14 2 15 1 16
REMARK H PARENT
REMARK Flexibility Score: inf
ROOT
ATOM      1  C   UNL     1      16.777  42.795  10.550  1.00  0.00     0.000 C 
ENDROOT
BRANCH   1   2
ATOM      2  C   UNL     1      15.508  43.155   9.755  1.00  0.00     0.000 C 
BRANCH   2   3
ATOM      3  C   UNL     1      15.480  42.644   8.301  1.00  0.00     0.000 C 
BRANCH   3   4
ATOM      4  C   UNL     1      16.768  41.908   7.875  1.00  0.00     0.000 C 
BRANCH   4   5
ATOM      5  C   UNL     1      16.517  40.423   7.557  1.00  0.00     0.006 C 
BRANCH   5   6
ATOM      6  C   UNL     1      15.163  39.937   8.091  1.00  0.00     0.053 C 
BRANCH   6   7
ATOM      7  C   UNL     1      14.634  38.785   7.292  1.00  0.00     0.041 C 
ATOM      8  O   UNL     1      15.265  38.369   6.286  1.00  0.00    -0.550 OA
ATOM      9  O   UNL     1      13.426  38.195   7.640  1.00  0.00    -0.550 OA
ENDBRANCH   6   7
ENDBRANCH   5   6
ENDBRANCH   4   5
ENDBRANCH   3   4
ENDBRANCH   2   3
ENDBRANCH   1   2
BRANCH   1  10
ATOM     10  C   UNL     1      16.554  42.518  12.050  1.00  0.00     0.000 C 
BRANCH  10  11
ATOM     11  C   UNL     1      16.901  41.074  12.448  1.00  0.00    -0.000 C 
BRANCH  11  12
ATOM     12  C   UNL     1      16.890  40.101  11.254  1.00  0.00    -0.000 C 
BRANCH  12  13
ATOM     13  C   UNL     1      16.476  38.655  11.586  1.00  0.00    -0.000 C 
BRANCH  13  14
ATOM     14  C   UNL     1      14.956  38.487  11.751  1.00  0.00    -0.000 C 
BRANCH  14  15
ATOM     15  C   UNL     1      14.548  38.216  13.207  1.00  0.00    -0.003 C 
ATOM     16  C   UNL     1      13.119  38.662  13.516  1.00  0.00     0.004 C 
ENDBRANCH  14  15
ENDBRANCH  13  14
ENDBRANCH  12  13
ENDBRANCH  11  12
ENDBRANCH  10  11
ENDBRANCH   1  10
TORSDOF 12
ENDMDL
MODEL 7
REMARK VINA RESULT:    -2.846      1.242      2.132
REMARK INTER + INTRA:          -6.102
REMARK INTER:                  -4.771
REMARK INTRA:                  -1.331
REMARK UNBOUND:                -1.259
REMARK SMILES CCCCCCCCCCCCCC(=O)[O-]
REMARK SMILES IDX 8 1 9 2 10 3 11 4 12 5 13 6 14 7 15 8 16 9 7 10 6 11 5 12
REMARK SMILES IDX 4 13 3 14 2 15 1 16
REMARK H PARENT
REMARK Flexibility Score: inf
ROOT
ATOM      1  C   UNL     1      14.097  37.905   9.096  1.00  0.00     0.000 C 
ENDROOT
BRANCH   1   2
ATOM      2  C   UNL     1      14.113  39.021   8.033  1.00  0.00     0.000 C 
BRANCH   2   3
ATOM      3  C   UNL     1      15.110  38.808   6.877  1.00  0.00     0.000 C 
BRANCH   3   4
ATOM      4  C   UNL     1      16.556  39.221   7.218  1.00  0.00     0.000 C 
BRANCH   4   5
ATOM      5  C   UNL     1      16.768  40.743   7.133  1.00  0.00     0.006 C 
BRANCH   5   6
ATOM      6  C   UNL     1      17.003  41.373   8.513  1.00  0.00     0.053 C 
BRANCH   6   7
ATOM      7  C   UNL     1      15.973  42.414   8.829  1.00  0.00     0.041 C 
ATOM      8  O   UNL     1      14.901  42.465   8.171  1.00  0.00    -0.550 OA
ATOM      9  O   UNL     1      16.213  43.349   9.828  1.00  0.00    -0.550 OA
ENDBRANCH   6   7
ENDBRANCH   5   6
ENDBRANCH   4   5
ENDBRANCH   3   4
ENDBRANCH   2   3
ENDBRANCH   1   2
BRANCH   1  10
ATOM     10  C   UNL     1      14.217  38.389  10.554  1.00  0.00     0.000 C 
BRANCH  10  11
ATOM     11  C   UNL     1      15.609  38.954  10.882  1.00  0.00    -0.000 C 
BRANCH  11  12
ATOM     12  C   UNL     1      15.928  38.930  12.389  1.00  0.00    -0.000 C 
BRANCH  12  13
ATOM     13  C   UNL     1      15.122  37.912  13.217  1.00  0.00    -0.000 C 
BRANCH  13  14
ATOM     14  C   UNL     1      15.985  36.762  13.763  1.00  0.00    -0.000 C 
BRANCH  14  15
ATOM     15  C   UNL     1      17.125  36.378  12.806  1.00  0.00    -0.003 C 
ATOM     16  C   UNL     1      16.700  35.347  11.760  1.00  0.00     0.004 C 
ENDBRANCH  14  15
ENDBRANCH  13  14
ENDBRANCH  12  13
ENDBRANCH  11  12
ENDBRANCH  10  11
ENDBRANCH   1  10
TORSDOF 12
ENDMDL
MODEL 8
REMARK VINA RESULT:    -2.718      2.560      4.308
REMARK INTER + INTRA:          -5.883
REMARK INTER:                  -4.737
REMARK INTRA:                  -1.147
REMARK UNBOUND:                -1.259
REMARK SMILES CCCCCCCCCCCCCC(=O)[O-]
REMARK SMILES IDX 8 1 9 2 10 3 11 4 12 5 13 6 14 7 15 8 16 9 7 10 6 11 5 12
REMARK SMILES IDX 4 13 3 14 2 15 1 16
REMARK H PARENT
REMARK Flexibility Score: inf
ROOT
ATOM      1  C   UNL     1      15.580  41.734   7.287  1.00  0.00     0.000 C 
ENDROOT
BRANCH   1   2
ATOM      2  C   UNL     1      16.648  40.639   7.103  1.00  0.00     0.000 C 
BRANCH   2   3
ATOM      3  C   UNL     1      16.113  39.193   7.132  1.00  0.00     0.000 C 
BRANCH   3   4
ATOM      4  C   UNL     1      14.576  39.100   7.225  1.00  0.00     0.000 C 
BRANCH   4   5
ATOM      5  C   UNL     1      14.108  38.354   8.488  1.00  0.00     0.006 C 
BRANCH   5   6
ATOM      6  C   UNL     1      14.917  38.755   9.730  1.00  0.00     0.053 C 
BRANCH   6   7
ATOM      7  C   UNL     1      14.589  37.889  10.907  1.00  0.00     0.041 C 
ATOM      8  O   UNL     1      15.141  36.766  11.041  1.00  0.00    -0.550 OA
ATOM      9  O   UNL     1      13.649  38.309  11.839  1.00  0.00    -0.550 OA
ENDBRANCH   6   7
ENDBRANCH   5   6
ENDBRANCH   4   5
ENDBRANCH   3   4
ENDBRANCH   2   3
ENDBRANCH   1   2
BRANCH   1  10
ATOM     10  C   UNL     1      15.525  42.365   8.692  1.00  0.00     0.000 C 
BRANCH  10  11
ATOM     11  C   UNL     1      16.904  42.437   9.368  1.00  0.00    -0.000 C 
BRANCH  11  12
ATOM     12  C   UNL     1      16.971  41.641  10.686  1.00  0.00    -0.000 C 
BRANCH  12  13
ATOM     13  C   UNL     1      16.759  42.469  11.967  1.00  0.00    -0.000 C 
BRANCH  13  14
ATOM     14  C   UNL     1      16.595  41.598  13.225  1.00  0.00    -0.000 C 
BRANCH  14  15
ATOM     15  C   UNL     1      15.338  41.961  14.031  1.00  0.00    -0.003 C 
ATOM     16  C   UNL     1      14.842  43.379  13.752  1.00  0.00     0.004 C 
ENDBRANCH  14  15
ENDBRANCH  13  14
ENDBRANCH  12  13
ENDBRANCH  11  12
ENDBRANCH  10  11
ENDBRANCH   1  10
TORSDOF 12
ENDMDL
MODEL 9
REMARK VINA RESULT:    -2.702      2.560      4.904
REMARK INTER + INTRA:          -5.857
REMARK INTER:                  -4.667
REMARK INTRA:                  -1.190
REMARK UNBOUND:                -1.259
REMARK SMILES CCCCCCCCCCCCCC(=O)[O-]
REMARK SMILES IDX 8 1 9 2 10 3 11 4 12 5 13 6 14 7 15 8 16 9 7 10 6 11 5 12
REMARK SMILES IDX 4 13 3 14 2 15 1 16
REMARK H PARENT
REMARK Flexibility Score: inf
ROOT
ATOM      1  C   UNL     1      15.739  39.103   6.881  1.00  0.00     0.000 C 
ENDROOT
BRANCH   1   2
ATOM      2  C   UNL     1      14.252  38.710   6.968  1.00  0.00     0.000 C 
BRANCH   2   3
ATOM      3  C   UNL     1      13.812  38.109   8.318  1.00  0.00     0.000 C 
BRANCH   3   4
ATOM      4  C   UNL     1      14.586  38.668   9.530  1.00  0.00     0.000 C 
BRANCH   4   5
ATOM      5  C   UNL     1      14.073  38.101  10.866  1.00  0.00     0.006 C 
BRANCH   5   6
ATOM      6  C   UNL     1      15.192  37.439  11.682  1.00  0.00     0.053 C 
BRANCH   6   7
ATOM      7  C   UNL     1      15.104  37.796  13.134  1.00  0.00     0.041 C 
ATOM      8  O   UNL     1      13.982  37.952  13.681  1.00  0.00    -0.550 OA
ATOM      9  O   UNL     1      16.264  37.988  13.874  1.00  0.00    -0.550 OA
ENDBRANCH   6   7
ENDBRANCH   5   6
ENDBRANCH   4   5
ENDBRANCH   3   4
ENDBRANCH   2   3
ENDBRANCH   1   2
BRANCH   1  10
ATOM     10  C   UNL     1      16.019  40.618   6.917  1.00  0.00     0.000 C 
BRANCH  10  11
ATOM     11  C   UNL     1      17.123  40.998   7.917  1.00  0.00    -0.000 C 
BRANCH  11  12
ATOM     12  C   UNL     1      16.888  42.367   8.582  1.00  0.00    -0.000 C 
BRANCH  12  13
ATOM     13  C   UNL     1      16.355  42.316  10.026  1.00  0.00    -0.000 C 
BRANCH  13  14
ATOM     14  C   UNL     1      16.945  41.155  10.843  1.00  0.00    -0.000 C 
BRANCH  14  15
ATOM     15  C   UNL     1      16.543  41.215  12.326  1.00  0.00    -0.003 C 
ATOM     16  C   UNL     1      16.654  42.621  12.914  1.00  0.00     0.004 C 
ENDBRANCH  14  15
ENDBRANCH  13  14
ENDBRANCH  12  13
ENDBRANCH  11  12
ENDBRANCH  10  11
ENDBRANCH   1  10
TORSDOF 12
ENDMDL
