MODEL 1
REMARK VINA RESULT:    -2.677      0.000      0.000
REMARK INTER + INTRA:          -6.962
REMARK INTER:                  -6.119
REMARK INTRA:                  -0.842
REMARK UNBOUND:                -0.842
REMARK SMILES CCCCCCCCCCCCCCCCCCCCCCCC(=O)[O-]
REMARK SMILES IDX 13 1 14 2 15 3 16 4 17 5 18 6 19 7 20 8 21 9 22 10 23 11
REMARK SMILES IDX 24 12 25 13 26 14 12 15 11 16 10 17 9 18 8 19 7 20 6 21 5 22
REMARK SMILES IDX 4 23 3 24 2 25 1 26
REMARK H PARENT
REMARK Flexibility Score: inf
ROOT
ATOM      1  C   UNL     1       0.423 -23.016  15.702  1.00  0.00     0.000 C 
ENDROOT
BRANCH   1   2
ATOM      2  C   UNL     1      -0.662 -22.361  16.575  1.00  0.00     0.000 C 
BRANCH   2   3
ATOM      3  C   UNL     1      -2.008 -22.227  15.832  1.00  0.00     0.000 C 
BRANCH   3   4
ATOM      4  C   UNL     1      -3.165 -22.993  16.500  1.00  0.00     0.000 C 
BRANCH   4   5
ATOM      5  C   UNL     1      -4.546 -22.440  16.112  1.00  0.00     0.000 C 
BRANCH   5   6
ATOM      6  C   UNL     1      -5.690 -23.081  16.914  1.00  0.00     0.000 C 
BRANCH   6   7
ATOM      7  C   UNL     1      -6.672 -22.042  17.482  1.00  0.00     0.000 C 
BRANCH   7   8
ATOM      8  C   UNL     1      -8.091 -22.190  16.906  1.00  0.00     0.000 C 
BRANCH   8   9
ATOM      9  C   UNL     1      -9.196 -22.428  17.956  1.00  0.00     0.000 C 
BRANCH   9  10
ATOM     10  C   UNL     1      -9.090 -21.562  19.223  1.00  0.00     0.006 C 
BRANCH  10  11
ATOM     11  C   UNL     1     -10.426 -21.423  19.965  1.00  0.00     0.053 C 
BRANCH  11  12
ATOM     12  C   UNL     1     -10.592 -20.033  20.497  1.00  0.00     0.041 C 
ATOM     13  O   UNL     1     -10.293 -19.040  19.782  1.00  0.00    -0.550 OA
ATOM     14  O   UNL     1     -11.080 -19.832  21.783  1.00  0.00    -0.550 OA
ENDBRANCH  11  12
ENDBRANCH  10  11
ENDBRANCH   9  10
ENDBRANCH   8   9
ENDBRANCH   7   8
ENDBRANCH   6   7
ENDBRANCH   5   6
ENDBRANCH   4   5
ENDBRANCH   3   4
ENDBRANCH   2   3
ENDBRANCH   1   2
BRANCH   1  15
ATOM     15  C   UNL     1       1.737 -22.220  15.703  1.00  0.00     0.000 C 
BRANCH  15  16
ATOM     16  C   UNL     1       2.959 -23.109  15.990  1.00  0.00     0.000 C 
BRANCH  16  17
ATOM     17  C   UNL     1       4.141 -22.821  15.045  1.00  0.00     0.000 C 
BRANCH  17  18
ATOM     18  C   UNL     1       5.527 -22.822  15.718  1.00  0.00    -0.000 C 
BRANCH  18  19
ATOM     19  C   UNL     1       5.529 -22.108  17.080  1.00  0.00    -0.000 C 
BRANCH  19  20
ATOM     20  C   UNL     1       6.869 -21.419  17.387  1.00  0.00    -0.000 C 
BRANCH  20  21
ATOM     21  C   UNL     1       8.030 -21.968  16.537  1.00  0.00    -0.000 C 
BRANCH  21  22
ATOM     22  C   UNL     1       8.379 -21.058  15.345  1.00  0.00    -0.000 C 
BRANCH  22  23
ATOM     23  C   UNL     1       8.884 -21.798  14.093  1.00  0.00    -0.000 C 
BRANCH  23  24
ATOM     24  C   UNL     1       8.094 -21.438  12.826  1.00  0.00    -0.000 C 
BRANCH  24  25
ATOM     25  C   UNL     1       8.382 -19.996  12.395  1.00  0.00    -0.003 C 
ATOM     26  C   UNL     1       7.698 -19.669  11.071  1.00  0.00     0.004 C 
ENDBRANCH  24  25
ENDBRANCH  23  24
ENDBRANCH  22  23
ENDBRANCH  21  22
ENDBRANCH  20  21
ENDBRANCH  19  20
ENDBRANCH  18  19
ENDBRANCH  17  18
ENDBRANCH  16  17
ENDBRANCH  15  16
ENDBRANCH   1  15
TORSDOF 22
ENDMDL
MODEL 2
REMARK VINA RESULT:    -2.632      1.595      2.273
REMARK INTER + INTRA:          -6.859
REMARK INTER:                  -5.532
REMARK INTRA:                  -1.328
REMARK UNBOUND:                -0.842
REMARK SMILES CCCCCCCCCCCCCCCCCCCCCCCC(=O)[O-]
REMARK SMILES IDX 13 1 14 2 15 3 16 4 17 5 18 6 19 7 20 8 21 9 22 10 23 11
REMARK SMILES IDX 24 12 25 13 26 14 12 15 11 16 10 17 9 18 8 19 7 20 6 21 5 22
REMARK SMILES IDX 4 23 3 24 2 25 1 26
REMARK H PARENT
REMARK Flexibility Score: inf
ROOT
ATOM      1  C   UNL     1      -0.691 -22.121  16.389  1.00  0.00     0.000 C 
ENDROOT
BRANCH   1   2
ATOM      2  C   UNL     1      -2.069 -22.392  15.759  1.00  0.00     0.000 C 
BRANCH   2   3
ATOM      3  C   UNL     1      -3.022 -23.120  16.730  1.00  0.00     0.000 C 
BRANCH   3   4
ATOM      4  C   UNL     1      -4.497 -23.101  16.285  1.00  0.00     0.000 C 
BRANCH   4   5
ATOM      5  C   UNL     1      -5.475 -23.073  17.470  1.00  0.00     0.000 C 
BRANCH   5   6
ATOM      6  C   UNL     1      -6.668 -22.133  17.234  1.00  0.00     0.000 C 
BRANCH   6   7
ATOM      7  C   UNL     1      -7.259 -22.266  15.819  1.00  0.00     0.000 C 
BRANCH   7   8
ATOM      8  C   UNL     1      -7.656 -20.910  15.213  1.00  0.00     0.000 C 
BRANCH   8   9
ATOM      9  C   UNL     1      -9.102 -20.835  14.679  1.00  0.00     0.000 C 
BRANCH   9  10
ATOM     10  C   UNL     1     -10.104 -20.126  15.606  1.00  0.00     0.006 C 
BRANCH  10  11
ATOM     11  C   UNL     1     -11.106 -21.092  16.253  1.00  0.00     0.053 C 
BRANCH  11  12
ATOM     12  C   UNL     1     -10.663 -21.466  17.633  1.00  0.00     0.041 C 
ATOM     13  O   UNL     1     -11.125 -22.496  18.191  1.00  0.00    -0.550 OA
ATOM     14  O   UNL     1      -9.735 -20.678  18.305  1.00  0.00    -0.550 OA
ENDBRANCH  11  12
ENDBRANCH  10  11
ENDBRANCH   9  10
ENDBRANCH   8   9
ENDBRANCH   7   8
ENDBRANCH   6   7
ENDBRANCH   5   6
ENDBRANCH   4   5
ENDBRANCH   3   4
ENDBRANCH   2   3
ENDBRANCH   1   2
BRANCH   1  15
ATOM     15  C   UNL     1       0.433 -22.916  15.708  1.00  0.00     0.000 C 
BRANCH  15  16
ATOM     16  C   UNL     1       1.821 -22.304  15.965  1.00  0.00     0.000 C 
BRANCH  16  17
ATOM     17  C   UNL     1       2.929 -22.966  15.125  1.00  0.00     0.000 C 
BRANCH  17  18
ATOM     18  C   UNL     1       4.313 -23.019  15.799  1.00  0.00    -0.000 C 
BRANCH  18  19
ATOM     19  C   UNL     1       4.534 -21.871  16.799  1.00  0.00    -0.000 C 
BRANCH  19  20
ATOM     20  C   UNL     1       5.773 -22.086  17.684  1.00  0.00    -0.000 C 
BRANCH  20  21
ATOM     21  C   UNL     1       7.024 -22.476  16.876  1.00  0.00    -0.000 C 
BRANCH  21  22
ATOM     22  C   UNL     1       7.772 -21.255  16.309  1.00  0.00    -0.000 C 
BRANCH  22  23
ATOM     23  C   UNL     1       8.749 -21.571  15.163  1.00  0.00    -0.000 C 
BRANCH  23  24
ATOM     24  C   UNL     1       8.702 -20.533  14.032  1.00  0.00    -0.000 C 
BRANCH  24  25
ATOM     25  C   UNL     1       8.235 -21.176  12.721  1.00  0.00    -0.003 C 
ATOM     26  C   UNL     1       7.035 -22.089  12.951  1.00  0.00     0.004 C 
ENDBRANCH  24  25
ENDBRANCH  23  24
ENDBRANCH  22  23
ENDBRANCH  21  22
ENDBRANCH  20  21
ENDBRANCH  19  20
ENDBRANCH  18  19
ENDBRANCH  17  18
ENDBRANCH  16  17
ENDBRANCH  15  16
ENDBRANCH   1  15
TORSDOF 22
ENDMDL
MODEL 3
REMARK VINA RESULT:    -2.530      5.941     15.074
REMARK INTER + INTRA:          -6.627
REMARK INTER:                  -5.661
REMARK INTRA:                  -0.966
REMARK UNBOUND:                -0.842
REMARK SMILES CCCCCCCCCCCCCCCCCCCCCCCC(=O)[O-]
REMARK SMILES IDX 13 1 14 2 15 3 16 4 17 5 18 6 19 7 20 8 21 9 22 10 23 11
REMARK SMILES IDX 24 12 25 13 26 14 12 15 11 16 10 17 9 18 8 19 7 20 6 21 5 22
REMARK SMILES IDX 4 23 3 24 2 25 1 26
REMARK H PARENT
REMARK Flexibility Score: inf
ROOT
ATOM      1  C   UNL     1      -1.096 -22.942  16.370  1.00  0.00     0.000 C 
ENDROOT
BRANCH   1   2
ATOM      2  C   UNL     1       0.095 -22.290  15.644  1.00  0.00     0.000 C 
BRANCH   2   3
ATOM      3  C   UNL     1       1.387 -23.124  15.777  1.00  0.00     0.000 C 
BRANCH   3   4
ATOM      4  C   UNL     1       2.675 -22.279  15.770  1.00  0.00     0.000 C 
BRANCH   4   5
ATOM      5  C   UNL     1       3.939 -23.125  15.547  1.00  0.00     0.000 C 
BRANCH   5   6
ATOM      6  C   UNL     1       4.629 -22.822  14.206  1.00  0.00     0.000 C 
BRANCH   6   7
ATOM      7  C   UNL     1       6.162 -22.785  14.322  1.00  0.00     0.000 C 
BRANCH   7   8
ATOM      8  C   UNL     1       6.849 -22.423  12.994  1.00  0.00     0.000 C 
BRANCH   8   9
ATOM      9  C   UNL     1       7.981 -21.382  13.111  1.00  0.00     0.000 C 
BRANCH   9  10
ATOM     10  C   UNL     1       8.532 -20.864  11.770  1.00  0.00     0.006 C 
BRANCH  10  11
ATOM     11  C   UNL     1       7.757 -19.653  11.234  1.00  0.00     0.053 C 
BRANCH  11  12
ATOM     12  C   UNL     1       7.249 -19.922   9.851  1.00  0.00     0.041 C 
ATOM     13  O   UNL     1       7.511 -21.012   9.280  1.00  0.00    -0.550 OA
ATOM     14  O   UNL     1       6.480 -18.967   9.193  1.00  0.00    -0.550 OA
ENDBRANCH  11  12
ENDBRANCH  10  11
ENDBRANCH   9  10
ENDBRANCH   8   9
ENDBRANCH   7   8
ENDBRANCH   6   7
ENDBRANCH   5   6
ENDBRANCH   4   5
ENDBRANCH   3   4
ENDBRANCH   2   3
ENDBRANCH   1   2
BRANCH   1  15
ATOM     15  C   UNL     1      -2.394 -22.137  16.208  1.00  0.00     0.000 C 
BRANCH  15  16
ATOM     16  C   UNL     1      -3.634 -23.042  16.106  1.00  0.00     0.000 C 
BRANCH  16  17
ATOM     17  C   UNL     1      -4.711 -22.695  17.151  1.00  0.00     0.000 C 
BRANCH  17  18
ATOM     18  C   UNL     1      -6.164 -22.803  16.648  1.00  0.00    -0.000 C 
BRANCH  18  19
ATOM     19  C   UNL     1      -7.169 -23.066  17.782  1.00  0.00    -0.000 C 
BRANCH  19  20
ATOM     20  C   UNL     1      -8.628 -23.057  17.296  1.00  0.00    -0.000 C 
BRANCH  20  21
ATOM     21  C   UNL     1      -9.608 -22.525  18.359  1.00  0.00    -0.000 C 
BRANCH  21  22
ATOM     22  C   UNL     1      -9.655 -20.987  18.409  1.00  0.00    -0.000 C 
BRANCH  22  23
ATOM     23  C   UNL     1     -11.025 -20.372  18.071  1.00  0.00    -0.000 C 
BRANCH  23  24
ATOM     24  C   UNL     1     -11.029 -19.618  16.733  1.00  0.00    -0.000 C 
BRANCH  24  25
ATOM     25  C   UNL     1     -10.891 -20.592  15.557  1.00  0.00    -0.003 C 
ATOM     26  C   UNL     1      -9.590 -20.357  14.795  1.00  0.00     0.004 C 
ENDBRANCH  24  25
ENDBRANCH  23  24
ENDBRANCH  22  23
ENDBRANCH  21  22
ENDBRANCH  20  21
ENDBRANCH  19  20
ENDBRANCH  18  19
ENDBRANCH  17  18
ENDBRANCH  16  17
ENDBRANCH  15  16
ENDBRANCH   1  15
TORSDOF 22
ENDMDL
MODEL 4
REMARK VINA RESULT:    -2.319      2.063      2.404
REMARK INTER + INTRA:          -6.143
REMARK INTER:                  -5.385
REMARK INTRA:                  -0.758
REMARK UNBOUND:                -0.842
REMARK SMILES CCCCCCCCCCCCCCCCCCCCCCCC(=O)[O-]
REMARK SMILES IDX 13 1 14 2 15 3 16 4 17 5 18 6 19 7 20 8 21 9 22 10 23 11
REMARK SMILES IDX 24 12 25 13 26 14 12 15 11 16 10 17 9 18 8 19 7 20 6 21 5 22
REMARK SMILES IDX 4 23 3 24 2 25 1 26
REMARK H PARENT
REMARK Flexibility Score: inf
ROOT
ATOM      1  C   UNL     1       1.328 -22.044  15.618  1.00  0.00     0.000 C 
ENDROOT
BRANCH   1   2
ATOM      2  C   UNL     1       0.295 -22.929  16.340  1.00  0.00     0.000 C 
BRANCH   2   3
ATOM      3  C   UNL     1      -1.070 -22.225  16.495  1.00  0.00     0.000 C 
BRANCH   3   4
ATOM      4  C   UNL     1      -2.256 -23.040  15.945  1.00  0.00     0.000 C 
BRANCH   4   5
ATOM      5  C   UNL     1      -3.539 -22.205  15.814  1.00  0.00     0.000 C 
BRANCH   5   6
ATOM      6  C   UNL     1      -4.695 -22.753  16.667  1.00  0.00     0.000 C 
BRANCH   6   7
ATOM      7  C   UNL     1      -5.987 -21.931  16.516  1.00  0.00     0.000 C 
BRANCH   7   8
ATOM      8  C   UNL     1      -7.255 -22.797  16.609  1.00  0.00     0.000 C 
BRANCH   8   9
ATOM      9  C   UNL     1      -8.148 -22.511  17.834  1.00  0.00     0.000 C 
BRANCH   9  10
ATOM     10  C   UNL     1      -9.601 -22.126  17.505  1.00  0.00     0.006 C 
BRANCH  10  11
ATOM     11  C   UNL     1      -9.740 -20.676  17.020  1.00  0.00     0.053 C 
BRANCH  11  12
ATOM     12  C   UNL     1      -9.919 -20.632  15.534  1.00  0.00     0.041 C 
ATOM     13  O   UNL     1     -11.039 -20.345  15.038  1.00  0.00    -0.550 OA
ATOM     14  O   UNL     1      -8.845 -20.906  14.694  1.00  0.00    -0.550 OA
ENDBRANCH  11  12
ENDBRANCH  10  11
ENDBRANCH   9  10
ENDBRANCH   8   9
ENDBRANCH   7   8
ENDBRANCH   6   7
ENDBRANCH   5   6
ENDBRANCH   4   5
ENDBRANCH   3   4
ENDBRANCH   2   3
ENDBRANCH   1   2
BRANCH   1  15
ATOM     15  C   UNL     1       2.661 -21.962  16.376  1.00  0.00     0.000 C 
BRANCH  15  16
ATOM     16  C   UNL     1       3.620 -23.104  15.997  1.00  0.00     0.000 C 
BRANCH  16  17
ATOM     17  C   UNL     1       4.606 -22.708  14.882  1.00  0.00     0.000 C 
BRANCH  17  18
ATOM     18  C   UNL     1       6.095 -22.825  15.258  1.00  0.00    -0.000 C 
BRANCH  18  19
ATOM     19  C   UNL     1       6.428 -22.138  16.594  1.00  0.00    -0.000 C 
BRANCH  19  20
ATOM     20  C   UNL     1       7.937 -21.910  16.784  1.00  0.00    -0.000 C 
BRANCH  20  21
ATOM     21  C   UNL     1       8.703 -21.846  15.449  1.00  0.00    -0.000 C 
BRANCH  21  22
ATOM     22  C   UNL     1       8.575 -20.479  14.753  1.00  0.00    -0.000 C 
BRANCH  22  23
ATOM     23  C   UNL     1       9.045 -20.454  13.287  1.00  0.00    -0.000 C 
BRANCH  23  24
ATOM     24  C   UNL     1       8.323 -19.392  12.445  1.00  0.00    -0.000 C 
BRANCH  24  25
ATOM     25  C   UNL     1       8.231 -19.828  10.978  1.00  0.00    -0.003 C 
ATOM     26  C   UNL     1       7.365 -21.075  10.826  1.00  0.00     0.004 C 
ENDBRANCH  24  25
ENDBRANCH  23  24
ENDBRANCH  22  23
ENDBRANCH  21  22
ENDBRANCH  20  21
ENDBRANCH  19  20
ENDBRANCH  18  19
ENDBRANCH  17  18
ENDBRANCH  16  17
ENDBRANCH  15  16
ENDBRANCH   1  15
TORSDOF 22
ENDMDL
MODEL 5
REMARK VINA RESULT:    -2.124      1.411      3.658
REMARK INTER + INTRA:          -5.699
REMARK INTER:                  -4.474
REMARK INTRA:                  -1.225
REMARK UNBOUND:                -0.842
REMARK SMILES CCCCCCCCCCCCCCCCCCCCCCCC(=O)[O-]
REMARK SMILES IDX 13 1 14 2 15 3 16 4 17 5 18 6 19 7 20 8 21 9 22 10 23 11
REMARK SMILES IDX 24 12 25 13 26 14 12 15 11 16 10 17 9 18 8 19 7 20 6 21 5 22
REMARK SMILES IDX 4 23 3 24 2 25 1 26
REMARK H PARENT
REMARK Flexibility Score: inf
ROOT
ATOM      1  C   UNL     1      -3.756 -21.653  15.445  1.00  0.00     0.000 C 
ENDROOT
BRANCH   1   2
ATOM      2  C   UNL     1      -5.135 -21.932  16.070  1.00  0.00     0.000 C 
BRANCH   2   3
ATOM      3  C   UNL     1      -5.082 -23.059  17.122  1.00  0.00     0.000 C 
BRANCH   3   4
ATOM      4  C   UNL     1      -6.322 -23.116  18.034  1.00  0.00     0.000 C 
BRANCH   4   5
ATOM      5  C   UNL     1      -7.326 -21.990  17.743  1.00  0.00     0.000 C 
BRANCH   5   6
ATOM      6  C   UNL     1      -8.758 -22.510  17.530  1.00  0.00     0.000 C 
BRANCH   6   7
ATOM      7  C   UNL     1      -9.808 -21.386  17.561  1.00  0.00     0.000 C 
BRANCH   7   8
ATOM      8  C   UNL     1      -9.949 -20.743  18.952  1.00  0.00     0.000 C 
BRANCH   8   9
ATOM      9  C   UNL     1     -10.975 -21.425  19.881  1.00  0.00     0.000 C 
BRANCH   9  10
ATOM     10  C   UNL     1     -10.389 -22.480  20.836  1.00  0.00     0.006 C 
BRANCH  10  11
ATOM     11  C   UNL     1      -8.968 -22.140  21.303  1.00  0.00     0.053 C 
BRANCH  11  12
ATOM     12  C   UNL     1      -9.001 -21.435  22.624  1.00  0.00     0.041 C 
ATOM     13  O   UNL     1      -8.144 -21.703  23.507  1.00  0.00    -0.550 OA
ATOM     14  O   UNL     1      -9.977 -20.478  22.880  1.00  0.00    -0.550 OA
ENDBRANCH  11  12
ENDBRANCH  10  11
ENDBRANCH   9  10
ENDBRANCH   8   9
ENDBRANCH   7   8
ENDBRANCH   6   7
ENDBRANCH   5   6
ENDBRANCH   4   5
ENDBRANCH   3   4
ENDBRANCH   2   3
ENDBRANCH   1   2
BRANCH   1  15
ATOM     15  C   UNL     1      -2.721 -22.731  15.803  1.00  0.00     0.000 C 
BRANCH  15  16
ATOM     16  C   UNL     1      -1.461 -22.137  16.456  1.00  0.00     0.000 C 
BRANCH  16  17
ATOM     17  C   UNL     1      -0.240 -23.069  16.350  1.00  0.00     0.000 C 
BRANCH  17  18
ATOM     18  C   UNL     1       0.946 -22.500  15.547  1.00  0.00    -0.000 C 
BRANCH  18  19
ATOM     19  C   UNL     1       2.298 -23.093  15.979  1.00  0.00    -0.000 C 
BRANCH  19  20
ATOM     20  C   UNL     1       3.325 -22.014  16.358  1.00  0.00    -0.000 C 
BRANCH  20  21
ATOM     21  C   UNL     1       4.767 -22.551  16.401  1.00  0.00    -0.000 C 
BRANCH  21  22
ATOM     22  C   UNL     1       5.633 -21.850  17.463  1.00  0.00    -0.000 C 
BRANCH  22  23
ATOM     23  C   UNL     1       7.091 -22.339  17.534  1.00  0.00    -0.000 C 
BRANCH  23  24
ATOM     24  C   UNL     1       7.991 -21.696  16.468  1.00  0.00    -0.000 C 
BRANCH  24  25
ATOM     25  C   UNL     1       7.987 -22.524  15.178  1.00  0.00    -0.003 C 
ATOM     26  C   UNL     1       8.022 -21.625  13.946  1.00  0.00     0.004 C 
ENDBRANCH  24  25
ENDBRANCH  23  24
ENDBRANCH  22  23
ENDBRANCH  21  22
ENDBRANCH  20  21
ENDBRANCH  19  20
ENDBRANCH  18  19
ENDBRANCH  17  18
ENDBRANCH  16  17
ENDBRANCH  15  16
ENDBRANCH   1  15
TORSDOF 22
ENDMDL
MODEL 6
REMARK VINA RESULT:    -2.093      1.175      1.834
REMARK INTER + INTRA:          -5.627
REMARK INTER:                  -4.873
REMARK INTRA:                  -0.754
REMARK UNBOUND:                -0.842
REMARK SMILES CCCCCCCCCCCCCCCCCCCCCCCC(=O)[O-]
REMARK SMILES IDX 13 1 14 2 15 3 16 4 17 5 18 6 19 7 20 8 21 9 22 10 23 11
REMARK SMILES IDX 24 12 25 13 26 14 12 15 11 16 10 17 9 18 8 19 7 20 6 21 5 22
REMARK SMILES IDX 4 23 3 24 2 25 1 26
REMARK H PARENT
REMARK Flexibility Score: inf
ROOT
ATOM      1  C   UNL     1       1.425 -22.131  16.018  1.00  0.00     0.000 C 
ENDROOT
BRANCH   1   2
ATOM      2  C   UNL     1       0.182 -22.836  15.445  1.00  0.00     0.000 C 
BRANCH   2   3
ATOM      3  C   UNL     1      -0.981 -22.885  16.457  1.00  0.00     0.000 C 
BRANCH   3   4
ATOM      4  C   UNL     1      -2.243 -22.134  15.992  1.00  0.00     0.000 C 
BRANCH   4   5
ATOM      5  C   UNL     1      -3.498 -23.020  15.998  1.00  0.00     0.000 C 
BRANCH   5   6
ATOM      6  C   UNL     1      -4.614 -22.464  16.897  1.00  0.00     0.000 C 
BRANCH   6   7
ATOM      7  C   UNL     1      -5.810 -21.923  16.093  1.00  0.00     0.000 C 
BRANCH   7   8
ATOM      8  C   UNL     1      -6.994 -22.904  16.059  1.00  0.00     0.000 C 
BRANCH   8   9
ATOM      9  C   UNL     1      -8.012 -22.735  17.206  1.00  0.00     0.000 C 
BRANCH   9  10
ATOM     10  C   UNL     1      -7.420 -22.225  18.532  1.00  0.00     0.006 C 
BRANCH  10  11
ATOM     11  C   UNL     1      -8.219 -22.686  19.759  1.00  0.00     0.053 C 
BRANCH  11  12
ATOM     12  C   UNL     1      -9.474 -21.881  19.904  1.00  0.00     0.041 C 
ATOM     13  O   UNL     1     -10.469 -22.361  20.507  1.00  0.00    -0.550 OA
ATOM     14  O   UNL     1      -9.543 -20.597  19.374  1.00  0.00    -0.550 OA
ENDBRANCH  11  12
ENDBRANCH  10  11
ENDBRANCH   9  10
ENDBRANCH   8   9
ENDBRANCH   7   8
ENDBRANCH   6   7
ENDBRANCH   5   6
ENDBRANCH   4   5
ENDBRANCH   3   4
ENDBRANCH   2   3
ENDBRANCH   1   2
BRANCH   1  15
ATOM     15  C   UNL     1       2.676 -23.021  15.977  1.00  0.00     0.000 C 
BRANCH  15  16
ATOM     16  C   UNL     1       3.380 -22.976  14.611  1.00  0.00     0.000 C 
BRANCH  16  17
ATOM     17  C   UNL     1       4.912 -23.090  14.726  1.00  0.00     0.000 C 
BRANCH  17  18
ATOM     18  C   UNL     1       5.484 -22.792  16.125  1.00  0.00    -0.000 C 
BRANCH  18  19
ATOM     19  C   UNL     1       6.795 -21.989  16.075  1.00  0.00    -0.000 C 
BRANCH  19  20
ATOM     20  C   UNL     1       7.999 -22.846  15.648  1.00  0.00    -0.000 C 
BRANCH  20  21
ATOM     21  C   UNL     1       9.117 -22.018  14.989  1.00  0.00    -0.000 C 
BRANCH  21  22
ATOM     22  C   UNL     1       8.829 -21.697  13.511  1.00  0.00    -0.000 C 
BRANCH  22  23
ATOM     23  C   UNL     1       8.638 -20.201  13.201  1.00  0.00    -0.000 C 
BRANCH  23  24
ATOM     24  C   UNL     1       8.622 -19.899  11.695  1.00  0.00    -0.000 C 
BRANCH  24  25
ATOM     25  C   UNL     1       7.196 -19.977  11.138  1.00  0.00    -0.003 C 
ATOM     26  C   UNL     1       7.187 -19.808   9.622  1.00  0.00     0.004 C 
ENDBRANCH  24  25
ENDBRANCH  23  24
ENDBRANCH  22  23
ENDBRANCH  21  22
ENDBRANCH  20  21
ENDBRANCH  19  20
ENDBRANCH  18  19
ENDBRANCH  17  18
ENDBRANCH  16  17
ENDBRANCH  15  16
ENDBRANCH   1  15
TORSDOF 22
ENDMDL
MODEL 7
REMARK VINA RESULT:    -2.036      5.952     15.296
REMARK INTER + INTRA:          -5.498
REMARK INTER:                  -4.823
REMARK INTRA:                  -0.675
REMARK UNBOUND:                -0.842
REMARK SMILES CCCCCCCCCCCCCCCCCCCCCCCC(=O)[O-]
REMARK SMILES IDX 13 1 14 2 15 3 16 4 17 5 18 6 19 7 20 8 21 9 22 10 23 11
REMARK SMILES IDX 24 12 25 13 26 14 12 15 11 16 10 17 9 18 8 19 7 20 6 21 5 22
REMARK SMILES IDX 4 23 3 24 2 25 1 26
REMARK H PARENT
REMARK Flexibility Score: inf
ROOT
ATOM      1  C   UNL     1      -1.050 -22.867  16.315  1.00  0.00     0.000 C 
ENDROOT
BRANCH   1   2
ATOM      2  C   UNL     1       0.181 -22.312  15.575  1.00  0.00     0.000 C 
BRANCH   2   3
ATOM      3  C   UNL     1       1.458 -23.124  15.874  1.00  0.00     0.000 C 
BRANCH   3   4
ATOM      4  C   UNL     1       2.745 -22.277  15.887  1.00  0.00     0.000 C 
BRANCH   4   5
ATOM      5  C   UNL     1       4.016 -23.125  15.727  1.00  0.00     0.000 C 
BRANCH   5   6
ATOM      6  C   UNL     1       4.800 -22.786  14.449  1.00  0.00     0.000 C 
BRANCH   6   7
ATOM      7  C   UNL     1       6.323 -22.801  14.664  1.00  0.00     0.000 C 
BRANCH   7   8
ATOM      8  C   UNL     1       7.106 -22.453  13.386  1.00  0.00     0.000 C 
BRANCH   8   9
ATOM      9  C   UNL     1       8.276 -21.468  13.590  1.00  0.00     0.000 C 
BRANCH   9  10
ATOM     10  C   UNL     1       9.009 -21.052  12.303  1.00  0.00     0.006 C 
BRANCH  10  11
ATOM     11  C   UNL     1       8.388 -19.818  11.635  1.00  0.00     0.053 C 
BRANCH  11  12
ATOM     12  C   UNL     1       8.079 -20.096  10.196  1.00  0.00     0.041 C 
ATOM     13  O   UNL     1       8.945 -20.626   9.452  1.00  0.00    -0.550 OA
ATOM     14  O   UNL     1       6.830 -19.773   9.676  1.00  0.00    -0.550 OA
ENDBRANCH  11  12
ENDBRANCH  10  11
ENDBRANCH   9  10
ENDBRANCH   8   9
ENDBRANCH   7   8
ENDBRANCH   6   7
ENDBRANCH   5   6
ENDBRANCH   4   5
ENDBRANCH   3   4
ENDBRANCH   2   3
ENDBRANCH   1   2
BRANCH   1  15
ATOM     15  C   UNL     1      -2.313 -22.031  16.062  1.00  0.00     0.000 C 
BRANCH  15  16
ATOM     16  C   UNL     1      -3.585 -22.895  16.014  1.00  0.00     0.000 C 
BRANCH  16  17
ATOM     17  C   UNL     1      -4.668 -22.417  16.999  1.00  0.00     0.000 C 
BRANCH  17  18
ATOM     18  C   UNL     1      -6.069 -22.229  16.386  1.00  0.00    -0.000 C 
BRANCH  18  19
ATOM     19  C   UNL     1      -7.199 -22.414  17.414  1.00  0.00    -0.000 C 
BRANCH  19  20
ATOM     20  C   UNL     1      -8.573 -21.995  16.866  1.00  0.00    -0.000 C 
BRANCH  20  21
ATOM     21  C   UNL     1      -9.458 -21.317  17.929  1.00  0.00    -0.000 C 
BRANCH  21  22
ATOM     22  C   UNL     1      -9.689 -22.204  19.166  1.00  0.00    -0.000 C 
BRANCH  22  23
ATOM     23  C   UNL     1      -9.241 -21.580  20.500  1.00  0.00    -0.000 C 
BRANCH  23  24
ATOM     24  C   UNL     1      -9.077 -22.617  21.621  1.00  0.00    -0.000 C 
BRANCH  24  25
ATOM     25  C   UNL     1      -8.630 -21.946  22.925  1.00  0.00    -0.003 C 
ATOM     26  C   UNL     1      -8.885 -20.442  22.886  1.00  0.00     0.004 C 
ENDBRANCH  24  25
ENDBRANCH  23  24
ENDBRANCH  22  23
ENDBRANCH  21  22
ENDBRANCH  20  21
ENDBRANCH  19  20
ENDBRANCH  18  19
ENDBRANCH  17  18
ENDBRANCH  16  17
ENDBRANCH  15  16
ENDBRANCH   1  15
TORSDOF 22
ENDMDL
MODEL 8
REMARK VINA RESULT:    -1.960      1.443      2.906
REMARK INTER + INTRA:          -5.324
REMARK INTER:                  -4.743
REMARK INTRA:                  -0.581
REMARK UNBOUND:                -0.842
REMARK SMILES CCCCCCCCCCCCCCCCCCCCCCCC(=O)[O-]
REMARK SMILES IDX 13 1 14 2 15 3 16 4 17 5 18 6 19 7 20 8 21 9 22 10 23 11
REMARK SMILES IDX 24 12 25 13 26 14 12 15 11 16 10 17 9 18 8 19 7 20 6 21 5 22
REMARK SMILES IDX 4 23 3 24 2 25 1 26
REMARK H PARENT
REMARK Flexibility Score: inf
ROOT
ATOM      1  C   UNL     1       3.529 -22.778  15.719  1.00  0.00     0.000 C 
ENDROOT
BRANCH   1   2
ATOM      2  C   UNL     1       2.123 -23.125  15.197  1.00  0.00     0.000 C 
BRANCH   2   3
ATOM      3  C   UNL     1       1.014 -22.356  15.946  1.00  0.00     0.000 C 
BRANCH   3   4
ATOM      4  C   UNL     1      -0.383 -22.989  15.810  1.00  0.00     0.000 C 
BRANCH   4   5
ATOM      5  C   UNL     1      -1.474 -22.182  16.532  1.00  0.00     0.000 C 
BRANCH   5   6
ATOM      6  C   UNL     1      -2.863 -22.361  15.898  1.00  0.00     0.000 C 
BRANCH   6   7
ATOM      7  C   UNL     1      -3.839 -23.125  16.810  1.00  0.00     0.000 C 
BRANCH   7   8
ATOM      8  C   UNL     1      -5.309 -22.928  16.403  1.00  0.00     0.000 C 
BRANCH   8   9
ATOM      9  C   UNL     1      -6.111 -21.968  17.307  1.00  0.00     0.000 C 
BRANCH   9  10
ATOM     10  C   UNL     1      -7.112 -22.649  18.255  1.00  0.00     0.006 C 
BRANCH  10  11
ATOM     11  C   UNL     1      -8.545 -22.659  17.705  1.00  0.00     0.053 C 
BRANCH  11  12
ATOM     12  C   UNL     1      -9.181 -21.313  17.867  1.00  0.00     0.041 C 
ATOM     13  O   UNL     1      -9.963 -20.871  16.985  1.00  0.00    -0.550 OA
ATOM     14  O   UNL     1      -8.915 -20.547  18.997  1.00  0.00    -0.550 OA
ENDBRANCH  11  12
ENDBRANCH  10  11
ENDBRANCH   9  10
ENDBRANCH   8   9
ENDBRANCH   7   8
ENDBRANCH   6   7
ENDBRANCH   5   6
ENDBRANCH   4   5
ENDBRANCH   3   4
ENDBRANCH   2   3
ENDBRANCH   1   2
BRANCH   1  15
ATOM     15  C   UNL     1       3.498 -21.698  16.812  1.00  0.00     0.000 C 
BRANCH  15  16
ATOM     16  C   UNL     1       4.863 -21.526  17.501  1.00  0.00     0.000 C 
BRANCH  16  17
ATOM     17  C   UNL     1       6.039 -21.979  16.616  1.00  0.00     0.000 C 
BRANCH  17  18
ATOM     18  C   UNL     1       7.435 -21.788  17.240  1.00  0.00    -0.000 C 
BRANCH  18  19
ATOM     19  C   UNL     1       8.505 -22.684  16.593  1.00  0.00    -0.000 C 
BRANCH  19  20
ATOM     20  C   UNL     1       8.202 -22.999  15.119  1.00  0.00    -0.000 C 
BRANCH  20  21
ATOM     21  C   UNL     1       7.980 -21.733  14.271  1.00  0.00    -0.000 C 
BRANCH  21  22
ATOM     22  C   UNL     1       7.671 -22.049  12.797  1.00  0.00    -0.000 C 
BRANCH  22  23
ATOM     23  C   UNL     1       7.856 -20.865  11.830  1.00  0.00    -0.000 C 
BRANCH  23  24
ATOM     24  C   UNL     1       8.566 -21.262  10.527  1.00  0.00    -0.000 C 
BRANCH  24  25
ATOM     25  C   UNL     1       8.352 -20.199   9.443  1.00  0.00    -0.003 C 
ATOM     26  C   UNL     1       6.896 -19.744   9.397  1.00  0.00     0.004 C 
ENDBRANCH  24  25
ENDBRANCH  23  24
ENDBRANCH  22  23
ENDBRANCH  21  22
ENDBRANCH  20  21
ENDBRANCH  19  20
ENDBRANCH  18  19
ENDBRANCH  17  18
ENDBRANCH  16  17
ENDBRANCH  15  16
ENDBRANCH   1  15
TORSDOF 22
ENDMDL
MODEL 9
REMARK VINA RESULT:    -1.906      5.878     14.796
REMARK INTER + INTRA:          -5.201
REMARK INTER:                  -3.975
REMARK INTRA:                  -1.226
REMARK UNBOUND:                -0.842
REMARK SMILES CCCCCCCCCCCCCCCCCCCCCCCC(=O)[O-]
REMARK SMILES IDX 13 1 14 2 15 3 16 4 17 5 18 6 19 7 20 8 21 9 22 10 23 11
REMARK SMILES IDX 24 12 25 13 26 14 12 15 11 16 10 17 9 18 8 19 7 20 6 21 5 22
REMARK SMILES IDX 4 23 3 24 2 25 1 26
REMARK H PARENT
REMARK Flexibility Score: inf
ROOT
ATOM      1  C   UNL     1       0.340 -22.637  15.674  1.00  0.00     0.000 C 
ENDROOT
BRANCH   1   2
ATOM      2  C   UNL     1       0.550 -21.518  16.711  1.00  0.00     0.000 C 
BRANCH   2   3
ATOM      3  C   UNL     1       2.044 -21.275  17.013  1.00  0.00     0.000 C 
BRANCH   3   4
ATOM      4  C   UNL     1       2.999 -21.995  16.043  1.00  0.00     0.000 C 
BRANCH   4   5
ATOM      5  C   UNL     1       3.979 -22.935  16.763  1.00  0.00     0.000 C 
BRANCH   5   6
ATOM      6  C   UNL     1       5.445 -22.667  16.388  1.00  0.00     0.000 C 
BRANCH   6   7
ATOM      7  C   UNL     1       6.092 -21.578  17.261  1.00  0.00     0.000 C 
BRANCH   7   8
ATOM      8  C   UNL     1       7.628 -21.581  17.173  1.00  0.00     0.000 C 
BRANCH   8   9
ATOM      9  C   UNL     1       8.234 -22.801  16.448  1.00  0.00     0.000 C 
BRANCH   9  10
ATOM     10  C   UNL     1       8.976 -22.479  15.139  1.00  0.00     0.006 C 
BRANCH  10  11
ATOM     11  C   UNL     1       8.087 -21.773  14.107  1.00  0.00     0.053 C 
BRANCH  11  12
ATOM     12  C   UNL     1       8.740 -20.518  13.619  1.00  0.00     0.041 C 
ATOM     13  O   UNL     1       9.071 -19.617  14.433  1.00  0.00    -0.550 OA
ATOM     14  O   UNL     1       8.987 -20.343  12.261  1.00  0.00    -0.550 OA
ENDBRANCH  11  12
ENDBRANCH  10  11
ENDBRANCH   9  10
ENDBRANCH   8   9
ENDBRANCH   7   8
ENDBRANCH   6   7
ENDBRANCH   5   6
ENDBRANCH   4   5
ENDBRANCH   3   4
ENDBRANCH   2   3
ENDBRANCH   1   2
BRANCH   1  15
ATOM     15  C   UNL     1      -1.116 -23.125  15.625  1.00  0.00     0.000 C 
BRANCH  15  16
ATOM     16  C   UNL     1      -2.080 -22.158  16.334  1.00  0.00     0.000 C 
BRANCH  16  17
ATOM     17  C   UNL     1      -3.547 -22.367  15.915  1.00  0.00     0.000 C 
BRANCH  17  18
ATOM     18  C   UNL     1      -4.485 -22.837  17.044  1.00  0.00    -0.000 C 
BRANCH  18  19
ATOM     19  C   UNL     1      -5.864 -22.156  16.996  1.00  0.00    -0.000 C 
BRANCH  19  20
ATOM     20  C   UNL     1      -6.989 -23.057  17.532  1.00  0.00    -0.000 C 
BRANCH  20  21
ATOM     21  C   UNL     1      -8.080 -22.268  18.279  1.00  0.00    -0.000 C 
BRANCH  21  22
ATOM     22  C   UNL     1      -9.152 -21.693  17.335  1.00  0.00    -0.000 C 
BRANCH  22  23
ATOM     23  C   UNL     1     -10.128 -20.701  17.994  1.00  0.00    -0.000 C 
BRANCH  23  24
ATOM     24  C   UNL     1     -10.466 -21.067  19.447  1.00  0.00    -0.000 C 
BRANCH  24  25
ATOM     25  C   UNL     1     -10.043 -19.947  20.405  1.00  0.00    -0.003 C 
ATOM     26  C   UNL     1      -9.527 -20.515  21.723  1.00  0.00     0.004 C 
ENDBRANCH  24  25
ENDBRANCH  23  24
ENDBRANCH  22  23
ENDBRANCH  21  22
ENDBRANCH  20  21
ENDBRANCH  19  20
ENDBRANCH  18  19
ENDBRANCH  17  18
ENDBRANCH  16  17
ENDBRANCH  15  16
ENDBRANCH   1  15
TORSDOF 22
ENDMDL
