MODEL 1
REMARK VINA RESULT:    -5.610      0.000      0.000
REMARK INTER + INTRA:          -6.473
REMARK INTER:                  -6.266
REMARK INTRA:                  -0.207
REMARK UNBOUND:                -0.207
REMARK SMILES CC(C)c1ccc(C(=O)[O-])cc1
REMARK SMILES IDX 7 1 6 2 11 3 5 4 12 5 4 6 8 7 9 8 10 9 2 10 1 11 3 12
REMARK H PARENT
REMARK Flexibility Score: inf
ROOT
ATOM      1  C   UNL     1      87.231  74.567  73.411  1.00  0.00    -0.003 A 
ATOM      2  C   UNL     1      88.309  73.923  72.781  1.00  0.00     0.010 A 
ATOM      3  C   UNL     1      86.822  75.827  72.941  1.00  0.00     0.010 A 
ATOM      4  C   UNL     1      88.965  74.527  71.705  1.00  0.00     0.004 A 
ATOM      5  C   UNL     1      87.478  76.430  71.865  1.00  0.00     0.004 A 
ATOM      6  C   UNL     1      88.556  75.788  71.234  1.00  0.00    -0.045 A 
ENDROOT
BRANCH   1   7
ATOM      7  C   UNL     1      86.540  73.925  74.550  1.00  0.00     0.071 C 
ATOM      8  O   UNL     1      87.126  73.054  75.248  1.00  0.00    -0.545 OA
ATOM      9  O   UNL     1      85.232  74.272  74.866  1.00  0.00    -0.545 OA
ENDBRANCH   1   7
BRANCH   6  10
ATOM     10  C   UNL     1      89.259  76.454  70.066  1.00  0.00     0.013 C 
ATOM     11  C   UNL     1      90.630  77.000  70.484  1.00  0.00     0.012 C 
ATOM     12  C   UNL     1      89.387  75.495  68.877  1.00  0.00     0.012 C 
ENDBRANCH   6  10
TORSDOF 2
ENDMDL
MODEL 2
REMARK VINA RESULT:    -5.412      1.356      2.165
REMARK INTER + INTRA:          -6.251
REMARK INTER:                  -6.032
REMARK INTRA:                  -0.219
REMARK UNBOUND:                -0.207
REMARK SMILES CC(C)c1ccc(C(=O)[O-])cc1
REMARK SMILES IDX 7 1 6 2 11 3 5 4 12 5 4 6 8 7 9 8 10 9 2 10 1 11 3 12
REMARK H PARENT
REMARK Flexibility Score: inf
ROOT
ATOM      1  C   UNL     1      86.850  75.594  72.742  1.00  0.00    -0.003 A 
ATOM      2  C   UNL     1      87.114  76.586  71.783  1.00  0.00     0.010 A 
ATOM      3  C   UNL     1      87.686  74.464  72.800  1.00  0.00     0.010 A 
ATOM      4  C   UNL     1      88.189  76.452  70.900  1.00  0.00     0.004 A 
ATOM      5  C   UNL     1      88.760  74.331  71.917  1.00  0.00     0.004 A 
ATOM      6  C   UNL     1      89.025  75.322  70.957  1.00  0.00    -0.045 A 
ENDROOT
BRANCH   1   7
ATOM      7  C   UNL     1      85.712  75.739  73.675  1.00  0.00     0.071 C 
ATOM      8  O   UNL     1      85.295  74.751  74.338  1.00  0.00    -0.545 OA
ATOM      9  O   UNL     1      85.084  76.969  73.833  1.00  0.00    -0.545 OA
ENDBRANCH   1   7
BRANCH   6  10
ATOM     10  C   UNL     1      90.195  75.164  70.005  1.00  0.00     0.013 C 
ATOM     11  C   UNL     1      91.031  76.448  69.937  1.00  0.00     0.012 C 
ATOM     12  C   UNL     1      91.064  73.961  70.391  1.00  0.00     0.012 C 
ENDBRANCH   6  10
TORSDOF 2
ENDMDL
MODEL 3
REMARK VINA RESULT:    -5.345      3.205      5.027
REMARK INTER + INTRA:          -6.177
REMARK INTER:                  -5.965
REMARK INTRA:                  -0.212
REMARK UNBOUND:                -0.207
REMARK SMILES CC(C)c1ccc(C(=O)[O-])cc1
REMARK SMILES IDX 7 1 6 2 11 3 5 4 12 5 4 6 8 7 9 8 10 9 2 10 1 11 3 12
REMARK H PARENT
REMARK Flexibility Score: inf
ROOT
ATOM      1  C   UNL     1      89.005  75.934  71.085  1.00  0.00    -0.003 A 
ATOM      2  C   UNL     1      89.162  74.720  71.774  1.00  0.00     0.010 A 
ATOM      3  C   UNL     1      87.916  76.764  71.407  1.00  0.00     0.010 A 
ATOM      4  C   UNL     1      88.248  74.342  72.762  1.00  0.00     0.004 A 
ATOM      5  C   UNL     1      87.004  76.386  72.395  1.00  0.00     0.004 A 
ATOM      6  C   UNL     1      87.159  75.172  73.084  1.00  0.00    -0.045 A 
ENDROOT
BRANCH   1   7
ATOM      7  C   UNL     1      89.974  76.331  70.040  1.00  0.00     0.071 C 
ATOM      8  O   UNL     1      89.898  75.847  68.878  1.00  0.00    -0.545 OA
ATOM      9  O   UNL     1      90.983  77.243  70.325  1.00  0.00    -0.545 OA
ENDBRANCH   1   7
BRANCH   6  10
ATOM     10  C   UNL     1      86.161  74.773  74.155  1.00  0.00     0.013 C 
ATOM     11  C   UNL     1      84.875  75.602  74.049  1.00  0.00     0.012 C 
ATOM     12  C   UNL     1      85.855  73.272  74.095  1.00  0.00     0.012 C 
ENDBRANCH   6  10
TORSDOF 2
ENDMDL
MODEL 4
REMARK VINA RESULT:    -5.115     12.824     13.863
REMARK INTER + INTRA:          -5.920
REMARK INTER:                  -5.701
REMARK INTRA:                  -0.219
REMARK UNBOUND:                -0.207
REMARK SMILES CC(C)c1ccc(C(=O)[O-])cc1
REMARK SMILES IDX 7 1 6 2 11 3 5 4 12 5 4 6 8 7 9 8 10 9 2 10 1 11 3 12
REMARK H PARENT
REMARK Flexibility Score: inf
ROOT
ATOM      1  C   UNL     1      95.795  83.725  80.109  1.00  0.00    -0.003 A 
ATOM      2  C   UNL     1      94.877  82.738  80.502  1.00  0.00     0.010 A 
ATOM      3  C   UNL     1      95.341  84.807  79.334  1.00  0.00     0.010 A 
ATOM      4  C   UNL     1      93.533  82.829  80.128  1.00  0.00     0.004 A 
ATOM      5  C   UNL     1      93.997  84.898  78.961  1.00  0.00     0.004 A 
ATOM      6  C   UNL     1      93.078  83.911  79.353  1.00  0.00    -0.045 A 
ENDROOT
BRANCH   1   7
ATOM      7  C   UNL     1      97.216  83.626  80.507  1.00  0.00     0.071 C 
ATOM      8  O   UNL     1      98.059  84.466  80.091  1.00  0.00    -0.545 OA
ATOM      9  O   UNL     1      97.643  82.602  81.344  1.00  0.00    -0.545 OA
ENDBRANCH   1   7
BRANCH   6  10
ATOM     10  C   UNL     1      91.623  84.021  78.940  1.00  0.00     0.013 C 
ATOM     11  C   UNL     1      90.692  83.902  80.153  1.00  0.00     0.012 C 
ATOM     12  C   UNL     1      91.363  85.323  78.172  1.00  0.00     0.012 C 
ENDBRANCH   6  10
TORSDOF 2
ENDMDL
MODEL 5
REMARK VINA RESULT:    -5.099     12.873     13.891
REMARK INTER + INTRA:          -5.902
REMARK INTER:                  -5.685
REMARK INTRA:                  -0.217
REMARK UNBOUND:                -0.207
REMARK SMILES CC(C)c1ccc(C(=O)[O-])cc1
REMARK SMILES IDX 7 1 6 2 11 3 5 4 12 5 4 6 8 7 9 8 10 9 2 10 1 11 3 12
REMARK H PARENT
REMARK Flexibility Score: inf
ROOT
ATOM      1  C   UNL     1      93.357  84.209  79.386  1.00  0.00    -0.003 A 
ATOM      2  C   UNL     1      94.341  85.138  79.009  1.00  0.00     0.010 A 
ATOM      3  C   UNL     1      93.738  83.081  80.135  1.00  0.00     0.010 A 
ATOM      4  C   UNL     1      95.677  84.943  79.370  1.00  0.00     0.004 A 
ATOM      5  C   UNL     1      95.074  82.887  80.496  1.00  0.00     0.004 A 
ATOM      6  C   UNL     1      96.059  83.815  80.118  1.00  0.00    -0.045 A 
ENDROOT
BRANCH   1   7
ATOM      7  C   UNL     1      91.944  84.418  79.003  1.00  0.00     0.071 C 
ATOM      8  O   UNL     1      91.027  83.743  79.541  1.00  0.00    -0.545 OA
ATOM      9  O   UNL     1      91.609  85.363  78.040  1.00  0.00    -0.545 OA
ENDBRANCH   1   7
BRANCH   6  10
ATOM     10  C   UNL     1      97.505  83.591  80.517  1.00  0.00     0.013 C 
ATOM     11  C   UNL     1      98.039  84.767  81.344  1.00  0.00     0.012 C 
ATOM     12  C   UNL     1      97.673  82.266  81.270  1.00  0.00     0.012 C 
ENDBRANCH   6  10
TORSDOF 2
ENDMDL
MODEL 6
REMARK VINA RESULT:    -4.961      1.559      2.111
REMARK INTER + INTRA:          -5.748
REMARK INTER:                  -5.541
REMARK INTRA:                  -0.207
REMARK UNBOUND:                -0.207
REMARK SMILES CC(C)c1ccc(C(=O)[O-])cc1
REMARK SMILES IDX 7 1 6 2 11 3 5 4 12 5 4 6 8 7 9 8 10 9 2 10 1 11 3 12
REMARK H PARENT
REMARK Flexibility Score: inf
ROOT
ATOM      1  C   UNL     1      89.044  74.069  73.354  1.00  0.00    -0.003 A 
ATOM      2  C   UNL     1      89.856  73.442  72.395  1.00  0.00     0.010 A 
ATOM      3  C   UNL     1      88.197  75.117  72.950  1.00  0.00     0.010 A 
ATOM      4  C   UNL     1      89.825  73.855  71.060  1.00  0.00     0.004 A 
ATOM      5  C   UNL     1      88.167  75.529  71.615  1.00  0.00     0.004 A 
ATOM      6  C   UNL     1      88.979  74.903  70.655  1.00  0.00    -0.045 A 
ENDROOT
BRANCH   1   7
ATOM      7  C   UNL     1      89.079  73.630  74.766  1.00  0.00     0.071 C 
ATOM      8  O   UNL     1      90.169  73.591  75.399  1.00  0.00    -0.545 OA
ATOM      9  O   UNL     1      87.910  73.252  75.415  1.00  0.00    -0.545 OA
ENDBRANCH   1   7
BRANCH   6  10
ATOM     10  C   UNL     1      88.935  75.360  69.209  1.00  0.00     0.013 C 
ATOM     11  C   UNL     1      87.598  76.036  68.882  1.00  0.00     0.012 C 
ATOM     12  C   UNL     1      90.114  76.286  68.886  1.00  0.00     0.012 C 
ENDBRANCH   6  10
TORSDOF 2
ENDMDL
MODEL 7
REMARK VINA RESULT:    -4.905     11.953     13.055
REMARK INTER + INTRA:          -5.686
REMARK INTER:                  -5.476
REMARK INTRA:                  -0.210
REMARK UNBOUND:                -0.207
REMARK SMILES CC(C)c1ccc(C(=O)[O-])cc1
REMARK SMILES IDX 7 1 6 2 11 3 5 4 12 5 4 6 8 7 9 8 10 9 2 10 1 11 3 12
REMARK H PARENT
REMARK Flexibility Score: inf
ROOT
ATOM      1  C   UNL     1      92.773  83.711  79.979  1.00  0.00    -0.003 A 
ATOM      2  C   UNL     1      91.865  84.004  78.949  1.00  0.00     0.010 A 
ATOM      3  C   UNL     1      92.275  83.330  81.238  1.00  0.00     0.010 A 
ATOM      4  C   UNL     1      90.488  83.920  79.172  1.00  0.00     0.004 A 
ATOM      5  C   UNL     1      90.898  83.246  81.460  1.00  0.00     0.004 A 
ATOM      6  C   UNL     1      89.988  83.539  80.431  1.00  0.00    -0.045 A 
ENDROOT
BRANCH   1   7
ATOM      7  C   UNL     1      94.230  83.801  79.740  1.00  0.00     0.071 C 
ATOM      8  O   UNL     1      94.693  84.622  78.903  1.00  0.00    -0.545 OA
ATOM      9  O   UNL     1      95.110  82.980  80.435  1.00  0.00    -0.545 OA
ENDBRANCH   1   7
BRANCH   6  10
ATOM     10  C   UNL     1      88.496  83.443  80.686  1.00  0.00     0.013 C 
ATOM     11  C   UNL     1      88.014  81.990  80.611  1.00  0.00     0.012 C 
ATOM     12  C   UNL     1      88.123  84.080  82.030  1.00  0.00     0.012 C 
ENDBRANCH   6  10
TORSDOF 2
ENDMDL
MODEL 8
REMARK VINA RESULT:    -4.900     11.945     13.029
REMARK INTER + INTRA:          -5.680
REMARK INTER:                  -5.474
REMARK INTRA:                  -0.207
REMARK UNBOUND:                -0.207
REMARK SMILES CC(C)c1ccc(C(=O)[O-])cc1
REMARK SMILES IDX 7 1 6 2 11 3 5 4 12 5 4 6 8 7 9 8 10 9 2 10 1 11 3 12
REMARK H PARENT
REMARK Flexibility Score: inf
ROOT
ATOM      1  C   UNL     1      92.735  83.676  80.013  1.00  0.00    -0.003 A 
ATOM      2  C   UNL     1      92.245  83.304  81.276  1.00  0.00     0.010 A 
ATOM      3  C   UNL     1      91.819  83.968  78.987  1.00  0.00     0.010 A 
ATOM      4  C   UNL     1      90.869  83.223  81.508  1.00  0.00     0.004 A 
ATOM      5  C   UNL     1      90.443  83.887  79.220  1.00  0.00     0.004 A 
ATOM      6  C   UNL     1      89.952  83.515  80.482  1.00  0.00    -0.045 A 
ENDROOT
BRANCH   1   7
ATOM      7  C   UNL     1      94.191  83.760  79.771  1.00  0.00     0.071 C 
ATOM      8  O   UNL     1      94.659  84.603  78.959  1.00  0.00    -0.545 OA
ATOM      9  O   UNL     1      95.066  82.909  80.435  1.00  0.00    -0.545 OA
ENDBRANCH   1   7
BRANCH   6  10
ATOM     10  C   UNL     1      88.456  83.431  80.721  1.00  0.00     0.013 C 
ATOM     11  C   UNL     1      87.963  81.982  80.638  1.00  0.00     0.012 C 
ATOM     12  C   UNL     1      88.074  84.068  82.062  1.00  0.00     0.012 C 
ENDBRANCH   6  10
TORSDOF 2
ENDMDL
MODEL 9
REMARK VINA RESULT:    -4.836     15.040     16.168
REMARK INTER + INTRA:          -5.608
REMARK INTER:                  -5.402
REMARK INTRA:                  -0.207
REMARK UNBOUND:                -0.207
REMARK SMILES CC(C)c1ccc(C(=O)[O-])cc1
REMARK SMILES IDX 7 1 6 2 11 3 5 4 12 5 4 6 8 7 9 8 10 9 2 10 1 11 3 12
REMARK H PARENT
REMARK Flexibility Score: inf
ROOT
ATOM      1  C   UNL     1      98.985  83.446  81.858  1.00  0.00    -0.003 A 
ATOM      2  C   UNL     1      98.202  82.355  81.446  1.00  0.00     0.010 A 
ATOM      3  C   UNL     1      98.454  84.744  81.752  1.00  0.00     0.010 A 
ATOM      4  C   UNL     1      96.916  82.556  80.937  1.00  0.00     0.004 A 
ATOM      5  C   UNL     1      97.167  84.944  81.244  1.00  0.00     0.004 A 
ATOM      6  C   UNL     1      96.384  83.854  80.831  1.00  0.00    -0.045 A 
ENDROOT
BRANCH   1   7
ATOM      7  C   UNL     1     100.346  83.229  82.395  1.00  0.00     0.071 C 
ATOM      8  O   UNL     1     101.292  82.898  81.631  1.00  0.00    -0.545 OA
ATOM      9  O   UNL     1     100.600  83.387  83.752  1.00  0.00    -0.545 OA
ENDBRANCH   1   7
BRANCH   6  10
ATOM     10  C   UNL     1      94.989  84.086  80.281  1.00  0.00     0.013 C 
ATOM     11  C   UNL     1      95.039  84.828  78.940  1.00  0.00     0.012 C 
ATOM     12  C   UNL     1      94.219  82.767  80.152  1.00  0.00     0.012 C 
ENDBRANCH   6  10
TORSDOF 2
ENDMDL
