MODEL 1
REMARK VINA RESULT:     2.554      0.000      0.000
REMARK INTER + INTRA:           6.935
REMARK INTER:                   5.839
REMARK INTRA:                   1.096
REMARK UNBOUND:                 1.096
REMARK SMILES CCCCCCCCCCCCCCCCCCCCCCCC(=O)[O-]
REMARK SMILES IDX 13 1 14 2 15 3 16 4 17 5 18 6 19 7 20 8 21 9 22 10 23 11
REMARK SMILES IDX 24 12 25 13 26 14 12 15 11 16 10 17 9 18 8 19 7 20 6 21 5 22
REMARK SMILES IDX 4 23 3 24 2 25 1 26
REMARK H PARENT
REMARK Flexibility Score: inf
ROOT
ATOM      1  C   UNL     1     -29.915 -19.882 -33.658  1.00  0.00     0.000 C 
ENDROOT
BRANCH   1   2
ATOM      2  C   UNL     1     -31.407 -19.983 -34.023  1.00  0.00     0.000 C 
BRANCH   2   3
ATOM      3  C   UNL     1     -31.986 -21.382 -33.756  1.00  0.00     0.000 C 
BRANCH   3   4
ATOM      4  C   UNL     1     -32.019 -22.259 -35.020  1.00  0.00     0.000 C 
BRANCH   4   5
ATOM      5  C   UNL     1     -33.424 -22.344 -35.658  1.00  0.00     0.000 C 
BRANCH   5   6
ATOM      6  C   UNL     1     -33.940 -21.001 -36.209  1.00  0.00     0.000 C 
BRANCH   6   7
ATOM      7  C   UNL     1     -34.070 -20.945 -37.741  1.00  0.00     0.000 C 
BRANCH   7   8
ATOM      8  C   UNL     1     -33.520 -22.201 -38.453  1.00  0.00     0.000 C 
BRANCH   8   9
ATOM      9  C   UNL     1     -31.985 -22.284 -38.395  1.00  0.00     0.000 C 
BRANCH   9  10
ATOM     10  C   UNL     1     -31.429 -23.517 -39.125  1.00  0.00     0.006 C 
BRANCH  10  11
ATOM     11  C   UNL     1     -30.973 -24.621 -38.161  1.00  0.00     0.053 C 
BRANCH  11  12
ATOM     12  C   UNL     1     -32.084 -25.594 -37.921  1.00  0.00     0.041 C 
ATOM     13  O   UNL     1     -32.433 -26.394 -38.829  1.00  0.00    -0.550 OA
ATOM     14  O   UNL     1     -32.767 -25.586 -36.712  1.00  0.00    -0.550 OA
ENDBRANCH  11  12
ENDBRANCH  10  11
ENDBRANCH   9  10
ENDBRANCH   8   9
ENDBRANCH   7   8
ENDBRANCH   6   7
ENDBRANCH   5   6
ENDBRANCH   4   5
ENDBRANCH   3   4
ENDBRANCH   2   3
ENDBRANCH   1   2
BRANCH   1  15
ATOM     15  C   UNL     1     -29.325 -21.223 -33.194  1.00  0.00     0.000 C 
BRANCH  15  16
ATOM     16  C   UNL     1     -29.109 -21.280 -31.672  1.00  0.00     0.000 C 
BRANCH  16  17
ATOM     17  C   UNL     1     -29.238 -19.899 -31.008  1.00  0.00     0.000 C 
BRANCH  17  18
ATOM     18  C   UNL     1     -30.295 -19.876 -29.893  1.00  0.00    -0.000 C 
BRANCH  18  19
ATOM     19  C   UNL     1     -31.148 -21.152 -29.921  1.00  0.00    -0.000 C 
BRANCH  19  20
ATOM     20  C   UNL     1     -30.397 -22.359 -30.513  1.00  0.00    -0.000 C 
BRANCH  20  21
ATOM     21  C   UNL     1     -29.896 -23.389 -29.482  1.00  0.00    -0.000 C 
BRANCH  21  22
ATOM     22  C   UNL     1     -29.681 -22.843 -28.058  1.00  0.00    -0.000 C 
BRANCH  22  23
ATOM     23  C   UNL     1     -28.193 -22.699 -27.694  1.00  0.00    -0.000 C 
BRANCH  23  24
ATOM     24  C   UNL     1     -27.715 -21.238 -27.731  1.00  0.00    -0.000 C 
BRANCH  24  25
ATOM     25  C   UNL     1     -26.203 -21.115 -27.970  1.00  0.00    -0.003 C 
ATOM     26  C   UNL     1     -25.476 -20.726 -26.686  1.00  0.00     0.004 C 
ENDBRANCH  24  25
ENDBRANCH  23  24
ENDBRANCH  22  23
ENDBRANCH  21  22
ENDBRANCH  20  21
ENDBRANCH  19  20
ENDBRANCH  18  19
ENDBRANCH  17  18
ENDBRANCH  16  17
ENDBRANCH  15  16
ENDBRANCH   1  15
TORSDOF 22
ENDMDL
MODEL 2
REMARK VINA RESULT:     2.636      1.855      3.286
REMARK INTER + INTRA:           7.123
REMARK INTER:                   6.730
REMARK INTRA:                   0.393
REMARK UNBOUND:                 1.096
REMARK SMILES CCCCCCCCCCCCCCCCCCCCCCCC(=O)[O-]
REMARK SMILES IDX 13 1 14 2 15 3 16 4 17 5 18 6 19 7 20 8 21 9 22 10 23 11
REMARK SMILES IDX 24 12 25 13 26 14 12 15 11 16 10 17 9 18 8 19 7 20 6 21 5 22
REMARK SMILES IDX 4 23 3 24 2 25 1 26
REMARK H PARENT
REMARK Flexibility Score: inf
ROOT
ATOM      1  C   UNL     1     -30.412 -21.875 -34.408  1.00  0.00     0.000 C 
ENDROOT
BRANCH   1   2
ATOM      2  C   UNL     1     -31.177 -22.760 -35.409  1.00  0.00     0.000 C 
BRANCH   2   3
ATOM      3  C   UNL     1     -32.435 -23.394 -34.794  1.00  0.00     0.000 C 
BRANCH   3   4
ATOM      4  C   UNL     1     -33.686 -22.516 -34.973  1.00  0.00     0.000 C 
BRANCH   4   5
ATOM      5  C   UNL     1     -34.109 -22.365 -36.453  1.00  0.00     0.000 C 
BRANCH   5   6
ATOM      6  C   UNL     1     -34.096 -20.909 -36.958  1.00  0.00     0.000 C 
BRANCH   6   7
ATOM      7  C   UNL     1     -33.300 -20.689 -38.256  1.00  0.00     0.000 C 
BRANCH   7   8
ATOM      8  C   UNL     1     -33.103 -21.978 -39.085  1.00  0.00     0.000 C 
BRANCH   8   9
ATOM      9  C   UNL     1     -31.928 -22.830 -38.576  1.00  0.00     0.000 C 
BRANCH   9  10
ATOM     10  C   UNL     1     -31.964 -24.271 -39.110  1.00  0.00     0.006 C 
BRANCH  10  11
ATOM     11  C   UNL     1     -31.239 -25.262 -38.190  1.00  0.00     0.053 C 
BRANCH  11  12
ATOM     12  C   UNL     1     -31.936 -26.586 -38.197  1.00  0.00     0.041 C 
ATOM     13  O   UNL     1     -31.324 -27.622 -38.567  1.00  0.00    -0.550 OA
ATOM     14  O   UNL     1     -33.276 -26.667 -37.843  1.00  0.00    -0.550 OA
ENDBRANCH  11  12
ENDBRANCH  10  11
ENDBRANCH   9  10
ENDBRANCH   8   9
ENDBRANCH   7   8
ENDBRANCH   6   7
ENDBRANCH   5   6
ENDBRANCH   4   5
ENDBRANCH   3   4
ENDBRANCH   2   3
ENDBRANCH   1   2
BRANCH   1  15
ATOM     15  C   UNL     1     -31.238 -20.673 -33.926  1.00  0.00     0.000 C 
BRANCH  15  16
ATOM     16  C   UNL     1     -30.543 -19.890 -32.799  1.00  0.00     0.000 C 
BRANCH  16  17
ATOM     17  C   UNL     1     -29.009 -19.970 -32.886  1.00  0.00     0.000 C 
BRANCH  17  18
ATOM     18  C   UNL     1     -28.369 -20.470 -31.582  1.00  0.00    -0.000 C 
BRANCH  18  19
ATOM     19  C   UNL     1     -29.116 -19.919 -30.360  1.00  0.00    -0.000 C 
BRANCH  19  20
ATOM     20  C   UNL     1     -30.646 -20.014 -30.502  1.00  0.00    -0.000 C 
BRANCH  20  21
ATOM     21  C   UNL     1     -31.259 -21.366 -30.084  1.00  0.00    -0.000 C 
BRANCH  21  22
ATOM     22  C   UNL     1     -30.352 -22.593 -30.293  1.00  0.00    -0.000 C 
BRANCH  22  23
ATOM     23  C   UNL     1     -31.054 -23.728 -31.060  1.00  0.00    -0.000 C 
BRANCH  23  24
ATOM     24  C   UNL     1     -31.391 -24.927 -30.159  1.00  0.00    -0.000 C 
BRANCH  24  25
ATOM     25  C   UNL     1     -30.916 -26.263 -30.750  1.00  0.00    -0.003 C 
ATOM     26  C   UNL     1     -31.546 -27.442 -30.014  1.00  0.00     0.004 C 
ENDBRANCH  24  25
ENDBRANCH  23  24
ENDBRANCH  22  23
ENDBRANCH  21  22
ENDBRANCH  20  21
ENDBRANCH  19  20
ENDBRANCH  18  19
ENDBRANCH  17  18
ENDBRANCH  16  17
ENDBRANCH  15  16
ENDBRANCH   1  15
TORSDOF 22
ENDMDL
MODEL 3
REMARK VINA RESULT:     2.860      2.519      9.090
REMARK INTER + INTRA:           7.635
REMARK INTER:                   4.695
REMARK INTRA:                   2.940
REMARK UNBOUND:                 1.096
REMARK SMILES CCCCCCCCCCCCCCCCCCCCCCCC(=O)[O-]
REMARK SMILES IDX 13 1 14 2 15 3 16 4 17 5 18 6 19 7 20 8 21 9 22 10 23 11
REMARK SMILES IDX 24 12 25 13 26 14 12 15 11 16 10 17 9 18 8 19 7 20 6 21 5 22
REMARK SMILES IDX 4 23 3 24 2 25 1 26
REMARK H PARENT
REMARK Flexibility Score: inf
ROOT
ATOM      1  C   UNL     1     -31.091 -21.295 -33.037  1.00  0.00     0.000 C 
ENDROOT
BRANCH   1   2
ATOM      2  C   UNL     1     -30.505 -19.936 -33.464  1.00  0.00     0.000 C 
BRANCH   2   3
ATOM      3  C   UNL     1     -29.167 -20.078 -34.207  1.00  0.00     0.000 C 
BRANCH   3   4
ATOM      4  C   UNL     1     -27.959 -20.068 -33.255  1.00  0.00     0.000 C 
BRANCH   4   5
ATOM      5  C   UNL     1     -28.366 -19.982 -31.766  1.00  0.00     0.000 C 
BRANCH   5   6
ATOM      6  C   UNL     1     -27.171 -19.875 -30.799  1.00  0.00     0.000 C 
BRANCH   6   7
ATOM      7  C   UNL     1     -27.331 -20.673 -29.493  1.00  0.00     0.000 C 
BRANCH   7   8
ATOM      8  C   UNL     1     -28.766 -20.636 -28.919  1.00  0.00     0.000 C 
BRANCH   8   9
ATOM      9  C   UNL     1     -29.760 -19.947 -29.869  1.00  0.00     0.000 C 
BRANCH   9  10
ATOM     10  C   UNL     1     -31.086 -20.713 -29.998  1.00  0.00     0.006 C 
BRANCH  10  11
ATOM     11  C   UNL     1     -30.996 -22.148 -29.459  1.00  0.00     0.053 C 
BRANCH  11  12
ATOM     12  C   UNL     1     -30.573 -23.086 -30.546  1.00  0.00     0.041 C 
ATOM     13  O   UNL     1     -30.820 -24.317 -30.452  1.00  0.00    -0.550 OA
ATOM     14  O   UNL     1     -29.862 -22.608 -31.639  1.00  0.00    -0.550 OA
ENDBRANCH  11  12
ENDBRANCH  10  11
ENDBRANCH   9  10
ENDBRANCH   8   9
ENDBRANCH   7   8
ENDBRANCH   6   7
ENDBRANCH   5   6
ENDBRANCH   4   5
ENDBRANCH   3   4
ENDBRANCH   2   3
ENDBRANCH   1   2
BRANCH   1  15
ATOM     15  C   UNL     1     -32.076 -21.867 -34.068  1.00  0.00     0.000 C 
BRANCH  15  16
ATOM     16  C   UNL     1     -32.662 -20.784 -34.992  1.00  0.00     0.000 C 
BRANCH  16  17
ATOM     17  C   UNL     1     -33.701 -21.351 -35.975  1.00  0.00     0.000 C 
BRANCH  17  18
ATOM     18  C   UNL     1     -33.167 -22.551 -36.772  1.00  0.00    -0.000 C 
BRANCH  18  19
ATOM     19  C   UNL     1     -32.649 -22.108 -38.147  1.00  0.00    -0.000 C 
BRANCH  19  20
ATOM     20  C   UNL     1     -31.249 -22.664 -38.466  1.00  0.00    -0.000 C 
BRANCH  20  21
ATOM     21  C   UNL     1     -31.232 -24.057 -39.125  1.00  0.00    -0.000 C 
BRANCH  21  22
ATOM     22  C   UNL     1     -32.489 -24.914 -38.886  1.00  0.00    -0.000 C 
BRANCH  22  23
ATOM     23  C   UNL     1     -32.231 -26.418 -39.084  1.00  0.00    -0.000 C 
BRANCH  23  24
ATOM     24  C   UNL     1     -33.295 -27.294 -38.403  1.00  0.00    -0.000 C 
BRANCH  24  25
ATOM     25  C   UNL     1     -33.049 -28.796 -38.614  1.00  0.00    -0.003 C 
ATOM     26  C   UNL     1     -31.572 -29.078 -38.873  1.00  0.00     0.004 C 
ENDBRANCH  24  25
ENDBRANCH  23  24
ENDBRANCH  22  23
ENDBRANCH  21  22
ENDBRANCH  20  21
ENDBRANCH  19  20
ENDBRANCH  18  19
ENDBRANCH  17  18
ENDBRANCH  16  17
ENDBRANCH  15  16
ENDBRANCH   1  15
TORSDOF 22
ENDMDL
MODEL 4
REMARK VINA RESULT:     3.071      1.329      2.056
REMARK INTER + INTRA:           8.117
REMARK INTER:                   8.199
REMARK INTRA:                  -0.081
REMARK UNBOUND:                 1.096
REMARK SMILES CCCCCCCCCCCCCCCCCCCCCCCC(=O)[O-]
REMARK SMILES IDX 13 1 14 2 15 3 16 4 17 5 18 6 19 7 20 8 21 9 22 10 23 11
REMARK SMILES IDX 24 12 25 13 26 14 12 15 11 16 10 17 9 18 8 19 7 20 6 21 5 22
REMARK SMILES IDX 4 23 3 24 2 25 1 26
REMARK H PARENT
REMARK Flexibility Score: inf
ROOT
ATOM      1  C   UNL     1     -30.065 -21.258 -33.087  1.00  0.00     0.000 C 
ENDROOT
BRANCH   1   2
ATOM      2  C   UNL     1     -30.989 -20.884 -34.260  1.00  0.00     0.000 C 
BRANCH   2   3
ATOM      3  C   UNL     1     -32.274 -21.727 -34.291  1.00  0.00     0.000 C 
BRANCH   3   4
ATOM      4  C   UNL     1     -33.361 -21.116 -35.192  1.00  0.00     0.000 C 
BRANCH   4   5
ATOM      5  C   UNL     1     -34.081 -22.168 -36.066  1.00  0.00     0.000 C 
BRANCH   5   6
ATOM      6  C   UNL     1     -33.991 -21.889 -37.578  1.00  0.00     0.000 C 
BRANCH   6   7
ATOM      7  C   UNL     1     -32.604 -22.138 -38.194  1.00  0.00     0.000 C 
BRANCH   7   8
ATOM      8  C   UNL     1     -32.415 -23.576 -38.727  1.00  0.00     0.000 C 
BRANCH   8   9
ATOM      9  C   UNL     1     -31.990 -24.560 -37.624  1.00  0.00     0.000 C 
BRANCH   9  10
ATOM     10  C   UNL     1     -31.172 -25.743 -38.167  1.00  0.00     0.006 C 
BRANCH  10  11
ATOM     11  C   UNL     1     -31.977 -26.631 -39.124  1.00  0.00     0.053 C 
BRANCH  11  12
ATOM     12  C   UNL     1     -32.096 -28.017 -38.573  1.00  0.00     0.041 C 
ATOM     13  O   UNL     1     -33.214 -28.455 -38.195  1.00  0.00    -0.550 OA
ATOM     14  O   UNL     1     -30.963 -28.808 -38.431  1.00  0.00    -0.550 OA
ENDBRANCH  11  12
ENDBRANCH  10  11
ENDBRANCH   9  10
ENDBRANCH   8   9
ENDBRANCH   7   8
ENDBRANCH   6   7
ENDBRANCH   5   6
ENDBRANCH   4   5
ENDBRANCH   3   4
ENDBRANCH   2   3
ENDBRANCH   1   2
BRANCH   1  15
ATOM     15  C   UNL     1     -30.120 -20.237 -31.939  1.00  0.00     0.000 C 
BRANCH  15  16
ATOM     16  C   UNL     1     -31.561 -19.875 -31.537  1.00  0.00     0.000 C 
BRANCH  16  17
ATOM     17  C   UNL     1     -31.799 -20.008 -30.023  1.00  0.00     0.000 C 
BRANCH  17  18
ATOM     18  C   UNL     1     -30.795 -20.954 -29.348  1.00  0.00    -0.000 C 
BRANCH  18  19
ATOM     19  C   UNL     1     -30.528 -22.185 -30.226  1.00  0.00    -0.000 C 
BRANCH  19  20
ATOM     20  C   UNL     1     -29.749 -23.288 -29.487  1.00  0.00    -0.000 C 
BRANCH  20  21
ATOM     21  C   UNL     1     -29.613 -23.086 -27.965  1.00  0.00    -0.000 C 
BRANCH  21  22
ATOM     22  C   UNL     1     -28.170 -22.965 -27.442  1.00  0.00    -0.000 C 
BRANCH  22  23
ATOM     23  C   UNL     1     -27.856 -21.567 -26.880  1.00  0.00    -0.000 C 
BRANCH  23  24
ATOM     24  C   UNL     1     -26.505 -21.024 -27.371  1.00  0.00    -0.000 C 
BRANCH  24  25
ATOM     25  C   UNL     1     -26.489 -20.752 -28.883  1.00  0.00    -0.003 C 
ATOM     26  C   UNL     1     -27.769 -20.048 -29.325  1.00  0.00     0.004 C 
ENDBRANCH  24  25
ENDBRANCH  23  24
ENDBRANCH  22  23
ENDBRANCH  21  22
ENDBRANCH  20  21
ENDBRANCH  19  20
ENDBRANCH  18  19
ENDBRANCH  17  18
ENDBRANCH  16  17
ENDBRANCH  15  16
ENDBRANCH   1  15
TORSDOF 22
ENDMDL
MODEL 5
REMARK VINA RESULT:     3.210      1.686      3.127
REMARK INTER + INTRA:           8.435
REMARK INTER:                   5.273
REMARK INTRA:                   3.163
REMARK UNBOUND:                 1.096
REMARK SMILES CCCCCCCCCCCCCCCCCCCCCCCC(=O)[O-]
REMARK SMILES IDX 13 1 14 2 15 3 16 4 17 5 18 6 19 7 20 8 21 9 22 10 23 11
REMARK SMILES IDX 24 12 25 13 26 14 12 15 11 16 10 17 9 18 8 19 7 20 6 21 5 22
REMARK SMILES IDX 4 23 3 24 2 25 1 26
REMARK H PARENT
REMARK Flexibility Score: inf
ROOT
ATOM      1  C   UNL     1     -31.660 -20.946 -34.170  1.00  0.00     0.000 C 
ENDROOT
BRANCH   1   2
ATOM      2  C   UNL     1     -32.586 -21.411 -35.309  1.00  0.00     0.000 C 
BRANCH   2   3
ATOM      3  C   UNL     1     -33.573 -20.319 -35.751  1.00  0.00     0.000 C 
BRANCH   3   4
ATOM      4  C   UNL     1     -33.926 -20.411 -37.245  1.00  0.00     0.000 C 
BRANCH   4   5
ATOM      5  C   UNL     1     -33.872 -21.857 -37.789  1.00  0.00     0.000 C 
BRANCH   5   6
ATOM      6  C   UNL     1     -32.574 -22.187 -38.552  1.00  0.00     0.000 C 
BRANCH   6   7
ATOM      7  C   UNL     1     -31.380 -22.554 -37.655  1.00  0.00     0.000 C 
BRANCH   7   8
ATOM      8  C   UNL     1     -31.103 -24.073 -37.588  1.00  0.00     0.000 C 
BRANCH   8   9
ATOM      9  C   UNL     1     -31.795 -24.847 -38.724  1.00  0.00     0.000 C 
BRANCH   9  10
ATOM     10  C   UNL     1     -32.456 -26.147 -38.239  1.00  0.00     0.006 C 
BRANCH  10  11
ATOM     11  C   UNL     1     -31.781 -27.402 -38.808  1.00  0.00     0.053 C 
BRANCH  11  12
ATOM     12  C   UNL     1     -32.777 -28.510 -38.949  1.00  0.00     0.041 C 
ATOM     13  O   UNL     1     -32.393 -29.709 -38.961  1.00  0.00    -0.550 OA
ATOM     14  O   UNL     1     -34.124 -28.217 -39.114  1.00  0.00    -0.550 OA
ENDBRANCH  11  12
ENDBRANCH  10  11
ENDBRANCH   9  10
ENDBRANCH   8   9
ENDBRANCH   7   8
ENDBRANCH   6   7
ENDBRANCH   5   6
ENDBRANCH   4   5
ENDBRANCH   3   4
ENDBRANCH   2   3
ENDBRANCH   1   2
BRANCH   1  15
ATOM     15  C   UNL     1     -32.389 -20.086 -33.126  1.00  0.00     0.000 C 
BRANCH  15  16
ATOM     16  C   UNL     1     -31.559 -19.876 -31.847  1.00  0.00     0.000 C 
BRANCH  16  17
ATOM     17  C   UNL     1     -30.527 -20.995 -31.626  1.00  0.00     0.000 C 
BRANCH  17  18
ATOM     18  C   UNL     1     -31.132 -22.397 -31.794  1.00  0.00    -0.000 C 
BRANCH  18  19
ATOM     19  C   UNL     1     -30.662 -23.334 -30.672  1.00  0.00    -0.000 C 
BRANCH  19  20
ATOM     20  C   UNL     1     -29.354 -22.864 -30.011  1.00  0.00    -0.000 C 
BRANCH  20  21
ATOM     21  C   UNL     1     -29.508 -22.298 -28.585  1.00  0.00    -0.000 C 
BRANCH  21  22
ATOM     22  C   UNL     1     -28.839 -20.932 -28.343  1.00  0.00    -0.000 C 
BRANCH  22  23
ATOM     23  C   UNL     1     -28.874 -20.023 -29.584  1.00  0.00    -0.000 C 
BRANCH  23  24
ATOM     24  C   UNL     1     -27.644 -20.209 -30.486  1.00  0.00    -0.000 C 
BRANCH  24  25
ATOM     25  C   UNL     1     -27.932 -19.875 -31.957  1.00  0.00    -0.003 C 
ATOM     26  C   UNL     1     -28.345 -21.124 -32.731  1.00  0.00     0.004 C 
ENDBRANCH  24  25
ENDBRANCH  23  24
ENDBRANCH  22  23
ENDBRANCH  21  22
ENDBRANCH  20  21
ENDBRANCH  19  20
ENDBRANCH  18  19
ENDBRANCH  17  18
ENDBRANCH  16  17
ENDBRANCH  15  16
ENDBRANCH   1  15
TORSDOF 22
ENDMDL
MODEL 6
REMARK VINA RESULT:     3.237      1.468      3.231
REMARK INTER + INTRA:           8.496
REMARK INTER:                   7.976
REMARK INTRA:                   0.520
REMARK UNBOUND:                 1.096
REMARK SMILES CCCCCCCCCCCCCCCCCCCCCCCC(=O)[O-]
REMARK SMILES IDX 13 1 14 2 15 3 16 4 17 5 18 6 19 7 20 8 21 9 22 10 23 11
REMARK SMILES IDX 24 12 25 13 26 14 12 15 11 16 10 17 9 18 8 19 7 20 6 21 5 22
REMARK SMILES IDX 4 23 3 24 2 25 1 26
REMARK H PARENT
REMARK Flexibility Score: inf
ROOT
ATOM      1  C   UNL     1     -31.066 -20.605 -31.730  1.00  0.00     0.000 C 
ENDROOT
BRANCH   1   2
ATOM      2  C   UNL     1     -31.185 -20.006 -33.143  1.00  0.00     0.000 C 
BRANCH   2   3
ATOM      3  C   UNL     1     -32.240 -20.723 -34.001  1.00  0.00     0.000 C 
BRANCH   3   4
ATOM      4  C   UNL     1     -31.888 -22.198 -34.260  1.00  0.00     0.000 C 
BRANCH   4   5
ATOM      5  C   UNL     1     -32.751 -22.835 -35.374  1.00  0.00     0.000 C 
BRANCH   5   6
ATOM      6  C   UNL     1     -33.099 -21.869 -36.522  1.00  0.00     0.000 C 
BRANCH   6   7
ATOM      7  C   UNL     1     -32.676 -22.355 -37.919  1.00  0.00     0.000 C 
BRANCH   7   8
ATOM      8  C   UNL     1     -31.435 -23.276 -37.902  1.00  0.00     0.000 C 
BRANCH   8   9
ATOM      9  C   UNL     1     -31.463 -24.321 -39.030  1.00  0.00     0.000 C 
BRANCH   9  10
ATOM     10  C   UNL     1     -32.352 -25.530 -38.697  1.00  0.00     0.006 C 
BRANCH  10  11
ATOM     11  C   UNL     1     -31.554 -26.834 -38.570  1.00  0.00     0.053 C 
BRANCH  11  12
ATOM     12  C   UNL     1     -32.411 -28.006 -38.930  1.00  0.00     0.041 C 
ATOM     13  O   UNL     1     -33.653 -27.861 -39.080  1.00  0.00    -0.550 OA
ATOM     14  O   UNL     1     -31.846 -29.269 -39.054  1.00  0.00    -0.550 OA
ENDBRANCH  11  12
ENDBRANCH  10  11
ENDBRANCH   9  10
ENDBRANCH   8   9
ENDBRANCH   7   8
ENDBRANCH   6   7
ENDBRANCH   5   6
ENDBRANCH   4   5
ENDBRANCH   3   4
ENDBRANCH   2   3
ENDBRANCH   1   2
BRANCH   1  15
ATOM     15  C   UNL     1     -30.027 -19.878 -30.862  1.00  0.00     0.000 C 
BRANCH  15  16
ATOM     16  C   UNL     1     -28.624 -19.875 -31.495  1.00  0.00     0.000 C 
BRANCH  16  17
ATOM     17  C   UNL     1     -27.505 -19.950 -30.442  1.00  0.00     0.000 C 
BRANCH  17  18
ATOM     18  C   UNL     1     -28.034 -20.292 -29.041  1.00  0.00    -0.000 C 
BRANCH  18  19
ATOM     19  C   UNL     1     -27.006 -21.118 -28.255  1.00  0.00    -0.000 C 
BRANCH  19  20
ATOM     20  C   UNL     1     -27.648 -21.971 -27.145  1.00  0.00    -0.000 C 
BRANCH  20  21
ATOM     21  C   UNL     1     -28.973 -22.658 -27.532  1.00  0.00    -0.000 C 
BRANCH  21  22
ATOM     22  C   UNL     1     -29.104 -23.048 -29.016  1.00  0.00    -0.000 C 
BRANCH  22  23
ATOM     23  C   UNL     1     -30.477 -22.686 -29.608  1.00  0.00    -0.000 C 
BRANCH  23  24
ATOM     24  C   UNL     1     -30.623 -23.126 -31.073  1.00  0.00    -0.000 C 
BRANCH  24  25
ATOM     25  C   UNL     1     -30.667 -24.653 -31.232  1.00  0.00    -0.003 C 
ATOM     26  C   UNL     1     -31.304 -25.311 -30.011  1.00  0.00     0.004 C 
ENDBRANCH  24  25
ENDBRANCH  23  24
ENDBRANCH  22  23
ENDBRANCH  21  22
ENDBRANCH  20  21
ENDBRANCH  19  20
ENDBRANCH  18  19
ENDBRANCH  17  18
ENDBRANCH  16  17
ENDBRANCH  15  16
ENDBRANCH   1  15
TORSDOF 22
ENDMDL
MODEL 7
REMARK VINA RESULT:     3.403      2.455      8.834
REMARK INTER + INTRA:           8.875
REMARK INTER:                   8.527
REMARK INTRA:                   0.347
REMARK UNBOUND:                 1.096
REMARK SMILES CCCCCCCCCCCCCCCCCCCCCCCC(=O)[O-]
REMARK SMILES IDX 13 1 14 2 15 3 16 4 17 5 18 6 19 7 20 8 21 9 22 10 23 11
REMARK SMILES IDX 24 12 25 13 26 14 12 15 11 16 10 17 9 18 8 19 7 20 6 21 5 22
REMARK SMILES IDX 4 23 3 24 2 25 1 26
REMARK H PARENT
REMARK Flexibility Score: inf
ROOT
ATOM      1  C   UNL     1     -29.795 -22.249 -33.341  1.00  0.00     0.000 C 
ENDROOT
BRANCH   1   2
ATOM      2  C   UNL     1     -29.084 -20.908 -33.597  1.00  0.00     0.000 C 
BRANCH   2   3
ATOM      3  C   UNL     1     -29.357 -19.875 -32.492  1.00  0.00     0.000 C 
BRANCH   3   4
ATOM      4  C   UNL     1     -30.264 -20.427 -31.378  1.00  0.00     0.000 C 
BRANCH   4   5
ATOM      5  C   UNL     1     -29.596 -20.387 -29.984  1.00  0.00     0.000 C 
BRANCH   5   6
ATOM      6  C   UNL     1     -28.143 -19.876 -30.004  1.00  0.00     0.000 C 
BRANCH   6   7
ATOM      7  C   UNL     1     -27.162 -20.702 -29.154  1.00  0.00     0.000 C 
BRANCH   7   8
ATOM      8  C   UNL     1     -27.671 -20.982 -27.722  1.00  0.00     0.000 C 
BRANCH   8   9
ATOM      9  C   UNL     1     -28.015 -22.465 -27.501  1.00  0.00     0.000 C 
BRANCH   9  10
ATOM     10  C   UNL     1     -29.427 -22.826 -27.990  1.00  0.00     0.006 C 
BRANCH  10  11
ATOM     11  C   UNL     1     -29.488 -24.209 -28.653  1.00  0.00     0.053 C 
BRANCH  11  12
ATOM     12  C   UNL     1     -30.380 -24.171 -29.854  1.00  0.00     0.041 C 
ATOM     13  O   UNL     1     -30.879 -25.235 -30.307  1.00  0.00    -0.550 OA
ATOM     14  O   UNL     1     -30.621 -22.967 -30.503  1.00  0.00    -0.550 OA
ENDBRANCH  11  12
ENDBRANCH  10  11
ENDBRANCH   9  10
ENDBRANCH   8   9
ENDBRANCH   7   8
ENDBRANCH   6   7
ENDBRANCH   5   6
ENDBRANCH   4   5
ENDBRANCH   3   4
ENDBRANCH   2   3
ENDBRANCH   1   2
BRANCH   1  15
ATOM     15  C   UNL     1     -31.326 -22.121 -33.352  1.00  0.00     0.000 C 
BRANCH  15  16
ATOM     16  C   UNL     1     -31.856 -21.456 -34.634  1.00  0.00     0.000 C 
BRANCH  16  17
ATOM     17  C   UNL     1     -33.325 -21.017 -34.504  1.00  0.00     0.000 C 
BRANCH  17  18
ATOM     18  C   UNL     1     -34.125 -21.241 -35.797  1.00  0.00    -0.000 C 
BRANCH  18  19
ATOM     19  C   UNL     1     -33.612 -20.331 -36.922  1.00  0.00    -0.000 C 
BRANCH  19  20
ATOM     20  C   UNL     1     -34.053 -20.804 -38.319  1.00  0.00    -0.000 C 
BRANCH  20  21
ATOM     21  C   UNL     1     -32.979 -21.563 -39.123  1.00  0.00    -0.000 C 
BRANCH  21  22
ATOM     22  C   UNL     1     -32.716 -23.011 -38.668  1.00  0.00    -0.000 C 
BRANCH  22  23
ATOM     23  C   UNL     1     -31.388 -23.164 -37.906  1.00  0.00    -0.000 C 
BRANCH  23  24
ATOM     24  C   UNL     1     -31.426 -24.306 -36.879  1.00  0.00    -0.000 C 
BRANCH  24  25
ATOM     25  C   UNL     1     -32.489 -25.364 -37.208  1.00  0.00    -0.003 C 
ATOM     26  C   UNL     1     -32.053 -26.231 -38.385  1.00  0.00     0.004 C 
ENDBRANCH  24  25
ENDBRANCH  23  24
ENDBRANCH  22  23
ENDBRANCH  21  22
ENDBRANCH  20  21
ENDBRANCH  19  20
ENDBRANCH  18  19
ENDBRANCH  17  18
ENDBRANCH  16  17
ENDBRANCH  15  16
ENDBRANCH   1  15
TORSDOF 22
ENDMDL
MODEL 8
REMARK VINA RESULT:     3.580      1.156      2.859
REMARK INTER + INTRA:           9.279
REMARK INTER:                  10.184
REMARK INTRA:                  -0.904
REMARK UNBOUND:                 1.096
REMARK SMILES CCCCCCCCCCCCCCCCCCCCCCCC(=O)[O-]
REMARK SMILES IDX 13 1 14 2 15 3 16 4 17 5 18 6 19 7 20 8 21 9 22 10 23 11
REMARK SMILES IDX 24 12 25 13 26 14 12 15 11 16 10 17 9 18 8 19 7 20 6 21 5 22
REMARK SMILES IDX 4 23 3 24 2 25 1 26
REMARK H PARENT
REMARK Flexibility Score: inf
ROOT
ATOM      1  C   UNL     1     -30.047 -21.906 -32.977  1.00  0.00     0.000 C 
ENDROOT
BRANCH   1   2
ATOM      2  C   UNL     1     -31.384 -21.918 -33.741  1.00  0.00     0.000 C 
BRANCH   2   3
ATOM      3  C   UNL     1     -31.875 -20.505 -34.095  1.00  0.00     0.000 C 
BRANCH   3   4
ATOM      4  C   UNL     1     -33.258 -20.510 -34.767  1.00  0.00     0.000 C 
BRANCH   4   5
ATOM      5  C   UNL     1     -33.293 -21.349 -36.065  1.00  0.00     0.000 C 
BRANCH   5   6
ATOM      6  C   UNL     1     -34.062 -20.678 -37.220  1.00  0.00     0.000 C 
BRANCH   6   7
ATOM      7  C   UNL     1     -33.422 -20.861 -38.607  1.00  0.00     0.000 C 
BRANCH   7   8
ATOM      8  C   UNL     1     -32.333 -21.957 -38.644  1.00  0.00     0.000 C 
BRANCH   8   9
ATOM      9  C   UNL     1     -32.879 -23.312 -39.124  1.00  0.00     0.000 C 
BRANCH   9  10
ATOM     10  C   UNL     1     -31.821 -24.426 -39.087  1.00  0.00     0.006 C 
BRANCH  10  11
ATOM     11  C   UNL     1     -31.846 -25.223 -37.776  1.00  0.00     0.053 C 
BRANCH  11  12
ATOM     12  C   UNL     1     -32.192 -26.654 -38.044  1.00  0.00     0.041 C 
ATOM     13  O   UNL     1     -31.618 -27.282 -38.972  1.00  0.00    -0.550 OA
ATOM     14  O   UNL     1     -33.184 -27.280 -37.300  1.00  0.00    -0.550 OA
ENDBRANCH  11  12
ENDBRANCH  10  11
ENDBRANCH   9  10
ENDBRANCH   8   9
ENDBRANCH   7   8
ENDBRANCH   6   7
ENDBRANCH   5   6
ENDBRANCH   4   5
ENDBRANCH   3   4
ENDBRANCH   2   3
ENDBRANCH   1   2
BRANCH   1  15
ATOM     15  C   UNL     1     -29.139 -20.736 -33.388  1.00  0.00     0.000 C 
BRANCH  15  16
ATOM     16  C   UNL     1     -28.703 -19.875 -32.189  1.00  0.00     0.000 C 
BRANCH  16  17
ATOM     17  C   UNL     1     -28.279 -20.725 -30.980  1.00  0.00     0.000 C 
BRANCH  17  18
ATOM     18  C   UNL     1     -27.637 -19.885 -29.865  1.00  0.00    -0.000 C 
BRANCH  18  19
ATOM     19  C   UNL     1     -26.459 -20.634 -29.225  1.00  0.00    -0.000 C 
BRANCH  19  20
ATOM     20  C   UNL     1     -26.852 -21.369 -27.930  1.00  0.00    -0.000 C 
BRANCH  20  21
ATOM     21  C   UNL     1     -28.335 -21.242 -27.530  1.00  0.00    -0.000 C 
BRANCH  21  22
ATOM     22  C   UNL     1     -29.249 -22.381 -28.019  1.00  0.00    -0.000 C 
BRANCH  22  23
ATOM     23  C   UNL     1     -29.978 -22.037 -29.330  1.00  0.00    -0.000 C 
BRANCH  23  24
ATOM     24  C   UNL     1     -31.330 -21.347 -29.090  1.00  0.00    -0.000 C 
BRANCH  24  25
ATOM     25  C   UNL     1     -31.385 -19.929 -29.679  1.00  0.00    -0.003 C 
ATOM     26  C   UNL     1     -32.284 -19.883 -30.911  1.00  0.00     0.004 C 
ENDBRANCH  24  25
ENDBRANCH  23  24
ENDBRANCH  22  23
ENDBRANCH  21  22
ENDBRANCH  20  21
ENDBRANCH  19  20
ENDBRANCH  18  19
ENDBRANCH  17  18
ENDBRANCH  16  17
ENDBRANCH  15  16
ENDBRANCH   1  15
TORSDOF 22
ENDMDL
MODEL 9
REMARK VINA RESULT:     3.722      1.622      2.806
REMARK INTER + INTRA:           9.606
REMARK INTER:                  10.788
REMARK INTRA:                  -1.182
REMARK UNBOUND:                 1.096
REMARK SMILES CCCCCCCCCCCCCCCCCCCCCCCC(=O)[O-]
REMARK SMILES IDX 13 1 14 2 15 3 16 4 17 5 18 6 19 7 20 8 21 9 22 10 23 11
REMARK SMILES IDX 24 12 25 13 26 14 12 15 11 16 10 17 9 18 8 19 7 20 6 21 5 22
REMARK SMILES IDX 4 23 3 24 2 25 1 26
REMARK H PARENT
REMARK Flexibility Score: inf
ROOT
ATOM      1  C   UNL     1     -29.822 -21.833 -33.256  1.00  0.00     0.000 C 
ENDROOT
BRANCH   1   2
ATOM      2  C   UNL     1     -30.649 -21.698 -34.547  1.00  0.00     0.000 C 
BRANCH   2   3
ATOM      3  C   UNL     1     -31.939 -22.534 -34.512  1.00  0.00     0.000 C 
BRANCH   3   4
ATOM      4  C   UNL     1     -33.117 -21.832 -35.209  1.00  0.00     0.000 C 
BRANCH   4   5
ATOM      5  C   UNL     1     -33.741 -22.682 -36.340  1.00  0.00     0.000 C 
BRANCH   5   6
ATOM      6  C   UNL     1     -33.538 -22.090 -37.748  1.00  0.00     0.000 C 
BRANCH   6   7
ATOM      7  C   UNL     1     -32.102 -22.201 -38.288  1.00  0.00     0.000 C 
BRANCH   7   8
ATOM      8  C   UNL     1     -31.728 -23.625 -38.759  1.00  0.00     0.000 C 
BRANCH   8   9
ATOM      9  C   UNL     1     -31.496 -24.590 -37.584  1.00  0.00     0.000 C 
BRANCH   9  10
ATOM     10  C   UNL     1     -31.193 -26.025 -38.046  1.00  0.00     0.006 C 
BRANCH  10  11
ATOM     11  C   UNL     1     -32.331 -26.631 -38.878  1.00  0.00     0.053 C 
BRANCH  11  12
ATOM     12  C   UNL     1     -32.357 -28.118 -38.719  1.00  0.00     0.041 C 
ATOM     13  O   UNL     1     -33.444 -28.713 -38.494  1.00  0.00    -0.550 OA
ATOM     14  O   UNL     1     -31.174 -28.844 -38.771  1.00  0.00    -0.550 OA
ENDBRANCH  11  12
ENDBRANCH  10  11
ENDBRANCH   9  10
ENDBRANCH   8   9
ENDBRANCH   7   8
ENDBRANCH   6   7
ENDBRANCH   5   6
ENDBRANCH   4   5
ENDBRANCH   3   4
ENDBRANCH   2   3
ENDBRANCH   1   2
BRANCH   1  15
ATOM     15  C   UNL     1     -29.930 -20.597 -32.350  1.00  0.00     0.000 C 
BRANCH  15  16
ATOM     16  C   UNL     1     -31.132 -20.669 -31.391  1.00  0.00     0.000 C 
BRANCH  16  17
ATOM     17  C   UNL     1     -30.705 -20.882 -29.929  1.00  0.00     0.000 C 
BRANCH  17  18
ATOM     18  C   UNL     1     -29.747 -22.071 -29.760  1.00  0.00    -0.000 C 
BRANCH  18  19
ATOM     19  C   UNL     1     -29.607 -22.455 -28.281  1.00  0.00    -0.000 C 
BRANCH  19  20
ATOM     20  C   UNL     1     -28.140 -22.543 -27.823  1.00  0.00    -0.000 C 
BRANCH  20  21
ATOM     21  C   UNL     1     -27.328 -21.241 -27.975  1.00  0.00    -0.000 C 
BRANCH  21  22
ATOM     22  C   UNL     1     -26.163 -21.071 -26.983  1.00  0.00    -0.000 C 
BRANCH  22  23
ATOM     23  C   UNL     1     -26.626 -20.589 -25.597  1.00  0.00    -0.000 C 
BRANCH  23  24
ATOM     24  C   UNL     1     -25.495 -19.923 -24.796  1.00  0.00    -0.000 C 
BRANCH  24  25
ATOM     25  C   UNL     1     -24.865 -20.869 -23.763  1.00  0.00    -0.003 C 
ATOM     26  C   UNL     1     -25.898 -21.323 -22.735  1.00  0.00     0.004 C 
ENDBRANCH  24  25
ENDBRANCH  23  24
ENDBRANCH  22  23
ENDBRANCH  21  22
ENDBRANCH  20  21
ENDBRANCH  19  20
ENDBRANCH  18  19
ENDBRANCH  17  18
ENDBRANCH  16  17
ENDBRANCH  15  16
ENDBRANCH   1  15
TORSDOF 22
ENDMDL
