MODEL 1
REMARK VINA RESULT:    -2.915      0.000      0.000
REMARK INTER + INTRA:          -3.295
REMARK INTER:                  -3.256
REMARK INTRA:                  -0.039
REMARK UNBOUND:                -0.039
REMARK SMILES CCCC(=O)[O-]
REMARK SMILES IDX 3 1 4 2 5 3 6 4 2 5 1 6
REMARK H PARENT
REMARK Flexibility Score: inf
ROOT
ATOM      1  C   UNL     1       1.951 -27.688  40.686  1.00  0.00     0.052 C 
ENDROOT
BRANCH   1   2
ATOM      2  C   UNL     1       2.392 -28.584  39.569  1.00  0.00     0.041 C 
ATOM      3  O   UNL     1       3.027 -28.112  38.590  1.00  0.00    -0.550 OA
ATOM      4  O   UNL     1       2.071 -29.935  39.596  1.00  0.00    -0.550 OA
ENDBRANCH   1   2
BRANCH   1   5
ATOM      5  C   UNL     1       2.789 -26.404  40.748  1.00  0.00     0.003 C 
ATOM      6  C   UNL     1       3.939 -26.509  41.749  1.00  0.00     0.004 C 
ENDBRANCH   1   5
TORSDOF 2
ENDMDL
MODEL 2
REMARK VINA RESULT:    -2.824     12.190     12.721
REMARK INTER + INTRA:          -3.193
REMARK INTER:                  -3.163
REMARK INTRA:                  -0.031
REMARK UNBOUND:                -0.039
REMARK SMILES CCCC(=O)[O-]
REMARK SMILES IDX 3 1 4 2 5 3 6 4 2 5 1 6
REMARK H PARENT
REMARK Flexibility Score: inf
ROOT
ATOM      1  C   UNL     1      10.898 -32.287  49.764  1.00  0.00     0.052 C 
ENDROOT
BRANCH   1   2
ATOM      2  C   UNL     1      10.284 -32.742  48.476  1.00  0.00     0.041 C 
ATOM      3  O   UNL     1       9.084 -33.123  48.444  1.00  0.00    -0.550 OA
ATOM      4  O   UNL     1      11.048 -32.778  47.317  1.00  0.00    -0.550 OA
ENDBRANCH   1   2
BRANCH   1   5
ATOM      5  C   UNL     1       9.831 -31.985  50.826  1.00  0.00     0.003 C 
ATOM      6  C   UNL     1       9.772 -30.500  51.184  1.00  0.00     0.004 C 
ENDBRANCH   1   5
TORSDOF 2
ENDMDL
MODEL 3
REMARK VINA RESULT:    -2.695      2.544      3.378
REMARK INTER + INTRA:          -3.049
REMARK INTER:                  -3.043
REMARK INTRA:                  -0.007
REMARK UNBOUND:                -0.039
REMARK SMILES CCCC(=O)[O-]
REMARK SMILES IDX 3 1 4 2 5 3 6 4 2 5 1 6
REMARK H PARENT
REMARK Flexibility Score: inf
ROOT
ATOM      1  C   UNL     1       2.980 -27.335  40.019  1.00  0.00     0.052 C 
ENDROOT
BRANCH   1   2
ATOM      2  C   UNL     1       3.289 -26.392  41.141  1.00  0.00     0.041 C 
ATOM      3  O   UNL     1       2.727 -25.267  41.197  1.00  0.00    -0.550 OA
ATOM      4  O   UNL     1       4.223 -26.744  42.107  1.00  0.00    -0.550 OA
ENDBRANCH   1   2
BRANCH   1   5
ATOM      5  C   UNL     1       1.868 -28.323  40.396  1.00  0.00     0.003 C 
ATOM      6  C   UNL     1       2.007 -29.660  39.669  1.00  0.00     0.004 C 
ENDBRANCH   1   5
TORSDOF 2
ENDMDL
MODEL 4
REMARK VINA RESULT:    -2.656      1.277      1.797
REMARK INTER + INTRA:          -3.006
REMARK INTER:                  -3.001
REMARK INTRA:                  -0.005
REMARK UNBOUND:                -0.039
REMARK SMILES CCCC(=O)[O-]
REMARK SMILES IDX 3 1 4 2 5 3 6 4 2 5 1 6
REMARK H PARENT
REMARK Flexibility Score: inf
ROOT
ATOM      1  C   UNL     1       2.577 -28.250  39.386  1.00  0.00     0.052 C 
ENDROOT
BRANCH   1   2
ATOM      2  C   UNL     1       1.774 -29.477  39.082  1.00  0.00     0.041 C 
ATOM      3  O   UNL     1       2.109 -30.592  39.564  1.00  0.00    -0.550 OA
ATOM      4  O   UNL     1       0.674 -29.396  38.237  1.00  0.00    -0.550 OA
ENDBRANCH   1   2
BRANCH   1   5
ATOM      5  C   UNL     1       2.030 -27.502  40.610  1.00  0.00     0.003 C 
ATOM      6  C   UNL     1       2.888 -26.294  40.983  1.00  0.00     0.004 C 
ENDBRANCH   1   5
TORSDOF 2
ENDMDL
MODEL 5
REMARK VINA RESULT:    -2.652     13.765     14.585
REMARK INTER + INTRA:          -3.001
REMARK INTER:                  -2.932
REMARK INTRA:                  -0.070
REMARK UNBOUND:                -0.039
REMARK SMILES CCCC(=O)[O-]
REMARK SMILES IDX 3 1 4 2 5 3 6 4 2 5 1 6
REMARK H PARENT
REMARK Flexibility Score: inf
ROOT
ATOM      1  C   UNL     1      14.092 -20.202  37.342  1.00  0.00     0.052 C 
ENDROOT
BRANCH   1   2
ATOM      2  C   UNL     1      14.603 -21.276  36.431  1.00  0.00     0.041 C 
ATOM      3  O   UNL     1      13.824 -22.165  35.998  1.00  0.00    -0.550 OA
ATOM      4  O   UNL     1      15.949 -21.313  36.087  1.00  0.00    -0.550 OA
ENDBRANCH   1   2
BRANCH   1   5
ATOM      5  C   UNL     1      14.474 -18.803  36.841  1.00  0.00     0.003 C 
ATOM      6  C   UNL     1      13.844 -18.479  35.485  1.00  0.00     0.004 C 
ENDBRANCH   1   5
TORSDOF 2
ENDMDL
MODEL 6
REMARK VINA RESULT:    -2.642      7.643      8.441
REMARK INTER + INTRA:          -2.990
REMARK INTER:                  -2.952
REMARK INTRA:                  -0.038
REMARK UNBOUND:                -0.039
REMARK SMILES CCCC(=O)[O-]
REMARK SMILES IDX 3 1 4 2 5 3 6 4 2 5 1 6
REMARK H PARENT
REMARK Flexibility Score: inf
ROOT
ATOM      1  C   UNL     1       9.540 -24.167  40.585  1.00  0.00     0.052 C 
ENDROOT
BRANCH   1   2
ATOM      2  C   UNL     1       9.884 -24.645  39.207  1.00  0.00     0.041 C 
ATOM      3  O   UNL     1       8.972 -24.904  38.379  1.00  0.00    -0.550 OA
ATOM      4  O   UNL     1      11.213 -24.837  38.851  1.00  0.00    -0.550 OA
ENDBRANCH   1   2
BRANCH   1   5
ATOM      5  C   UNL     1       9.723 -22.649  40.721  1.00  0.00     0.003 C 
ATOM      6  C   UNL     1      10.998 -22.284  41.481  1.00  0.00     0.004 C 
ENDBRANCH   1   5
TORSDOF 2
ENDMDL
MODEL 7
REMARK VINA RESULT:    -2.631     13.876     14.472
REMARK INTER + INTRA:          -2.977
REMARK INTER:                  -2.969
REMARK INTRA:                  -0.008
REMARK UNBOUND:                -0.039
REMARK SMILES CCCC(=O)[O-]
REMARK SMILES IDX 3 1 4 2 5 3 6 4 2 5 1 6
REMARK H PARENT
REMARK Flexibility Score: inf
ROOT
ATOM      1  C   UNL     1      13.884 -20.151  37.371  1.00  0.00     0.052 C 
ENDROOT
BRANCH   1   2
ATOM      2  C   UNL     1      14.344 -20.952  36.191  1.00  0.00     0.041 C 
ATOM      3  O   UNL     1      15.464 -21.528  36.213  1.00  0.00    -0.550 OA
ATOM      4  O   UNL     1      13.550 -21.033  35.055  1.00  0.00    -0.550 OA
ENDBRANCH   1   2
BRANCH   1   5
ATOM      5  C   UNL     1      14.653 -18.829  37.495  1.00  0.00     0.003 C 
ATOM      6  C   UNL     1      14.602 -18.257  38.912  1.00  0.00     0.004 C 
ENDBRANCH   1   5
TORSDOF 2
ENDMDL
MODEL 8
REMARK VINA RESULT:    -2.471      9.248     10.198
REMARK INTER + INTRA:          -2.799
REMARK INTER:                  -2.732
REMARK INTRA:                  -0.066
REMARK UNBOUND:                -0.039
REMARK SMILES CCCC(=O)[O-]
REMARK SMILES IDX 3 1 4 2 5 3 6 4 2 5 1 6
REMARK H PARENT
REMARK Flexibility Score: inf
ROOT
ATOM      1  C   UNL     1      11.970 -22.312  40.068  1.00  0.00     0.052 C 
ENDROOT
BRANCH   1   2
ATOM      2  C   UNL     1      12.331 -23.701  39.640  1.00  0.00     0.041 C 
ATOM      3  O   UNL     1      12.356 -24.002  38.417  1.00  0.00    -0.550 OA
ATOM      4  O   UNL     1      12.607 -24.672  40.594  1.00  0.00    -0.550 OA
ENDBRANCH   1   2
BRANCH   1   5
ATOM      5  C   UNL     1      10.865 -22.315  41.133  1.00  0.00     0.003 C 
ATOM      6  C   UNL     1       9.550 -22.888  40.604  1.00  0.00     0.004 C 
ENDBRANCH   1   5
TORSDOF 2
ENDMDL
MODEL 9
REMARK VINA RESULT:    -2.448      8.618      9.790
REMARK INTER + INTRA:          -2.773
REMARK INTER:                  -2.740
REMARK INTRA:                  -0.034
REMARK UNBOUND:                -0.039
REMARK SMILES CCCC(=O)[O-]
REMARK SMILES IDX 3 1 4 2 5 3 6 4 2 5 1 6
REMARK H PARENT
REMARK Flexibility Score: inf
ROOT
ATOM      1  C   UNL     1       9.818 -22.749  40.787  1.00  0.00     0.052 C 
ENDROOT
BRANCH   1   2
ATOM      2  C   UNL     1      11.072 -22.364  41.511  1.00  0.00     0.041 C 
ATOM      3  O   UNL     1      11.267 -22.754  42.693  1.00  0.00    -0.550 OA
ATOM      4  O   UNL     1      12.009 -21.547  40.892  1.00  0.00    -0.550 OA
ENDBRANCH   1   2
BRANCH   1   5
ATOM      5  C   UNL     1       9.963 -24.105  40.083  1.00  0.00     0.003 C 
ATOM      6  C   UNL     1       9.112 -25.193  40.738  1.00  0.00     0.004 C 
ENDBRANCH   1   5
TORSDOF 2
ENDMDL
