MODEL 1
REMARK VINA RESULT:    -4.966      0.000      0.000
REMARK INTER + INTRA:          -8.365
REMARK INTER:                  -7.580
REMARK INTRA:                  -0.786
REMARK UNBOUND:                -0.786
REMARK SMILES O=C([O-])CCCCCCCCC(=O)[O-]
REMARK SMILES IDX 7 1 6 2 5 3 4 4 2 5 1 6 3 7 8 8 9 9 10 10 11 11 12 12 13 13
REMARK SMILES IDX 14 14
REMARK H PARENT
REMARK Flexibility Score: inf
ROOT
ATOM      1  C   UNL     1       9.274   5.060  21.255  1.00  0.00     0.000 C 
ENDROOT
BRANCH   1   2
ATOM      2  C   UNL     1       9.607   6.552  21.356  1.00  0.00     0.000 C 
BRANCH   2   3
ATOM      3  C   UNL     1      11.121   6.771  21.476  1.00  0.00     0.006 C 
BRANCH   3   4
ATOM      4  C   UNL     1      11.468   8.261  21.400  1.00  0.00     0.053 C 
BRANCH   4   5
ATOM      5  C   UNL     1      12.951   8.454  21.406  1.00  0.00     0.041 C 
ATOM      6  O   UNL     1      13.584   8.465  22.495  1.00  0.00    -0.550 OA
ATOM      7  O   UNL     1      13.629   8.673  20.214  1.00  0.00    -0.550 OA
ENDBRANCH   4   5
ENDBRANCH   3   4
ENDBRANCH   2   3
ENDBRANCH   1   2
BRANCH   1   8
ATOM      8  C   UNL     1      10.530   4.234  20.953  1.00  0.00     0.000 C 
BRANCH   8   9
ATOM      9  C   UNL     1      10.209   3.064  20.016  1.00  0.00     0.000 C 
BRANCH   9  10
ATOM     10  C   UNL     1      10.604   3.392  18.569  1.00  0.00     0.006 C 
BRANCH  10  11
ATOM     11  C   UNL     1      11.537   4.607  18.483  1.00  0.00     0.053 C 
BRANCH  11  12
ATOM     12  C   UNL     1      10.844   5.800  17.896  1.00  0.00     0.041 C 
ATOM     13  O   UNL     1       9.701   5.678  17.383  1.00  0.00    -0.550 OA
ATOM     14  O   UNL     1      11.448   7.050  17.947  1.00  0.00    -0.550 OA
ENDBRANCH  11  12
ENDBRANCH  10  11
ENDBRANCH   9  10
ENDBRANCH   8   9
ENDBRANCH   1   8
TORSDOF 9
ENDMDL
MODEL 2
REMARK VINA RESULT:    -4.955      1.110      4.644
REMARK INTER + INTRA:          -8.348
REMARK INTER:                  -7.384
REMARK INTRA:                  -0.964
REMARK UNBOUND:                -0.786
REMARK SMILES O=C([O-])CCCCCCCCC(=O)[O-]
REMARK SMILES IDX 7 1 6 2 5 3 4 4 2 5 1 6 3 7 8 8 9 9 10 10 11 11 12 12 13 13
REMARK SMILES IDX 14 14
REMARK H PARENT
REMARK Flexibility Score: inf
ROOT
ATOM      1  C   UNL     1      10.266   4.058  21.421  1.00  0.00     0.000 C 
ENDROOT
BRANCH   1   2
ATOM      2  C   UNL     1      10.232   2.924  20.391  1.00  0.00     0.000 C 
BRANCH   2   3
ATOM      3  C   UNL     1       9.532   3.372  19.101  1.00  0.00     0.006 C 
BRANCH   3   4
ATOM      4  C   UNL     1      10.536   3.518  17.954  1.00  0.00     0.053 C 
BRANCH   4   5
ATOM      5  C   UNL     1      11.311   4.789  18.093  1.00  0.00     0.041 C 
ATOM      6  O   UNL     1      10.767   5.895  17.831  1.00  0.00    -0.550 OA
ATOM      7  O   UNL     1      12.649   4.751  18.464  1.00  0.00    -0.550 OA
ENDBRANCH   4   5
ENDBRANCH   3   4
ENDBRANCH   2   3
ENDBRANCH   1   2
BRANCH   1   8
ATOM      8  C   UNL     1       9.167   5.090  21.139  1.00  0.00     0.000 C 
BRANCH   8   9
ATOM      9  C   UNL     1       9.736   6.514  21.135  1.00  0.00     0.000 C 
BRANCH   9  10
ATOM     10  C   UNL     1      11.239   6.508  21.451  1.00  0.00     0.006 C 
BRANCH  10  11
ATOM     11  C   UNL     1      11.979   7.668  20.772  1.00  0.00     0.053 C 
BRANCH  11  12
ATOM     12  C   UNL     1      12.558   8.621  21.774  1.00  0.00     0.041 C 
ATOM     13  O   UNL     1      13.724   8.445  22.214  1.00  0.00    -0.550 OA
ATOM     14  O   UNL     1      11.820   9.721  22.194  1.00  0.00    -0.550 OA
ENDBRANCH  11  12
ENDBRANCH  10  11
ENDBRANCH   9  10
ENDBRANCH   8   9
ENDBRANCH   1   8
TORSDOF 9
ENDMDL
MODEL 3
REMARK VINA RESULT:    -4.908      3.003      5.751
REMARK INTER + INTRA:          -8.276
REMARK INTER:                  -7.497
REMARK INTRA:                  -0.779
REMARK UNBOUND:                -0.786
REMARK SMILES O=C([O-])CCCCCCCCC(=O)[O-]
REMARK SMILES IDX 7 1 6 2 5 3 4 4 2 5 1 6 3 7 8 8 9 9 10 10 11 11 12 12 13 13
REMARK SMILES IDX 14 14
REMARK H PARENT
REMARK Flexibility Score: inf
ROOT
ATOM      1  C   UNL     1      12.338   5.619  18.347  1.00  0.00     0.000 C 
ENDROOT
BRANCH   1   2
ATOM      2  C   UNL     1      11.703   4.274  18.720  1.00  0.00     0.000 C 
BRANCH   2   3
ATOM      3  C   UNL     1      10.357   4.086  18.009  1.00  0.00     0.006 C 
BRANCH   3   4
ATOM      4  C   UNL     1      10.273   2.708  17.347  1.00  0.00     0.053 C 
BRANCH   4   5
ATOM      5  C   UNL     1       9.211   1.878  17.995  1.00  0.00     0.041 C 
ATOM      6  O   UNL     1       8.712   2.234  19.096  1.00  0.00    -0.550 OA
ATOM      7  O   UNL     1       8.806   0.685  17.410  1.00  0.00    -0.550 OA
ENDBRANCH   4   5
ENDBRANCH   3   4
ENDBRANCH   2   3
ENDBRANCH   1   2
BRANCH   1   8
ATOM      8  C   UNL     1      11.461   6.789  18.808  1.00  0.00     0.000 C 
BRANCH   8   9
ATOM      9  C   UNL     1      11.957   7.357  20.143  1.00  0.00     0.000 C 
BRANCH   9  10
ATOM     10  C   UNL     1      11.120   6.825  21.315  1.00  0.00     0.006 C 
BRANCH  10  11
ATOM     11  C   UNL     1       9.615   7.018  21.088  1.00  0.00     0.053 C 
BRANCH  11  12
ATOM     12  C   UNL     1       8.875   5.715  21.126  1.00  0.00     0.041 C 
ATOM     13  O   UNL     1       7.651   5.674  20.834  1.00  0.00    -0.550 OA
ATOM     14  O   UNL     1       9.545   4.543  21.452  1.00  0.00    -0.550 OA
ENDBRANCH  11  12
ENDBRANCH  10  11
ENDBRANCH   9  10
ENDBRANCH   8   9
ENDBRANCH   1   8
TORSDOF 9
ENDMDL
MODEL 4
REMARK VINA RESULT:    -4.904      1.656      2.535
REMARK INTER + INTRA:          -8.269
REMARK INTER:                  -7.429
REMARK INTRA:                  -0.841
REMARK UNBOUND:                -0.786
REMARK SMILES O=C([O-])CCCCCCCCC(=O)[O-]
REMARK SMILES IDX 7 1 6 2 5 3 4 4 2 5 1 6 3 7 8 8 9 9 10 10 11 11 12 12 13 13
REMARK SMILES IDX 14 14
REMARK H PARENT
REMARK Flexibility Score: inf
ROOT
ATOM      1  C   UNL     1      12.100   5.891  18.224  1.00  0.00     0.000 C 
ENDROOT
BRANCH   1   2
ATOM      2  C   UNL     1      11.414   7.004  19.023  1.00  0.00     0.000 C 
BRANCH   2   3
ATOM      3  C   UNL     1      11.611   6.800  20.531  1.00  0.00     0.006 C 
BRANCH   3   4
ATOM      4  C   UNL     1      11.133   8.024  21.318  1.00  0.00     0.053 C 
BRANCH   4   5
ATOM      5  C   UNL     1      12.295   8.879  21.713  1.00  0.00     0.041 C 
ATOM      6  O   UNL     1      12.112   9.918  22.401  1.00  0.00    -0.550 OA
ATOM      7  O   UNL     1      13.575   8.557  21.279  1.00  0.00    -0.550 OA
ENDBRANCH   4   5
ENDBRANCH   3   4
ENDBRANCH   2   3
ENDBRANCH   1   2
BRANCH   1   8
ATOM      8  C   UNL     1      12.052   4.559  18.981  1.00  0.00     0.000 C 
BRANCH   8   9
ATOM      9  C   UNL     1      10.923   3.665  18.455  1.00  0.00     0.000 C 
BRANCH   9  10
ATOM     10  C   UNL     1       9.866   3.416  19.540  1.00  0.00     0.006 C 
BRANCH  10  11
ATOM     11  C   UNL     1       8.446   3.726  19.050  1.00  0.00     0.053 C 
BRANCH  11  12
ATOM     12  C   UNL     1       8.123   5.185  19.167  1.00  0.00     0.041 C 
ATOM     13  O   UNL     1       8.005   5.718  20.301  1.00  0.00    -0.550 OA
ATOM     14  O   UNL     1       7.986   5.961  18.023  1.00  0.00    -0.550 OA
ENDBRANCH  11  12
ENDBRANCH  10  11
ENDBRANCH   9  10
ENDBRANCH   8   9
ENDBRANCH   1   8
TORSDOF 9
ENDMDL
MODEL 5
REMARK VINA RESULT:    -4.888     18.882     19.617
REMARK INTER + INTRA:          -8.246
REMARK INTER:                  -7.441
REMARK INTRA:                  -0.805
REMARK UNBOUND:                -0.786
REMARK SMILES O=C([O-])CCCCCCCCC(=O)[O-]
REMARK SMILES IDX 7 1 6 2 5 3 4 4 2 5 1 6 3 7 8 8 9 9 10 10 11 11 12 12 13 13
REMARK SMILES IDX 14 14
REMARK H PARENT
REMARK Flexibility Score: inf
ROOT
ATOM      1  C   UNL     1      16.026  -4.916  36.273  1.00  0.00     0.000 C 
ENDROOT
BRANCH   1   2
ATOM      2  C   UNL     1      17.489  -4.474  36.156  1.00  0.00     0.000 C 
BRANCH   2   3
ATOM      3  C   UNL     1      17.651  -3.383  35.090  1.00  0.00     0.006 C 
BRANCH   3   4
ATOM      4  C   UNL     1      18.961  -2.615  35.285  1.00  0.00     0.053 C 
BRANCH   4   5
ATOM      5  C   UNL     1      18.713  -1.330  36.009  1.00  0.00     0.041 C 
ATOM      6  O   UNL     1      19.597  -0.433  36.030  1.00  0.00    -0.550 OA
ATOM      7  O   UNL     1      17.525  -1.142  36.705  1.00  0.00    -0.550 OA
ENDBRANCH   4   5
ENDBRANCH   3   4
ENDBRANCH   2   3
ENDBRANCH   1   2
BRANCH   1   8
ATOM      8  C   UNL     1      15.369  -5.018  34.891  1.00  0.00     0.000 C 
BRANCH   8   9
ATOM      9  C   UNL     1      15.388  -6.462  34.376  1.00  0.00     0.000 C 
BRANCH   9  10
ATOM     10  C   UNL     1      16.100  -6.554  33.018  1.00  0.00     0.006 C 
BRANCH  10  11
ATOM     11  C   UNL     1      17.219  -7.603  33.019  1.00  0.00     0.053 C 
BRANCH  11  12
ATOM     12  C   UNL     1      18.388  -7.170  33.851  1.00  0.00     0.041 C 
ATOM     13  O   UNL     1      19.122  -6.223  33.466  1.00  0.00    -0.550 OA
ATOM     14  O   UNL     1      18.644  -7.791  35.067  1.00  0.00    -0.550 OA
ENDBRANCH  11  12
ENDBRANCH  10  11
ENDBRANCH   9  10
ENDBRANCH   8   9
ENDBRANCH   1   8
TORSDOF 9
ENDMDL
MODEL 6
REMARK VINA RESULT:    -4.887     18.824     20.004
REMARK INTER + INTRA:          -8.243
REMARK INTER:                  -7.439
REMARK INTRA:                  -0.804
REMARK UNBOUND:                -0.786
REMARK SMILES O=C([O-])CCCCCCCCC(=O)[O-]
REMARK SMILES IDX 7 1 6 2 5 3 4 4 2 5 1 6 3 7 8 8 9 9 10 10 11 11 12 12 13 13
REMARK SMILES IDX 14 14
REMARK H PARENT
REMARK Flexibility Score: inf
ROOT
ATOM      1  C   UNL     1      15.277  -4.956  35.091  1.00  0.00     0.000 C 
ENDROOT
BRANCH   1   2
ATOM      2  C   UNL     1      15.257  -6.347  34.448  1.00  0.00     0.000 C 
BRANCH   2   3
ATOM      3  C   UNL     1      15.989  -6.342  33.101  1.00  0.00     0.006 C 
BRANCH   3   4
ATOM      4  C   UNL     1      16.933  -7.543  32.983  1.00  0.00     0.053 C 
BRANCH   4   5
ATOM      5  C   UNL     1      18.244  -7.246  33.639  1.00  0.00     0.041 C 
ATOM      6  O   UNL     1      19.060  -6.456  33.094  1.00  0.00    -0.550 OA
ATOM      7  O   UNL     1      18.586  -7.880  34.826  1.00  0.00    -0.550 OA
ENDBRANCH   4   5
ENDBRANCH   3   4
ENDBRANCH   2   3
ENDBRANCH   1   2
BRANCH   1   8
ATOM      8  C   UNL     1      16.136  -4.949  36.362  1.00  0.00     0.000 C 
BRANCH   8   9
ATOM      9  C   UNL     1      17.596  -4.609  36.039  1.00  0.00     0.000 C 
BRANCH   9  10
ATOM     10  C   UNL     1      17.683  -3.444  35.042  1.00  0.00     0.006 C 
BRANCH  10  11
ATOM     11  C   UNL     1      18.962  -2.617  35.224  1.00  0.00     0.053 C 
BRANCH  11  12
ATOM     12  C   UNL     1      18.707  -1.365  36.009  1.00  0.00     0.041 C 
ATOM     13  O   UNL     1      19.550  -0.430  35.999  1.00  0.00    -0.550 OA
ATOM     14  O   UNL     1      17.525  -1.220  36.723  1.00  0.00    -0.550 OA
ENDBRANCH  11  12
ENDBRANCH  10  11
ENDBRANCH   9  10
ENDBRANCH   8   9
ENDBRANCH   1   8
TORSDOF 9
ENDMDL
MODEL 7
REMARK VINA RESULT:    -4.879      1.717      4.947
REMARK INTER + INTRA:          -8.232
REMARK INTER:                  -7.343
REMARK INTRA:                  -0.889
REMARK UNBOUND:                -0.786
REMARK SMILES O=C([O-])CCCCCCCCC(=O)[O-]
REMARK SMILES IDX 7 1 6 2 5 3 4 4 2 5 1 6 3 7 8 8 9 9 10 10 11 11 12 12 13 13
REMARK SMILES IDX 14 14
REMARK H PARENT
REMARK Flexibility Score: inf
ROOT
ATOM      1  C   UNL     1      11.703   4.618  19.528  1.00  0.00     0.000 C 
ENDROOT
BRANCH   1   2
ATOM      2  C   UNL     1      10.721   3.795  18.687  1.00  0.00     0.000 C 
BRANCH   2   3
ATOM      3  C   UNL     1       9.505   3.371  19.519  1.00  0.00     0.006 C 
BRANCH   3   4
ATOM      4  C   UNL     1       8.235   4.079  19.036  1.00  0.00     0.053 C 
BRANCH   4   5
ATOM      5  C   UNL     1       8.147   5.453  19.620  1.00  0.00     0.041 C 
ATOM      6  O   UNL     1       7.713   5.617  20.791  1.00  0.00    -0.550 OA
ATOM      7  O   UNL     1       8.496   6.558  18.854  1.00  0.00    -0.550 OA
ENDBRANCH   4   5
ENDBRANCH   3   4
ENDBRANCH   2   3
ENDBRANCH   1   2
BRANCH   1   8
ATOM      8  C   UNL     1      11.441   4.424  21.027  1.00  0.00     0.000 C 
BRANCH   8   9
ATOM      9  C   UNL     1      11.393   5.771  21.758  1.00  0.00     0.000 C 
BRANCH   9  10
ATOM     10  C   UNL     1      11.482   6.940  20.766  1.00  0.00     0.006 C 
BRANCH  10  11
ATOM     11  C   UNL     1      11.141   8.285  21.421  1.00  0.00     0.053 C 
BRANCH  11  12
ATOM     12  C   UNL     1      12.375   9.047  21.801  1.00  0.00     0.041 C 
ATOM     13  O   UNL     1      12.285  10.083  22.509  1.00  0.00    -0.550 OA
ATOM     14  O   UNL     1      13.625   8.592  21.400  1.00  0.00    -0.550 OA
ENDBRANCH  11  12
ENDBRANCH  10  11
ENDBRANCH   9  10
ENDBRANCH   8   9
ENDBRANCH   1   8
TORSDOF 9
ENDMDL
MODEL 8
REMARK VINA RESULT:    -4.876     18.861     20.246
REMARK INTER + INTRA:          -8.227
REMARK INTER:                  -7.489
REMARK INTRA:                  -0.738
REMARK UNBOUND:                -0.786
REMARK SMILES O=C([O-])CCCCCCCCC(=O)[O-]
REMARK SMILES IDX 7 1 6 2 5 3 4 4 2 5 1 6 3 7 8 8 9 9 10 10 11 11 12 12 13 13
REMARK SMILES IDX 14 14
REMARK H PARENT
REMARK Flexibility Score: inf
ROOT
ATOM      1  C   UNL     1      19.242  -6.248  33.433  1.00  0.00     0.000 C 
ENDROOT
BRANCH   1   2
ATOM      2  C   UNL     1      18.091  -7.200  33.777  1.00  0.00     0.000 C 
BRANCH   2   3
ATOM      3  C   UNL     1      16.832  -6.854  32.972  1.00  0.00     0.006 C 
BRANCH   3   4
ATOM      4  C   UNL     1      15.874  -8.047  32.910  1.00  0.00     0.053 C 
BRANCH   4   5
ATOM      5  C   UNL     1      16.121  -8.855  31.676  1.00  0.00     0.041 C 
ATOM      6  O   UNL     1      15.221  -8.970  30.802  1.00  0.00    -0.550 OA
ATOM      7  O   UNL     1      17.328  -9.523  31.513  1.00  0.00    -0.550 OA
ENDBRANCH   4   5
ENDBRANCH   3   4
ENDBRANCH   2   3
ENDBRANCH   1   2
BRANCH   1   8
ATOM      8  C   UNL     1      18.712  -4.872  33.011  1.00  0.00     0.000 C 
BRANCH   8   9
ATOM      9  C   UNL     1      18.983  -3.821  34.093  1.00  0.00     0.000 C 
BRANCH   9  10
ATOM     10  C   UNL     1      17.679  -3.148  34.546  1.00  0.00     0.006 C 
BRANCH  10  11
ATOM     11  C   UNL     1      17.435  -3.307  36.052  1.00  0.00     0.053 C 
BRANCH  11  12
ATOM     12  C   UNL     1      16.839  -4.643  36.381  1.00  0.00     0.041 C 
ATOM     13  O   UNL     1      15.622  -4.866  36.148  1.00  0.00    -0.550 OA
ATOM     14  O   UNL     1      17.635  -5.649  36.912  1.00  0.00    -0.550 OA
ENDBRANCH  11  12
ENDBRANCH  10  11
ENDBRANCH   9  10
ENDBRANCH   8   9
ENDBRANCH   1   8
TORSDOF 9
ENDMDL
MODEL 9
REMARK VINA RESULT:    -4.871      2.876      4.302
REMARK INTER + INTRA:          -8.220
REMARK INTER:                  -7.078
REMARK INTRA:                  -1.141
REMARK UNBOUND:                -0.786
REMARK SMILES O=C([O-])CCCCCCCCC(=O)[O-]
REMARK SMILES IDX 7 1 6 2 5 3 4 4 2 5 1 6 3 7 8 8 9 9 10 10 11 11 12 12 13 13
REMARK SMILES IDX 14 14
REMARK H PARENT
REMARK Flexibility Score: inf
ROOT
ATOM      1  C   UNL     1      11.241   6.368  21.331  1.00  0.00     0.000 C 
ENDROOT
BRANCH   1   2
ATOM      2  C   UNL     1       9.711   6.441  21.350  1.00  0.00     0.000 C 
BRANCH   2   3
ATOM      3  C   UNL     1       9.091   5.078  21.017  1.00  0.00     0.006 C 
BRANCH   3   4
ATOM      4  C   UNL     1      10.176   4.025  20.773  1.00  0.00     0.053 C 
BRANCH   4   5
ATOM      5  C   UNL     1       9.956   3.339  19.463  1.00  0.00     0.041 C 
ATOM      6  O   UNL     1       8.828   2.851  19.185  1.00  0.00    -0.550 OA
ATOM      7  O   UNL     1      11.009   3.193  18.569  1.00  0.00    -0.550 OA
ENDBRANCH   4   5
ENDBRANCH   3   4
ENDBRANCH   2   3
ENDBRANCH   1   2
BRANCH   1   8
ATOM      8  C   UNL     1      11.829   7.398  20.359  1.00  0.00     0.000 C 
BRANCH   8   9
ATOM      9  C   UNL     1      12.008   6.796  18.960  1.00  0.00     0.000 C 
BRANCH   9  10
ATOM     10  C   UNL     1      11.011   7.408  17.965  1.00  0.00     0.006 C 
BRANCH  10  11
ATOM     11  C   UNL     1      10.035   6.365  17.405  1.00  0.00     0.053 C 
BRANCH  11  12
ATOM     12  C   UNL     1       8.608   6.750  17.651  1.00  0.00     0.041 C 
ATOM     13  O   UNL     1       8.253   7.955  17.565  1.00  0.00    -0.550 OA
ATOM     14  O   UNL     1       7.664   5.773  17.943  1.00  0.00    -0.550 OA
ENDBRANCH  11  12
ENDBRANCH  10  11
ENDBRANCH   9  10
ENDBRANCH   8   9
ENDBRANCH   1   8
TORSDOF 9
ENDMDL
