MODEL 1
REMARK VINA RESULT:    -5.685      0.000      0.000
REMARK INTER + INTRA:          -7.165
REMARK INTER:                  -6.849
REMARK INTRA:                  -0.316
REMARK UNBOUND:                -0.316
REMARK SMILES Oc1cc(O)c2cc(O)c(-c3ccc(O)c(O)c3)[o+]c2c1.[Cl-]
REMARK SMILES IDX 10 1 19 2 20 3 21 4 2 5 3 6 4 7 6 8 7 9 8 10 11 11 12 12
REMARK SMILES IDX 13 13 14 14 18 15 16 16 15 17 17 19 9 21 1 23 5 25
REMARK H PARENT 15 18 17 20 9 22 1 24 5 26
REMARK Flexibility Score: inf
ROOT
ATOM      1  C   UNL     1      -4.996  -9.542   8.393  1.00  0.00     0.402 A 
ATOM      2  O   UNL     1      -4.179 -10.091   7.499  1.00  0.00    -0.202 OA
ATOM      3  C   UNL     1      -2.855  -9.980   7.555  1.00  0.00     0.368 A 
ATOM      4  C   UNL     1      -2.079 -10.595   6.570  1.00  0.00     0.162 A 
ATOM      5  C   UNL     1      -0.687 -10.499   6.606  1.00  0.00     0.128 A 
ATOM      6  C   UNL     1      -0.065  -9.784   7.634  1.00  0.00     0.093 A 
ATOM      7  C   UNL     1      -0.820  -9.158   8.635  1.00  0.00     0.136 A 
ATOM      8  C   UNL     1      -2.236  -9.252   8.600  1.00  0.00     0.125 A 
ATOM      9  C   UNL     1      -3.073  -8.646   9.551  1.00  0.00     0.078 A 
ATOM     10  C   UNL     1      -4.461  -8.779   9.448  1.00  0.00     0.223 A 
ENDROOT
BRANCH   1  11
ATOM     11  C   UNL     1      -6.453  -9.745   8.227  1.00  0.00     0.087 A 
ATOM     12  C   UNL     1      -7.074 -10.948   8.607  1.00  0.00     0.022 A 
ATOM     13  C   UNL     1      -8.446 -11.125   8.420  1.00  0.00     0.051 A 
ATOM     14  C   UNL     1      -9.218 -10.110   7.838  1.00  0.00     0.157 A 
ATOM     15  C   UNL     1      -7.227  -8.739   7.625  1.00  0.00     0.068 A 
ATOM     16  C   UNL     1      -8.603  -8.912   7.436  1.00  0.00     0.158 A 
BRANCH  14  17
ATOM     17  O   UNL     1     -10.588 -10.289   7.654  1.00  0.00    -0.504 OA
ATOM     18  H   UNL     1     -11.262  -9.961   8.336  1.00  0.00     0.293 HD
ENDBRANCH  14  17
BRANCH  16  19
ATOM     19  O   UNL     1      -9.341  -7.886   6.848  1.00  0.00    -0.504 OA
ATOM     20  H   UNL     1      -9.594  -7.047   7.355  1.00  0.00     0.293 HD
ENDBRANCH  16  19
ENDBRANCH   1  11
BRANCH  10  21
ATOM     21  O   UNL     1      -5.295  -8.137  10.364  1.00  0.00    -0.500 OA
ATOM     22  H   UNL     1      -6.225  -8.485  10.571  1.00  0.00     0.294 HD
ENDBRANCH  10  21
BRANCH   5  23
ATOM     23  O   UNL     1       0.069 -11.120   5.614  1.00  0.00    -0.507 OA
ATOM     24  H   UNL     1       0.164 -12.128   5.573  1.00  0.00     0.293 HD
ENDBRANCH   5  23
BRANCH   7  25
ATOM     25  O   UNL     1      -0.124  -8.465   9.629  1.00  0.00    -0.507 OA
ATOM     26  H   UNL     1      -0.362  -7.539   9.952  1.00  0.00     0.293 HD
ENDBRANCH   7  25
TORSDOF 6
ENDMDL
MODEL 2
REMARK VINA RESULT:    -5.515      1.129      2.671
REMARK INTER + INTRA:          -6.960
REMARK INTER:                  -6.611
REMARK INTRA:                  -0.348
REMARK UNBOUND:                -0.316
REMARK SMILES Oc1cc(O)c2cc(O)c(-c3ccc(O)c(O)c3)[o+]c2c1.[Cl-]
REMARK SMILES IDX 10 1 19 2 20 3 21 4 2 5 3 6 4 7 6 8 7 9 8 10 11 11 12 12
REMARK SMILES IDX 13 13 14 14 18 15 16 16 15 17 17 19 9 21 1 23 5 25
REMARK H PARENT 15 18 17 20 9 22 1 24 5 26
REMARK Flexibility Score: inf
ROOT
ATOM      1  C   UNL     1      -5.052  -9.573   8.130  1.00  0.00     0.402 A 
ATOM      2  O   UNL     1      -4.395  -8.853   9.033  1.00  0.00    -0.202 OA
ATOM      3  C   UNL     1      -3.069  -8.764   9.072  1.00  0.00     0.368 A 
ATOM      4  C   UNL     1      -2.468  -7.979  10.059  1.00  0.00     0.162 A 
ATOM      5  C   UNL     1      -1.079  -7.864  10.121  1.00  0.00     0.128 A 
ATOM      6  C   UNL     1      -0.282  -8.539   9.190  1.00  0.00     0.093 A 
ATOM      7  C   UNL     1      -0.859  -9.332   8.190  1.00  0.00     0.136 A 
ATOM      8  C   UNL     1      -2.272  -9.452   8.125  1.00  0.00     0.125 A 
ATOM      9  C   UNL     1      -2.937 -10.235   7.167  1.00  0.00     0.078 A 
ATOM     10  C   UNL     1      -4.333 -10.309   7.169  1.00  0.00     0.223 A 
ENDROOT
BRANCH   1  11
ATOM     11  C   UNL     1      -6.532  -9.584   8.185  1.00  0.00     0.087 A 
ATOM     12  C   UNL     1      -7.230 -10.527   8.961  1.00  0.00     0.022 A 
ATOM     13  C   UNL     1      -8.626 -10.532   8.980  1.00  0.00     0.051 A 
ATOM     14  C   UNL     1      -9.348  -9.605   8.215  1.00  0.00     0.157 A 
ATOM     15  C   UNL     1      -7.259  -8.671   7.404  1.00  0.00     0.068 A 
ATOM     16  C   UNL     1      -8.659  -8.673   7.420  1.00  0.00     0.158 A 
BRANCH  14  17
ATOM     17  O   UNL     1     -10.741  -9.611   8.237  1.00  0.00    -0.504 OA
ATOM     18  H   UNL     1     -11.258 -10.085   8.968  1.00  0.00     0.293 HD
ENDBRANCH  14  17
BRANCH  16  19
ATOM     19  O   UNL     1      -9.346  -7.742   6.642  1.00  0.00    -0.504 OA
ATOM     20  H   UNL     1     -10.356  -7.665   6.663  1.00  0.00     0.293 HD
ENDBRANCH  16  19
ENDBRANCH   1  11
BRANCH  10  21
ATOM     21  O   UNL     1      -4.992 -11.125   6.249  1.00  0.00    -0.500 OA
ATOM     22  H   UNL     1      -5.127 -10.840   5.286  1.00  0.00     0.294 HD
ENDBRANCH  10  21
BRANCH   5  23
ATOM     23  O   UNL     1      -0.499  -7.076  11.114  1.00  0.00    -0.507 OA
ATOM     24  H   UNL     1       0.006  -7.489  11.889  1.00  0.00     0.293 HD
ENDBRANCH   5  23
BRANCH   7  25
ATOM     25  O   UNL     1       0.004  -9.970   7.296  1.00  0.00    -0.507 OA
ATOM     26  H   UNL     1       1.001  -9.812   7.254  1.00  0.00     0.293 HD
ENDBRANCH   7  25
TORSDOF 6
ENDMDL
MODEL 3
REMARK VINA RESULT:    -5.278      2.533      3.297
REMARK INTER + INTRA:          -6.675
REMARK INTER:                  -6.339
REMARK INTRA:                  -0.336
REMARK UNBOUND:                -0.316
REMARK SMILES Oc1cc(O)c2cc(O)c(-c3ccc(O)c(O)c3)[o+]c2c1.[Cl-]
REMARK SMILES IDX 10 1 19 2 20 3 21 4 2 5 3 6 4 7 6 8 7 9 8 10 11 11 12 12
REMARK SMILES IDX 13 13 14 14 18 15 16 16 15 17 17 19 9 21 1 23 5 25
REMARK H PARENT 15 18 17 20 9 22 1 24 5 26
REMARK Flexibility Score: inf
ROOT
ATOM      1  C   UNL     1      -6.382  -8.756   9.552  1.00  0.00     0.402 A 
ATOM      2  O   UNL     1      -5.657  -7.647   9.435  1.00  0.00    -0.202 OA
ATOM      3  C   UNL     1      -4.343  -7.610   9.630  1.00  0.00     0.368 A 
ATOM      4  C   UNL     1      -3.667  -6.397   9.482  1.00  0.00     0.162 A 
ATOM      5  C   UNL     1      -2.287  -6.330   9.677  1.00  0.00     0.128 A 
ATOM      6  C   UNL     1      -1.575  -7.483  10.022  1.00  0.00     0.093 A 
ATOM      7  C   UNL     1      -2.229  -8.713  10.177  1.00  0.00     0.136 A 
ATOM      8  C   UNL     1      -3.633  -8.784   9.981  1.00  0.00     0.125 A 
ATOM      9  C   UNL     1      -4.373  -9.969  10.127  1.00  0.00     0.078 A 
ATOM     10  C   UNL     1      -5.756  -9.961   9.923  1.00  0.00     0.223 A 
ENDROOT
BRANCH   1  11
ATOM     11  C   UNL     1      -7.839  -8.670   9.299  1.00  0.00     0.087 A 
ATOM     12  C   UNL     1      -8.757  -8.511  10.351  1.00  0.00     0.022 A 
ATOM     13  C   UNL     1     -10.128  -8.455  10.090  1.00  0.00     0.051 A 
ATOM     14  C   UNL     1     -10.604  -8.569   8.777  1.00  0.00     0.157 A 
ATOM     15  C   UNL     1      -8.321  -8.804   7.987  1.00  0.00     0.068 A 
ATOM     16  C   UNL     1      -9.694  -8.748   7.721  1.00  0.00     0.158 A 
BRANCH  14  17
ATOM     17  O   UNL     1     -11.972  -8.511   8.519  1.00  0.00    -0.504 OA
ATOM     18  H   UNL     1     -12.483  -7.636   8.556  1.00  0.00     0.293 HD
ENDBRANCH  14  17
BRANCH  16  19
ATOM     19  O   UNL     1     -10.135  -8.871   6.404  1.00  0.00    -0.504 OA
ATOM     20  H   UNL     1      -9.929  -8.174   5.700  1.00  0.00     0.293 HD
ENDBRANCH  16  19
ENDBRANCH   1  11
BRANCH  10  21
ATOM     21  O   UNL     1      -6.499 -11.125  10.116  1.00  0.00    -0.500 OA
ATOM     22  H   UNL     1      -7.260 -11.380   9.497  1.00  0.00     0.294 HD
ENDBRANCH  10  21
BRANCH   5  23
ATOM     23  O   UNL     1      -1.631  -5.110   9.525  1.00  0.00    -0.507 OA
ATOM     24  H   UNL     1      -2.033  -4.246   9.869  1.00  0.00     0.293 HD
ENDBRANCH   5  23
BRANCH   7  25
ATOM     25  O   UNL     1      -1.447  -9.819  10.519  1.00  0.00    -0.507 OA
ATOM     26  H   UNL     1      -1.244 -10.103  11.466  1.00  0.00     0.293 HD
ENDBRANCH   7  25
TORSDOF 6
ENDMDL
MODEL 4
REMARK VINA RESULT:    -5.077      2.041      2.431
REMARK INTER + INTRA:          -6.432
REMARK INTER:                  -6.153
REMARK INTRA:                  -0.279
REMARK UNBOUND:                -0.316
REMARK SMILES Oc1cc(O)c2cc(O)c(-c3ccc(O)c(O)c3)[o+]c2c1.[Cl-]
REMARK SMILES IDX 10 1 19 2 20 3 21 4 2 5 3 6 4 7 6 8 7 9 8 10 11 11 12 12
REMARK SMILES IDX 13 13 14 14 18 15 16 16 15 17 17 19 9 21 1 23 5 25
REMARK H PARENT 15 18 17 20 9 22 1 24 5 26
REMARK Flexibility Score: inf
ROOT
ATOM      1  C   UNL     1      -4.022  -7.704   9.250  1.00  0.00     0.402 A 
ATOM      2  O   UNL     1      -3.154  -8.685   9.026  1.00  0.00    -0.202 OA
ATOM      3  C   UNL     1      -1.836  -8.509   9.027  1.00  0.00     0.368 A 
ATOM      4  C   UNL     1      -1.003  -9.603   8.782  1.00  0.00     0.162 A 
ATOM      5  C   UNL     1       0.384  -9.448   8.781  1.00  0.00     0.128 A 
ATOM      6  C   UNL     1       0.944  -8.190   9.026  1.00  0.00     0.093 A 
ATOM      7  C   UNL     1       0.131  -7.076   9.275  1.00  0.00     0.136 A 
ATOM      8  C   UNL     1      -1.280  -7.230   9.274  1.00  0.00     0.125 A 
ATOM      9  C   UNL     1      -2.172  -6.169   9.500  1.00  0.00     0.078 A 
ATOM     10  C   UNL     1      -3.551  -6.397   9.480  1.00  0.00     0.223 A 
ENDROOT
BRANCH   1  11
ATOM     11  C   UNL     1      -5.467  -8.029   9.233  1.00  0.00     0.087 A 
ATOM     12  C   UNL     1      -6.070  -8.742  10.284  1.00  0.00     0.022 A 
ATOM     13  C   UNL     1      -7.430  -9.057  10.234  1.00  0.00     0.051 A 
ATOM     14  C   UNL     1      -8.205  -8.678   9.129  1.00  0.00     0.157 A 
ATOM     15  C   UNL     1      -6.242  -7.669   8.119  1.00  0.00     0.068 A 
ATOM     16  C   UNL     1      -7.605  -7.983   8.065  1.00  0.00     0.158 A 
BRANCH  14  17
ATOM     17  O   UNL     1      -9.562  -8.992   9.084  1.00  0.00    -0.504 OA
ATOM     18  H   UNL     1     -10.269  -8.276   8.969  1.00  0.00     0.293 HD
ENDBRANCH  14  17
BRANCH  16  19
ATOM     19  O   UNL     1      -8.346  -7.598   6.949  1.00  0.00    -0.504 OA
ATOM     20  H   UNL     1      -9.282  -7.944   6.779  1.00  0.00     0.293 HD
ENDBRANCH  16  19
ENDBRANCH   1  11
BRANCH  10  21
ATOM     21  O   UNL     1      -4.439  -5.335   9.654  1.00  0.00    -0.500 OA
ATOM     22  H   UNL     1      -4.650  -4.689   8.902  1.00  0.00     0.294 HD
ENDBRANCH  10  21
BRANCH   5  23
ATOM     23  O   UNL     1       1.197 -10.552   8.535  1.00  0.00    -0.507 OA
ATOM     24  H   UNL     1       1.666 -11.043   9.287  1.00  0.00     0.293 HD
ENDBRANCH   5  23
BRANCH   7  25
ATOM     25  O   UNL     1       0.767  -5.855   9.514  1.00  0.00    -0.507 OA
ATOM     26  H   UNL     1       1.670  -5.600   9.142  1.00  0.00     0.293 HD
ENDBRANCH   7  25
TORSDOF 6
ENDMDL
MODEL 5
REMARK VINA RESULT:    -5.022      2.372      3.404
REMARK INTER + INTRA:          -6.366
REMARK INTER:                  -6.020
REMARK INTRA:                  -0.346
REMARK UNBOUND:                -0.316
REMARK SMILES Oc1cc(O)c2cc(O)c(-c3ccc(O)c(O)c3)[o+]c2c1.[Cl-]
REMARK SMILES IDX 10 1 19 2 20 3 21 4 2 5 3 6 4 7 6 8 7 9 8 10 11 11 12 12
REMARK SMILES IDX 13 13 14 14 18 15 16 16 15 17 17 19 9 21 1 23 5 25
REMARK H PARENT 15 18 17 20 9 22 1 24 5 26
REMARK Flexibility Score: inf
ROOT
ATOM      1  C   UNL     1      -3.209  -8.873   9.297  1.00  0.00     0.402 A 
ATOM      2  O   UNL     1      -2.623  -7.778   8.820  1.00  0.00    -0.202 OA
ATOM      3  C   UNL     1      -1.368  -7.441   9.098  1.00  0.00     0.368 A 
ATOM      4  C   UNL     1      -0.839  -6.271   8.547  1.00  0.00     0.162 A 
ATOM      5  C   UNL     1       0.476  -5.895   8.819  1.00  0.00     0.128 A 
ATOM      6  C   UNL     1       1.272  -6.694   9.648  1.00  0.00     0.093 A 
ATOM      7  C   UNL     1       0.767  -7.872  10.213  1.00  0.00     0.136 A 
ATOM      8  C   UNL     1      -0.572  -8.256   9.940  1.00  0.00     0.125 A 
ATOM      9  C   UNL     1      -1.167  -9.412  10.473  1.00  0.00     0.078 A 
ATOM     10  C   UNL     1      -2.494  -9.723  10.162  1.00  0.00     0.223 A 
ENDROOT
BRANCH   1  11
ATOM     11  C   UNL     1      -4.611  -9.144   8.906  1.00  0.00     0.087 A 
ATOM     12  C   UNL     1      -5.691  -8.612   9.632  1.00  0.00     0.022 A 
ATOM     13  C   UNL     1      -7.005  -8.900   9.257  1.00  0.00     0.051 A 
ATOM     14  C   UNL     1      -7.261  -9.734   8.160  1.00  0.00     0.157 A 
ATOM     15  C   UNL     1      -4.872  -9.995   7.820  1.00  0.00     0.068 A 
ATOM     16  C   UNL     1      -6.188 -10.286   7.441  1.00  0.00     0.158 A 
BRANCH  14  17
ATOM     17  O   UNL     1      -8.574 -10.018   7.787  1.00  0.00    -0.504 OA
ATOM     18  H   UNL     1      -9.110 -10.745   8.246  1.00  0.00     0.293 HD
ENDBRANCH  14  17
BRANCH  16  19
ATOM     19  O   UNL     1      -6.409 -11.125   6.349  1.00  0.00    -0.504 OA
ATOM     20  H   UNL     1      -7.285 -11.615   6.216  1.00  0.00     0.293 HD
ENDBRANCH  16  19
ENDBRANCH   1  11
BRANCH  10  21
ATOM     21  O   UNL     1      -3.101 -10.843  10.730  1.00  0.00    -0.500 OA
ATOM     22  H   UNL     1      -3.524 -10.810  11.651  1.00  0.00     0.294 HD
ENDBRANCH  10  21
BRANCH   5  23
ATOM     23  O   UNL     1       0.985  -4.725   8.260  1.00  0.00    -0.507 OA
ATOM     24  H   UNL     1       0.382  -4.050   7.805  1.00  0.00     0.293 HD
ENDBRANCH   5  23
BRANCH   7  25
ATOM     25  O   UNL     1       1.625  -8.616  11.026  1.00  0.00    -0.507 OA
ATOM     26  H   UNL     1       2.560  -8.331  11.281  1.00  0.00     0.293 HD
ENDBRANCH   7  25
TORSDOF 6
ENDMDL
MODEL 6
REMARK VINA RESULT:    -5.018      3.414      6.003
REMARK INTER + INTRA:          -6.361
REMARK INTER:                  -6.012
REMARK INTRA:                  -0.349
REMARK UNBOUND:                -0.316
REMARK SMILES Oc1cc(O)c2cc(O)c(-c3ccc(O)c(O)c3)[o+]c2c1.[Cl-]
REMARK SMILES IDX 10 1 19 2 20 3 21 4 2 5 3 6 4 7 6 8 7 9 8 10 11 11 12 12
REMARK SMILES IDX 13 13 14 14 18 15 16 16 15 17 17 19 9 21 1 23 5 25
REMARK H PARENT 15 18 17 20 9 22 1 24 5 26
REMARK Flexibility Score: inf
ROOT
ATOM      1  C   UNL     1      -0.215  -8.250   8.909  1.00  0.00     0.402 A 
ATOM      2  O   UNL     1      -0.036  -6.982   8.552  1.00  0.00    -0.202 OA
ATOM      3  C   UNL     1       0.992  -6.245   8.961  1.00  0.00     0.368 A 
ATOM      4  C   UNL     1       1.095  -4.920   8.530  1.00  0.00     0.162 A 
ATOM      5  C   UNL     1       2.166  -4.126   8.940  1.00  0.00     0.128 A 
ATOM      6  C   UNL     1       3.143  -4.658   9.789  1.00  0.00     0.093 A 
ATOM      7  C   UNL     1       3.064  -5.984  10.235  1.00  0.00     0.136 A 
ATOM      8  C   UNL     1       1.974  -6.794   9.821  1.00  0.00     0.125 A 
ATOM      9  C   UNL     1       1.806  -8.127  10.229  1.00  0.00     0.078 A 
ATOM     10  C   UNL     1       0.703  -8.862   9.783  1.00  0.00     0.223 A 
ENDROOT
BRANCH   1  11
ATOM     11  C   UNL     1      -1.397  -8.967   8.378  1.00  0.00     0.087 A 
ATOM     12  C   UNL     1      -2.623  -8.970   9.066  1.00  0.00     0.022 A 
ATOM     13  C   UNL     1      -3.717  -9.672   8.557  1.00  0.00     0.051 A 
ATOM     14  C   UNL     1      -3.601 -10.393   7.360  1.00  0.00     0.157 A 
ATOM     15  C   UNL     1      -1.279  -9.707   7.190  1.00  0.00     0.068 A 
ATOM     16  C   UNL     1      -2.374 -10.412   6.676  1.00  0.00     0.158 A 
BRANCH  14  17
ATOM     17  O   UNL     1      -4.695 -11.091   6.853  1.00  0.00    -0.504 OA
ATOM     18  H   UNL     1      -5.498 -11.312   7.431  1.00  0.00     0.293 HD
ENDBRANCH  14  17
BRANCH  16  19
ATOM     19  O   UNL     1      -2.223 -11.125   5.488  1.00  0.00    -0.504 OA
ATOM     20  H   UNL     1      -1.491 -11.813   5.362  1.00  0.00     0.293 HD
ENDBRANCH  16  19
ENDBRANCH   1  11
BRANCH  10  21
ATOM     21  O   UNL     1       0.508 -10.170  10.227  1.00  0.00    -0.500 OA
ATOM     22  H   UNL     1      -0.182 -10.394  10.935  1.00  0.00     0.294 HD
ENDBRANCH  10  21
BRANCH   5  23
ATOM     23  O   UNL     1       2.250  -2.807   8.499  1.00  0.00    -0.507 OA
ATOM     24  H   UNL     1       1.648  -2.084   8.874  1.00  0.00     0.293 HD
ENDBRANCH   5  23
BRANCH   7  25
ATOM     25  O   UNL     1       4.081  -6.441  11.077  1.00  0.00    -0.507 OA
ATOM     26  H   UNL     1       4.102  -6.298  12.076  1.00  0.00     0.293 HD
ENDBRANCH   7  25
TORSDOF 6
ENDMDL
MODEL 7
REMARK VINA RESULT:    -4.950      2.673      4.526
REMARK INTER + INTRA:          -6.280
REMARK INTER:                  -5.937
REMARK INTRA:                  -0.342
REMARK UNBOUND:                -0.316
REMARK SMILES Oc1cc(O)c2cc(O)c(-c3ccc(O)c(O)c3)[o+]c2c1.[Cl-]
REMARK SMILES IDX 10 1 19 2 20 3 21 4 2 5 3 6 4 7 6 8 7 9 8 10 11 11 12 12
REMARK SMILES IDX 13 13 14 14 18 15 16 16 15 17 17 19 9 21 1 23 5 25
REMARK H PARENT 15 18 17 20 9 22 1 24 5 26
REMARK Flexibility Score: inf
ROOT
ATOM      1  C   UNL     1      -1.504  -9.027   8.695  1.00  0.00     0.402 A 
ATOM      2  O   UNL     1      -1.203  -7.770   8.381  1.00  0.00    -0.202 OA
ATOM      3  C   UNL     1      -0.094  -7.161   8.788  1.00  0.00     0.368 A 
ATOM      4  C   UNL     1       0.135  -5.837   8.406  1.00  0.00     0.162 A 
ATOM      5  C   UNL     1       1.293  -5.175   8.814  1.00  0.00     0.128 A 
ATOM      6  C   UNL     1       2.230  -5.839   9.612  1.00  0.00     0.093 A 
ATOM      7  C   UNL     1       2.025  -7.167  10.010  1.00  0.00     0.136 A 
ATOM      8  C   UNL     1       0.847  -7.843   9.597  1.00  0.00     0.125 A 
ATOM      9  C   UNL     1       0.552  -9.167   9.958  1.00  0.00     0.078 A 
ATOM     10  C   UNL     1      -0.632  -9.766   9.517  1.00  0.00     0.223 A 
ENDROOT
BRANCH   1  11
ATOM     11  C   UNL     1      -2.766  -9.597   8.171  1.00  0.00     0.087 A 
ATOM     12  C   UNL     1      -2.782 -10.421   7.033  1.00  0.00     0.022 A 
ATOM     13  C   UNL     1      -3.988 -10.928   6.544  1.00  0.00     0.051 A 
ATOM     14  C   UNL     1      -5.198 -10.610   7.176  1.00  0.00     0.157 A 
ATOM     15  C   UNL     1      -3.982  -9.263   8.789  1.00  0.00     0.068 A 
ATOM     16  C   UNL     1      -5.194  -9.770   8.303  1.00  0.00     0.158 A 
BRANCH  14  17
ATOM     17  O   UNL     1      -6.400 -11.119   6.688  1.00  0.00    -0.504 OA
ATOM     18  H   UNL     1      -6.442 -12.008   6.202  1.00  0.00     0.293 HD
ENDBRANCH  14  17
BRANCH  16  19
ATOM     19  O   UNL     1      -6.380  -9.428   8.951  1.00  0.00    -0.504 OA
ATOM     20  H   UNL     1      -7.105  -8.886   8.496  1.00  0.00     0.293 HD
ENDBRANCH  16  19
ENDBRANCH   1  11
BRANCH  10  21
ATOM     21  O   UNL     1      -0.951 -11.064   9.916  1.00  0.00    -0.500 OA
ATOM     22  H   UNL     1      -1.196 -11.782   9.243  1.00  0.00     0.294 HD
ENDBRANCH  10  21
BRANCH   5  23
ATOM     23  O   UNL     1       1.503  -3.854   8.422  1.00  0.00    -0.507 OA
ATOM     24  H   UNL     1       1.815  -3.150   9.080  1.00  0.00     0.293 HD
ENDBRANCH   5  23
BRANCH   7  25
ATOM     25  O   UNL     1       3.010  -7.761  10.804  1.00  0.00    -0.507 OA
ATOM     26  H   UNL     1       2.822  -8.323  11.621  1.00  0.00     0.293 HD
ENDBRANCH   7  25
TORSDOF 6
ENDMDL
MODEL 8
REMARK VINA RESULT:    -4.905      2.084      7.126
REMARK INTER + INTRA:          -6.226
REMARK INTER:                  -6.035
REMARK INTRA:                  -0.190
REMARK UNBOUND:                -0.316
REMARK SMILES Oc1cc(O)c2cc(O)c(-c3ccc(O)c(O)c3)[o+]c2c1.[Cl-]
REMARK SMILES IDX 10 1 19 2 20 3 21 4 2 5 3 6 4 7 6 8 7 9 8 10 11 11 12 12
REMARK SMILES IDX 13 13 14 14 18 15 16 16 15 17 17 19 9 21 1 23 5 25
REMARK H PARENT 15 18 17 20 9 22 1 24 5 26
REMARK Flexibility Score: inf
ROOT
ATOM      1  C   UNL     1      -4.570  -8.196   9.359  1.00  0.00     0.402 A 
ATOM      2  O   UNL     1      -5.519  -7.830   8.503  1.00  0.00    -0.202 OA
ATOM      3  C   UNL     1      -6.718  -8.403   8.454  1.00  0.00     0.368 A 
ATOM      4  C   UNL     1      -7.652  -7.948   7.519  1.00  0.00     0.162 A 
ATOM      5  C   UNL     1      -8.918  -8.528   7.448  1.00  0.00     0.128 A 
ATOM      6  C   UNL     1      -9.257  -9.571   8.316  1.00  0.00     0.093 A 
ATOM      7  C   UNL     1      -8.339 -10.046   9.263  1.00  0.00     0.136 A 
ATOM      8  C   UNL     1      -7.049  -9.460   9.336  1.00  0.00     0.125 A 
ATOM      9  C   UNL     1      -6.061  -9.879  10.243  1.00  0.00     0.078 A 
ATOM     10  C   UNL     1      -4.810  -9.256  10.253  1.00  0.00     0.223 A 
ENDROOT
BRANCH   1  11
ATOM     11  C   UNL     1      -3.278  -7.473   9.322  1.00  0.00     0.087 A 
ATOM     12  C   UNL     1      -3.194  -6.106   9.640  1.00  0.00     0.022 A 
ATOM     13  C   UNL     1      -1.968  -5.440   9.576  1.00  0.00     0.051 A 
ATOM     14  C   UNL     1      -0.810  -6.124   9.182  1.00  0.00     0.157 A 
ATOM     15  C   UNL     1      -2.119  -8.150   8.908  1.00  0.00     0.068 A 
ATOM     16  C   UNL     1      -0.889  -7.486   8.843  1.00  0.00     0.158 A 
BRANCH  14  17
ATOM     17  O   UNL     1       0.412  -5.457   9.121  1.00  0.00    -0.504 OA
ATOM     18  H   UNL     1       0.562  -4.578   9.603  1.00  0.00     0.293 HD
ENDBRANCH  14  17
BRANCH  16  19
ATOM     19  O   UNL     1       0.243  -8.194   8.440  1.00  0.00    -0.504 OA
ATOM     20  H   UNL     1       0.397  -9.158   8.708  1.00  0.00     0.293 HD
ENDBRANCH  16  19
ENDBRANCH   1  11
BRANCH  10  21
ATOM     21  O   UNL     1      -3.812  -9.704  11.118  1.00  0.00    -0.500 OA
ATOM     22  H   UNL     1      -3.612  -9.229  11.991  1.00  0.00     0.294 HD
ENDBRANCH  10  21
BRANCH   5  23
ATOM     23  O   UNL     1      -9.836  -8.060   6.509  1.00  0.00    -0.507 OA
ATOM     24  H   UNL     1     -10.018  -7.069   6.395  1.00  0.00     0.293 HD
ENDBRANCH   5  23
BRANCH   7  25
ATOM     25  O   UNL     1      -8.755 -11.088  10.096  1.00  0.00    -0.507 OA
ATOM     26  H   UNL     1      -8.251 -11.401  10.913  1.00  0.00     0.293 HD
ENDBRANCH   7  25
TORSDOF 6
ENDMDL
MODEL 9
REMARK VINA RESULT:    -4.757      3.874      6.086
REMARK INTER + INTRA:          -6.046
REMARK INTER:                  -5.818
REMARK INTRA:                  -0.229
REMARK UNBOUND:                -0.316
REMARK SMILES Oc1cc(O)c2cc(O)c(-c3ccc(O)c(O)c3)[o+]c2c1.[Cl-]
REMARK SMILES IDX 10 1 19 2 20 3 21 4 2 5 3 6 4 7 6 8 7 9 8 10 11 11 12 12
REMARK SMILES IDX 13 13 14 14 18 15 16 16 15 17 17 19 9 21 1 23 5 25
REMARK H PARENT 15 18 17 20 9 22 1 24 5 26
REMARK Flexibility Score: inf
ROOT
ATOM      1  C   UNL     1      -0.533  -6.933   8.590  1.00  0.00     0.402 A 
ATOM      2  O   UNL     1       0.703  -7.304   8.910  1.00  0.00    -0.202 OA
ATOM      3  C   UNL     1       1.719  -6.452   9.007  1.00  0.00     0.368 A 
ATOM      4  C   UNL     1       2.983  -6.938   9.351  1.00  0.00     0.162 A 
ATOM      5  C   UNL     1       4.067  -6.066   9.464  1.00  0.00     0.128 A 
ATOM      6  C   UNL     1       3.888  -4.699   9.230  1.00  0.00     0.093 A 
ATOM      7  C   UNL     1       2.631  -4.186   8.884  1.00  0.00     0.136 A 
ATOM      8  C   UNL     1       1.527  -5.070   8.766  1.00  0.00     0.125 A 
ATOM      9  C   UNL     1       0.236  -4.648   8.411  1.00  0.00     0.078 A 
ATOM     10  C   UNL     1      -0.802  -5.580   8.311  1.00  0.00     0.223 A 
ENDROOT
BRANCH   1  11
ATOM     11  C   UNL     1      -1.582  -7.976   8.525  1.00  0.00     0.087 A 
ATOM     12  C   UNL     1      -2.678  -7.970   9.406  1.00  0.00     0.022 A 
ATOM     13  C   UNL     1      -3.643  -8.977   9.340  1.00  0.00     0.051 A 
ATOM     14  C   UNL     1      -3.524 -10.012   8.403  1.00  0.00     0.157 A 
ATOM     15  C   UNL     1      -1.456  -9.025   7.601  1.00  0.00     0.068 A 
ATOM     16  C   UNL     1      -2.421 -10.037   7.531  1.00  0.00     0.158 A 
BRANCH  14  17
ATOM     17  O   UNL     1      -4.489 -11.014   8.338  1.00  0.00    -0.504 OA
ATOM     18  H   UNL     1      -5.368 -10.874   7.852  1.00  0.00     0.293 HD
ENDBRANCH  14  17
BRANCH  16  19
ATOM     19  O   UNL     1      -2.269 -11.056   6.593  1.00  0.00    -0.504 OA
ATOM     20  H   UNL     1      -1.747 -11.900   6.795  1.00  0.00     0.293 HD
ENDBRANCH  16  19
ENDBRANCH   1  11
BRANCH  10  21
ATOM     21  O   UNL     1      -2.074  -5.170   7.909  1.00  0.00    -0.500 OA
ATOM     22  H   UNL     1      -2.899  -5.724   8.109  1.00  0.00     0.294 HD
ENDBRANCH  10  21
BRANCH   5  23
ATOM     23  O   UNL     1       5.320  -6.570   9.809  1.00  0.00    -0.507 OA
ATOM     24  H   UNL     1       5.608  -7.503   9.538  1.00  0.00     0.293 HD
ENDBRANCH   5  23
BRANCH   7  25
ATOM     25  O   UNL     1       2.534  -2.808   8.670  1.00  0.00    -0.507 OA
ATOM     26  H   UNL     1       3.317  -2.207   8.461  1.00  0.00     0.293 HD
ENDBRANCH   7  25
TORSDOF 6
ENDMDL
