MODEL 1
REMARK VINA RESULT:    -4.592      0.000      0.000
REMARK INTER + INTRA:          -4.726
REMARK INTER:                  -4.726
REMARK INTRA:                   0.000
REMARK UNBOUND:                 0.000
REMARK SMILES Nc1ncnc2nc[nH]c12
REMARK SMILES IDX 8 1 7 2 6 3 5 4 4 5 3 6 2 7 10 8 9 9 1 11
REMARK H PARENT 9 10 1 12 1 13
REMARK Flexibility Score: inf
ROOT
ATOM      1  C   UNL     1     161.409 166.626 131.779  1.00  0.00     0.199 A 
ATOM      2  N   UNL     1     160.677 165.557 132.196  1.00  0.00    -0.217 NA
ATOM      3  C   UNL     1     161.476 165.013 133.129  1.00  0.00     0.182 A 
ATOM      4  N   UNL     1     161.218 163.906 133.866  1.00  0.00    -0.215 NA
ATOM      5  C   UNL     1     162.158 163.502 134.774  1.00  0.00     0.226 A 
ATOM      6  N   UNL     1     163.327 164.205 134.925  1.00  0.00    -0.217 NA
ATOM      7  C   UNL     1     163.588 165.320 134.181  1.00  0.00     0.152 A 
ATOM      8  C   UNL     1     162.621 165.719 133.262  1.00  0.00     0.127 A 
ATOM      9  N   UNL     1     162.602 166.753 132.412  1.00  0.00    -0.340 N 
ATOM     10  H   UNL     1     163.327 167.488 132.262  1.00  0.00     0.168 HD
ENDROOT
BRANCH   7  11
ATOM     11  N   UNL     1     164.813 166.036 134.356  1.00  0.00    -0.382 N 
ATOM     12  H   UNL     1     165.398 166.275 133.525  1.00  0.00     0.158 HD
ATOM     13  H   UNL     1     165.142 166.329 135.301  1.00  0.00     0.158 HD
ENDBRANCH   7  11
TORSDOF 1
ENDMDL
MODEL 2
REMARK VINA RESULT:    -4.429      0.991      2.977
REMARK INTER + INTRA:          -4.559
REMARK INTER:                  -4.559
REMARK INTRA:                   0.000
REMARK UNBOUND:                 0.000
REMARK SMILES Nc1ncnc2nc[nH]c12
REMARK SMILES IDX 8 1 7 2 6 3 5 4 4 5 3 6 2 7 10 8 9 9 1 11
REMARK H PARENT 9 10 1 12 1 13
REMARK Flexibility Score: inf
ROOT
ATOM      1  C   UNL     1     164.085 165.714 135.420  1.00  0.00     0.199 A 
ATOM      2  N   UNL     1     163.295 164.627 135.631  1.00  0.00    -0.217 NA
ATOM      3  C   UNL     1     162.403 164.726 134.632  1.00  0.00     0.182 A 
ATOM      4  N   UNL     1     161.376 163.879 134.379  1.00  0.00    -0.215 NA
ATOM      5  C   UNL     1     160.568 164.145 133.308  1.00  0.00     0.226 A 
ATOM      6  N   UNL     1     160.799 165.243 132.518  1.00  0.00    -0.217 NA
ATOM      7  C   UNL     1     161.834 166.098 132.772  1.00  0.00     0.152 A 
ATOM      8  C   UNL     1     162.647 165.813 133.866  1.00  0.00     0.127 A 
ATOM      9  N   UNL     1     163.716 166.459 134.348  1.00  0.00    -0.340 N 
ATOM     10  H   UNL     1     164.167 167.330 133.993  1.00  0.00     0.168 HD
ENDROOT
BRANCH   7  11
ATOM     11  N   UNL     1     162.056 167.235 131.936  1.00  0.00    -0.382 N 
ATOM     12  H   UNL     1     161.535 168.123 132.115  1.00  0.00     0.158 HD
ATOM     13  H   UNL     1     162.731 167.204 131.142  1.00  0.00     0.158 HD
ENDBRANCH   7  11
TORSDOF 1
ENDMDL
MODEL 3
REMARK VINA RESULT:    -4.100      0.948      2.886
REMARK INTER + INTRA:          -4.220
REMARK INTER:                  -4.220
REMARK INTRA:                   0.000
REMARK UNBOUND:                 0.000
REMARK SMILES Nc1ncnc2nc[nH]c12
REMARK SMILES IDX 8 1 7 2 6 3 5 4 4 5 3 6 2 7 10 8 9 9 1 11
REMARK H PARENT 9 10 1 12 1 13
REMARK Flexibility Score: inf
ROOT
ATOM      1  C   UNL     1     162.323 162.562 134.183  1.00  0.00     0.199 A 
ATOM      2  N   UNL     1     161.276 162.796 133.345  1.00  0.00    -0.217 NA
ATOM      3  C   UNL     1     161.388 164.114 133.112  1.00  0.00     0.182 A 
ATOM      4  N   UNL     1     160.579 164.867 132.328  1.00  0.00    -0.215 NA
ATOM      5  C   UNL     1     160.854 166.202 132.212  1.00  0.00     0.226 A 
ATOM      6  N   UNL     1     161.920 166.754 132.875  1.00  0.00    -0.217 NA
ATOM      7  C   UNL     1     162.736 165.995 133.666  1.00  0.00     0.152 A 
ATOM      8  C   UNL     1     162.444 164.638 133.774  1.00  0.00     0.127 A 
ATOM      9  N   UNL     1     163.056 163.668 134.464  1.00  0.00    -0.340 N 
ATOM     10  H   UNL     1     163.898 163.735 135.076  1.00  0.00     0.168 HD
ENDROOT
BRANCH   7  11
ATOM     11  N   UNL     1     163.841 166.592 134.348  1.00  0.00    -0.382 N 
ATOM     12  H   UNL     1     163.791 167.591 134.648  1.00  0.00     0.158 HD
ATOM     13  H   UNL     1     164.708 166.051 134.557  1.00  0.00     0.158 HD
ENDBRANCH   7  11
TORSDOF 1
ENDMDL
MODEL 4
REMARK VINA RESULT:    -4.029      1.353      3.094
REMARK INTER + INTRA:          -4.147
REMARK INTER:                  -4.147
REMARK INTRA:                   0.000
REMARK UNBOUND:                 0.000
REMARK SMILES Nc1ncnc2nc[nH]c12
REMARK SMILES IDX 8 1 7 2 6 3 5 4 4 5 3 6 2 7 10 8 9 9 1 11
REMARK H PARENT 9 10 1 12 1 13
REMARK Flexibility Score: inf
ROOT
ATOM      1  C   UNL     1     160.339 162.668 132.822  1.00  0.00     0.199 A 
ATOM      2  N   UNL     1     161.431 162.538 133.624  1.00  0.00    -0.217 NA
ATOM      3  C   UNL     1     161.900 163.795 133.672  1.00  0.00     0.182 A 
ATOM      4  N   UNL     1     162.993 164.224 134.348  1.00  0.00    -0.215 NA
ATOM      5  C   UNL     1     163.316 165.551 134.278  1.00  0.00     0.226 A 
ATOM      6  N   UNL     1     162.548 166.416 133.540  1.00  0.00    -0.217 NA
ATOM      7  C   UNL     1     161.446 165.985 132.858  1.00  0.00     0.152 A 
ATOM      8  C   UNL     1     161.130 164.631 132.940  1.00  0.00     0.127 A 
ATOM      9  N   UNL     1     160.128 163.936 132.388  1.00  0.00    -0.340 N 
ATOM     10  H   UNL     1     159.360 164.278 131.769  1.00  0.00     0.168 HD
ENDROOT
BRANCH   7  11
ATOM     11  N   UNL     1     160.661 166.904 132.096  1.00  0.00    -0.382 N 
ATOM     12  H   UNL     1     159.649 166.711 131.929  1.00  0.00     0.158 HD
ATOM     13  H   UNL     1     161.076 167.774 131.698  1.00  0.00     0.158 HD
ENDBRANCH   7  11
TORSDOF 1
ENDMDL
MODEL 5
REMARK VINA RESULT:    -4.022      9.616     10.268
REMARK INTER + INTRA:          -4.140
REMARK INTER:                  -4.140
REMARK INTRA:                   0.000
REMARK UNBOUND:                 0.000
REMARK SMILES Nc1ncnc2nc[nH]c12
REMARK SMILES IDX 8 1 7 2 6 3 5 4 4 5 3 6 2 7 10 8 9 9 1 11
REMARK H PARENT 9 10 1 12 1 13
REMARK Flexibility Score: inf
ROOT
ATOM      1  C   UNL     1     163.776 173.658 138.359  1.00  0.00     0.199 A 
ATOM      2  N   UNL     1     164.081 172.574 139.122  1.00  0.00    -0.217 NA
ATOM      3  C   UNL     1     162.954 172.398 139.831  1.00  0.00     0.182 A 
ATOM      4  N   UNL     1     162.724 171.437 140.758  1.00  0.00    -0.215 NA
ATOM      5  C   UNL     1     161.506 171.418 141.380  1.00  0.00     0.226 A 
ATOM      6  N   UNL     1     160.551 172.352 141.067  1.00  0.00    -0.217 NA
ATOM      7  C   UNL     1     160.782 173.322 140.133  1.00  0.00     0.152 A 
ATOM      8  C   UNL     1     162.026 173.328 139.509  1.00  0.00     0.127 A 
ATOM      9  N   UNL     1     162.527 174.142 138.571  1.00  0.00    -0.340 N 
ATOM     10  H   UNL     1     162.073 174.959 138.108  1.00  0.00     0.168 HD
ENDROOT
BRANCH   7  11
ATOM     11  N   UNL     1     159.771 174.284 139.824  1.00  0.00    -0.382 N 
ATOM     12  H   UNL     1     158.807 174.168 140.207  1.00  0.00     0.158 HD
ATOM     13  H   UNL     1     159.973 175.109 139.218  1.00  0.00     0.158 HD
ENDBRANCH   7  11
TORSDOF 1
ENDMDL
MODEL 6
REMARK VINA RESULT:    -3.929      1.243      2.893
REMARK INTER + INTRA:          -4.044
REMARK INTER:                  -4.044
REMARK INTRA:                   0.000
REMARK UNBOUND:                 0.000
REMARK SMILES Nc1ncnc2nc[nH]c12
REMARK SMILES IDX 8 1 7 2 6 3 5 4 4 5 3 6 2 7 10 8 9 9 1 11
REMARK H PARENT 9 10 1 12 1 13
REMARK Flexibility Score: inf
ROOT
ATOM      1  C   UNL     1     161.063 166.525 131.925  1.00  0.00     0.199 A 
ATOM      2  N   UNL     1     162.238 166.383 132.598  1.00  0.00    -0.217 NA
ATOM      3  C   UNL     1     162.140 165.134 133.081  1.00  0.00     0.182 A 
ATOM      4  N   UNL     1     163.059 164.486 133.837  1.00  0.00    -0.215 NA
ATOM      5  C   UNL     1     162.780 163.208 134.236  1.00  0.00     0.226 A 
ATOM      6  N   UNL     1     161.600 162.608 133.877  1.00  0.00    -0.217 NA
ATOM      7  C   UNL     1     160.673 163.260 133.114  1.00  0.00     0.152 A 
ATOM      8  C   UNL     1     160.971 164.560 132.715  1.00  0.00     0.127 A 
ATOM      9  N   UNL     1     160.268 165.428 131.977  1.00  0.00    -0.340 N 
ATOM     10  H   UNL     1     159.329 165.301 131.540  1.00  0.00     0.168 HD
ENDROOT
BRANCH   7  11
ATOM     11  N   UNL     1     159.451 162.615 132.751  1.00  0.00    -0.382 N 
ATOM     12  H   UNL     1     158.971 162.871 131.860  1.00  0.00     0.158 HD
ATOM     13  H   UNL     1     159.018 161.886 133.360  1.00  0.00     0.158 HD
ENDBRANCH   7  11
TORSDOF 1
ENDMDL
MODEL 7
REMARK VINA RESULT:    -3.852      1.945      2.832
REMARK INTER + INTRA:          -3.965
REMARK INTER:                  -3.965
REMARK INTRA:                   0.000
REMARK UNBOUND:                 0.000
REMARK SMILES Nc1ncnc2nc[nH]c12
REMARK SMILES IDX 8 1 7 2 6 3 5 4 4 5 3 6 2 7 10 8 9 9 1 11
REMARK H PARENT 9 10 1 12 1 13
REMARK Flexibility Score: inf
ROOT
ATOM      1  C   UNL     1     161.390 161.925 133.386  1.00  0.00     0.199 A 
ATOM      2  N   UNL     1     160.704 162.720 134.251  1.00  0.00    -0.217 NA
ATOM      3  C   UNL     1     161.479 163.816 134.307  1.00  0.00     0.182 A 
ATOM      4  N   UNL     1     161.249 164.932 135.039  1.00  0.00    -0.215 NA
ATOM      5  C   UNL     1     162.158 165.951 134.965  1.00  0.00     0.226 A 
ATOM      6  N   UNL     1     163.270 165.836 134.169  1.00  0.00    -0.217 NA
ATOM      7  C   UNL     1     163.503 164.711 133.431  1.00  0.00     0.152 A 
ATOM      8  C   UNL     1     162.568 163.682 133.517  1.00  0.00     0.127 A 
ATOM      9  N   UNL     1     162.533 162.485 132.918  1.00  0.00    -0.340 N 
ATOM     10  H   UNL     1     163.218 162.070 132.249  1.00  0.00     0.168 HD
ENDROOT
BRANCH   7  11
ATOM     11  N   UNL     1     164.668 164.613 132.609  1.00  0.00    -0.382 N 
ATOM     12  H   UNL     1     165.538 164.178 132.988  1.00  0.00     0.158 HD
ATOM     13  H   UNL     1     164.674 164.969 131.629  1.00  0.00     0.158 HD
ENDBRANCH   7  11
TORSDOF 1
ENDMDL
MODEL 8
REMARK VINA RESULT:    -3.851      1.317      3.896
REMARK INTER + INTRA:          -3.963
REMARK INTER:                  -3.963
REMARK INTRA:                   0.000
REMARK UNBOUND:                 0.000
REMARK SMILES Nc1ncnc2nc[nH]c12
REMARK SMILES IDX 8 1 7 2 6 3 5 4 4 5 3 6 2 7 10 8 9 9 1 11
REMARK H PARENT 9 10 1 12 1 13
REMARK Flexibility Score: inf
ROOT
ATOM      1  C   UNL     1     163.787 163.098 134.227  1.00  0.00     0.199 A 
ATOM      2  N   UNL     1     164.094 164.372 133.859  1.00  0.00    -0.217 NA
ATOM      3  C   UNL     1     162.943 164.795 133.311  1.00  0.00     0.182 A 
ATOM      4  N   UNL     1     162.704 166.016 132.776  1.00  0.00    -0.215 NA
ATOM      5  C   UNL     1     161.461 166.264 132.263  1.00  0.00     0.226 A 
ATOM      6  N   UNL     1     160.490 165.295 132.293  1.00  0.00    -0.217 NA
ATOM      7  C   UNL     1     160.729 164.063 132.832  1.00  0.00     0.152 A 
ATOM      8  C   UNL     1     162.000 163.826 133.351  1.00  0.00     0.127 A 
ATOM      9  N   UNL     1     162.514 162.735 133.931  1.00  0.00    -0.340 N 
ATOM     10  H   UNL     1     162.055 161.817 134.116  1.00  0.00     0.168 HD
ENDROOT
BRANCH   7  11
ATOM     11  N   UNL     1     159.703 163.069 132.853  1.00  0.00    -0.382 N 
ATOM     12  H   UNL     1     159.337 162.679 131.956  1.00  0.00     0.158 HD
ATOM     13  H   UNL     1     159.303 162.719 133.750  1.00  0.00     0.158 HD
ENDBRANCH   7  11
TORSDOF 1
ENDMDL
MODEL 9
REMARK VINA RESULT:    -3.799      2.044      3.075
REMARK INTER + INTRA:          -3.910
REMARK INTER:                  -3.910
REMARK INTRA:                   0.000
REMARK UNBOUND:                 0.000
REMARK SMILES Nc1ncnc2nc[nH]c12
REMARK SMILES IDX 8 1 7 2 6 3 5 4 4 5 3 6 2 7 10 8 9 9 1 11
REMARK H PARENT 9 10 1 12 1 13
REMARK Flexibility Score: inf
ROOT
ATOM      1  C   UNL     1     161.401 165.602 137.436  1.00  0.00     0.199 A 
ATOM      2  N   UNL     1     160.638 164.746 136.703  1.00  0.00    -0.217 NA
ATOM      3  C   UNL     1     161.200 164.834 135.486  1.00  0.00     0.182 A 
ATOM      4  N   UNL     1     160.815 164.172 134.369  1.00  0.00    -0.215 NA
ATOM      5  C   UNL     1     161.516 164.393 133.215  1.00  0.00     0.226 A 
ATOM      6  N   UNL     1     162.577 165.262 133.200  1.00  0.00    -0.217 NA
ATOM      7  C   UNL     1     162.966 165.930 134.327  1.00  0.00     0.152 A 
ATOM      8  C   UNL     1     162.243 165.695 135.493  1.00  0.00     0.127 A 
ATOM      9  N   UNL     1     162.391 166.197 136.726  1.00  0.00    -0.340 N 
ATOM     10  H   UNL     1     163.096 166.884 137.069  1.00  0.00     0.168 HD
ENDROOT
BRANCH   7  11
ATOM     11  N   UNL     1     164.074 166.831 134.287  1.00  0.00    -0.382 N 
ATOM     12  H   UNL     1     164.182 167.490 133.485  1.00  0.00     0.158 HD
ATOM     13  H   UNL     1     164.788 166.849 135.048  1.00  0.00     0.158 HD
ENDBRANCH   7  11
TORSDOF 1
ENDMDL
