MODEL 1
REMARK VINA RESULT:    -3.349      0.000      0.000
REMARK INTER + INTRA:          -7.077
REMARK INTER:                  -5.895
REMARK INTRA:                  -1.182
REMARK UNBOUND:                -1.182
REMARK SMILES CCCCCCCCCCCCCCC(=O)[O-]
REMARK SMILES IDX 9 1 10 2 11 3 12 4 13 5 14 6 15 7 16 8 17 9 8 10 7 11 6 12
REMARK SMILES IDX 5 13 4 14 3 15 2 16 1 17
REMARK H PARENT
REMARK Flexibility Score: inf
ROOT
ATOM      1  C   UNL     1       8.892  -5.976  -6.989  1.00  0.00     0.000 C 
ENDROOT
BRANCH   1   2
ATOM      2  C   UNL     1       9.485  -5.398  -8.286  1.00  0.00     0.000 C 
BRANCH   2   3
ATOM      3  C   UNL     1       8.458  -5.307  -9.424  1.00  0.00     0.000 C 
BRANCH   3   4
ATOM      4  C   UNL     1       8.036  -3.853  -9.666  1.00  0.00     0.000 C 
BRANCH   4   5
ATOM      5  C   UNL     1       6.572  -3.773 -10.122  1.00  0.00     0.006 C 
BRANCH   5   6
ATOM      6  C   UNL     1       5.591  -4.121  -8.995  1.00  0.00     0.053 C 
BRANCH   6   7
ATOM      7  C   UNL     1       4.201  -3.660  -9.308  1.00  0.00     0.041 C 
ATOM      8  O   UNL     1       3.828  -2.502  -8.982  1.00  0.00    -0.550 OA
ATOM      9  O   UNL     1       3.327  -4.499  -9.988  1.00  0.00    -0.550 OA
ENDBRANCH   6   7
ENDBRANCH   5   6
ENDBRANCH   4   5
ENDBRANCH   3   4
ENDBRANCH   2   3
ENDBRANCH   1   2
BRANCH   1  10
ATOM     10  C   UNL     1       9.105  -7.491  -6.790  1.00  0.00     0.000 C 
BRANCH  10  11
ATOM     11  C   UNL     1      10.392  -8.058  -7.417  1.00  0.00    -0.000 C 
BRANCH  11  12
ATOM     12  C   UNL     1      11.622  -7.884  -6.515  1.00  0.00    -0.000 C 
BRANCH  12  13
ATOM     13  C   UNL     1      11.229  -7.962  -5.031  1.00  0.00    -0.000 C 
BRANCH  13  14
ATOM     14  C   UNL     1      11.940  -6.892  -4.184  1.00  0.00    -0.000 C 
BRANCH  14  15
ATOM     15  C   UNL     1      11.982  -5.504  -4.863  1.00  0.00    -0.000 C 
BRANCH  15  16
ATOM     16  C   UNL     1      11.550  -4.355  -3.936  1.00  0.00    -0.003 C 
ATOM     17  C   UNL     1      10.970  -4.846  -2.612  1.00  0.00     0.004 C 
ENDBRANCH  15  16
ENDBRANCH  14  15
ENDBRANCH  13  14
ENDBRANCH  12  13
ENDBRANCH  11  12
ENDBRANCH  10  11
ENDBRANCH   1  10
TORSDOF 13
ENDMDL
MODEL 2
REMARK VINA RESULT:    -2.967      3.639      7.391
REMARK INTER + INTRA:          -6.404
REMARK INTER:                  -5.610
REMARK INTRA:                  -0.793
REMARK UNBOUND:                -1.182
REMARK SMILES CCCCCCCCCCCCCCC(=O)[O-]
REMARK SMILES IDX 9 1 10 2 11 3 12 4 13 5 14 6 15 7 16 8 17 9 8 10 7 11 6 12
REMARK SMILES IDX 5 13 4 14 3 15 2 16 1 17
REMARK H PARENT
REMARK Flexibility Score: inf
ROOT
ATOM      1  C   UNL     1       9.228  -5.857  -7.568  1.00  0.00     0.000 C 
ENDROOT
BRANCH   1   2
ATOM      2  C   UNL     1       8.784  -6.744  -6.393  1.00  0.00     0.000 C 
BRANCH   2   3
ATOM      3  C   UNL     1       9.521  -8.090  -6.349  1.00  0.00     0.000 C 
BRANCH   3   4
ATOM      4  C   UNL     1      11.011  -7.910  -6.659  1.00  0.00     0.000 C 
BRANCH   4   5
ATOM      5  C   UNL     1      11.819  -7.680  -5.373  1.00  0.00     0.006 C 
BRANCH   5   6
ATOM      6  C   UNL     1      11.696  -6.241  -4.858  1.00  0.00     0.053 C 
BRANCH   6   7
ATOM      7  C   UNL     1      11.253  -6.199  -3.428  1.00  0.00     0.041 C 
ATOM      8  O   UNL     1      11.005  -7.268  -2.808  1.00  0.00    -0.550 OA
ATOM      9  O   UNL     1      11.144  -4.981  -2.769  1.00  0.00    -0.550 OA
ENDBRANCH   6   7
ENDBRANCH   5   6
ENDBRANCH   4   5
ENDBRANCH   3   4
ENDBRANCH   2   3
ENDBRANCH   1   2
BRANCH   1  10
ATOM     10  C   UNL     1       8.965  -6.446  -8.969  1.00  0.00     0.000 C 
BRANCH  10  11
ATOM     11  C   UNL     1       9.013  -5.430 -10.125  1.00  0.00    -0.000 C 
BRANCH  11  12
ATOM     12  C   UNL     1       9.213  -3.986  -9.643  1.00  0.00    -0.000 C 
BRANCH  12  13
ATOM     13  C   UNL     1       7.969  -3.133  -9.936  1.00  0.00    -0.000 C 
BRANCH  13  14
ATOM     14  C   UNL     1       6.706  -3.991 -10.125  1.00  0.00    -0.000 C 
BRANCH  14  15
ATOM     15  C   UNL     1       5.777  -3.990  -8.890  1.00  0.00    -0.000 C 
BRANCH  15  16
ATOM     16  C   UNL     1       4.379  -3.415  -9.176  1.00  0.00    -0.003 C 
ATOM     17  C   UNL     1       3.490  -4.378  -9.960  1.00  0.00     0.004 C 
ENDBRANCH  15  16
ENDBRANCH  14  15
ENDBRANCH  13  14
ENDBRANCH  12  13
ENDBRANCH  11  12
ENDBRANCH  10  11
ENDBRANCH   1  10
TORSDOF 13
ENDMDL
MODEL 3
REMARK VINA RESULT:    -2.281     14.290     16.267
REMARK INTER + INTRA:          -5.197
REMARK INTER:                  -4.281
REMARK INTRA:                  -0.916
REMARK UNBOUND:                -1.182
REMARK SMILES CCCCCCCCCCCCCCC(=O)[O-]
REMARK SMILES IDX 9 1 10 2 11 3 12 4 13 5 14 6 15 7 16 8 17 9 8 10 7 11 6 12
REMARK SMILES IDX 5 13 4 14 3 15 2 16 1 17
REMARK H PARENT
REMARK Flexibility Score: inf
ROOT
ATOM      1  C   UNL     1      -7.290  -3.911  -5.490  1.00  0.00     0.000 C 
ENDROOT
BRANCH   1   2
ATOM      2  C   UNL     1      -8.016  -2.596  -5.158  1.00  0.00     0.000 C 
BRANCH   2   3
ATOM      3  C   UNL     1      -8.050  -1.617  -6.340  1.00  0.00     0.000 C 
BRANCH   3   4
ATOM      4  C   UNL     1      -8.098  -2.370  -7.675  1.00  0.00     0.000 C 
BRANCH   4   5
ATOM      5  C   UNL     1      -7.797  -1.429  -8.850  1.00  0.00     0.006 C 
BRANCH   5   6
ATOM      6  C   UNL     1      -7.401  -2.192 -10.120  1.00  0.00     0.053 C 
BRANCH   6   7
ATOM      7  C   UNL     1      -6.096  -2.907  -9.953  1.00  0.00     0.041 C 
ATOM      8  O   UNL     1      -5.010  -2.270 -10.007  1.00  0.00    -0.550 OA
ATOM      9  O   UNL     1      -6.079  -4.274  -9.706  1.00  0.00    -0.550 OA
ENDBRANCH   6   7
ENDBRANCH   5   6
ENDBRANCH   4   5
ENDBRANCH   3   4
ENDBRANCH   2   3
ENDBRANCH   1   2
BRANCH   1  10
ATOM     10  C   UNL     1      -8.125  -5.191  -5.280  1.00  0.00     0.000 C 
BRANCH  10  11
ATOM     11  C   UNL     1      -7.909  -6.292  -6.335  1.00  0.00    -0.000 C 
BRANCH  11  12
ATOM     12  C   UNL     1      -6.963  -7.401  -5.856  1.00  0.00    -0.000 C 
BRANCH  12  13
ATOM     13  C   UNL     1      -5.495  -6.980  -6.024  1.00  0.00    -0.000 C 
BRANCH  13  14
ATOM     14  C   UNL     1      -5.000  -7.157  -7.470  1.00  0.00    -0.000 C 
BRANCH  14  15
ATOM     15  C   UNL     1      -5.874  -8.125  -8.300  1.00  0.00    -0.000 C 
BRANCH  15  16
ATOM     16  C   UNL     1      -6.330  -7.537  -9.646  1.00  0.00    -0.003 C 
ATOM     17  C   UNL     1      -7.850  -7.489  -9.789  1.00  0.00     0.004 C 
ENDBRANCH  15  16
ENDBRANCH  14  15
ENDBRANCH  13  14
ENDBRANCH  12  13
ENDBRANCH  11  12
ENDBRANCH  10  11
ENDBRANCH   1  10
TORSDOF 13
ENDMDL
MODEL 4
REMARK VINA RESULT:    -2.185      3.747      6.693
REMARK INTER + INTRA:          -5.028
REMARK INTER:                  -3.723
REMARK INTRA:                  -1.305
REMARK UNBOUND:                -1.182
REMARK SMILES CCCCCCCCCCCCCCC(=O)[O-]
REMARK SMILES IDX 9 1 10 2 11 3 12 4 13 5 14 6 15 7 16 8 17 9 8 10 7 11 6 12
REMARK SMILES IDX 5 13 4 14 3 15 2 16 1 17
REMARK H PARENT
REMARK Flexibility Score: inf
ROOT
ATOM      1  C   UNL     1       8.116  -5.479  -6.777  1.00  0.00     0.000 C 
ENDROOT
BRANCH   1   2
ATOM      2  C   UNL     1       8.463  -6.924  -6.380  1.00  0.00     0.000 C 
BRANCH   2   3
ATOM      3  C   UNL     1       9.968  -7.220  -6.463  1.00  0.00     0.000 C 
BRANCH   3   4
ATOM      4  C   UNL     1      10.780  -6.140  -5.740  1.00  0.00     0.000 C 
BRANCH   4   5
ATOM      5  C   UNL     1      12.012  -6.745  -5.051  1.00  0.00     0.006 C 
BRANCH   5   6
ATOM      6  C   UNL     1      12.074  -6.398  -3.559  1.00  0.00     0.053 C 
BRANCH   6   7
ATOM      7  C   UNL     1      11.346  -5.125  -3.255  1.00  0.00     0.041 C 
ATOM      8  O   UNL     1      10.381  -5.123  -2.445  1.00  0.00    -0.550 OA
ATOM      9  O   UNL     1      11.753  -3.934  -3.843  1.00  0.00    -0.550 OA
ENDBRANCH   6   7
ENDBRANCH   5   6
ENDBRANCH   4   5
ENDBRANCH   3   4
ENDBRANCH   2   3
ENDBRANCH   1   2
BRANCH   1  10
ATOM     10  C   UNL     1       7.448  -5.321  -8.158  1.00  0.00     0.000 C 
BRANCH  10  11
ATOM     11  C   UNL     1       7.896  -4.088  -8.963  1.00  0.00    -0.000 C 
BRANCH  11  12
ATOM     12  C   UNL     1       8.916  -4.429 -10.059  1.00  0.00    -0.000 C 
BRANCH  12  13
ATOM     13  C   UNL     1      10.346  -4.428  -9.496  1.00  0.00    -0.000 C 
BRANCH  13  14
ATOM     14  C   UNL     1      11.219  -5.531 -10.121  1.00  0.00    -0.000 C 
BRANCH  14  15
ATOM     15  C   UNL     1      11.306  -6.807  -9.254  1.00  0.00    -0.000 C 
BRANCH  15  16
ATOM     16  C   UNL     1      10.804  -8.071  -9.971  1.00  0.00    -0.003 C 
ATOM     17  C   UNL     1       9.285  -8.103 -10.125  1.00  0.00     0.004 C 
ENDBRANCH  15  16
ENDBRANCH  14  15
ENDBRANCH  13  14
ENDBRANCH  12  13
ENDBRANCH  11  12
ENDBRANCH  10  11
ENDBRANCH   1  10
TORSDOF 13
ENDMDL
MODEL 5
REMARK VINA RESULT:    -2.122      3.596      6.961
REMARK INTER + INTRA:          -4.916
REMARK INTER:                  -4.279
REMARK INTRA:                  -0.637
REMARK UNBOUND:                -1.182
REMARK SMILES CCCCCCCCCCCCCCC(=O)[O-]
REMARK SMILES IDX 9 1 10 2 11 3 12 4 13 5 14 6 15 7 16 8 17 9 8 10 7 11 6 12
REMARK SMILES IDX 5 13 4 14 3 15 2 16 1 17
REMARK H PARENT
REMARK Flexibility Score: inf
ROOT
ATOM      1  C   UNL     1       8.917  -5.544  -6.083  1.00  0.00     0.000 C 
ENDROOT
BRANCH   1   2
ATOM      2  C   UNL     1      10.255  -6.300  -6.142  1.00  0.00     0.000 C 
BRANCH   2   3
ATOM      3  C   UNL     1      10.122  -7.781  -5.760  1.00  0.00     0.000 C 
BRANCH   3   4
ATOM      4  C   UNL     1      10.978  -8.109  -4.531  1.00  0.00     0.000 C 
BRANCH   4   5
ATOM      5  C   UNL     1      12.119  -7.095  -4.366  1.00  0.00     0.006 C 
BRANCH   5   6
ATOM      6  C   UNL     1      12.120  -6.439  -2.980  1.00  0.00     0.053 C 
BRANCH   6   7
ATOM      7  C   UNL     1      11.285  -5.196  -2.954  1.00  0.00     0.041 C 
ATOM      8  O   UNL     1      10.118  -5.225  -2.480  1.00  0.00    -0.550 OA
ATOM      9  O   UNL     1      11.807  -3.998  -3.425  1.00  0.00    -0.550 OA
ENDBRANCH   6   7
ENDBRANCH   5   6
ENDBRANCH   4   5
ENDBRANCH   3   4
ENDBRANCH   2   3
ENDBRANCH   1   2
BRANCH   1  10
ATOM     10  C   UNL     1       8.068  -5.614  -7.369  1.00  0.00     0.000 C 
BRANCH  10  11
ATOM     11  C   UNL     1       6.998  -4.515  -7.505  1.00  0.00    -0.000 C 
BRANCH  11  12
ATOM     12  C   UNL     1       6.459  -4.381  -8.936  1.00  0.00    -0.000 C 
BRANCH  12  13
ATOM     13  C   UNL     1       7.598  -4.477  -9.963  1.00  0.00    -0.000 C 
BRANCH  13  14
ATOM     14  C   UNL     1       8.856  -3.717  -9.510  1.00  0.00    -0.000 C 
BRANCH  14  15
ATOM     15  C   UNL     1      10.160  -4.274 -10.125  1.00  0.00    -0.000 C 
BRANCH  15  16
ATOM     16  C   UNL     1      11.054  -5.004  -9.109  1.00  0.00    -0.003 C 
ATOM     17  C   UNL     1      11.934  -6.074  -9.752  1.00  0.00     0.004 C 
ENDBRANCH  15  16
ENDBRANCH  14  15
ENDBRANCH  13  14
ENDBRANCH  12  13
ENDBRANCH  11  12
ENDBRANCH  10  11
ENDBRANCH   1  10
TORSDOF 13
ENDMDL
MODEL 6
REMARK VINA RESULT:    -2.105     14.480     15.868
REMARK INTER + INTRA:          -4.887
REMARK INTER:                  -3.480
REMARK INTRA:                  -1.407
REMARK UNBOUND:                -1.182
REMARK SMILES CCCCCCCCCCCCCCC(=O)[O-]
REMARK SMILES IDX 9 1 10 2 11 3 12 4 13 5 14 6 15 7 16 8 17 9 8 10 7 11 6 12
REMARK SMILES IDX 5 13 4 14 3 15 2 16 1 17
REMARK H PARENT
REMARK Flexibility Score: inf
ROOT
ATOM      1  C   UNL     1      -8.089  -8.117  -8.220  1.00  0.00     0.000 C 
ENDROOT
BRANCH   1   2
ATOM      2  C   UNL     1      -6.939  -8.122  -9.241  1.00  0.00     0.000 C 
BRANCH   2   3
ATOM      3  C   UNL     1      -6.844  -6.815 -10.041  1.00  0.00     0.000 C 
BRANCH   3   4
ATOM      4  C   UNL     1      -8.121  -5.982  -9.883  1.00  0.00     0.000 C 
BRANCH   4   5
ATOM      5  C   UNL     1      -7.838  -4.490 -10.112  1.00  0.00     0.006 C 
BRANCH   5   6
ATOM      6  C   UNL     1      -6.447  -4.079  -9.615  1.00  0.00     0.053 C 
BRANCH   6   7
ATOM      7  C   UNL     1      -6.139  -2.651  -9.945  1.00  0.00     0.041 C 
ATOM      8  O   UNL     1      -4.948  -2.282 -10.124  1.00  0.00    -0.550 OA
ATOM      9  O   UNL     1      -7.172  -1.732 -10.087  1.00  0.00    -0.550 OA
ENDBRANCH   6   7
ENDBRANCH   5   6
ENDBRANCH   4   5
ENDBRANCH   3   4
ENDBRANCH   2   3
ENDBRANCH   1   2
BRANCH   1  10
ATOM     10  C   UNL     1      -7.701  -7.662  -6.798  1.00  0.00     0.000 C 
BRANCH  10  11
ATOM     11  C   UNL     1      -6.190  -7.665  -6.502  1.00  0.00    -0.000 C 
BRANCH  11  12
ATOM     12  C   UNL     1      -5.876  -7.610  -5.000  1.00  0.00    -0.000 C 
BRANCH  12  13
ATOM     13  C   UNL     1      -5.159  -6.300  -4.637  1.00  0.00    -0.000 C 
BRANCH  13  14
ATOM     14  C   UNL     1      -5.664  -5.110  -5.471  1.00  0.00    -0.000 C 
BRANCH  14  15
ATOM     15  C   UNL     1      -6.726  -4.258  -4.739  1.00  0.00    -0.000 C 
BRANCH  15  16
ATOM     16  C   UNL     1      -7.867  -3.784  -5.654  1.00  0.00    -0.003 C 
ATOM     17  C   UNL     1      -7.530  -2.498  -6.407  1.00  0.00     0.004 C 
ENDBRANCH  15  16
ENDBRANCH  14  15
ENDBRANCH  13  14
ENDBRANCH  12  13
ENDBRANCH  11  12
ENDBRANCH  10  11
ENDBRANCH   1  10
TORSDOF 13
ENDMDL
