MODEL 1
REMARK VINA RESULT:    -3.567      0.000      0.000
REMARK INTER + INTRA:          -6.977
REMARK INTER:                  -5.653
REMARK INTRA:                  -1.324
REMARK UNBOUND:                -1.324
REMARK SMILES CCCCCCCCCCCC(=O)[O-]
REMARK SMILES IDX 7 1 8 2 9 3 10 4 11 5 12 6 13 7 14 8 6 9 5 10 4 11 3 12 2 13
REMARK SMILES IDX 1 14
REMARK H PARENT
REMARK Flexibility Score: inf
ROOT
ATOM      1  C   UNL     1      30.526  51.140  38.414  1.00  0.00     0.000 C 
ENDROOT
BRANCH   1   2
ATOM      2  C   UNL     1      30.504  50.397  39.755  1.00  0.00     0.000 C 
BRANCH   2   3
ATOM      3  C   UNL     1      29.283  49.475  39.853  1.00  0.00     0.000 C 
BRANCH   3   4
ATOM      4  C   UNL     1      29.148  48.888  41.263  1.00  0.00     0.006 C 
BRANCH   4   5
ATOM      5  C   UNL     1      30.439  48.185  41.692  1.00  0.00     0.053 C 
BRANCH   5   6
ATOM      6  C   UNL     1      30.459  46.775  41.193  1.00  0.00     0.041 C 
ATOM      7  O   UNL     1      29.380  46.156  40.997  1.00  0.00    -0.550 OA
ATOM      8  O   UNL     1      31.671  46.127  40.990  1.00  0.00    -0.550 OA
ENDBRANCH   5   6
ENDBRANCH   4   5
ENDBRANCH   3   4
ENDBRANCH   2   3
ENDBRANCH   1   2
BRANCH   1   9
ATOM      9  C   UNL     1      29.975  52.564  38.564  1.00  0.00     0.000 C 
BRANCH   9  10
ATOM     10  C   UNL     1      28.552  52.665  38.002  1.00  0.00    -0.000 C 
BRANCH  10  11
ATOM     11  C   UNL     1      27.546  53.005  39.112  1.00  0.00    -0.000 C 
BRANCH  11  12
ATOM     12  C   UNL     1      28.231  53.388  40.433  1.00  0.00    -0.000 C 
BRANCH  12  13
ATOM     13  C   UNL     1      27.714  52.570  41.626  1.00  0.00    -0.003 C 
ATOM     14  C   UNL     1      26.508  51.722  41.228  1.00  0.00     0.004 C 
ENDBRANCH  12  13
ENDBRANCH  11  12
ENDBRANCH  10  11
ENDBRANCH   9  10
ENDBRANCH   1   9
TORSDOF 10
ENDMDL
MODEL 2
REMARK VINA RESULT:    -3.321      2.952      5.355
REMARK INTER + INTRA:          -6.587
REMARK INTER:                  -5.696
REMARK INTRA:                  -0.891
REMARK UNBOUND:                -1.324
REMARK SMILES CCCCCCCCCCCC(=O)[O-]
REMARK SMILES IDX 7 1 8 2 9 3 10 4 11 5 12 6 13 7 14 8 6 9 5 10 4 11 3 12 2 13
REMARK SMILES IDX 1 14
REMARK H PARENT
REMARK Flexibility Score: inf
ROOT
ATOM      1  C   UNL     1      29.883  52.489  38.659  1.00  0.00     0.000 C 
ENDROOT
BRANCH   1   2
ATOM      2  C   UNL     1      28.509  52.574  37.983  1.00  0.00     0.000 C 
BRANCH   2   3
ATOM      3  C   UNL     1      27.428  52.998  38.985  1.00  0.00     0.000 C 
BRANCH   3   4
ATOM      4  C   UNL     1      27.314  51.989  40.133  1.00  0.00     0.006 C 
BRANCH   4   5
ATOM      5  C   UNL     1      27.096  52.700  41.471  1.00  0.00     0.053 C 
BRANCH   5   6
ATOM      6  C   UNL     1      28.361  53.354  41.929  1.00  0.00     0.041 C 
ATOM      7  O   UNL     1      28.407  54.601  42.095  1.00  0.00    -0.550 OA
ATOM      8  O   UNL     1      29.506  52.591  42.125  1.00  0.00    -0.550 OA
ENDBRANCH   5   6
ENDBRANCH   4   5
ENDBRANCH   3   4
ENDBRANCH   2   3
ENDBRANCH   1   2
BRANCH   1   9
ATOM      9  C   UNL     1      30.508  51.103  38.463  1.00  0.00     0.000 C 
BRANCH   9  10
ATOM     10  C   UNL     1      30.648  50.368  39.802  1.00  0.00    -0.000 C 
BRANCH  10  11
ATOM     11  C   UNL     1      29.635  49.218  39.904  1.00  0.00    -0.000 C 
BRANCH  11  12
ATOM     12  C   UNL     1      29.894  48.307  41.115  1.00  0.00    -0.000 C 
BRANCH  12  13
ATOM     13  C   UNL     1      29.872  46.816  40.749  1.00  0.00    -0.003 C 
ATOM     14  C   UNL     1      31.190  46.140  41.118  1.00  0.00     0.004 C 
ENDBRANCH  12  13
ENDBRANCH  11  12
ENDBRANCH  10  11
ENDBRANCH   9  10
ENDBRANCH   1   9
TORSDOF 10
ENDMDL
MODEL 3
REMARK VINA RESULT:    -3.221     16.336     17.571
REMARK INTER + INTRA:          -6.428
REMARK INTER:                  -5.452
REMARK INTRA:                  -0.976
REMARK UNBOUND:                -1.324
REMARK SMILES CCCCCCCCCCCC(=O)[O-]
REMARK SMILES IDX 7 1 8 2 9 3 10 4 11 5 12 6 13 7 14 8 6 9 5 10 4 11 3 12 2 13
REMARK SMILES IDX 1 14
REMARK H PARENT
REMARK Flexibility Score: inf
ROOT
ATOM      1  C   UNL     1      25.659  41.395  24.273  1.00  0.00     0.000 C 
ENDROOT
BRANCH   1   2
ATOM      2  C   UNL     1      26.559  42.345  25.073  1.00  0.00     0.000 C 
BRANCH   2   3
ATOM      3  C   UNL     1      26.688  41.885  26.529  1.00  0.00     0.000 C 
BRANCH   3   4
ATOM      4  C   UNL     1      27.946  42.470  27.183  1.00  0.00     0.006 C 
BRANCH   4   5
ATOM      5  C   UNL     1      28.553  43.574  26.314  1.00  0.00     0.053 C 
BRANCH   5   6
ATOM      6  C   UNL     1      30.034  43.395  26.198  1.00  0.00     0.041 C 
ATOM      7  O   UNL     1      30.772  44.376  25.923  1.00  0.00    -0.550 OA
ATOM      8  O   UNL     1      30.594  42.131  26.344  1.00  0.00    -0.550 OA
ENDBRANCH   5   6
ENDBRANCH   4   5
ENDBRANCH   3   4
ENDBRANCH   2   3
ENDBRANCH   1   2
BRANCH   1   9
ATOM      9  C   UNL     1      25.164  40.237  25.148  1.00  0.00     0.000 C 
BRANCH   9  10
ATOM     10  C   UNL     1      25.511  38.883  24.516  1.00  0.00    -0.000 C 
BRANCH  10  11
ATOM     11  C   UNL     1      25.646  37.795  25.591  1.00  0.00    -0.000 C 
BRANCH  11  12
ATOM     12  C   UNL     1      26.305  38.314  26.879  1.00  0.00    -0.000 C 
BRANCH  12  13
ATOM     13  C   UNL     1      25.369  38.237  28.095  1.00  0.00    -0.003 C 
ATOM     14  C   UNL     1      25.598  39.414  29.039  1.00  0.00     0.004 C 
ENDBRANCH  12  13
ENDBRANCH  11  12
ENDBRANCH  10  11
ENDBRANCH   9  10
ENDBRANCH   1   9
TORSDOF 10
ENDMDL
MODEL 4
REMARK VINA RESULT:    -3.201     16.961     18.288
REMARK INTER + INTRA:          -6.396
REMARK INTER:                  -5.236
REMARK INTRA:                  -1.161
REMARK UNBOUND:                -1.324
REMARK SMILES CCCCCCCCCCCC(=O)[O-]
REMARK SMILES IDX 7 1 8 2 9 3 10 4 11 5 12 6 13 7 14 8 6 9 5 10 4 11 3 12 2 13
REMARK SMILES IDX 1 14
REMARK H PARENT
REMARK Flexibility Score: inf
ROOT
ATOM      1  C   UNL     1      24.875  39.854  26.143  1.00  0.00     0.000 C 
ENDROOT
BRANCH   1   2
ATOM      2  C   UNL     1      25.747  40.762  27.019  1.00  0.00     0.000 C 
BRANCH   2   3
ATOM      3  C   UNL     1      27.062  41.110  26.313  1.00  0.00     0.000 C 
BRANCH   3   4
ATOM      4  C   UNL     1      27.737  42.320  26.971  1.00  0.00     0.006 C 
BRANCH   4   5
ATOM      5  C   UNL     1      28.523  43.137  25.942  1.00  0.00     0.053 C 
BRANCH   5   6
ATOM      6  C   UNL     1      29.931  43.346  26.405  1.00  0.00     0.041 C 
ATOM      7  O   UNL     1      30.450  42.555  27.234  1.00  0.00    -0.550 OA
ATOM      8  O   UNL     1      30.653  44.445  25.956  1.00  0.00    -0.550 OA
ENDBRANCH   5   6
ENDBRANCH   4   5
ENDBRANCH   3   4
ENDBRANCH   2   3
ENDBRANCH   1   2
BRANCH   1   9
ATOM      9  C   UNL     1      24.962  40.263  24.668  1.00  0.00     0.000 C 
BRANCH   9  10
ATOM     10  C   UNL     1      25.137  39.036  23.765  1.00  0.00    -0.000 C 
BRANCH  10  11
ATOM     11  C   UNL     1      25.629  37.826  24.574  1.00  0.00    -0.000 C 
BRANCH  11  12
ATOM     12  C   UNL     1      27.076  37.436  24.233  1.00  0.00    -0.000 C 
BRANCH  12  13
ATOM     13  C   UNL     1      28.000  37.461  25.459  1.00  0.00    -0.003 C 
ATOM     14  C   UNL     1      27.223  37.159  26.738  1.00  0.00     0.004 C 
ENDBRANCH  12  13
ENDBRANCH  11  12
ENDBRANCH  10  11
ENDBRANCH   9  10
ENDBRANCH   1   9
TORSDOF 10
ENDMDL
MODEL 5
REMARK VINA RESULT:    -3.190     15.882     17.000
REMARK INTER + INTRA:          -6.379
REMARK INTER:                  -5.460
REMARK INTRA:                  -0.919
REMARK UNBOUND:                -1.324
REMARK SMILES CCCCCCCCCCCC(=O)[O-]
REMARK SMILES IDX 7 1 8 2 9 3 10 4 11 5 12 6 13 7 14 8 6 9 5 10 4 11 3 12 2 13
REMARK SMILES IDX 1 14
REMARK H PARENT
REMARK Flexibility Score: inf
ROOT
ATOM      1  C   UNL     1      26.341  40.968  25.343  1.00  0.00     0.000 C 
ENDROOT
BRANCH   1   2
ATOM      2  C   UNL     1      25.069  40.310  24.792  1.00  0.00     0.000 C 
BRANCH   2   3
ATOM      3  C   UNL     1      24.941  38.863  25.281  1.00  0.00     0.000 C 
BRANCH   3   4
ATOM      4  C   UNL     1      25.978  38.554  26.367  1.00  0.00     0.006 C 
BRANCH   4   5
ATOM      5  C   UNL     1      25.298  38.129  27.671  1.00  0.00     0.053 C 
BRANCH   5   6
ATOM      6  C   UNL     1      25.467  39.184  28.718  1.00  0.00     0.041 C 
ATOM      7  O   UNL     1      25.039  40.351  28.517  1.00  0.00    -0.550 OA
ATOM      8  O   UNL     1      26.141  38.891  29.897  1.00  0.00    -0.550 OA
ENDBRANCH   5   6
ENDBRANCH   4   5
ENDBRANCH   3   4
ENDBRANCH   2   3
ENDBRANCH   1   2
BRANCH   1   9
ATOM      9  C   UNL     1      26.368  42.467  25.024  1.00  0.00     0.000 C 
BRANCH   9  10
ATOM     10  C   UNL     1      27.131  43.245  26.103  1.00  0.00    -0.000 C 
BRANCH  10  11
ATOM     11  C   UNL     1      27.846  42.288  27.068  1.00  0.00    -0.000 C 
BRANCH  11  12
ATOM     12  C   UNL     1      29.355  42.562  27.164  1.00  0.00    -0.000 C 
BRANCH  12  13
ATOM     13  C   UNL     1      29.972  42.951  25.813  1.00  0.00    -0.003 C 
ATOM     14  C   UNL     1      30.653  44.315  25.893  1.00  0.00     0.004 C 
ENDBRANCH  12  13
ENDBRANCH  11  12
ENDBRANCH  10  11
ENDBRANCH   9  10
ENDBRANCH   1   9
TORSDOF 10
ENDMDL
MODEL 6
REMARK VINA RESULT:    -3.164     16.294     17.751
REMARK INTER + INTRA:          -6.337
REMARK INTER:                  -5.333
REMARK INTRA:                  -1.004
REMARK UNBOUND:                -1.324
REMARK SMILES CCCCCCCCCCCC(=O)[O-]
REMARK SMILES IDX 7 1 8 2 9 3 10 4 11 5 12 6 13 7 14 8 6 9 5 10 4 11 3 12 2 13
REMARK SMILES IDX 1 14
REMARK H PARENT
REMARK Flexibility Score: inf
ROOT
ATOM      1  C   UNL     1      24.926  40.260  26.332  1.00  0.00     0.000 C 
ENDROOT
BRANCH   1   2
ATOM      2  C   UNL     1      25.962  41.262  25.809  1.00  0.00     0.000 C 
BRANCH   2   3
ATOM      3  C   UNL     1      26.398  42.231  26.913  1.00  0.00     0.000 C 
BRANCH   3   4
ATOM      4  C   UNL     1      27.926  42.281  27.030  1.00  0.00     0.006 C 
BRANCH   4   5
ATOM      5  C   UNL     1      28.487  43.542  26.366  1.00  0.00     0.053 C 
BRANCH   5   6
ATOM      6  C   UNL     1      29.967  43.425  26.187  1.00  0.00     0.041 C 
ATOM      7  O   UNL     1      30.615  44.357  25.641  1.00  0.00    -0.550 OA
ATOM      8  O   UNL     1      30.626  42.266  26.578  1.00  0.00    -0.550 OA
ENDBRANCH   5   6
ENDBRANCH   4   5
ENDBRANCH   3   4
ENDBRANCH   2   3
ENDBRANCH   1   2
BRANCH   1   9
ATOM      9  C   UNL     1      25.019  40.116  27.856  1.00  0.00     0.000 C 
BRANCH   9  10
ATOM     10  C   UNL     1      25.586  38.745  28.245  1.00  0.00    -0.000 C 
BRANCH  10  11
ATOM     11  C   UNL     1      25.690  37.826  27.019  1.00  0.00    -0.000 C 
BRANCH  11  12
ATOM     12  C   UNL     1      27.095  37.226  26.848  1.00  0.00    -0.000 C 
BRANCH  12  13
ATOM     13  C   UNL     1      27.755  37.634  25.523  1.00  0.00    -0.003 C 
ATOM     14  C   UNL     1      26.721  37.738  24.404  1.00  0.00     0.004 C 
ENDBRANCH  12  13
ENDBRANCH  11  12
ENDBRANCH  10  11
ENDBRANCH   9  10
ENDBRANCH   1   9
TORSDOF 10
ENDMDL
MODEL 7
REMARK VINA RESULT:    -3.042     17.048     18.069
REMARK INTER + INTRA:          -6.145
REMARK INTER:                  -5.251
REMARK INTRA:                  -0.894
REMARK UNBOUND:                -1.324
REMARK SMILES CCCCCCCCCCCC(=O)[O-]
REMARK SMILES IDX 7 1 8 2 9 3 10 4 11 5 12 6 13 7 14 8 6 9 5 10 4 11 3 12 2 13
REMARK SMILES IDX 1 14
REMARK H PARENT
REMARK Flexibility Score: inf
ROOT
ATOM      1  C   UNL     1      25.504  40.644  24.886  1.00  0.00     0.000 C 
ENDROOT
BRANCH   1   2
ATOM      2  C   UNL     1      25.307  40.532  26.403  1.00  0.00     0.000 C 
BRANCH   2   3
ATOM      3  C   UNL     1      26.069  39.329  26.971  1.00  0.00     0.000 C 
BRANCH   3   4
ATOM      4  C   UNL     1      26.056  38.154  25.986  1.00  0.00     0.006 C 
BRANCH   4   5
ATOM      5  C   UNL     1      27.468  37.604  25.769  1.00  0.00     0.053 C 
BRANCH   5   6
ATOM      6  C   UNL     1      27.714  37.350  24.315  1.00  0.00     0.041 C 
ATOM      7  O   UNL     1      26.773  37.454  23.485  1.00  0.00    -0.550 OA
ATOM      8  O   UNL     1      28.972  36.951  23.883  1.00  0.00    -0.550 OA
ENDBRANCH   5   6
ENDBRANCH   4   5
ENDBRANCH   3   4
ENDBRANCH   2   3
ENDBRANCH   1   2
BRANCH   1   9
ATOM      9  C   UNL     1      26.128  41.993  24.510  1.00  0.00     0.000 C 
BRANCH   9  10
ATOM     10  C   UNL     1      26.466  42.812  25.762  1.00  0.00    -0.000 C 
BRANCH  10  11
ATOM     11  C   UNL     1      27.956  43.184  25.789  1.00  0.00    -0.000 C 
BRANCH  11  12
ATOM     12  C   UNL     1      28.799  42.191  26.604  1.00  0.00    -0.000 C 
BRANCH  12  13
ATOM     13  C   UNL     1      30.195  42.737  26.940  1.00  0.00    -0.003 C 
ATOM     14  C   UNL     1      30.445  44.071  26.243  1.00  0.00     0.004 C 
ENDBRANCH  12  13
ENDBRANCH  11  12
ENDBRANCH  10  11
ENDBRANCH   9  10
ENDBRANCH   1   9
TORSDOF 10
ENDMDL
MODEL 8
REMARK VINA RESULT:    -2.966      0.956      2.819
REMARK INTER + INTRA:          -6.025
REMARK INTER:                  -4.717
REMARK INTRA:                  -1.308
REMARK UNBOUND:                -1.324
REMARK SMILES CCCCCCCCCCCC(=O)[O-]
REMARK SMILES IDX 7 1 8 2 9 3 10 4 11 5 12 6 13 7 14 8 6 9 5 10 4 11 3 12 2 13
REMARK SMILES IDX 1 14
REMARK H PARENT
REMARK Flexibility Score: inf
ROOT
ATOM      1  C   UNL     1      27.164  51.560  40.997  1.00  0.00     0.000 C 
ENDROOT
BRANCH   1   2
ATOM      2  C   UNL     1      27.862  50.254  41.395  1.00  0.00     0.000 C 
BRANCH   2   3
ATOM      3  C   UNL     1      29.287  50.522  41.893  1.00  0.00     0.000 C 
BRANCH   3   4
ATOM      4  C   UNL     1      30.213  49.342  41.573  1.00  0.00     0.006 C 
BRANCH   4   5
ATOM      5  C   UNL     1      29.537  48.357  40.616  1.00  0.00     0.053 C 
BRANCH   5   6
ATOM      6  C   UNL     1      29.961  46.955  40.922  1.00  0.00     0.041 C 
ATOM      7  O   UNL     1      29.102  46.082  41.213  1.00  0.00    -0.550 OA
ATOM      8  O   UNL     1      31.311  46.624  40.935  1.00  0.00    -0.550 OA
ENDBRANCH   5   6
ENDBRANCH   4   5
ENDBRANCH   3   4
ENDBRANCH   2   3
ENDBRANCH   1   2
BRANCH   1   9
ATOM      9  C   UNL     1      27.791  52.761  41.714  1.00  0.00     0.000 C 
BRANCH   9  10
ATOM     10  C   UNL     1      28.393  53.751  40.709  1.00  0.00    -0.000 C 
BRANCH  10  11
ATOM     11  C   UNL     1      28.095  53.316  39.266  1.00  0.00    -0.000 C 
BRANCH  11  12
ATOM     12  C   UNL     1      29.370  52.986  38.473  1.00  0.00    -0.000 C 
BRANCH  12  13
ATOM     13  C   UNL     1      29.632  51.476  38.376  1.00  0.00    -0.003 C 
ATOM     14  C   UNL     1      31.126  51.173  38.442  1.00  0.00     0.004 C 
ENDBRANCH  12  13
ENDBRANCH  11  12
ENDBRANCH  10  11
ENDBRANCH   9  10
ENDBRANCH   1   9
TORSDOF 10
ENDMDL
MODEL 9
REMARK VINA RESULT:    -2.736     15.230     16.814
REMARK INTER + INTRA:          -5.660
REMARK INTER:                  -4.999
REMARK INTRA:                  -0.661
REMARK UNBOUND:                -1.324
REMARK SMILES CCCCCCCCCCCC(=O)[O-]
REMARK SMILES IDX 7 1 8 2 9 3 10 4 11 5 12 6 13 7 14 8 6 9 5 10 4 11 3 12 2 13
REMARK SMILES IDX 1 14
REMARK H PARENT
REMARK Flexibility Score: inf
ROOT
ATOM      1  C   UNL     1      25.801  40.504  28.036  1.00  0.00     0.000 C 
ENDROOT
BRANCH   1   2
ATOM      2  C   UNL     1      25.482  40.478  26.537  1.00  0.00     0.000 C 
BRANCH   2   3
ATOM      3  C   UNL     1      26.407  41.423  25.760  1.00  0.00     0.000 C 
BRANCH   3   4
ATOM      4  C   UNL     1      27.405  42.111  26.698  1.00  0.00     0.006 C 
BRANCH   4   5
ATOM      5  C   UNL     1      28.140  43.247  25.982  1.00  0.00     0.053 C 
BRANCH   5   6
ATOM      6  C   UNL     1      29.583  43.267  26.374  1.00  0.00     0.041 C 
ATOM      7  O   UNL     1      30.139  44.351  26.692  1.00  0.00    -0.550 OA
ATOM      8  O   UNL     1      30.329  42.095  26.341  1.00  0.00    -0.550 OA
ENDBRANCH   5   6
ENDBRANCH   4   5
ENDBRANCH   3   4
ENDBRANCH   2   3
ENDBRANCH   1   2
BRANCH   1   9
ATOM      9  C   UNL     1      25.015  39.421  28.785  1.00  0.00     0.000 C 
BRANCH   9  10
ATOM     10  C   UNL     1      25.507  38.020  28.403  1.00  0.00    -0.000 C 
BRANCH  10  11
ATOM     11  C   UNL     1      25.702  37.147  29.652  1.00  0.00    -0.000 C 
BRANCH  11  12
ATOM     12  C   UNL     1      27.182  36.974  30.029  1.00  0.00    -0.000 C 
BRANCH  12  13
ATOM     13  C   UNL     1      27.491  37.467  31.450  1.00  0.00    -0.003 C 
ATOM     14  C   UNL     1      26.249  38.065  32.106  1.00  0.00     0.004 C 
ENDBRANCH  12  13
ENDBRANCH  11  12
ENDBRANCH  10  11
ENDBRANCH   9  10
ENDBRANCH   1   9
TORSDOF 10
ENDMDL
