MODEL 1
REMARK VINA RESULT:    -7.795      0.000      0.000
REMARK INTER + INTRA:         -13.306
REMARK INTER:                 -12.124
REMARK INTRA:                  -1.181
REMARK UNBOUND:                -1.181
REMARK SMILES C[C@@]12C[C@@]3(O)O[C@@H](O1)[C@]1(COC(=O)c4ccccc4)[C@H]3C[C@@]12O[C@@H]1O[C@@H](CO)[C@@H](O)[C@H](O)[C@H]1O
REMARK SMILES IDX 1 1 2 2 3 3 4 4 20 5 21 6 22 7 9 8 7 9 8 10 6 11 23 12 24 13
REMARK SMILES IDX 33 14 25 15 31 16 26 17 29 18 34 19 32 21 27 23 28 24 30 26
REMARK SMILES IDX 5 28 10 30 11 31 12 32 13 33 14 34 15 35 19 36 16 37 18 38
REMARK SMILES IDX 17 39
REMARK H PARENT 34 20 32 22 28 25 30 27 5 29
REMARK Flexibility Score: inf
ROOT
ATOM      1  C   UNL     1      65.260   1.907   2.951  1.00  0.00     0.046 C 
ATOM      2  C   UNL     1      64.018   1.058   2.685  1.00  0.00     0.104 C 
ATOM      3  C   UNL     1      63.712   0.964   1.145  1.00  0.00     0.104 C 
ATOM      4  C   UNL     1      62.375   0.145   1.091  1.00  0.00     0.175 C 
ATOM      5  C   UNL     1      61.332   0.743   2.086  1.00  0.00     0.070 C 
ATOM      6  C   UNL     1      61.671   2.177   2.530  1.00  0.00     0.050 C 
ATOM      7  C   UNL     1      62.730   1.529   3.463  1.00  0.00     0.115 C 
ATOM      8  C   UNL     1      61.945   0.219   3.381  1.00  0.00     0.096 C 
ATOM      9  C   UNL     1      62.936  -0.862   2.987  1.00  0.00     0.267 C 
ATOM     10  O   UNL     1      64.221  -0.275   3.114  1.00  0.00    -0.342 OA
ATOM     11  O   UNL     1      62.678  -1.133   1.618  1.00  0.00    -0.320 OA
ENDROOT
BRANCH   7  12
ATOM     12  O   UNL     1      62.994   1.977   4.795  1.00  0.00    -0.339 OA
BRANCH  12  13
ATOM     13  C   UNL     1      62.428   3.235   5.131  1.00  0.00     0.282 C 
ATOM     14  C   UNL     1      61.928   3.215   6.599  1.00  0.00     0.202 C 
ATOM     15  O   UNL     1      63.334   4.307   4.898  1.00  0.00    -0.341 OA
ATOM     16  C   UNL     1      63.087   3.295   7.613  1.00  0.00     0.179 C 
ATOM     17  C   UNL     1      64.479   4.217   5.729  1.00  0.00     0.178 C 
ATOM     18  C   UNL     1      64.103   4.386   7.216  1.00  0.00     0.177 C 
BRANCH  14  19
ATOM     19  O   UNL     1      60.987   4.236   6.837  1.00  0.00    -0.385 OA
ATOM     20  H   UNL     1      60.455   4.369   6.010  1.00  0.00     0.211 HD
ENDBRANCH  14  19
BRANCH  16  21
ATOM     21  O   UNL     1      63.728   2.046   7.676  1.00  0.00    -0.387 OA
ATOM     22  H   UNL     1      63.928   1.871   8.634  1.00  0.00     0.211 HD
ENDBRANCH  16  21
BRANCH  17  23
ATOM     23  C   UNL     1      65.522   5.250   5.273  1.00  0.00     0.191 C 
BRANCH  23  24
ATOM     24  O   UNL     1      64.975   6.540   5.209  1.00  0.00    -0.394 OA
ATOM     25  H   UNL     1      65.693   7.140   4.876  1.00  0.00     0.210 HD
ENDBRANCH  23  24
ENDBRANCH  17  23
BRANCH  18  26
ATOM     26  O   UNL     1      63.562   5.663   7.443  1.00  0.00    -0.387 OA
ATOM     27  H   UNL     1      63.059   5.912   6.624  1.00  0.00     0.211 HD
ENDBRANCH  18  26
ENDBRANCH  12  13
ENDBRANCH   7  12
BRANCH   4  28
ATOM     28  O   UNL     1      61.855   0.056  -0.208  1.00  0.00    -0.365 OA
ATOM     29  H   UNL     1      62.427  -0.589  -0.700  1.00  0.00     0.214 HD
ENDBRANCH   4  28
BRANCH   8  30
ATOM     30  C   UNL     1      60.960  -0.123   4.522  1.00  0.00     0.249 C 
BRANCH  30  31
ATOM     31  O   UNL     1      60.664  -1.519   4.529  1.00  0.00    -0.461 OA
BRANCH  31  32
ATOM     32  C   UNL     1      59.507  -2.077   3.973  1.00  0.00     0.338 C 
ATOM     33  O   UNL     1      59.448  -2.314   2.734  1.00  0.00    -0.246 OA
BRANCH  32  34
ATOM     34  C   UNL     1      58.347  -2.373   4.840  1.00  0.00     0.060 A 
ATOM     35  C   UNL     1      58.522  -2.537   6.227  1.00  0.00     0.015 A 
ATOM     36  C   UNL     1      57.055  -2.501   4.294  1.00  0.00     0.015 A 
ATOM     37  C   UNL     1      57.427  -2.823   7.049  1.00  0.00     0.001 A 
ATOM     38  C   UNL     1      55.964  -2.787   5.121  1.00  0.00     0.001 A 
ATOM     39  C   UNL     1      56.150  -2.948   6.497  1.00  0.00     0.000 A 
ENDBRANCH  32  34
ENDBRANCH  31  32
ENDBRANCH  30  31
ENDBRANCH   8  30
TORSDOF 12
ENDMDL
MODEL 2
REMARK VINA RESULT:    -7.583      2.203      6.214
REMARK INTER + INTRA:         -12.975
REMARK INTER:                 -11.596
REMARK INTRA:                  -1.379
REMARK UNBOUND:                -1.181
REMARK SMILES C[C@@]12C[C@@]3(O)O[C@@H](O1)[C@]1(COC(=O)c4ccccc4)[C@H]3C[C@@]12O[C@@H]1O[C@@H](CO)[C@@H](O)[C@H](O)[C@H]1O
REMARK SMILES IDX 1 1 2 2 3 3 4 4 20 5 21 6 22 7 9 8 7 9 8 10 6 11 23 12 24 13
REMARK SMILES IDX 33 14 25 15 31 16 26 17 29 18 34 19 32 21 27 23 28 24 30 26
REMARK SMILES IDX 5 28 10 30 11 31 12 32 13 33 14 34 15 35 19 36 16 37 18 38
REMARK SMILES IDX 17 39
REMARK H PARENT 34 20 32 22 28 25 30 27 5 29
REMARK Flexibility Score: inf
ROOT
ATOM      1  C   UNL     1      63.598   1.670   1.314  1.00  0.00     0.046 C 
ATOM      2  C   UNL     1      63.147   1.277   2.720  1.00  0.00     0.104 C 
ATOM      3  C   UNL     1      63.872   2.143   3.814  1.00  0.00     0.104 C 
ATOM      4  C   UNL     1      63.352   1.533   5.162  1.00  0.00     0.175 C 
ATOM      5  C   UNL     1      63.488  -0.021   5.143  1.00  0.00     0.070 C 
ATOM      6  C   UNL     1      64.457  -0.532   4.061  1.00  0.00     0.050 C 
ATOM      7  C   UNL     1      63.311  -0.257   3.050  1.00  0.00     0.115 C 
ATOM      8  C   UNL     1      62.319  -0.328   4.211  1.00  0.00     0.096 C 
ATOM      9  C   UNL     1      61.474   0.932   4.144  1.00  0.00     0.267 C 
ATOM     10  O   UNL     1      61.766   1.528   2.891  1.00  0.00    -0.342 OA
ATOM     11  O   UNL     1      61.957   1.768   5.184  1.00  0.00    -0.320 OA
ENDROOT
BRANCH   7  12
ATOM     12  O   UNL     1      62.999  -1.118   1.952  1.00  0.00    -0.339 OA
BRANCH  12  13
ATOM     13  C   UNL     1      64.044  -1.992   1.554  1.00  0.00     0.282 C 
ATOM     14  C   UNL     1      63.666  -3.458   1.891  1.00  0.00     0.202 C 
ATOM     15  O   UNL     1      64.376  -1.835   0.180  1.00  0.00    -0.341 OA
ATOM     16  C   UNL     1      62.615  -4.028   0.917  1.00  0.00     0.179 C 
ATOM     17  C   UNL     1      63.295  -2.194  -0.666  1.00  0.00     0.178 C 
ATOM     18  C   UNL     1      62.969  -3.697  -0.547  1.00  0.00     0.177 C 
BRANCH  14  19
ATOM     19  O   UNL     1      64.805  -4.286   1.935  1.00  0.00    -0.385 OA
ATOM     20  H   UNL     1      64.509  -5.213   2.124  1.00  0.00     0.211 HD
ENDBRANCH  14  19
BRANCH  16  21
ATOM     21  O   UNL     1      61.355  -3.492   1.237  1.00  0.00    -0.387 OA
ATOM     22  H   UNL     1      61.518  -2.642   1.726  1.00  0.00     0.211 HD
ENDBRANCH  16  21
BRANCH  17  23
ATOM     23  C   UNL     1      63.620  -1.782  -2.111  1.00  0.00     0.191 C 
BRANCH  23  24
ATOM     24  O   UNL     1      62.873  -2.526  -3.038  1.00  0.00    -0.394 OA
ATOM     25  H   UNL     1      62.224  -3.067  -2.515  1.00  0.00     0.210 HD
ENDBRANCH  23  24
ENDBRANCH  17  23
BRANCH  18  26
ATOM     26  O   UNL     1      64.063  -4.470  -0.972  1.00  0.00    -0.387 OA
ATOM     27  H   UNL     1      64.838  -4.206  -0.411  1.00  0.00     0.211 HD
ENDBRANCH  18  26
ENDBRANCH  12  13
ENDBRANCH   7  12
BRANCH   4  28
ATOM     28  O   UNL     1      63.985   2.091   6.281  1.00  0.00    -0.365 OA
ATOM     29  H   UNL     1      64.344   2.971   5.996  1.00  0.00     0.214 HD
ENDBRANCH   4  28
BRANCH   8  30
ATOM     30  C   UNL     1      61.569  -1.656   4.459  1.00  0.00     0.249 C 
BRANCH  30  31
ATOM     31  O   UNL     1      60.194  -1.409   4.751  1.00  0.00    -0.461 OA
BRANCH  31  32
ATOM     32  C   UNL     1      59.129  -2.087   4.146  1.00  0.00     0.338 C 
ATOM     33  O   UNL     1      59.195  -2.418   2.929  1.00  0.00    -0.246 OA
BRANCH  32  34
ATOM     34  C   UNL     1      57.917  -2.398   4.933  1.00  0.00     0.060 A 
ATOM     35  C   UNL     1      56.656  -2.433   4.308  1.00  0.00     0.015 A 
ATOM     36  C   UNL     1      58.002  -2.656   6.314  1.00  0.00     0.015 A 
ATOM     37  C   UNL     1      55.507  -2.721   5.051  1.00  0.00     0.001 A 
ATOM     38  C   UNL     1      56.849  -2.943   7.052  1.00  0.00     0.001 A 
ATOM     39  C   UNL     1      55.603  -2.975   6.422  1.00  0.00     0.000 A 
ENDBRANCH  32  34
ENDBRANCH  31  32
ENDBRANCH  30  31
ENDBRANCH   8  30
TORSDOF 12
ENDMDL
MODEL 3
REMARK VINA RESULT:    -7.219      4.090      9.645
REMARK INTER + INTRA:         -12.409
REMARK INTER:                 -11.348
REMARK INTRA:                  -1.060
REMARK UNBOUND:                -1.181
REMARK SMILES C[C@@]12C[C@@]3(O)O[C@@H](O1)[C@]1(COC(=O)c4ccccc4)[C@H]3C[C@@]12O[C@@H]1O[C@@H](CO)[C@@H](O)[C@H](O)[C@H]1O
REMARK SMILES IDX 1 1 2 2 3 3 4 4 20 5 21 6 22 7 9 8 7 9 8 10 6 11 23 12 24 13
REMARK SMILES IDX 33 14 25 15 31 16 26 17 29 18 34 19 32 21 27 23 28 24 30 26
REMARK SMILES IDX 5 28 10 30 11 31 12 32 13 33 14 34 15 35 19 36 16 37 18 38
REMARK SMILES IDX 17 39
REMARK H PARENT 34 20 32 22 28 25 30 27 5 29
REMARK Flexibility Score: inf
ROOT
ATOM      1  C   UNL     1      61.753  -0.766   2.756  1.00  0.00     0.046 C 
ATOM      2  C   UNL     1      62.404   0.470   2.137  1.00  0.00     0.104 C 
ATOM      3  C   UNL     1      61.494   1.741   2.312  1.00  0.00     0.104 C 
ATOM      4  C   UNL     1      62.281   2.859   1.545  1.00  0.00     0.175 C 
ATOM      5  C   UNL     1      62.697   2.355   0.127  1.00  0.00     0.070 C 
ATOM      6  C   UNL     1      61.900   1.121  -0.334  1.00  0.00     0.050 C 
ATOM      7  C   UNL     1      62.809   0.302   0.622  1.00  0.00     0.115 C 
ATOM      8  C   UNL     1      63.837   1.433   0.553  1.00  0.00     0.096 C 
ATOM      9  C   UNL     1      64.181   1.800   1.986  1.00  0.00     0.267 C 
ATOM     10  O   UNL     1      63.618   0.779   2.793  1.00  0.00    -0.342 OA
ATOM     11  O   UNL     1      63.505   3.022   2.237  1.00  0.00    -0.320 OA
ENDROOT
BRANCH   7  12
ATOM     12  O   UNL     1      63.331  -0.991   0.306  1.00  0.00    -0.339 OA
BRANCH  12  13
ATOM     13  C   UNL     1      62.673  -1.665  -0.756  1.00  0.00     0.282 C 
ATOM     14  C   UNL     1      63.714  -2.180  -1.783  1.00  0.00     0.202 C 
ATOM     15  O   UNL     1      61.834  -2.712  -0.284  1.00  0.00    -0.341 OA
ATOM     16  C   UNL     1      64.477  -3.418  -1.270  1.00  0.00     0.179 C 
ATOM     17  C   UNL     1      62.581  -3.735   0.354  1.00  0.00     0.178 C 
ATOM     18  C   UNL     1      63.515  -4.449  -0.644  1.00  0.00     0.177 C 
BRANCH  14  19
ATOM     19  O   UNL     1      63.119  -2.445  -3.032  1.00  0.00    -0.385 OA
ATOM     20  H   UNL     1      62.454  -3.171  -2.913  1.00  0.00     0.211 HD
ENDBRANCH  14  19
BRANCH  16  21
ATOM     21  O   UNL     1      65.426  -3.009  -0.316  1.00  0.00    -0.387 OA
ATOM     22  H   UNL     1      66.287  -2.889  -0.797  1.00  0.00     0.211 HD
ENDBRANCH  16  21
BRANCH  17  23
ATOM     23  C   UNL     1      61.618  -4.711   1.049  1.00  0.00     0.191 C 
BRANCH  23  24
ATOM     24  O   UNL     1      62.236  -5.943   1.314  1.00  0.00    -0.394 OA
ATOM     25  H   UNL     1      62.881  -6.105   0.576  1.00  0.00     0.210 HD
ENDBRANCH  23  24
ENDBRANCH  17  23
BRANCH  18  26
ATOM     26  O   UNL     1      62.766  -5.088  -1.646  1.00  0.00    -0.387 OA
ATOM     27  H   UNL     1      61.930  -5.410  -1.219  1.00  0.00     0.211 HD
ENDBRANCH  18  26
ENDBRANCH  12  13
ENDBRANCH   7  12
BRANCH   4  28
ATOM     28  O   UNL     1      61.567   4.063   1.473  1.00  0.00    -0.365 OA
ATOM     29  H   UNL     1      61.494   4.294   0.511  1.00  0.00     0.214 HD
ENDBRANCH   4  28
BRANCH   8  30
ATOM     30  C   UNL     1      65.019   1.295  -0.433  1.00  0.00     0.249 C 
BRANCH  30  31
ATOM     31  O   UNL     1      65.793   2.493  -0.458  1.00  0.00    -0.461 OA
BRANCH  31  32
ATOM     32  C   UNL     1      65.839   3.375  -1.544  1.00  0.00     0.338 C 
ATOM     33  O   UNL     1      65.243   4.486  -1.487  1.00  0.00    -0.246 OA
BRANCH  32  34
ATOM     34  C   UNL     1      66.573   2.991  -2.769  1.00  0.00     0.060 A 
ATOM     35  C   UNL     1      67.956   3.234  -2.872  1.00  0.00     0.015 A 
ATOM     36  C   UNL     1      65.903   2.387  -3.850  1.00  0.00     0.015 A 
ATOM     37  C   UNL     1      68.651   2.878  -4.032  1.00  0.00     0.001 A 
ATOM     38  C   UNL     1      66.604   2.033  -5.007  1.00  0.00     0.001 A 
ATOM     39  C   UNL     1      67.977   2.279  -5.099  1.00  0.00     0.000 A 
ENDBRANCH  32  34
ENDBRANCH  31  32
ENDBRANCH  30  31
ENDBRANCH   8  30
TORSDOF 12
ENDMDL
MODEL 4
REMARK VINA RESULT:    -7.144      2.077      5.381
REMARK INTER + INTRA:         -12.294
REMARK INTER:                 -11.229
REMARK INTRA:                  -1.065
REMARK UNBOUND:                -1.181
REMARK SMILES C[C@@]12C[C@@]3(O)O[C@@H](O1)[C@]1(COC(=O)c4ccccc4)[C@H]3C[C@@]12O[C@@H]1O[C@@H](CO)[C@@H](O)[C@H](O)[C@H]1O
REMARK SMILES IDX 1 1 2 2 3 3 4 4 20 5 21 6 22 7 9 8 7 9 8 10 6 11 23 12 24 13
REMARK SMILES IDX 33 14 25 15 31 16 26 17 29 18 34 19 32 21 27 23 28 24 30 26
REMARK SMILES IDX 5 28 10 30 11 31 12 32 13 33 14 34 15 35 19 36 16 37 18 38
REMARK SMILES IDX 17 39
REMARK H PARENT 34 20 32 22 28 25 30 27 5 29
REMARK Flexibility Score: inf
ROOT
ATOM      1  C   UNL     1      62.850   4.259   2.248  1.00  0.00     0.046 C 
ATOM      2  C   UNL     1      62.655   3.210   3.341  1.00  0.00     0.104 C 
ATOM      3  C   UNL     1      63.245   3.701   4.714  1.00  0.00     0.104 C 
ATOM      4  C   UNL     1      63.033   2.470   5.662  1.00  0.00     0.175 C 
ATOM      5  C   UNL     1      63.553   1.165   4.981  1.00  0.00     0.070 C 
ATOM      6  C   UNL     1      64.506   1.436   3.802  1.00  0.00     0.050 C 
ATOM      7  C   UNL     1      63.232   1.786   2.986  1.00  0.00     0.115 C 
ATOM      8  C   UNL     1      62.412   0.971   3.987  1.00  0.00     0.096 C 
ATOM      9  C   UNL     1      61.274   1.864   4.450  1.00  0.00     0.267 C 
ATOM     10  O   UNL     1      61.280   2.983   3.578  1.00  0.00    -0.342 OA
ATOM     11  O   UNL     1      61.632   2.287   5.757  1.00  0.00    -0.320 OA
ENDROOT
BRANCH   7  12
ATOM     12  O   UNL     1      63.039   1.411   1.619  1.00  0.00    -0.339 OA
BRANCH  12  13
ATOM     13  C   UNL     1      64.229   1.164   0.887  1.00  0.00     0.282 C 
ATOM     14  C   UNL     1      64.116  -0.187   0.133  1.00  0.00     0.202 C 
ATOM     15  O   UNL     1      64.546   2.235   0.006  1.00  0.00    -0.341 OA
ATOM     16  C   UNL     1      63.197  -0.091  -1.102  1.00  0.00     0.179 C 
ATOM     17  C   UNL     1      63.559   2.398  -0.999  1.00  0.00     0.178 C 
ATOM     18  C   UNL     1      63.506   1.171  -1.933  1.00  0.00     0.177 C 
BRANCH  14  19
ATOM     19  O   UNL     1      65.383  -0.684  -0.227  1.00  0.00    -0.385 OA
ATOM     20  H   UNL     1      65.707  -0.174  -1.014  1.00  0.00     0.211 HD
ENDBRANCH  14  19
BRANCH  16  21
ATOM     21  O   UNL     1      61.857  -0.066  -0.676  1.00  0.00    -0.387 OA
ATOM     22  H   UNL     1      61.442  -0.916  -0.979  1.00  0.00     0.211 HD
ENDBRANCH  16  21
BRANCH  17  23
ATOM     23  C   UNL     1      63.824   3.702  -1.767  1.00  0.00     0.191 C 
BRANCH  23  24
ATOM     24  O   UNL     1      65.182   3.840  -2.093  1.00  0.00    -0.394 OA
ATOM     25  H   UNL     1      65.257   3.698  -3.073  1.00  0.00     0.210 HD
ENDBRANCH  23  24
ENDBRANCH  17  23
BRANCH  18  26
ATOM     26  O   UNL     1      64.726   1.021  -2.614  1.00  0.00    -0.387 OA
ATOM     27  H   UNL     1      65.174   1.907  -2.601  1.00  0.00     0.211 HD
ENDBRANCH  18  26
ENDBRANCH  12  13
ENDBRANCH   7  12
BRANCH   4  28
ATOM     28  O   UNL     1      63.614   2.659   6.923  1.00  0.00    -0.365 OA
ATOM     29  H   UNL     1      63.687   1.762   7.340  1.00  0.00     0.214 HD
ENDBRANCH   4  28
BRANCH   8  30
ATOM     30  C   UNL     1      62.049  -0.487   3.628  1.00  0.00     0.249 C 
BRANCH  30  31
ATOM     31  O   UNL     1      60.896  -0.911   4.354  1.00  0.00    -0.461 OA
BRANCH  31  32
ATOM     32  C   UNL     1      59.900  -1.743   3.829  1.00  0.00     0.338 C 
ATOM     33  O   UNL     1      59.962  -2.128   2.628  1.00  0.00    -0.246 OA
BRANCH  32  34
ATOM     34  C   UNL     1      58.764  -2.153   4.681  1.00  0.00     0.060 A 
ATOM     35  C   UNL     1      58.879  -2.113   6.083  1.00  0.00     0.015 A 
ATOM     36  C   UNL     1      57.557  -2.594   4.107  1.00  0.00     0.015 A 
ATOM     37  C   UNL     1      57.808  -2.506   6.892  1.00  0.00     0.001 A 
ATOM     38  C   UNL     1      56.489  -2.986   4.921  1.00  0.00     0.001 A 
ATOM     39  C   UNL     1      56.614  -2.943   6.312  1.00  0.00     0.000 A 
ENDBRANCH  32  34
ENDBRANCH  31  32
ENDBRANCH  30  31
ENDBRANCH   8  30
TORSDOF 12
ENDMDL
MODEL 5
REMARK VINA RESULT:    -7.128      2.970      7.753
REMARK INTER + INTRA:         -12.268
REMARK INTER:                 -10.628
REMARK INTRA:                  -1.641
REMARK UNBOUND:                -1.181
REMARK SMILES C[C@@]12C[C@@]3(O)O[C@@H](O1)[C@]1(COC(=O)c4ccccc4)[C@H]3C[C@@]12O[C@@H]1O[C@@H](CO)[C@@H](O)[C@H](O)[C@H]1O
REMARK SMILES IDX 1 1 2 2 3 3 4 4 20 5 21 6 22 7 9 8 7 9 8 10 6 11 23 12 24 13
REMARK SMILES IDX 33 14 25 15 31 16 26 17 29 18 34 19 32 21 27 23 28 24 30 26
REMARK SMILES IDX 5 28 10 30 11 31 12 32 13 33 14 34 15 35 19 36 16 37 18 38
REMARK SMILES IDX 17 39
REMARK H PARENT 34 20 32 22 28 25 30 27 5 29
REMARK Flexibility Score: inf
ROOT
ATOM      1  C   UNL     1      64.917   0.441   4.784  1.00  0.00     0.046 C 
ATOM      2  C   UNL     1      63.925   1.561   4.471  1.00  0.00     0.104 C 
ATOM      3  C   UNL     1      63.584   2.396   5.758  1.00  0.00     0.104 C 
ATOM      4  C   UNL     1      62.503   3.415   5.254  1.00  0.00     0.175 C 
ATOM      5  C   UNL     1      61.387   2.671   4.456  1.00  0.00     0.070 C 
ATOM      6  C   UNL     1      61.364   1.154   4.717  1.00  0.00     0.050 C 
ATOM      7  C   UNL     1      62.596   1.076   3.775  1.00  0.00     0.115 C 
ATOM      8  C   UNL     1      62.173   2.417   3.173  1.00  0.00     0.096 C 
ATOM      9  C   UNL     1      63.391   3.323   3.222  1.00  0.00     0.267 C 
ATOM     10  O   UNL     1      64.484   2.484   3.557  1.00  0.00    -0.342 OA
ATOM     11  O   UNL     1      63.149   4.225   4.290  1.00  0.00    -0.320 OA
ENDROOT
BRANCH   7  12
ATOM     12  O   UNL     1      62.795   0.034   2.815  1.00  0.00    -0.339 OA
BRANCH  12  13
ATOM     13  C   UNL     1      62.145  -1.192   3.112  1.00  0.00     0.282 C 
ATOM     14  C   UNL     1      61.382  -1.703   1.861  1.00  0.00     0.202 C 
ATOM     15  O   UNL     1      63.048  -2.168   3.614  1.00  0.00    -0.341 OA
ATOM     16  C   UNL     1      62.333  -2.291   0.798  1.00  0.00     0.179 C 
ATOM     17  C   UNL     1      64.023  -2.528   2.648  1.00  0.00     0.178 C 
ATOM     18  C   UNL     1      63.375  -3.231   1.438  1.00  0.00     0.177 C 
BRANCH  14  19
ATOM     19  O   UNL     1      60.388  -2.637   2.210  1.00  0.00    -0.385 OA
ATOM     20  H   UNL     1      60.033  -2.396   3.105  1.00  0.00     0.211 HD
ENDBRANCH  14  19
BRANCH  16  21
ATOM     21  O   UNL     1      62.984  -1.237   0.133  1.00  0.00    -0.387 OA
ATOM     22  H   UNL     1      63.907  -1.189   0.500  1.00  0.00     0.211 HD
ENDBRANCH  16  21
BRANCH  17  23
ATOM     23  C   UNL     1      65.105  -3.394   3.313  1.00  0.00     0.191 C 
BRANCH  23  24
ATOM     24  O   UNL     1      65.445  -4.496   2.514  1.00  0.00    -0.394 OA
ATOM     25  H   UNL     1      64.960  -4.387   1.654  1.00  0.00     0.210 HD
ENDBRANCH  23  24
ENDBRANCH  17  23
BRANCH  18  26
ATOM     26  O   UNL     1      62.768  -4.434   1.837  1.00  0.00    -0.387 OA
ATOM     27  H   UNL     1      63.463  -5.140   1.778  1.00  0.00     0.211 HD
ENDBRANCH  18  26
ENDBRANCH  12  13
ENDBRANCH   7  12
BRANCH   4  28
ATOM     28  O   UNL     1      61.965   4.184   6.295  1.00  0.00    -0.365 OA
ATOM     29  H   UNL     1      61.828   3.569   7.062  1.00  0.00     0.214 HD
ENDBRANCH   4  28
BRANCH   8  30
ATOM     30  C   UNL     1      61.363   2.411   1.857  1.00  0.00     0.249 C 
BRANCH  30  31
ATOM     31  O   UNL     1      62.184   2.813   0.761  1.00  0.00    -0.461 OA
BRANCH  31  32
ATOM     32  C   UNL     1      62.446   2.013  -0.358  1.00  0.00     0.338 C 
ATOM     33  O   UNL     1      61.709   1.022  -0.618  1.00  0.00    -0.246 OA
BRANCH  32  34
ATOM     34  C   UNL     1      63.604   2.322  -1.224  1.00  0.00     0.060 A 
ATOM     35  C   UNL     1      63.993   3.657  -1.438  1.00  0.00     0.015 A 
ATOM     36  C   UNL     1      64.328   1.291  -1.852  1.00  0.00     0.015 A 
ATOM     37  C   UNL     1      65.084   3.953  -2.261  1.00  0.00     0.001 A 
ATOM     38  C   UNL     1      65.418   1.593  -2.676  1.00  0.00     0.001 A 
ATOM     39  C   UNL     1      65.795   2.922  -2.880  1.00  0.00     0.000 A 
ENDBRANCH  32  34
ENDBRANCH  31  32
ENDBRANCH  30  31
ENDBRANCH   8  30
TORSDOF 12
ENDMDL
MODEL 6
REMARK VINA RESULT:    -6.940      3.957      6.561
REMARK INTER + INTRA:         -11.975
REMARK INTER:                 -10.405
REMARK INTRA:                  -1.570
REMARK UNBOUND:                -1.181
REMARK SMILES C[C@@]12C[C@@]3(O)O[C@@H](O1)[C@]1(COC(=O)c4ccccc4)[C@H]3C[C@@]12O[C@@H]1O[C@@H](CO)[C@@H](O)[C@H](O)[C@H]1O
REMARK SMILES IDX 1 1 2 2 3 3 4 4 20 5 21 6 22 7 9 8 7 9 8 10 6 11 23 12 24 13
REMARK SMILES IDX 33 14 25 15 31 16 26 17 29 18 34 19 32 21 27 23 28 24 30 26
REMARK SMILES IDX 5 28 10 30 11 31 12 32 13 33 14 34 15 35 19 36 16 37 18 38
REMARK SMILES IDX 17 39
REMARK H PARENT 34 20 32 22 28 25 30 27 5 29
REMARK Flexibility Score: inf
ROOT
ATOM      1  C   UNL     1      66.147   0.342  -0.253  1.00  0.00     0.046 C 
ATOM      2  C   UNL     1      64.678   0.193   0.141  1.00  0.00     0.104 C 
ATOM      3  C   UNL     1      64.071  -1.146  -0.419  1.00  0.00     0.104 C 
ATOM      4  C   UNL     1      62.563  -1.066   0.007  1.00  0.00     0.175 C 
ATOM      5  C   UNL     1      61.961   0.319  -0.386  1.00  0.00     0.070 C 
ATOM      6  C   UNL     1      62.800   1.068  -1.437  1.00  0.00     0.050 C 
ATOM      7  C   UNL     1      63.767   1.412  -0.272  1.00  0.00     0.115 C 
ATOM      8  C   UNL     1      62.620   1.158   0.706  1.00  0.00     0.096 C 
ATOM      9  C   UNL     1      63.141   0.183   1.748  1.00  0.00     0.267 C 
ATOM     10  O   UNL     1      64.543   0.113   1.546  1.00  0.00    -0.342 OA
ATOM     11  O   UNL     1      62.557  -1.068   1.422  1.00  0.00    -0.320 OA
ENDROOT
BRANCH   7  12
ATOM     12  O   UNL     1      64.404   2.684  -0.119  1.00  0.00    -0.339 OA
BRANCH  12  13
ATOM     13  C   UNL     1      64.340   3.531  -1.256  1.00  0.00     0.282 C 
ATOM     14  C   UNL     1      64.111   4.999  -0.810  1.00  0.00     0.202 C 
ATOM     15  O   UNL     1      65.491   3.404  -2.081  1.00  0.00    -0.341 OA
ATOM     16  C   UNL     1      65.387   5.635  -0.219  1.00  0.00     0.179 C 
ATOM     17  C   UNL     1      66.668   3.825  -1.410  1.00  0.00     0.178 C 
ATOM     18  C   UNL     1      66.620   5.335  -1.096  1.00  0.00     0.177 C 
BRANCH  14  19
ATOM     19  O   UNL     1      63.606   5.785  -1.863  1.00  0.00    -0.385 OA
ATOM     20  H   UNL     1      64.052   6.670  -1.835  1.00  0.00     0.211 HD
ENDBRANCH  14  19
BRANCH  16  21
ATOM     21  O   UNL     1      65.590   5.134   1.079  1.00  0.00    -0.387 OA
ATOM     22  H   UNL     1      64.959   5.615   1.677  1.00  0.00     0.211 HD
ENDBRANCH  16  21
BRANCH  17  23
ATOM     23  C   UNL     1      67.897   3.445  -2.250  1.00  0.00     0.191 C 
BRANCH  23  24
ATOM     24  O   UNL     1      67.624   3.519  -3.625  1.00  0.00    -0.394 OA
ATOM     25  H   UNL     1      68.500   3.572  -4.090  1.00  0.00     0.210 HD
ENDBRANCH  23  24
ENDBRANCH  17  23
BRANCH  18  26
ATOM     26  O   UNL     1      66.567   6.081  -2.285  1.00  0.00    -0.387 OA
ATOM     27  H   UNL     1      65.612   6.130  -2.552  1.00  0.00     0.211 HD
ENDBRANCH  18  26
ENDBRANCH  12  13
ENDBRANCH   7  12
BRANCH   4  28
ATOM     28  O   UNL     1      61.804  -2.123  -0.513  1.00  0.00    -0.365 OA
ATOM     29  H   UNL     1      60.862  -1.952  -0.253  1.00  0.00     0.214 HD
ENDBRANCH   4  28
BRANCH   8  30
ATOM     30  C   UNL     1      61.814   2.369   1.228  1.00  0.00     0.249 C 
BRANCH  30  31
ATOM     31  O   UNL     1      61.937   2.481   2.645  1.00  0.00    -0.461 OA
BRANCH  31  32
ATOM     32  C   UNL     1      62.657   3.493   3.292  1.00  0.00     0.338 C 
ATOM     33  O   UNL     1      63.371   4.291   2.624  1.00  0.00    -0.246 OA
BRANCH  32  34
ATOM     34  C   UNL     1      62.593   3.611   4.764  1.00  0.00     0.060 A 
ATOM     35  C   UNL     1      61.377   3.394   5.440  1.00  0.00     0.015 A 
ATOM     36  C   UNL     1      63.738   3.947   5.510  1.00  0.00     0.015 A 
ATOM     37  C   UNL     1      61.312   3.511   6.832  1.00  0.00     0.001 A 
ATOM     38  C   UNL     1      63.667   4.063   6.902  1.00  0.00     0.001 A 
ATOM     39  C   UNL     1      62.455   3.846   7.562  1.00  0.00     0.000 A 
ENDBRANCH  32  34
ENDBRANCH  31  32
ENDBRANCH  30  31
ENDBRANCH   8  30
TORSDOF 12
ENDMDL
MODEL 7
REMARK VINA RESULT:    -6.820      1.695      2.569
REMARK INTER + INTRA:         -11.788
REMARK INTER:                 -10.780
REMARK INTRA:                  -1.008
REMARK UNBOUND:                -1.181
REMARK SMILES C[C@@]12C[C@@]3(O)O[C@@H](O1)[C@]1(COC(=O)c4ccccc4)[C@H]3C[C@@]12O[C@@H]1O[C@@H](CO)[C@@H](O)[C@H](O)[C@H]1O
REMARK SMILES IDX 1 1 2 2 3 3 4 4 20 5 21 6 22 7 9 8 7 9 8 10 6 11 23 12 24 13
REMARK SMILES IDX 33 14 25 15 31 16 26 17 29 18 34 19 32 21 27 23 28 24 30 26
REMARK SMILES IDX 5 28 10 30 11 31 12 32 13 33 14 34 15 35 19 36 16 37 18 38
REMARK SMILES IDX 17 39
REMARK H PARENT 34 20 32 22 28 25 30 27 5 29
REMARK Flexibility Score: inf
ROOT
ATOM      1  C   UNL     1      65.838  -0.893   4.797  1.00  0.00     0.046 C 
ATOM      2  C   UNL     1      64.876  -1.321   3.689  1.00  0.00     0.104 C 
ATOM      3  C   UNL     1      65.652  -1.928   2.465  1.00  0.00     0.104 C 
ATOM      4  C   UNL     1      64.517  -2.213   1.421  1.00  0.00     0.175 C 
ATOM      5  C   UNL     1      63.604  -0.957   1.255  1.00  0.00     0.070 C 
ATOM      6  C   UNL     1      64.254   0.337   1.779  1.00  0.00     0.050 C 
ATOM      7  C   UNL     1      63.901  -0.182   3.199  1.00  0.00     0.115 C 
ATOM      8  C   UNL     1      62.834  -1.077   2.567  1.00  0.00     0.096 C 
ATOM      9  C   UNL     1      63.077  -2.483   3.088  1.00  0.00     0.267 C 
ATOM     10  O   UNL     1      64.017  -2.349   4.142  1.00  0.00    -0.342 OA
ATOM     11  O   UNL     1      63.678  -3.187   2.012  1.00  0.00    -0.320 OA
ENDROOT
BRANCH   7  12
ATOM     12  O   UNL     1      63.421   0.658   4.253  1.00  0.00    -0.339 OA
BRANCH  12  13
ATOM     13  C   UNL     1      63.908   1.990   4.233  1.00  0.00     0.282 C 
ATOM     14  C   UNL     1      62.742   2.976   3.956  1.00  0.00     0.202 C 
ATOM     15  O   UNL     1      64.607   2.321   5.426  1.00  0.00    -0.341 OA
ATOM     16  C   UNL     1      61.834   3.166   5.188  1.00  0.00     0.179 C 
ATOM     17  C   UNL     1      63.754   2.290   6.560  1.00  0.00     0.178 C 
ATOM     18  C   UNL     1      62.666   3.380   6.470  1.00  0.00     0.177 C 
BRANCH  14  19
ATOM     19  O   UNL     1      63.217   4.217   3.491  1.00  0.00    -0.385 OA
ATOM     20  H   UNL     1      62.725   4.937   3.964  1.00  0.00     0.211 HD
ENDBRANCH  14  19
BRANCH  16  21
ATOM     21  O   UNL     1      61.015   2.033   5.334  1.00  0.00    -0.387 OA
ATOM     22  H   UNL     1      60.145   2.248   4.905  1.00  0.00     0.211 HD
ENDBRANCH  16  21
BRANCH  17  23
ATOM     23  C   UNL     1      64.600   2.417   7.837  1.00  0.00     0.191 C 
BRANCH  23  24
ATOM     24  O   UNL     1      63.796   2.426   8.987  1.00  0.00    -0.394 OA
ATOM     25  H   UNL     1      63.450   3.352   9.088  1.00  0.00     0.210 HD
ENDBRANCH  23  24
ENDBRANCH  17  23
BRANCH  18  26
ATOM     26  O   UNL     1      63.252   4.657   6.464  1.00  0.00    -0.387 OA
ATOM     27  H   UNL     1      63.276   4.967   7.407  1.00  0.00     0.211 HD
ENDBRANCH  18  26
ENDBRANCH  12  13
ENDBRANCH   7  12
BRANCH   4  28
ATOM     28  O   UNL     1      65.021  -2.648   0.188  1.00  0.00    -0.365 OA
ATOM     29  H   UNL     1      64.285  -2.551  -0.471  1.00  0.00     0.214 HD
ENDBRANCH   4  28
BRANCH   8  30
ATOM     30  C   UNL     1      61.370  -0.582   2.556  1.00  0.00     0.249 C 
BRANCH  30  31
ATOM     31  O   UNL     1      60.622  -1.207   3.598  1.00  0.00    -0.461 OA
BRANCH  31  32
ATOM     32  C   UNL     1      59.562  -2.094   3.379  1.00  0.00     0.338 C 
ATOM     33  O   UNL     1      59.465  -2.710   2.281  1.00  0.00    -0.246 OA
BRANCH  32  34
ATOM     34  C   UNL     1      58.544  -2.295   4.432  1.00  0.00     0.060 A 
ATOM     35  C   UNL     1      58.845  -1.997   5.775  1.00  0.00     0.015 A 
ATOM     36  C   UNL     1      57.266  -2.791   4.113  1.00  0.00     0.015 A 
ATOM     37  C   UNL     1      57.887  -2.191   6.774  1.00  0.00     0.001 A 
ATOM     38  C   UNL     1      56.311  -2.984   5.117  1.00  0.00     0.001 A 
ATOM     39  C   UNL     1      56.622  -2.685   6.446  1.00  0.00     0.000 A 
ENDBRANCH  32  34
ENDBRANCH  31  32
ENDBRANCH  30  31
ENDBRANCH   8  30
TORSDOF 12
ENDMDL
MODEL 8
REMARK VINA RESULT:    -6.786      3.400      7.555
REMARK INTER + INTRA:         -11.735
REMARK INTER:                 -10.295
REMARK INTRA:                  -1.440
REMARK UNBOUND:                -1.181
REMARK SMILES C[C@@]12C[C@@]3(O)O[C@@H](O1)[C@]1(COC(=O)c4ccccc4)[C@H]3C[C@@]12O[C@@H]1O[C@@H](CO)[C@@H](O)[C@H](O)[C@H]1O
REMARK SMILES IDX 1 1 2 2 3 3 4 4 20 5 21 6 22 7 9 8 7 9 8 10 6 11 23 12 24 13
REMARK SMILES IDX 33 14 25 15 31 16 26 17 29 18 34 19 32 21 27 23 28 24 30 26
REMARK SMILES IDX 5 28 10 30 11 31 12 32 13 33 14 34 15 35 19 36 16 37 18 38
REMARK SMILES IDX 17 39
REMARK H PARENT 34 20 32 22 28 25 30 27 5 29
REMARK Flexibility Score: inf
ROOT
ATOM      1  C   UNL     1      62.921   0.475   2.237  1.00  0.00     0.046 C 
ATOM      2  C   UNL     1      62.968   1.462   3.403  1.00  0.00     0.104 C 
ATOM      3  C   UNL     1      61.675   1.355   4.292  1.00  0.00     0.104 C 
ATOM      4  C   UNL     1      61.873   2.490   5.357  1.00  0.00     0.175 C 
ATOM      5  C   UNL     1      62.262   3.829   4.657  1.00  0.00     0.070 C 
ATOM      6  C   UNL     1      61.940   3.842   3.151  1.00  0.00     0.050 C 
ATOM      7  C   UNL     1      63.207   2.961   2.977  1.00  0.00     0.115 C 
ATOM      8  C   UNL     1      63.711   3.484   4.323  1.00  0.00     0.096 C 
ATOM      9  C   UNL     1      64.072   2.268   5.158  1.00  0.00     0.267 C 
ATOM     10  O   UNL     1      64.048   1.165   4.267  1.00  0.00    -0.342 OA
ATOM     11  O   UNL     1      63.021   2.130   6.102  1.00  0.00    -0.320 OA
ENDROOT
BRANCH   7  12
ATOM     12  O   UNL     1      64.136   3.112   1.899  1.00  0.00    -0.339 OA
BRANCH  12  13
ATOM     13  C   UNL     1      63.609   3.718   0.729  1.00  0.00     0.282 C 
ATOM     14  C   UNL     1      64.284   5.095   0.497  1.00  0.00     0.202 C 
ATOM     15  O   UNL     1      63.727   2.874  -0.409  1.00  0.00    -0.341 OA
ATOM     16  C   UNL     1      65.723   4.956  -0.041  1.00  0.00     0.179 C 
ATOM     17  C   UNL     1      65.084   2.624  -0.739  1.00  0.00     0.178 C 
ATOM     18  C   UNL     1      65.797   3.919  -1.180  1.00  0.00     0.177 C 
BRANCH  14  19
ATOM     19  O   UNL     1      63.511   5.910  -0.353  1.00  0.00    -0.385 OA
ATOM     20  H   UNL     1      63.765   6.856  -0.194  1.00  0.00     0.211 HD
ENDBRANCH  14  19
BRANCH  16  21
ATOM     21  O   UNL     1      66.570   4.572   1.012  1.00  0.00    -0.387 OA
ATOM     22  H   UNL     1      67.334   4.083   0.606  1.00  0.00     0.211 HD
ENDBRANCH  16  21
BRANCH  17  23
ATOM     23  C   UNL     1      65.153   1.527  -1.813  1.00  0.00     0.191 C 
BRANCH  23  24
ATOM     24  O   UNL     1      66.236   1.727  -2.684  1.00  0.00    -0.394 OA
ATOM     25  H   UNL     1      66.156   2.654  -3.032  1.00  0.00     0.210 HD
ENDBRANCH  23  24
ENDBRANCH  17  23
BRANCH  18  26
ATOM     26  O   UNL     1      65.206   4.431  -2.347  1.00  0.00    -0.387 OA
ATOM     27  H   UNL     1      65.099   5.408  -2.211  1.00  0.00     0.211 HD
ENDBRANCH  18  26
ENDBRANCH  12  13
ENDBRANCH   7  12
BRANCH   4  28
ATOM     28  O   UNL     1      60.752   2.648   6.184  1.00  0.00    -0.365 OA
ATOM     29  H   UNL     1      61.081   3.025   7.041  1.00  0.00     0.214 HD
ENDBRANCH   4  28
BRANCH   8  30
ATOM     30  C   UNL     1      64.719   4.655   4.328  1.00  0.00     0.249 C 
BRANCH  30  31
ATOM     31  O   UNL     1      65.281   4.828   5.628  1.00  0.00    -0.461 OA
BRANCH  31  32
ATOM     32  C   UNL     1      65.153   5.996   6.389  1.00  0.00     0.338 C 
ATOM     33  O   UNL     1      65.785   7.039   6.064  1.00  0.00    -0.246 OA
BRANCH  32  34
ATOM     34  C   UNL     1      64.289   5.997   7.588  1.00  0.00     0.060 A 
ATOM     35  C   UNL     1      64.175   7.156   8.379  1.00  0.00     0.015 A 
ATOM     36  C   UNL     1      63.574   4.843   7.961  1.00  0.00     0.015 A 
ATOM     37  C   UNL     1      63.363   7.158   9.518  1.00  0.00     0.001 A 
ATOM     38  C   UNL     1      62.763   4.851   9.101  1.00  0.00     0.001 A 
ATOM     39  C   UNL     1      62.658   6.008   9.879  1.00  0.00     0.000 A 
ENDBRANCH  32  34
ENDBRANCH  31  32
ENDBRANCH  30  31
ENDBRANCH   8  30
TORSDOF 12
ENDMDL
MODEL 9
REMARK VINA RESULT:    -6.736      3.854      7.373
REMARK INTER + INTRA:         -11.658
REMARK INTER:                 -10.143
REMARK INTRA:                  -1.515
REMARK UNBOUND:                -1.181
REMARK SMILES C[C@@]12C[C@@]3(O)O[C@@H](O1)[C@]1(COC(=O)c4ccccc4)[C@H]3C[C@@]12O[C@@H]1O[C@@H](CO)[C@@H](O)[C@H](O)[C@H]1O
REMARK SMILES IDX 1 1 2 2 3 3 4 4 20 5 21 6 22 7 9 8 7 9 8 10 6 11 23 12 24 13
REMARK SMILES IDX 33 14 25 15 31 16 26 17 29 18 34 19 32 21 27 23 28 24 30 26
REMARK SMILES IDX 5 28 10 30 11 31 12 32 13 33 14 34 15 35 19 36 16 37 18 38
REMARK SMILES IDX 17 39
REMARK H PARENT 34 20 32 22 28 25 30 27 5 29
REMARK Flexibility Score: inf
ROOT
ATOM      1  C   UNL     1      63.639   0.098  -2.916  1.00  0.00     0.046 C 
ATOM      2  C   UNL     1      64.413   1.255  -2.286  1.00  0.00     0.104 C 
ATOM      3  C   UNL     1      65.666   1.641  -3.155  1.00  0.00     0.104 C 
ATOM      4  C   UNL     1      66.363   2.762  -2.308  1.00  0.00     0.175 C 
ATOM      5  C   UNL     1      66.520   2.303  -0.824  1.00  0.00     0.070 C 
ATOM      6  C   UNL     1      66.377   0.781  -0.643  1.00  0.00     0.050 C 
ATOM      7  C   UNL     1      64.848   1.009  -0.791  1.00  0.00     0.115 C 
ATOM      8  C   UNL     1      65.065   2.469  -0.392  1.00  0.00     0.096 C 
ATOM      9  C   UNL     1      64.390   3.318  -1.455  1.00  0.00     0.267 C 
ATOM     10  O   UNL     1      63.614   2.421  -2.233  1.00  0.00    -0.342 OA
ATOM     11  O   UNL     1      65.444   3.837  -2.251  1.00  0.00    -0.320 OA
ENDROOT
BRANCH   7  12
ATOM     12  O   UNL     1      63.865   0.322  -0.011  1.00  0.00    -0.339 OA
BRANCH  12  13
ATOM     13  C   UNL     1      64.345  -0.800   0.713  1.00  0.00     0.282 C 
ATOM     14  C   UNL     1      63.741  -0.806   2.142  1.00  0.00     0.202 C 
ATOM     15  O   UNL     1      64.097  -2.022   0.030  1.00  0.00    -0.341 OA
ATOM     16  C   UNL     1      62.262  -1.245   2.147  1.00  0.00     0.179 C 
ATOM     17  C   UNL     1      62.708  -2.275  -0.105  1.00  0.00     0.178 C 
ATOM     18  C   UNL     1      62.045  -2.495   1.270  1.00  0.00     0.177 C 
BRANCH  14  19
ATOM     19  O   UNL     1      64.500  -1.605   3.019  1.00  0.00    -0.385 OA
ATOM     20  H   UNL     1      65.349  -1.845   2.566  1.00  0.00     0.211 HD
ENDBRANCH  14  19
BRANCH  16  21
ATOM     21  O   UNL     1      61.468  -0.185   1.674  1.00  0.00    -0.387 OA
ATOM     22  H   UNL     1      61.138   0.308   2.471  1.00  0.00     0.211 HD
ENDBRANCH  16  21
BRANCH  17  23
ATOM     23  C   UNL     1      62.497  -3.469  -1.050  1.00  0.00     0.191 C 
BRANCH  23  24
ATOM     24  O   UNL     1      62.082  -3.050  -2.323  1.00  0.00    -0.394 OA
ATOM     25  H   UNL     1      62.797  -2.459  -2.678  1.00  0.00     0.210 HD
ENDBRANCH  23  24
ENDBRANCH  17  23
BRANCH  18  26
ATOM     26  O   UNL     1      62.584  -3.631   1.898  1.00  0.00    -0.387 OA
ATOM     27  H   UNL     1      62.620  -4.348   1.212  1.00  0.00     0.211 HD
ENDBRANCH  18  26
ENDBRANCH  12  13
ENDBRANCH   7  12
BRANCH   4  28
ATOM     28  O   UNL     1      67.589   3.162  -2.855  1.00  0.00    -0.365 OA
ATOM     29  H   UNL     1      68.117   2.335  -3.004  1.00  0.00     0.214 HD
ENDBRANCH   4  28
BRANCH   8  30
ATOM     30  C   UNL     1      64.824   2.875   1.079  1.00  0.00     0.249 C 
BRANCH  30  31
ATOM     31  O   UNL     1      63.609   3.613   1.203  1.00  0.00    -0.461 OA
BRANCH  31  32
ATOM     32  C   UNL     1      62.459   3.130   1.838  1.00  0.00     0.338 C 
ATOM     33  O   UNL     1      61.478   2.724   1.154  1.00  0.00    -0.246 OA
BRANCH  32  34
ATOM     34  C   UNL     1      62.389   3.115   3.314  1.00  0.00     0.060 A 
ATOM     35  C   UNL     1      61.414   2.338   3.970  1.00  0.00     0.015 A 
ATOM     36  C   UNL     1      63.285   3.878   4.086  1.00  0.00     0.015 A 
ATOM     37  C   UNL     1      61.341   2.327   5.366  1.00  0.00     0.001 A 
ATOM     38  C   UNL     1      63.207   3.863   5.482  1.00  0.00     0.001 A 
ATOM     39  C   UNL     1      62.236   3.088   6.122  1.00  0.00     0.000 A 
ENDBRANCH  32  34
ENDBRANCH  31  32
ENDBRANCH  30  31
ENDBRANCH   8  30
TORSDOF 12
ENDMDL
