MODEL 1
REMARK VINA RESULT:    25.199      0.000      0.000
REMARK INTER + INTRA:          26.672
REMARK INTER:                  26.672
REMARK INTRA:                   0.000
REMARK UNBOUND:                 0.000
REMARK SMILES CC1(C)[C@H](O)CC[C@@]2(C)[C@@H]1CC[C@]1(C)[C@@H]2C=CC2=C(O)C(=O)C(=O)[C@]21C
REMARK SMILES IDX 1 1 2 2 10 3 11 4 12 5 13 6 15 7 8 8 7 9 6 10 4 11 9 12
REMARK SMILES IDX 16 13 17 14 18 15 19 16 21 17 22 18 23 19 24 20 25 21 26 22
REMARK SMILES IDX 14 23 3 24 5 25 20 27
REMARK H PARENT 5 26 20 28
REMARK Flexibility Score: inf
ROOT
ATOM      1  C   UNL     1       3.470  14.815  17.333  1.00  0.00     0.014 C 
ATOM      2  C   UNL     1       4.092  15.748  16.251  1.00  0.00    -0.006 C 
ATOM      3  C   UNL     1       4.175  17.242  16.801  1.00  0.00     0.004 C 
ATOM      4  C   UNL     1       5.331  18.092  16.200  1.00  0.00     0.005 C 
ATOM      5  C   UNL     1       5.643  19.310  17.091  1.00  0.00     0.009 C 
ATOM      6  C   UNL     1       4.378  20.104  17.572  1.00  0.00    -0.009 C 
ATOM      7  C   UNL     1       3.106  19.643  16.761  1.00  0.00     0.025 C 
ATOM      8  C   UNL     1       2.806  18.073  16.781  1.00  0.00    -0.022 C 
ATOM      9  C   UNL     1       1.977  17.765  15.486  1.00  0.00     0.010 C 
ATOM     10  C   UNL     1       1.875  16.288  15.104  1.00  0.00     0.033 C 
ATOM     11  C   UNL     1       3.262  15.664  14.939  1.00  0.00     0.120 C 
ATOM     12  C   UNL     1       1.937  17.700  18.029  1.00  0.00     0.012 C 
ATOM     13  C   UNL     1       1.879  20.534  17.007  1.00  0.00    -0.022 C 
ATOM     14  C   UNL     1       1.975  21.795  17.456  1.00  0.00     0.005 C 
ATOM     15  C   UNL     1       3.289  22.346  17.818  1.00  0.00     0.012 C 
ATOM     16  C   UNL     1       3.514  23.295  18.733  1.00  0.00     0.171 C 
ATOM     17  C   UNL     1       4.927  23.348  19.034  1.00  0.00     0.264 C 
ATOM     18  O   UNL     1       5.485  24.121  19.856  1.00  0.00    -0.282 OA
ATOM     19  C   UNL     1       5.578  22.329  18.238  1.00  0.00     0.217 C 
ATOM     20  O   UNL     1       6.810  22.061  18.268  1.00  0.00    -0.289 OA
ATOM     21  C   UNL     1       4.556  21.668  17.349  1.00  0.00     0.069 C 
ATOM     22  C   UNL     1       4.817  22.118  15.886  1.00  0.00     0.026 C 
ATOM     23  C   UNL     1       4.164  19.816  19.097  1.00  0.00     0.013 C 
ATOM     24  C   UNL     1       5.495  15.139  15.975  1.00  0.00     0.014 C 
ENDROOT
BRANCH  11  25
ATOM     25  O   UNL     1       3.944  16.306  13.889  1.00  0.00    -0.393 OA
ATOM     26  H   UNL     1       3.339  16.296  13.101  1.00  0.00     0.210 HD
ENDBRANCH  11  25
BRANCH  16  27
ATOM     27  O   UNL     1       2.546  24.069  19.374  1.00  0.00    -0.504 OA
ATOM     28  H   UNL     1       1.738  23.656  19.815  1.00  0.00     0.293 HD
ENDBRANCH  16  27
TORSDOF 2
ENDMDL
MODEL 2
REMARK VINA RESULT:    28.030      2.049      3.119
REMARK INTER + INTRA:          29.669
REMARK INTER:                  29.669
REMARK INTRA:                   0.000
REMARK UNBOUND:                 0.000
REMARK SMILES CC1(C)[C@H](O)CC[C@@]2(C)[C@@H]1CC[C@]1(C)[C@@H]2C=CC2=C(O)C(=O)C(=O)[C@]21C
REMARK SMILES IDX 1 1 2 2 10 3 11 4 12 5 13 6 15 7 8 8 7 9 6 10 4 11 9 12
REMARK SMILES IDX 16 13 17 14 18 15 19 16 21 17 22 18 23 19 24 20 25 21 26 22
REMARK SMILES IDX 14 23 3 24 5 25 20 27
REMARK H PARENT 5 26 20 28
REMARK Flexibility Score: inf
ROOT
ATOM      1  C   UNL     1       3.420  16.371  17.348  1.00  0.00     0.014 C 
ATOM      2  C   UNL     1       3.845  17.379  16.238  1.00  0.00    -0.006 C 
ATOM      3  C   UNL     1       4.837  18.471  16.844  1.00  0.00     0.004 C 
ATOM      4  C   UNL     1       5.849  19.065  15.824  1.00  0.00     0.005 C 
ATOM      5  C   UNL     1       7.043  19.719  16.546  1.00  0.00     0.009 C 
ATOM      6  C   UNL     1       6.644  20.648  17.747  1.00  0.00    -0.009 C 
ATOM      7  C   UNL     1       5.093  20.934  17.722  1.00  0.00     0.025 C 
ATOM      8  C   UNL     1       4.154  19.642  17.695  1.00  0.00    -0.022 C 
ATOM      9  C   UNL     1       2.799  20.095  17.047  1.00  0.00     0.010 C 
ATOM     10  C   UNL     1       1.875  18.965  16.593  1.00  0.00     0.033 C 
ATOM     11  C   UNL     1       2.584  18.035  15.607  1.00  0.00     0.120 C 
ATOM     12  C   UNL     1       3.867  19.146  19.153  1.00  0.00     0.012 C 
ATOM     13  C   UNL     1       4.666  22.019  18.722  1.00  0.00    -0.022 C 
ATOM     14  C   UNL     1       5.515  22.937  19.206  1.00  0.00     0.005 C 
ATOM     15  C   UNL     1       6.941  22.877  18.851  1.00  0.00     0.012 C 
ATOM     16  C   UNL     1       7.955  23.314  19.606  1.00  0.00     0.171 C 
ATOM     17  C   UNL     1       9.201  22.805  19.079  1.00  0.00     0.264 C 
ATOM     18  O   UNL     1      10.350  23.016  19.549  1.00  0.00    -0.282 OA
ATOM     19  C   UNL     1       8.883  21.986  17.928  1.00  0.00     0.217 C 
ATOM     20  O   UNL     1       9.723  21.350  17.236  1.00  0.00    -0.289 OA
ATOM     21  C   UNL     1       7.399  22.045  17.674  1.00  0.00     0.069 C 
ATOM     22  C   UNL     1       7.156  22.879  16.387  1.00  0.00     0.026 C 
ATOM     23  C   UNL     1       7.025  19.920  19.081  1.00  0.00     0.013 C 
ATOM     24  C   UNL     1       4.525  16.497  15.154  1.00  0.00     0.014 C 
ENDROOT
BRANCH  11  25
ATOM     25  O   UNL     1       2.938  18.757  14.452  1.00  0.00    -0.393 OA
ATOM     26  H   UNL     1       2.787  19.718  14.653  1.00  0.00     0.210 HD
ENDBRANCH  11  25
BRANCH  16  27
ATOM     27  O   UNL     1       7.848  24.073  20.771  1.00  0.00    -0.504 OA
ATOM     28  H   UNL     1       7.939  25.078  20.764  1.00  0.00     0.293 HD
ENDBRANCH  16  27
TORSDOF 2
ENDMDL
