MODEL 1
REMARK VINA RESULT:    -4.218      0.000      0.000
REMARK INTER + INTRA:          -4.803
REMARK INTER:                  -4.711
REMARK INTRA:                  -0.092
REMARK UNBOUND:                -0.092
REMARK SMILES CCc1ccc(O)cc1O
REMARK SMILES IDX 3 1 9 2 8 3 6 4 5 5 4 6 2 7 1 8 10 9 7 11
REMARK H PARENT 10 10 7 12
REMARK Flexibility Score: inf
ROOT
ATOM      1  C   UNL     1      12.221  20.053  36.866  1.00  0.00    -0.006 A 
ATOM      2  C   UNL     1      12.739  20.078  38.184  1.00  0.00     0.122 A 
ATOM      3  C   UNL     1      14.016  19.560  38.436  1.00  0.00     0.092 A 
ATOM      4  C   UNL     1      14.791  19.034  37.400  1.00  0.00     0.119 A 
ATOM      5  C   UNL     1      14.290  19.026  36.094  1.00  0.00     0.047 A 
ATOM      6  C   UNL     1      13.017  19.535  35.829  1.00  0.00     0.011 A 
ENDROOT
BRANCH   1   7
ATOM      7  C   UNL     1      10.856  20.607  36.527  1.00  0.00     0.036 C 
ATOM      8  C   UNL     1      10.960  21.713  35.482  1.00  0.00     0.009 C 
ENDBRANCH   1   7
BRANCH   2   9
ATOM      9  O   UNL     1      12.025  20.608  39.261  1.00  0.00    -0.508 OA
ATOM     10  H   UNL     1      11.778  20.076  40.085  1.00  0.00     0.293 HD
ENDBRANCH   2   9
BRANCH   4  11
ATOM     11  O   UNL     1      16.058  18.527  37.678  1.00  0.00    -0.508 OA
ATOM     12  H   UNL     1      16.466  18.599  38.603  1.00  0.00     0.293 HD
ENDBRANCH   4  11
TORSDOF 3
ENDMDL
MODEL 2
REMARK VINA RESULT:    -4.182     12.712     13.536
REMARK INTER + INTRA:          -4.763
REMARK INTER:                  -4.678
REMARK INTRA:                  -0.085
REMARK UNBOUND:                -0.092
REMARK SMILES CCc1ccc(O)cc1O
REMARK SMILES IDX 3 1 9 2 8 3 6 4 5 5 4 6 2 7 1 8 10 9 7 11
REMARK H PARENT 10 10 7 12
REMARK Flexibility Score: inf
ROOT
ATOM      1  C   UNL     1      18.448  29.404  28.778  1.00  0.00    -0.006 A 
ATOM      2  C   UNL     1      18.261  28.276  29.615  1.00  0.00     0.122 A 
ATOM      3  C   UNL     1      18.323  26.989  29.067  1.00  0.00     0.092 A 
ATOM      4  C   UNL     1      18.583  26.803  27.707  1.00  0.00     0.119 A 
ATOM      5  C   UNL     1      18.787  27.914  26.882  1.00  0.00     0.047 A 
ATOM      6  C   UNL     1      18.725  29.204  27.414  1.00  0.00     0.011 A 
ENDROOT
BRANCH   1   7
ATOM      7  C   UNL     1      18.406  30.818  29.310  1.00  0.00     0.036 C 
ATOM      8  C   UNL     1      18.634  31.830  28.192  1.00  0.00     0.009 C 
ENDBRANCH   1   7
BRANCH   2   9
ATOM      9  O   UNL     1      18.018  28.392  30.986  1.00  0.00    -0.508 OA
ATOM     10  H   UNL     1      18.146  27.633  31.642  1.00  0.00     0.293 HD
ENDBRANCH   2   9
BRANCH   4  11
ATOM     11  O   UNL     1      18.641  25.512  27.187  1.00  0.00    -0.508 OA
ATOM     12  H   UNL     1      18.942  25.337  26.236  1.00  0.00     0.293 HD
ENDBRANCH   4  11
TORSDOF 3
ENDMDL
MODEL 3
REMARK VINA RESULT:    -4.166     12.844     13.766
REMARK INTER + INTRA:          -4.744
REMARK INTER:                  -4.660
REMARK INTRA:                  -0.084
REMARK UNBOUND:                -0.092
REMARK SMILES CCc1ccc(O)cc1O
REMARK SMILES IDX 3 1 9 2 8 3 6 4 5 5 4 6 2 7 1 8 10 9 7 11
REMARK H PARENT 10 10 7 12
REMARK Flexibility Score: inf
ROOT
ATOM      1  C   UNL     1      18.331  29.208  28.773  1.00  0.00    -0.006 A 
ATOM      2  C   UNL     1      18.464  30.598  29.016  1.00  0.00     0.122 A 
ATOM      3  C   UNL     1      18.377  31.084  30.326  1.00  0.00     0.092 A 
ATOM      4  C   UNL     1      18.179  30.213  31.400  1.00  0.00     0.119 A 
ATOM      5  C   UNL     1      18.068  28.838  31.166  1.00  0.00     0.047 A 
ATOM      6  C   UNL     1      18.147  28.340  29.864  1.00  0.00     0.011 A 
ENDROOT
BRANCH   1   7
ATOM      7  C   UNL     1      18.427  28.620  27.385  1.00  0.00     0.036 C 
ATOM      8  C   UNL     1      17.503  27.414  27.238  1.00  0.00     0.009 C 
ENDBRANCH   1   7
BRANCH   2   9
ATOM      9  O   UNL     1      18.683  31.520  27.989  1.00  0.00    -0.508 OA
ATOM     10  H   UNL     1      18.319  32.463  27.997  1.00  0.00     0.293 HD
ENDBRANCH   2   9
BRANCH   4  11
ATOM     11  O   UNL     1      18.099  30.723  32.693  1.00  0.00    -0.508 OA
ATOM     12  H   UNL     1      18.356  31.681  32.901  1.00  0.00     0.293 HD
ENDBRANCH   4  11
TORSDOF 3
ENDMDL
MODEL 4
REMARK VINA RESULT:    -4.162     12.645     13.546
REMARK INTER + INTRA:          -4.740
REMARK INTER:                  -4.655
REMARK INTRA:                  -0.085
REMARK UNBOUND:                -0.092
REMARK SMILES CCc1ccc(O)cc1O
REMARK SMILES IDX 3 1 9 2 8 3 6 4 5 5 4 6 2 7 1 8 10 9 7 11
REMARK H PARENT 10 10 7 12
REMARK Flexibility Score: inf
ROOT
ATOM      1  C   UNL     1      18.325  29.312  29.675  1.00  0.00    -0.006 A 
ATOM      2  C   UNL     1      18.416  29.700  28.316  1.00  0.00     0.122 A 
ATOM      3  C   UNL     1      18.434  28.721  27.315  1.00  0.00     0.092 A 
ATOM      4  C   UNL     1      18.347  27.365  27.640  1.00  0.00     0.119 A 
ATOM      5  C   UNL     1      18.238  26.979  28.980  1.00  0.00     0.047 A 
ATOM      6  C   UNL     1      18.223  27.944  29.989  1.00  0.00     0.011 A 
ENDROOT
BRANCH   1   7
ATOM      7  C   UNL     1      18.289  30.320  30.800  1.00  0.00     0.036 C 
ATOM      8  C   UNL     1      17.720  29.699  32.072  1.00  0.00     0.009 C 
ENDBRANCH   1   7
BRANCH   2   9
ATOM      9  O   UNL     1      18.485  31.039  27.922  1.00  0.00    -0.508 OA
ATOM     10  H   UNL     1      17.975  31.417  27.135  1.00  0.00     0.293 HD
ENDBRANCH   2   9
BRANCH   4  11
ATOM     11  O   UNL     1      18.366  26.412  26.625  1.00  0.00    -0.508 OA
ATOM     12  H   UNL     1      18.754  26.619  25.712  1.00  0.00     0.293 HD
ENDBRANCH   4  11
TORSDOF 3
ENDMDL
MODEL 5
REMARK VINA RESULT:    -4.144     13.092     14.035
REMARK INTER + INTRA:          -4.721
REMARK INTER:                  -4.635
REMARK INTRA:                  -0.085
REMARK UNBOUND:                -0.092
REMARK SMILES CCc1ccc(O)cc1O
REMARK SMILES IDX 3 1 9 2 8 3 6 4 5 5 4 6 2 7 1 8 10 9 7 11
REMARK H PARENT 10 10 7 12
REMARK Flexibility Score: inf
ROOT
ATOM      1  C   UNL     1      18.302  29.016  29.027  1.00  0.00    -0.006 A 
ATOM      2  C   UNL     1      18.207  29.420  30.382  1.00  0.00     0.122 A 
ATOM      3  C   UNL     1      18.292  30.779  30.708  1.00  0.00     0.092 A 
ATOM      4  C   UNL     1      18.452  31.744  29.710  1.00  0.00     0.119 A 
ATOM      5  C   UNL     1      18.527  31.350  28.370  1.00  0.00     0.047 A 
ATOM      6  C   UNL     1      18.448  29.998  28.031  1.00  0.00     0.011 A 
ENDROOT
BRANCH   1   7
ATOM      7  C   UNL     1      18.207  27.567  28.611  1.00  0.00     0.036 C 
ATOM      8  C   UNL     1      17.575  27.436  27.228  1.00  0.00     0.009 C 
ENDBRANCH   1   7
BRANCH   2   9
ATOM      9  O   UNL     1      18.027  28.508  31.425  1.00  0.00    -0.508 OA
ATOM     10  H   UNL     1      18.675  28.402  32.194  1.00  0.00     0.293 HD
ENDBRANCH   2   9
BRANCH   4  11
ATOM     11  O   UNL     1      18.532  33.089  30.061  1.00  0.00    -0.508 OA
ATOM     12  H   UNL     1      19.302  33.672  29.753  1.00  0.00     0.293 HD
ENDBRANCH   4  11
TORSDOF 3
ENDMDL
MODEL 6
REMARK VINA RESULT:    -4.111     10.909     11.895
REMARK INTER + INTRA:          -4.683
REMARK INTER:                  -4.598
REMARK INTRA:                  -0.085
REMARK UNBOUND:                -0.092
REMARK SMILES CCc1ccc(O)cc1O
REMARK SMILES IDX 3 1 9 2 8 3 6 4 5 5 4 6 2 7 1 8 10 9 7 11
REMARK H PARENT 10 10 7 12
REMARK Flexibility Score: inf
ROOT
ATOM      1  C   UNL     1      18.908  28.107  33.416  1.00  0.00    -0.006 A 
ATOM      2  C   UNL     1      18.553  28.778  32.219  1.00  0.00     0.122 A 
ATOM      3  C   UNL     1      17.691  29.881  32.271  1.00  0.00     0.092 A 
ATOM      4  C   UNL     1      17.190  30.338  33.492  1.00  0.00     0.119 A 
ATOM      5  C   UNL     1      17.553  29.690  34.677  1.00  0.00     0.047 A 
ATOM      6  C   UNL     1      18.408  28.587  34.640  1.00  0.00     0.011 A 
ENDROOT
BRANCH   1   7
ATOM      7  C   UNL     1      19.842  26.920  33.427  1.00  0.00     0.036 C 
ATOM      8  C   UNL     1      20.242  26.553  34.853  1.00  0.00     0.009 C 
ENDBRANCH   1   7
BRANCH   2   9
ATOM      9  O   UNL     1      19.036  28.385  30.968  1.00  0.00    -0.508 OA
ATOM     10  H   UNL     1      18.840  27.485  30.551  1.00  0.00     0.293 HD
ENDBRANCH   2   9
BRANCH   4  11
ATOM     11  O   UNL     1      16.336  31.438  33.516  1.00  0.00    -0.508 OA
ATOM     12  H   UNL     1      16.015  31.877  32.661  1.00  0.00     0.293 HD
ENDBRANCH   4  11
TORSDOF 3
ENDMDL
MODEL 7
REMARK VINA RESULT:    -4.061      1.477      2.567
REMARK INTER + INTRA:          -4.628
REMARK INTER:                  -4.543
REMARK INTRA:                  -0.085
REMARK UNBOUND:                -0.092
REMARK SMILES CCc1ccc(O)cc1O
REMARK SMILES IDX 3 1 9 2 8 3 6 4 5 5 4 6 2 7 1 8 10 9 7 11
REMARK H PARENT 10 10 7 12
REMARK Flexibility Score: inf
ROOT
ATOM      1  C   UNL     1      12.292  20.121  36.888  1.00  0.00    -0.006 A 
ATOM      2  C   UNL     1      13.564  19.499  36.947  1.00  0.00     0.122 A 
ATOM      3  C   UNL     1      14.224  19.385  38.177  1.00  0.00     0.092 A 
ATOM      4  C   UNL     1      13.635  19.862  39.350  1.00  0.00     0.119 A 
ATOM      5  C   UNL     1      12.371  20.459  39.299  1.00  0.00     0.047 A 
ATOM      6  C   UNL     1      11.703  20.583  38.079  1.00  0.00     0.011 A 
ENDROOT
BRANCH   1   7
ATOM      7  C   UNL     1      11.524  20.264  35.595  1.00  0.00     0.036 C 
ATOM      8  C   UNL     1      10.938  21.665  35.460  1.00  0.00     0.009 C 
ENDBRANCH   1   7
BRANCH   2   9
ATOM      9  O   UNL     1      14.199  18.983  35.814  1.00  0.00    -0.508 OA
ATOM     10  H   UNL     1      13.838  18.207  35.276  1.00  0.00     0.293 HD
ENDBRANCH   2   9
BRANCH   4  11
ATOM     11  O   UNL     1      14.312  19.735  40.560  1.00  0.00    -0.508 OA
ATOM     12  H   UNL     1      15.312  19.887  40.626  1.00  0.00     0.293 HD
ENDBRANCH   4  11
TORSDOF 3
ENDMDL
MODEL 8
REMARK VINA RESULT:    -4.052     12.718     13.683
REMARK INTER + INTRA:          -4.617
REMARK INTER:                  -4.532
REMARK INTRA:                  -0.085
REMARK UNBOUND:                -0.092
REMARK SMILES CCc1ccc(O)cc1O
REMARK SMILES IDX 3 1 9 2 8 3 6 4 5 5 4 6 2 7 1 8 10 9 7 11
REMARK H PARENT 10 10 7 12
REMARK Flexibility Score: inf
ROOT
ATOM      1  C   UNL     1      18.585  28.330  27.850  1.00  0.00    -0.006 A 
ATOM      2  C   UNL     1      18.386  27.563  29.025  1.00  0.00     0.122 A 
ATOM      3  C   UNL     1      18.208  28.210  30.254  1.00  0.00     0.092 A 
ATOM      4  C   UNL     1      18.207  29.605  30.333  1.00  0.00     0.119 A 
ATOM      5  C   UNL     1      18.383  30.365  29.173  1.00  0.00     0.047 A 
ATOM      6  C   UNL     1      18.566  29.734  27.941  1.00  0.00     0.011 A 
ENDROOT
BRANCH   1   7
ATOM      7  C   UNL     1      18.771  27.693  26.493  1.00  0.00     0.036 C 
ATOM      8  C   UNL     1      19.841  28.423  25.689  1.00  0.00     0.009 C 
ENDBRANCH   1   7
BRANCH   2   9
ATOM      9  O   UNL     1      18.356  26.166  29.011  1.00  0.00    -0.508 OA
ATOM     10  H   UNL     1      19.183  25.588  29.075  1.00  0.00     0.293 HD
ENDBRANCH   2   9
BRANCH   4  11
ATOM     11  O   UNL     1      18.026  30.223  31.568  1.00  0.00    -0.508 OA
ATOM     12  H   UNL     1      18.217  31.209  31.699  1.00  0.00     0.293 HD
ENDBRANCH   4  11
TORSDOF 3
ENDMDL
MODEL 9
REMARK VINA RESULT:    -4.041     10.957     11.719
REMARK INTER + INTRA:          -4.605
REMARK INTER:                  -4.520
REMARK INTRA:                  -0.084
REMARK UNBOUND:                -0.092
REMARK SMILES CCc1ccc(O)cc1O
REMARK SMILES IDX 3 1 9 2 8 3 6 4 5 5 4 6 2 7 1 8 10 9 7 11
REMARK H PARENT 10 10 7 12
REMARK Flexibility Score: inf
ROOT
ATOM      1  C   UNL     1      18.765  28.287  33.010  1.00  0.00    -0.006 A 
ATOM      2  C   UNL     1      19.516  27.273  32.365  1.00  0.00     0.122 A 
ATOM      3  C   UNL     1      19.538  27.210  30.967  1.00  0.00     0.092 A 
ATOM      4  C   UNL     1      18.841  28.147  30.198  1.00  0.00     0.119 A 
ATOM      5  C   UNL     1      18.114  29.160  30.832  1.00  0.00     0.047 A 
ATOM      6  C   UNL     1      18.080  29.232  32.225  1.00  0.00     0.011 A 
ENDROOT
BRANCH   1   7
ATOM      7  C   UNL     1      18.710  28.416  34.515  1.00  0.00     0.036 C 
ATOM      8  C   UNL     1      17.502  29.239  34.949  1.00  0.00     0.009 C 
ENDBRANCH   1   7
BRANCH   2   9
ATOM      9  O   UNL     1      20.251  26.320  33.074  1.00  0.00    -0.508 OA
ATOM     10  H   UNL     1      21.241  26.402  33.260  1.00  0.00     0.293 HD
ENDBRANCH   2   9
BRANCH   4  11
ATOM     11  O   UNL     1      18.881  28.062  28.809  1.00  0.00    -0.508 OA
ATOM     12  H   UNL     1      18.615  27.214  28.322  1.00  0.00     0.293 HD
ENDBRANCH   4  11
TORSDOF 3
ENDMDL
