MODEL 1
REMARK VINA RESULT:    -5.170      0.000      0.000
REMARK INTER + INTRA:          -7.737
REMARK INTER:                  -7.587
REMARK INTRA:                  -0.150
REMARK UNBOUND:                -0.150
REMARK SMILES O=C([O-])CCCCCCCC(=O)[O-]
REMARK SMILES IDX 7 1 6 2 5 3 4 4 2 5 1 6 3 7 8 8 9 9 10 10 11 11 12 12 13 13
REMARK H PARENT
REMARK Flexibility Score: inf
ROOT
ATOM      1  C   UNL     1       4.157  44.348  11.713  1.00  0.00     0.000 C 
ENDROOT
BRANCH   1   2
ATOM      2  C   UNL     1       3.196  43.150  11.745  1.00  0.00     0.000 C 
BRANCH   2   3
ATOM      3  C   UNL     1       3.970  41.827  11.762  1.00  0.00     0.006 C 
BRANCH   3   4
ATOM      4  C   UNL     1       3.039  40.649  12.063  1.00  0.00     0.053 C 
BRANCH   4   5
ATOM      5  C   UNL     1       3.813  39.499  12.626  1.00  0.00     0.041 C 
ATOM      6  O   UNL     1       4.851  39.707  13.307  1.00  0.00    -0.550 OA
ATOM      7  O   UNL     1       3.361  38.198  12.440  1.00  0.00    -0.550 OA
ENDBRANCH   4   5
ENDBRANCH   3   4
ENDBRANCH   2   3
ENDBRANCH   1   2
BRANCH   1   8
ATOM      8  C   UNL     1       4.088  45.128  10.391  1.00  0.00     0.000 C 
BRANCH   8   9
ATOM      9  C   UNL     1       4.795  46.489  10.468  1.00  0.00     0.006 C 
BRANCH   9  10
ATOM     10  C   UNL     1       5.199  46.978   9.074  1.00  0.00     0.053 C 
BRANCH  10  11
ATOM     11  C   UNL     1       6.374  47.899   9.160  1.00  0.00     0.041 C 
ATOM     12  O   UNL     1       6.259  49.106   8.819  1.00  0.00    -0.550 OA
ATOM     13  O   UNL     1       7.609  47.414   9.571  1.00  0.00    -0.550 OA
ENDBRANCH  10  11
ENDBRANCH   9  10
ENDBRANCH   8   9
ENDBRANCH   1   8
TORSDOF 8
ENDMDL
MODEL 2
REMARK VINA RESULT:    -5.105      1.831      2.245
REMARK INTER + INTRA:          -7.643
REMARK INTER:                  -7.316
REMARK INTRA:                  -0.327
REMARK UNBOUND:                -0.150
REMARK SMILES O=C([O-])CCCCCCCC(=O)[O-]
REMARK SMILES IDX 7 1 6 2 5 3 4 4 2 5 1 6 3 7 8 8 9 9 10 10 11 11 12 12 13 13
REMARK H PARENT
REMARK Flexibility Score: inf
ROOT
ATOM      1  C   UNL     1       2.650  42.855   9.829  1.00  0.00     0.000 C 
ENDROOT
BRANCH   1   2
ATOM      2  C   UNL     1       2.577  42.507  11.324  1.00  0.00     0.000 C 
BRANCH   2   3
ATOM      3  C   UNL     1       3.530  41.357  11.668  1.00  0.00     0.006 C 
BRANCH   3   4
ATOM      4  C   UNL     1       2.815  40.277  12.486  1.00  0.00     0.053 C 
BRANCH   4   5
ATOM      5  C   UNL     1       3.685  39.068  12.632  1.00  0.00     0.041 C 
ATOM      6  O   UNL     1       4.770  39.142  13.265  1.00  0.00    -0.550 OA
ATOM      7  O   UNL     1       3.274  37.848  12.110  1.00  0.00    -0.550 OA
ENDBRANCH   4   5
ENDBRANCH   3   4
ENDBRANCH   2   3
ENDBRANCH   1   2
BRANCH   1   8
ATOM      8  C   UNL     1       3.840  43.765   9.490  1.00  0.00     0.000 C 
BRANCH   8   9
ATOM      9  C   UNL     1       4.062  44.865  10.538  1.00  0.00     0.006 C 
BRANCH   9  10
ATOM     10  C   UNL     1       4.614  46.138   9.888  1.00  0.00     0.053 C 
BRANCH  10  11
ATOM     11  C   UNL     1       3.519  46.899   9.210  1.00  0.00     0.041 C 
ATOM     12  O   UNL     1       3.744  47.508   8.132  1.00  0.00    -0.550 OA
ATOM     13  O   UNL     1       2.261  46.975   9.795  1.00  0.00    -0.550 OA
ENDBRANCH  10  11
ENDBRANCH   9  10
ENDBRANCH   8   9
ENDBRANCH   1   8
TORSDOF 8
ENDMDL
MODEL 3
REMARK VINA RESULT:    -5.105      1.348      7.451
REMARK INTER + INTRA:          -7.642
REMARK INTER:                  -7.336
REMARK INTRA:                  -0.306
REMARK UNBOUND:                -0.150
REMARK SMILES O=C([O-])CCCCCCCC(=O)[O-]
REMARK SMILES IDX 7 1 6 2 5 3 4 4 2 5 1 6 3 7 8 8 9 9 10 10 11 11 12 12 13 13
REMARK H PARENT
REMARK Flexibility Score: inf
ROOT
ATOM      1  C   UNL     1       4.135  43.253  10.661  1.00  0.00     0.000 C 
ENDROOT
BRANCH   1   2
ATOM      2  C   UNL     1       3.953  44.435  11.626  1.00  0.00     0.000 C 
BRANCH   2   3
ATOM      3  C   UNL     1       4.359  45.754  10.961  1.00  0.00     0.006 C 
BRANCH   3   4
ATOM      4  C   UNL     1       3.686  45.910   9.594  1.00  0.00     0.053 C 
BRANCH   4   5
ATOM      5  C   UNL     1       4.309  47.035   8.828  1.00  0.00     0.041 C 
ATOM      6  O   UNL     1       5.513  47.345   9.026  1.00  0.00    -0.550 OA
ATOM      7  O   UNL     1       3.575  47.708   7.860  1.00  0.00    -0.550 OA
ENDBRANCH   4   5
ENDBRANCH   3   4
ENDBRANCH   2   3
ENDBRANCH   1   2
BRANCH   1   8
ATOM      8  C   UNL     1       2.897  42.346  10.593  1.00  0.00     0.000 C 
BRANCH   8   9
ATOM      9  C   UNL     1       2.834  41.340  11.752  1.00  0.00     0.006 C 
BRANCH   9  10
ATOM     10  C   UNL     1       4.234  40.841  12.122  1.00  0.00     0.053 C 
BRANCH  10  11
ATOM     11  C   UNL     1       4.156  39.505  12.789  1.00  0.00     0.041 C 
ATOM     12  O   UNL     1       5.040  39.158  13.616  1.00  0.00    -0.550 OA
ATOM     13  O   UNL     1       3.134  38.624  12.462  1.00  0.00    -0.550 OA
ENDBRANCH  10  11
ENDBRANCH   9  10
ENDBRANCH   8   9
ENDBRANCH   1   8
TORSDOF 8
ENDMDL
MODEL 4
REMARK VINA RESULT:    -5.099      1.275      7.419
REMARK INTER + INTRA:          -7.633
REMARK INTER:                  -7.272
REMARK INTRA:                  -0.361
REMARK UNBOUND:                -0.150
REMARK SMILES O=C([O-])CCCCCCCC(=O)[O-]
REMARK SMILES IDX 7 1 6 2 5 3 4 4 2 5 1 6 3 7 8 8 9 9 10 10 11 11 12 12 13 13
REMARK H PARENT
REMARK Flexibility Score: inf
ROOT
ATOM      1  C   UNL     1       2.775  42.556   9.882  1.00  0.00     0.000 C 
ENDROOT
BRANCH   1   2
ATOM      2  C   UNL     1       3.799  43.609   9.432  1.00  0.00     0.000 C 
BRANCH   2   3
ATOM      3  C   UNL     1       3.390  45.009   9.903  1.00  0.00     0.006 C 
BRANCH   3   4
ATOM      4  C   UNL     1       4.604  45.797  10.405  1.00  0.00     0.053 C 
BRANCH   4   5
ATOM      5  C   UNL     1       5.031  46.807   9.388  1.00  0.00     0.041 C 
ATOM      6  O   UNL     1       4.184  47.320   8.611  1.00  0.00    -0.550 OA
ATOM      7  O   UNL     1       6.356  47.219   9.330  1.00  0.00    -0.550 OA
ENDBRANCH   4   5
ENDBRANCH   3   4
ENDBRANCH   2   3
ENDBRANCH   1   2
BRANCH   1   8
ATOM      8  C   UNL     1       2.425  42.669  11.374  1.00  0.00     0.000 C 
BRANCH   8   9
ATOM      9  C   UNL     1       2.550  41.330  12.116  1.00  0.00     0.006 C 
BRANCH   9  10
ATOM     10  C   UNL     1       4.005  40.851  12.140  1.00  0.00     0.053 C 
BRANCH  10  11
ATOM     11  C   UNL     1       4.104  39.507  12.789  1.00  0.00     0.041 C 
ATOM     12  O   UNL     1       5.036  39.262  13.599  1.00  0.00    -0.550 OA
ATOM     13  O   UNL     1       3.196  38.509  12.462  1.00  0.00    -0.550 OA
ENDBRANCH  10  11
ENDBRANCH   9  10
ENDBRANCH   8   9
ENDBRANCH   1   8
TORSDOF 8
ENDMDL
MODEL 5
REMARK VINA RESULT:    -5.072      0.181      7.827
REMARK INTER + INTRA:          -7.594
REMARK INTER:                  -7.455
REMARK INTRA:                  -0.140
REMARK UNBOUND:                -0.150
REMARK SMILES O=C([O-])CCCCCCCC(=O)[O-]
REMARK SMILES IDX 7 1 6 2 5 3 4 4 2 5 1 6 3 7 8 8 9 9 10 10 11 11 12 12 13 13
REMARK H PARENT
REMARK Flexibility Score: inf
ROOT
ATOM      1  C   UNL     1       4.338  44.324  11.448  1.00  0.00     0.000 C 
ENDROOT
BRANCH   1   2
ATOM      2  C   UNL     1       3.964  45.289  10.313  1.00  0.00     0.000 C 
BRANCH   2   3
ATOM      3  C   UNL     1       4.786  46.581  10.398  1.00  0.00     0.006 C 
BRANCH   3   4
ATOM      4  C   UNL     1       5.291  47.003   9.016  1.00  0.00     0.053 C 
BRANCH   4   5
ATOM      5  C   UNL     1       6.486  47.894   9.144  1.00  0.00     0.041 C 
ATOM      6  O   UNL     1       7.597  47.416   9.496  1.00  0.00    -0.550 OA
ATOM      7  O   UNL     1       6.386  49.243   8.827  1.00  0.00    -0.550 OA
ENDBRANCH   4   5
ENDBRANCH   3   4
ENDBRANCH   2   3
ENDBRANCH   1   2
BRANCH   1   8
ATOM      8  C   UNL     1       3.335  43.169  11.599  1.00  0.00     0.000 C 
BRANCH   8   9
ATOM      9  C   UNL     1       4.022  41.805  11.757  1.00  0.00     0.006 C 
BRANCH   9  10
ATOM     10  C   UNL     1       2.993  40.700  12.018  1.00  0.00     0.053 C 
BRANCH  10  11
ATOM     11  C   UNL     1       3.660  39.484  12.577  1.00  0.00     0.041 C 
ATOM     12  O   UNL     1       3.097  38.360  12.500  1.00  0.00    -0.550 OA
ATOM     13  O   UNL     1       4.882  39.598  13.227  1.00  0.00    -0.550 OA
ENDBRANCH  10  11
ENDBRANCH   9  10
ENDBRANCH   8   9
ENDBRANCH   1   8
TORSDOF 8
ENDMDL
MODEL 6
REMARK VINA RESULT:    -4.936      2.044      6.866
REMARK INTER + INTRA:          -7.394
REMARK INTER:                  -6.897
REMARK INTRA:                  -0.497
REMARK UNBOUND:                -0.150
REMARK SMILES O=C([O-])CCCCCCCC(=O)[O-]
REMARK SMILES IDX 7 1 6 2 5 3 4 4 2 5 1 6 3 7 8 8 9 9 10 10 11 11 12 12 13 13
REMARK H PARENT
REMARK Flexibility Score: inf
ROOT
ATOM      1  C   UNL     1       2.780  45.970   9.936  1.00  0.00     0.000 C 
ENDROOT
BRANCH   1   2
ATOM      2  C   UNL     1       2.675  47.063   8.861  1.00  0.00     0.000 C 
BRANCH   2   3
ATOM      3  C   UNL     1       4.065  47.495   8.380  1.00  0.00     0.006 C 
BRANCH   3   4
ATOM      4  C   UNL     1       5.149  47.056   9.368  1.00  0.00     0.053 C 
BRANCH   4   5
ATOM      5  C   UNL     1       6.374  47.902   9.212  1.00  0.00     0.041 C 
ATOM      6  O   UNL     1       7.514  47.410   9.420  1.00  0.00    -0.550 OA
ATOM      7  O   UNL     1       6.259  49.220   8.790  1.00  0.00    -0.550 OA
ENDBRANCH   4   5
ENDBRANCH   3   4
ENDBRANCH   2   3
ENDBRANCH   1   2
BRANCH   1   8
ATOM      8  C   UNL     1       1.719  44.872   9.771  1.00  0.00     0.000 C 
BRANCH   8   9
ATOM      9  C   UNL     1       2.320  43.529   9.329  1.00  0.00     0.006 C 
BRANCH   9  10
ATOM     10  C   UNL     1       3.785  43.415   9.761  1.00  0.00     0.053 C 
BRANCH  10  11
ATOM     11  C   UNL     1       3.881  42.898  11.161  1.00  0.00     0.041 C 
ATOM     12  O   UNL     1       4.387  43.612  12.066  1.00  0.00    -0.550 OA
ATOM     13  O   UNL     1       3.457  41.609  11.456  1.00  0.00    -0.550 OA
ENDBRANCH  10  11
ENDBRANCH   9  10
ENDBRANCH   8   9
ENDBRANCH   1   8
TORSDOF 8
ENDMDL
MODEL 7
REMARK VINA RESULT:    -4.853      3.534      4.187
REMARK INTER + INTRA:          -7.273
REMARK INTER:                  -6.616
REMARK INTRA:                  -0.657
REMARK UNBOUND:                -0.150
REMARK SMILES O=C([O-])CCCCCCCC(=O)[O-]
REMARK SMILES IDX 7 1 6 2 5 3 4 4 2 5 1 6 3 7 8 8 9 9 10 10 11 11 12 12 13 13
REMARK H PARENT
REMARK Flexibility Score: inf
ROOT
ATOM      1  C   UNL     1       4.338  44.333  11.581  1.00  0.00     0.000 C 
ENDROOT
BRANCH   1   2
ATOM      2  C   UNL     1       4.196  43.237  10.514  1.00  0.00     0.000 C 
BRANCH   2   3
ATOM      3  C   UNL     1       2.751  42.732  10.434  1.00  0.00     0.006 C 
BRANCH   3   4
ATOM      4  C   UNL     1       2.109  43.111   9.096  1.00  0.00     0.053 C 
BRANCH   4   5
ATOM      5  C   UNL     1       1.122  44.220   9.284  1.00  0.00     0.041 C 
ATOM      6  O   UNL     1       0.899  44.681  10.434  1.00  0.00    -0.550 OA
ATOM      7  O   UNL     1       0.483  44.777   8.183  1.00  0.00    -0.550 OA
ENDBRANCH   4   5
ENDBRANCH   3   4
ENDBRANCH   2   3
ENDBRANCH   1   2
BRANCH   1   8
ATOM      8  C   UNL     1       4.187  45.748  11.001  1.00  0.00     0.000 C 
BRANCH   8   9
ATOM      9  C   UNL     1       4.496  45.808   9.498  1.00  0.00     0.006 C 
BRANCH   9  10
ATOM     10  C   UNL     1       4.813  47.241   9.060  1.00  0.00     0.053 C 
BRANCH  10  11
ATOM     11  C   UNL     1       3.741  47.764   8.158  1.00  0.00     0.041 C 
ATOM     12  O   UNL     1       4.021  48.595   7.255  1.00  0.00    -0.550 OA
ATOM     13  O   UNL     1       2.422  47.370   8.345  1.00  0.00    -0.550 OA
ENDBRANCH  10  11
ENDBRANCH   9  10
ENDBRANCH   8   9
ENDBRANCH   1   8
TORSDOF 8
ENDMDL
MODEL 8
REMARK VINA RESULT:    -4.822      3.546      6.850
REMARK INTER + INTRA:          -7.226
REMARK INTER:                  -6.611
REMARK INTRA:                  -0.615
REMARK UNBOUND:                -0.150
REMARK SMILES O=C([O-])CCCCCCCC(=O)[O-]
REMARK SMILES IDX 7 1 6 2 5 3 4 4 2 5 1 6 3 7 8 8 9 9 10 10 11 11 12 12 13 13
REMARK H PARENT
REMARK Flexibility Score: inf
ROOT
ATOM      1  C   UNL     1       4.254  44.516  10.986  1.00  0.00     0.000 C 
ENDROOT
BRANCH   1   2
ATOM      2  C   UNL     1       4.422  46.010  10.668  1.00  0.00     0.000 C 
BRANCH   2   3
ATOM      3  C   UNL     1       4.766  46.221   9.189  1.00  0.00     0.006 C 
BRANCH   3   4
ATOM      4  C   UNL     1       4.769  47.710   8.832  1.00  0.00     0.053 C 
BRANCH   4   5
ATOM      5  C   UNL     1       6.153  48.272   8.938  1.00  0.00     0.041 C 
ATOM      6  O   UNL     1       6.351  49.502   8.763  1.00  0.00    -0.550 OA
ATOM      7  O   UNL     1       7.215  47.444   9.278  1.00  0.00    -0.550 OA
ENDBRANCH   4   5
ENDBRANCH   3   4
ENDBRANCH   2   3
ENDBRANCH   1   2
BRANCH   1   8
ATOM      8  C   UNL     1       3.747  43.707   9.782  1.00  0.00     0.000 C 
BRANCH   8   9
ATOM      9  C   UNL     1       2.295  43.237   9.953  1.00  0.00     0.006 C 
BRANCH   9  10
ATOM     10  C   UNL     1       1.336  44.113   9.142  1.00  0.00     0.053 C 
BRANCH  10  11
ATOM     11  C   UNL     1       0.785  45.214   9.991  1.00  0.00     0.041 C 
ATOM     12  O   UNL     1       1.082  46.412   9.745  1.00  0.00    -0.550 OA
ATOM     13  O   UNL     1      -0.017  44.914  11.084  1.00  0.00    -0.550 OA
ENDBRANCH  10  11
ENDBRANCH   9  10
ENDBRANCH   8   9
ENDBRANCH   1   8
TORSDOF 8
ENDMDL
MODEL 9
REMARK VINA RESULT:    -4.815      2.154      2.830
REMARK INTER + INTRA:          -7.217
REMARK INTER:                  -6.612
REMARK INTRA:                  -0.605
REMARK UNBOUND:                -0.150
REMARK SMILES O=C([O-])CCCCCCCC(=O)[O-]
REMARK SMILES IDX 7 1 6 2 5 3 4 4 2 5 1 6 3 7 8 8 9 9 10 10 11 11 12 12 13 13
REMARK H PARENT
REMARK Flexibility Score: inf
ROOT
ATOM      1  C   UNL     1       1.197  45.747   9.517  1.00  0.00     0.000 C 
ENDROOT
BRANCH   1   2
ATOM      2  C   UNL     1       1.555  44.280   9.802  1.00  0.00     0.000 C 
BRANCH   2   3
ATOM      3  C   UNL     1       1.200  43.900  11.244  1.00  0.00     0.006 C 
BRANCH   3   4
ATOM      4  C   UNL     1       2.463  43.627  12.067  1.00  0.00     0.053 C 
BRANCH   4   5
ATOM      5  C   UNL     1       3.277  42.543  11.435  1.00  0.00     0.041 C 
ATOM      6  O   UNL     1       2.883  41.348  11.480  1.00  0.00    -0.550 OA
ATOM      7  O   UNL     1       4.445  42.858  10.752  1.00  0.00    -0.550 OA
ENDBRANCH   4   5
ENDBRANCH   3   4
ENDBRANCH   2   3
ENDBRANCH   1   2
BRANCH   1   8
ATOM      8  C   UNL     1       2.409  46.685   9.624  1.00  0.00     0.000 C 
BRANCH   8   9
ATOM      9  C   UNL     1       3.731  45.987   9.272  1.00  0.00     0.006 C 
BRANCH   9  10
ATOM     10  C   UNL     1       4.873  46.498  10.156  1.00  0.00     0.053 C 
BRANCH  10  11
ATOM     11  C   UNL     1       5.753  47.432   9.388  1.00  0.00     0.041 C 
ATOM     12  O   UNL     1       5.249  48.269   8.594  1.00  0.00    -0.550 OA
ATOM     13  O   UNL     1       7.134  47.346   9.513  1.00  0.00    -0.550 OA
ENDBRANCH  10  11
ENDBRANCH   9  10
ENDBRANCH   8   9
ENDBRANCH   1   8
TORSDOF 8
ENDMDL
