MODEL 1
REMARK VINA RESULT:    -5.081      0.000      0.000
REMARK INTER + INTRA:          -6.316
REMARK INTER:                  -6.121
REMARK INTRA:                  -0.195
REMARK UNBOUND:                -0.195
REMARK SMILES O=c1c(O)c(-c2ccc(O)c(O)c2)oc2cc(O)cc(O)c12
REMARK SMILES IDX 5 1 3 2 2 3 1 4 22 5 20 6 19 7 17 8 16 9 15 10 14 11 6 12
REMARK SMILES IDX 7 13 8 14 9 15 13 16 11 17 10 18 12 20 4 22 21 24 18 26
REMARK H PARENT 10 19 12 21 4 23 21 25 18 27
REMARK Flexibility Score: inf
ROOT
ATOM      1  C   UNL     1      -5.727  -6.900  -8.920  1.00  0.00     0.180 A 
ATOM      2  C   UNL     1      -5.514  -6.053 -10.025  1.00  0.00     0.208 A 
ATOM      3  C   UNL     1      -6.224  -4.845 -10.099  1.00  0.00     0.238 A 
ATOM      4  O   UNL     1      -6.035  -4.073 -11.079  1.00  0.00    -0.285 OA
ATOM      5  C   UNL     1      -7.145  -4.513  -9.084  1.00  0.00     0.111 A 
ATOM      6  C   UNL     1      -7.903  -3.317  -9.087  1.00  0.00     0.134 A 
ATOM      7  C   UNL     1      -8.807  -3.065  -8.043  1.00  0.00     0.093 A 
ATOM      8  C   UNL     1      -8.966  -3.984  -7.001  1.00  0.00     0.123 A 
ATOM      9  C   UNL     1      -8.221  -5.164  -6.994  1.00  0.00     0.094 A 
ATOM     10  C   UNL     1      -7.314  -5.434  -8.023  1.00  0.00     0.146 A 
ATOM     11  O   UNL     1      -6.614  -6.562  -7.989  1.00  0.00    -0.452 OA
ENDROOT
BRANCH   1  12
ATOM     12  C   UNL     1      -5.003  -8.181  -8.760  1.00  0.00     0.025 A 
ATOM     13  C   UNL     1      -3.618  -8.168  -8.532  1.00  0.00     0.016 A 
ATOM     14  C   UNL     1      -2.912  -9.366  -8.399  1.00  0.00     0.051 A 
ATOM     15  C   UNL     1      -3.576 -10.595  -8.506  1.00  0.00     0.157 A 
ATOM     16  C   UNL     1      -5.663  -9.418  -8.887  1.00  0.00     0.062 A 
ATOM     17  C   UNL     1      -4.958 -10.619  -8.757  1.00  0.00     0.158 A 
BRANCH  15  18
ATOM     18  O   UNL     1      -2.868 -11.788  -8.370  1.00  0.00    -0.504 OA
ATOM     19  H   UNL     1      -1.858 -11.818  -8.448  1.00  0.00     0.293 HD
ENDBRANCH  15  18
BRANCH  17  20
ATOM     20  O   UNL     1      -5.646 -11.826  -8.882  1.00  0.00    -0.504 OA
ATOM     21  H   UNL     1      -6.127 -12.084  -9.735  1.00  0.00     0.293 HD
ENDBRANCH  17  20
ENDBRANCH   1  12
BRANCH   2  22
ATOM     22  O   UNL     1      -4.633  -6.427 -11.042  1.00  0.00    -0.502 OA
ATOM     23  H   UNL     1      -4.828  -7.193 -11.676  1.00  0.00     0.293 HD
ENDBRANCH   2  22
BRANCH   6  24
ATOM     24  O   UNL     1      -7.766  -2.382 -10.113  1.00  0.00    -0.507 OA
ATOM     25  H   UNL     1      -8.126  -1.438 -10.027  1.00  0.00     0.293 HD
ENDBRANCH   6  24
BRANCH   8  26
ATOM     26  O   UNL     1      -9.865  -3.734  -5.966  1.00  0.00    -0.508 OA
ATOM     27  H   UNL     1     -10.859  -3.634  -6.139  1.00  0.00     0.293 HD
ENDBRANCH   8  26
TORSDOF 6
ENDMDL
MODEL 2
REMARK VINA RESULT:    -4.888      0.562      1.408
REMARK INTER + INTRA:          -6.083
REMARK INTER:                  -5.976
REMARK INTRA:                  -0.107
REMARK UNBOUND:                -0.195
REMARK SMILES O=c1c(O)c(-c2ccc(O)c(O)c2)oc2cc(O)cc(O)c12
REMARK SMILES IDX 5 1 3 2 2 3 1 4 22 5 20 6 19 7 17 8 16 9 15 10 14 11 6 12
REMARK SMILES IDX 7 13 8 14 9 15 13 16 11 17 10 18 12 20 4 22 21 24 18 26
REMARK H PARENT 10 19 12 21 4 23 21 25 18 27
REMARK Flexibility Score: inf
ROOT
ATOM      1  C   UNL     1      -5.833  -6.977  -8.992  1.00  0.00     0.180 A 
ATOM      2  C   UNL     1      -5.560  -6.099 -10.059  1.00  0.00     0.208 A 
ATOM      3  C   UNL     1      -6.197  -4.849 -10.087  1.00  0.00     0.238 A 
ATOM      4  O   UNL     1      -5.952  -4.050 -11.033  1.00  0.00    -0.285 OA
ATOM      5  C   UNL     1      -7.106  -4.506  -9.067  1.00  0.00     0.111 A 
ATOM      6  C   UNL     1      -7.793  -3.268  -9.025  1.00  0.00     0.134 A 
ATOM      7  C   UNL     1      -8.691  -3.006  -7.979  1.00  0.00     0.093 A 
ATOM      8  C   UNL     1      -8.914  -3.957  -6.977  1.00  0.00     0.123 A 
ATOM      9  C   UNL     1      -8.240  -5.178  -7.014  1.00  0.00     0.094 A 
ATOM     10  C   UNL     1      -7.340  -5.458  -8.047  1.00  0.00     0.146 A 
ATOM     11  O   UNL     1      -6.707  -6.626  -8.055  1.00  0.00    -0.452 OA
ENDROOT
BRANCH   1  12
ATOM     12  C   UNL     1      -5.186  -8.305  -8.881  1.00  0.00     0.025 A 
ATOM     13  C   UNL     1      -5.984  -9.451  -8.744  1.00  0.00     0.016 A 
ATOM     14  C   UNL     1      -5.394 -10.712  -8.616  1.00  0.00     0.051 A 
ATOM     15  C   UNL     1      -3.999 -10.843  -8.607  1.00  0.00     0.157 A 
ATOM     16  C   UNL     1      -3.786  -8.438  -8.851  1.00  0.00     0.062 A 
ATOM     17  C   UNL     1      -3.193  -9.699  -8.721  1.00  0.00     0.158 A 
BRANCH  15  18
ATOM     18  O   UNL     1      -3.416 -12.102  -8.482  1.00  0.00    -0.504 OA
ATOM     19  H   UNL     1      -3.631 -12.854  -9.127  1.00  0.00     0.293 HD
ENDBRANCH  15  18
BRANCH  17  20
ATOM     20  O   UNL     1      -1.801  -9.794  -8.702  1.00  0.00    -0.504 OA
ATOM     21  H   UNL     1      -1.209  -9.109  -9.156  1.00  0.00     0.293 HD
ENDBRANCH  17  20
ENDBRANCH   1  12
BRANCH   2  22
ATOM     22  O   UNL     1      -4.691  -6.482 -11.084  1.00  0.00    -0.502 OA
ATOM     23  H   UNL     1      -4.061  -5.830 -11.535  1.00  0.00     0.293 HD
ENDBRANCH   2  22
BRANCH   6  24
ATOM     24  O   UNL     1      -7.591  -2.302 -10.010  1.00  0.00    -0.507 OA
ATOM     25  H   UNL     1      -7.321  -2.551 -10.955  1.00  0.00     0.293 HD
ENDBRANCH   6  24
BRANCH   8  26
ATOM     26  O   UNL     1      -9.807  -3.697  -5.939  1.00  0.00    -0.508 OA
ATOM     27  H   UNL     1      -9.614  -2.991  -5.238  1.00  0.00     0.293 HD
ENDBRANCH   8  26
TORSDOF 6
ENDMDL
MODEL 3
REMARK VINA RESULT:    -4.817      2.016      6.770
REMARK INTER + INTRA:          -5.997
REMARK INTER:                  -5.968
REMARK INTRA:                  -0.029
REMARK UNBOUND:                -0.195
REMARK SMILES O=c1c(O)c(-c2ccc(O)c(O)c2)oc2cc(O)cc(O)c12
REMARK SMILES IDX 5 1 3 2 2 3 1 4 22 5 20 6 19 7 17 8 16 9 15 10 14 11 6 12
REMARK SMILES IDX 7 13 8 14 9 15 13 16 11 17 10 18 12 20 4 22 21 24 18 26
REMARK H PARENT 10 19 12 21 4 23 21 25 18 27
REMARK Flexibility Score: inf
ROOT
ATOM      1  C   UNL     1      -5.026  -6.983  -9.832  1.00  0.00     0.180 A 
ATOM      2  C   UNL     1      -3.724  -7.410  -9.509  1.00  0.00     0.208 A 
ATOM      3  C   UNL     1      -3.516  -8.759  -9.179  1.00  0.00     0.238 A 
ATOM      4  O   UNL     1      -2.352  -9.156  -8.898  1.00  0.00    -0.285 OA
ATOM      5  C   UNL     1      -4.610  -9.649  -9.157  1.00  0.00     0.111 A 
ATOM      6  C   UNL     1      -4.485 -11.020  -8.830  1.00  0.00     0.134 A 
ATOM      7  C   UNL     1      -5.625 -11.839  -8.822  1.00  0.00     0.093 A 
ATOM      8  C   UNL     1      -6.883 -11.311  -9.131  1.00  0.00     0.123 A 
ATOM      9  C   UNL     1      -7.011  -9.960  -9.454  1.00  0.00     0.094 A 
ATOM     10  C   UNL     1      -5.887  -9.128  -9.470  1.00  0.00     0.146 A 
ATOM     11  O   UNL     1      -6.036  -7.846  -9.786  1.00  0.00    -0.452 OA
ENDROOT
BRANCH   1  12
ATOM     12  C   UNL     1      -5.324  -5.582 -10.209  1.00  0.00     0.025 A 
ATOM     13  C   UNL     1      -4.591  -4.975 -11.241  1.00  0.00     0.016 A 
ATOM     14  C   UNL     1      -4.842  -3.648 -11.600  1.00  0.00     0.051 A 
ATOM     15  C   UNL     1      -5.816  -2.903 -10.922  1.00  0.00     0.157 A 
ATOM     16  C   UNL     1      -6.287  -4.825  -9.517  1.00  0.00     0.062 A 
ATOM     17  C   UNL     1      -6.537  -3.495  -9.872  1.00  0.00     0.158 A 
BRANCH  15  18
ATOM     18  O   UNL     1      -6.064  -1.581 -11.284  1.00  0.00    -0.504 OA
ATOM     19  H   UNL     1      -6.986  -1.272 -11.569  1.00  0.00     0.293 HD
ENDBRANCH  15  18
BRANCH  17  20
ATOM     20  O   UNL     1      -7.504  -2.776  -9.168  1.00  0.00    -0.504 OA
ATOM     21  H   UNL     1      -8.213  -3.235  -8.609  1.00  0.00     0.293 HD
ENDBRANCH  17  20
ENDBRANCH   1  12
BRANCH   2  22
ATOM     22  O   UNL     1      -2.665  -6.499  -9.491  1.00  0.00    -0.502 OA
ATOM     23  H   UNL     1      -2.543  -5.793 -10.207  1.00  0.00     0.293 HD
ENDBRANCH   2  22
BRANCH   6  24
ATOM     24  O   UNL     1      -3.244 -11.574  -8.516  1.00  0.00    -0.507 OA
ATOM     25  H   UNL     1      -2.725 -12.133  -9.184  1.00  0.00     0.293 HD
ENDBRANCH   6  24
BRANCH   8  26
ATOM     26  O   UNL     1      -8.015 -12.124  -9.121  1.00  0.00    -0.508 OA
ATOM     27  H   UNL     1      -8.087 -12.925  -8.504  1.00  0.00     0.293 HD
ENDBRANCH   8  26
TORSDOF 6
ENDMDL
MODEL 4
REMARK VINA RESULT:    -4.762      6.455      8.090
REMARK INTER + INTRA:          -5.932
REMARK INTER:                  -6.029
REMARK INTRA:                   0.097
REMARK UNBOUND:                -0.195
REMARK SMILES O=c1c(O)c(-c2ccc(O)c(O)c2)oc2cc(O)cc(O)c12
REMARK SMILES IDX 5 1 3 2 2 3 1 4 22 5 20 6 19 7 17 8 16 9 15 10 14 11 6 12
REMARK SMILES IDX 7 13 8 14 9 15 13 16 11 17 10 18 12 20 4 22 21 24 18 26
REMARK H PARENT 10 19 12 21 4 23 21 25 18 27
REMARK Flexibility Score: inf
ROOT
ATOM      1  C   UNL     1       0.059  -3.114 -10.858  1.00  0.00     0.180 A 
ATOM      2  C   UNL     1      -0.429  -1.795 -10.919  1.00  0.00     0.208 A 
ATOM      3  C   UNL     1      -1.789  -1.588 -11.199  1.00  0.00     0.238 A 
ATOM      4  O   UNL     1      -2.241  -0.411 -11.246  1.00  0.00    -0.285 OA
ATOM      5  C   UNL     1      -2.630  -2.696 -11.432  1.00  0.00     0.111 A 
ATOM      6  C   UNL     1      -4.009  -2.573 -11.724  1.00  0.00     0.134 A 
ATOM      7  C   UNL     1      -4.777  -3.725 -11.953  1.00  0.00     0.093 A 
ATOM      8  C   UNL     1      -4.191  -4.994 -11.896  1.00  0.00     0.123 A 
ATOM      9  C   UNL     1      -2.831  -5.120 -11.608  1.00  0.00     0.094 A 
ATOM     10  C   UNL     1      -2.049  -3.985 -11.375  1.00  0.00     0.146 A 
ATOM     11  O   UNL     1      -0.759  -4.133 -11.097  1.00  0.00    -0.452 OA
ENDROOT
BRANCH   1  12
ATOM     12  C   UNL     1       1.476  -3.415 -10.549  1.00  0.00     0.025 A 
ATOM     13  C   UNL     1       1.781  -4.410  -9.607  1.00  0.00     0.016 A 
ATOM     14  C   UNL     1       3.111  -4.696  -9.286  1.00  0.00     0.051 A 
ATOM     15  C   UNL     1       4.154  -3.981  -9.889  1.00  0.00     0.157 A 
ATOM     16  C   UNL     1       2.526  -2.685 -11.137  1.00  0.00     0.062 A 
ATOM     17  C   UNL     1       3.858  -2.967 -10.815  1.00  0.00     0.158 A 
BRANCH  15  18
ATOM     18  O   UNL     1       5.478  -4.270  -9.567  1.00  0.00    -0.504 OA
ATOM     19  H   UNL     1       5.715  -4.948  -8.851  1.00  0.00     0.293 HD
ENDBRANCH  15  18
BRANCH  17  20
ATOM     20  O   UNL     1       4.873  -2.228 -11.423  1.00  0.00    -0.504 OA
ATOM     21  H   UNL     1       5.070  -2.299 -12.413  1.00  0.00     0.293 HD
ENDBRANCH  17  20
ENDBRANCH   1  12
BRANCH   2  22
ATOM     22  O   UNL     1       0.434  -0.712 -10.733  1.00  0.00    -0.502 OA
ATOM     23  H   UNL     1       1.375  -0.697 -11.107  1.00  0.00     0.293 HD
ENDBRANCH   2  22
BRANCH   6  24
ATOM     24  O   UNL     1      -4.621  -1.320 -11.789  1.00  0.00    -0.507 OA
ATOM     25  H   UNL     1      -4.772  -0.757 -10.960  1.00  0.00     0.293 HD
ENDBRANCH   6  24
BRANCH   8  26
ATOM     26  O   UNL     1      -4.953  -6.138 -12.125  1.00  0.00    -0.508 OA
ATOM     27  H   UNL     1      -5.955  -6.088 -12.264  1.00  0.00     0.293 HD
ENDBRANCH   8  26
TORSDOF 6
ENDMDL
MODEL 5
REMARK VINA RESULT:    -4.756      7.909     11.074
REMARK INTER + INTRA:          -5.924
REMARK INTER:                  -6.071
REMARK INTRA:                   0.147
REMARK UNBOUND:                -0.195
REMARK SMILES O=c1c(O)c(-c2ccc(O)c(O)c2)oc2cc(O)cc(O)c12
REMARK SMILES IDX 5 1 3 2 2 3 1 4 22 5 20 6 19 7 17 8 16 9 15 10 14 11 6 12
REMARK SMILES IDX 7 13 8 14 9 15 13 16 11 17 10 18 12 20 4 22 21 24 18 26
REMARK H PARENT 10 19 12 21 4 23 21 25 18 27
REMARK Flexibility Score: inf
ROOT
ATOM      1  C   UNL     1       1.490  -2.848 -10.916  1.00  0.00     0.180 A 
ATOM      2  C   UNL     1       2.593  -2.164 -11.461  1.00  0.00     0.208 A 
ATOM      3  C   UNL     1       3.876  -2.710 -11.301  1.00  0.00     0.238 A 
ATOM      4  O   UNL     1       4.871  -2.112 -11.794  1.00  0.00    -0.285 OA
ATOM      5  C   UNL     1       4.037  -3.914 -10.584  1.00  0.00     0.111 A 
ATOM      6  C   UNL     1       5.296  -4.527 -10.374  1.00  0.00     0.134 A 
ATOM      7  C   UNL     1       5.373  -5.721  -9.641  1.00  0.00     0.093 A 
ATOM      8  C   UNL     1       4.218  -6.310  -9.115  1.00  0.00     0.123 A 
ATOM      9  C   UNL     1       2.976  -5.709  -9.320  1.00  0.00     0.094 A 
ATOM     10  C   UNL     1       2.877  -4.520 -10.049  1.00  0.00     0.146 A 
ATOM     11  O   UNL     1       1.681  -3.973 -10.234  1.00  0.00    -0.452 OA
ENDROOT
BRANCH   1  12
ATOM     12  C   UNL     1       0.104  -2.347 -11.059  1.00  0.00     0.025 A 
ATOM     13  C   UNL     1      -0.927  -3.248 -11.369  1.00  0.00     0.016 A 
ATOM     14  C   UNL     1      -2.239  -2.793 -11.529  1.00  0.00     0.051 A 
ATOM     15  C   UNL     1      -2.537  -1.430 -11.398  1.00  0.00     0.157 A 
ATOM     16  C   UNL     1      -0.196  -0.976 -10.949  1.00  0.00     0.062 A 
ATOM     17  C   UNL     1      -1.508  -0.518 -11.111  1.00  0.00     0.158 A 
BRANCH  15  18
ATOM     18  O   UNL     1      -3.847  -0.982 -11.556  1.00  0.00    -0.504 OA
ATOM     19  H   UNL     1      -4.140  -0.071 -11.222  1.00  0.00     0.293 HD
ENDBRANCH  15  18
BRANCH  17  20
ATOM     20  O   UNL     1      -1.769   0.846 -10.988  1.00  0.00    -0.504 OA
ATOM     21  H   UNL     1      -1.093   1.550 -11.259  1.00  0.00     0.293 HD
ENDBRANCH  17  20
ENDBRANCH   1  12
BRANCH   2  22
ATOM     22  O   UNL     1       2.412  -0.948 -12.125  1.00  0.00    -0.502 OA
ATOM     23  H   UNL     1       1.661  -0.797 -12.788  1.00  0.00     0.293 HD
ENDBRANCH   2  22
BRANCH   6  24
ATOM     24  O   UNL     1       6.464  -3.961 -10.885  1.00  0.00    -0.507 OA
ATOM     25  H   UNL     1       7.382  -4.273 -10.587  1.00  0.00     0.293 HD
ENDBRANCH   6  24
BRANCH   8  26
ATOM     26  O   UNL     1       4.296  -7.495  -8.385  1.00  0.00    -0.508 OA
ATOM     27  H   UNL     1       5.184  -7.863  -8.066  1.00  0.00     0.293 HD
ENDBRANCH   8  26
TORSDOF 6
ENDMDL
MODEL 6
REMARK VINA RESULT:    -4.665      2.253      6.939
REMARK INTER + INTRA:          -5.814
REMARK INTER:                  -5.536
REMARK INTRA:                  -0.278
REMARK UNBOUND:                -0.195
REMARK SMILES O=c1c(O)c(-c2ccc(O)c(O)c2)oc2cc(O)cc(O)c12
REMARK SMILES IDX 5 1 3 2 2 3 1 4 22 5 20 6 19 7 17 8 16 9 15 10 14 11 6 12
REMARK SMILES IDX 7 13 8 14 9 15 13 16 11 17 10 18 12 20 4 22 21 24 18 26
REMARK H PARENT 10 19 12 21 4 23 21 25 18 27
REMARK Flexibility Score: inf
ROOT
ATOM      1  C   UNL     1      -7.254  -8.029  -8.865  1.00  0.00     0.180 A 
ATOM      2  C   UNL     1      -7.725  -8.458 -10.120  1.00  0.00     0.208 A 
ATOM      3  C   UNL     1      -7.051  -9.499 -10.778  1.00  0.00     0.238 A 
ATOM      4  O   UNL     1      -7.469  -9.898 -11.899  1.00  0.00    -0.285 OA
ATOM      5  C   UNL     1      -5.911 -10.077 -10.182  1.00  0.00     0.111 A 
ATOM      6  C   UNL     1      -5.173 -11.126 -10.781  1.00  0.00     0.134 A 
ATOM      7  C   UNL     1      -4.043 -11.642 -10.127  1.00  0.00     0.093 A 
ATOM      8  C   UNL     1      -3.640 -11.129  -8.890  1.00  0.00     0.123 A 
ATOM      9  C   UNL     1      -4.364 -10.095  -8.296  1.00  0.00     0.094 A 
ATOM     10  C   UNL     1      -5.493  -9.568  -8.930  1.00  0.00     0.146 A 
ATOM     11  O   UNL     1      -6.168  -8.588  -8.340  1.00  0.00    -0.452 OA
ENDROOT
BRANCH   1  12
ATOM     12  C   UNL     1      -7.922  -6.951  -8.100  1.00  0.00     0.025 A 
ATOM     13  C   UNL     1      -7.707  -5.612  -8.463  1.00  0.00     0.016 A 
ATOM     14  C   UNL     1      -8.311  -4.578  -7.742  1.00  0.00     0.051 A 
ATOM     15  C   UNL     1      -9.126  -4.867  -6.639  1.00  0.00     0.157 A 
ATOM     16  C   UNL     1      -8.725  -7.235  -6.980  1.00  0.00     0.062 A 
ATOM     17  C   UNL     1      -9.329  -6.202  -6.255  1.00  0.00     0.158 A 
BRANCH  15  18
ATOM     18  O   UNL     1      -9.728  -3.833  -5.925  1.00  0.00    -0.504 OA
ATOM     19  H   UNL     1     -10.699  -3.881  -5.638  1.00  0.00     0.293 HD
ENDBRANCH  15  18
BRANCH  17  20
ATOM     20  O   UNL     1     -10.124  -6.522  -5.154  1.00  0.00    -0.504 OA
ATOM     21  H   UNL     1      -9.727  -6.710  -4.241  1.00  0.00     0.293 HD
ENDBRANCH  17  20
ENDBRANCH   1  12
BRANCH   2  22
ATOM     22  O   UNL     1      -8.827  -7.835 -10.712  1.00  0.00    -0.502 OA
ATOM     23  H   UNL     1      -9.350  -8.260 -11.468  1.00  0.00     0.293 HD
ENDBRANCH   2  22
BRANCH   6  24
ATOM     24  O   UNL     1      -5.551 -11.658 -12.014  1.00  0.00    -0.507 OA
ATOM     25  H   UNL     1      -5.759 -12.643 -12.129  1.00  0.00     0.293 HD
ENDBRANCH   6  24
BRANCH   8  26
ATOM     26  O   UNL     1      -2.517 -11.640  -8.242  1.00  0.00    -0.508 OA
ATOM     27  H   UNL     1      -1.981 -11.081  -7.589  1.00  0.00     0.293 HD
ENDBRANCH   8  26
TORSDOF 6
ENDMDL
MODEL 7
REMARK VINA RESULT:    -4.559      9.083     10.944
REMARK INTER + INTRA:          -5.686
REMARK INTER:                  -5.523
REMARK INTRA:                  -0.163
REMARK UNBOUND:                -0.195
REMARK SMILES O=c1c(O)c(-c2ccc(O)c(O)c2)oc2cc(O)cc(O)c12
REMARK SMILES IDX 5 1 3 2 2 3 1 4 22 5 20 6 19 7 17 8 16 9 15 10 14 11 6 12
REMARK SMILES IDX 7 13 8 14 9 15 13 16 11 17 10 18 12 20 4 22 21 24 18 26
REMARK H PARENT 10 19 12 21 4 23 21 25 18 27
REMARK Flexibility Score: inf
ROOT
ATOM      1  C   UNL     1       4.825  -6.969  -9.296  1.00  0.00     0.180 A 
ATOM      2  C   UNL     1       5.978  -6.338  -9.800  1.00  0.00     0.208 A 
ATOM      3  C   UNL     1       5.855  -5.067 -10.384  1.00  0.00     0.238 A 
ATOM      4  O   UNL     1       6.883  -4.487 -10.830  1.00  0.00    -0.285 OA
ATOM      5  C   UNL     1       4.586  -4.459 -10.471  1.00  0.00     0.111 A 
ATOM      6  C   UNL     1       4.376  -3.184 -11.048  1.00  0.00     0.134 A 
ATOM      7  C   UNL     1       3.079  -2.651 -11.105  1.00  0.00     0.093 A 
ATOM      8  C   UNL     1       1.991  -3.370 -10.599  1.00  0.00     0.123 A 
ATOM      9  C   UNL     1       2.193  -4.628 -10.029  1.00  0.00     0.094 A 
ATOM     10  C   UNL     1       3.477  -5.176  -9.961  1.00  0.00     0.146 A 
ATOM     11  O   UNL     1       3.642  -6.372  -9.408  1.00  0.00    -0.452 OA
ENDROOT
BRANCH   1  12
ATOM     12  C   UNL     1       4.875  -8.300  -8.649  1.00  0.00     0.025 A 
ATOM     13  C   UNL     1       5.208  -9.427  -9.415  1.00  0.00     0.016 A 
ATOM     14  C   UNL     1       5.242 -10.696  -8.830  1.00  0.00     0.051 A 
ATOM     15  C   UNL     1       4.928 -10.858  -7.474  1.00  0.00     0.157 A 
ATOM     16  C   UNL     1       4.541  -8.469  -7.293  1.00  0.00     0.062 A 
ATOM     17  C   UNL     1       4.571  -9.738  -6.704  1.00  0.00     0.158 A 
BRANCH  15  18
ATOM     18  O   UNL     1       4.965 -12.124  -6.893  1.00  0.00    -0.504 OA
ATOM     19  H   UNL     1       4.207 -12.786  -7.014  1.00  0.00     0.293 HD
ENDBRANCH  15  18
BRANCH  17  20
ATOM     20  O   UNL     1       4.240  -9.868  -5.355  1.00  0.00    -0.504 OA
ATOM     21  H   UNL     1       4.233 -10.766  -4.887  1.00  0.00     0.293 HD
ENDBRANCH  17  20
ENDBRANCH   1  12
BRANCH   2  22
ATOM     22  O   UNL     1       7.217  -6.982  -9.746  1.00  0.00    -0.502 OA
ATOM     23  H   UNL     1       7.823  -7.063 -10.553  1.00  0.00     0.293 HD
ENDBRANCH   2  22
BRANCH   6  24
ATOM     24  O   UNL     1       5.442  -2.444 -11.562  1.00  0.00    -0.507 OA
ATOM     25  H   UNL     1       5.755  -2.556 -12.520  1.00  0.00     0.293 HD
ENDBRANCH   6  24
BRANCH   8  26
ATOM     26  O   UNL     1       0.703  -2.842 -10.657  1.00  0.00    -0.508 OA
ATOM     27  H   UNL     1       0.342  -2.417 -11.504  1.00  0.00     0.293 HD
ENDBRANCH   8  26
TORSDOF 6
ENDMDL
MODEL 8
REMARK VINA RESULT:    -4.493      1.422      7.127
REMARK INTER + INTRA:          -5.608
REMARK INTER:                  -5.509
REMARK INTRA:                  -0.098
REMARK UNBOUND:                -0.195
REMARK SMILES O=c1c(O)c(-c2ccc(O)c(O)c2)oc2cc(O)cc(O)c12
REMARK SMILES IDX 5 1 3 2 2 3 1 4 22 5 20 6 19 7 17 8 16 9 15 10 14 11 6 12
REMARK SMILES IDX 7 13 8 14 9 15 13 16 11 17 10 18 12 20 4 22 21 24 18 26
REMARK H PARENT 10 19 12 21 4 23 21 25 18 27
REMARK Flexibility Score: inf
ROOT
ATOM      1  C   UNL     1      -6.645  -7.091  -8.747  1.00  0.00     0.180 A 
ATOM      2  C   UNL     1      -7.548  -8.172  -8.761  1.00  0.00     0.208 A 
ATOM      3  C   UNL     1      -7.039  -9.480  -8.748  1.00  0.00     0.238 A 
ATOM      4  O   UNL     1      -7.838 -10.457  -8.750  1.00  0.00    -0.285 OA
ATOM      5  C   UNL     1      -5.644  -9.686  -8.743  1.00  0.00     0.111 A 
ATOM      6  C   UNL     1      -5.051 -10.972  -8.735  1.00  0.00     0.134 A 
ATOM      7  C   UNL     1      -3.653 -11.093  -8.739  1.00  0.00     0.093 A 
ATOM      8  C   UNL     1      -2.840  -9.955  -8.753  1.00  0.00     0.123 A 
ATOM      9  C   UNL     1      -3.420  -8.686  -8.761  1.00  0.00     0.094 A 
ATOM     10  C   UNL     1      -4.811  -8.543  -8.755  1.00  0.00     0.146 A 
ATOM     11  O   UNL     1      -5.336  -7.323  -8.757  1.00  0.00    -0.452 OA
ENDROOT
BRANCH   1  12
ATOM     12  C   UNL     1      -7.103  -5.683  -8.739  1.00  0.00     0.025 A 
ATOM     13  C   UNL     1      -6.621  -4.795  -9.713  1.00  0.00     0.016 A 
ATOM     14  C   UNL     1      -7.025  -3.457  -9.712  1.00  0.00     0.051 A 
ATOM     15  C   UNL     1      -7.903  -2.984  -8.728  1.00  0.00     0.157 A 
ATOM     16  C   UNL     1      -7.969  -5.200  -7.741  1.00  0.00     0.062 A 
ATOM     17  C   UNL     1      -8.373  -3.860  -7.736  1.00  0.00     0.158 A 
BRANCH  15  18
ATOM     18  O   UNL     1      -8.305  -1.650  -8.732  1.00  0.00    -0.504 OA
ATOM     19  H   UNL     1      -8.738  -1.227  -9.545  1.00  0.00     0.293 HD
ENDBRANCH  15  18
BRANCH  17  20
ATOM     20  O   UNL     1      -9.238  -3.417  -6.735  1.00  0.00    -0.504 OA
ATOM     21  H   UNL     1     -10.045  -2.840  -6.938  1.00  0.00     0.293 HD
ENDBRANCH  17  20
ENDBRANCH   1  12
BRANCH   2  22
ATOM     22  O   UNL     1      -8.925  -7.942  -8.816  1.00  0.00    -0.502 OA
ATOM     23  H   UNL     1      -9.329  -7.190  -9.362  1.00  0.00     0.293 HD
ENDBRANCH   2  22
BRANCH   6  24
ATOM     24  O   UNL     1      -5.837 -12.125  -8.723  1.00  0.00    -0.507 OA
ATOM     25  H   UNL     1      -6.693 -12.193  -9.262  1.00  0.00     0.293 HD
ENDBRANCH   6  24
BRANCH   8  26
ATOM     26  O   UNL     1      -1.452 -10.075  -8.759  1.00  0.00    -0.508 OA
ATOM     27  H   UNL     1      -0.879  -9.640  -8.046  1.00  0.00     0.293 HD
ENDBRANCH   8  26
TORSDOF 6
ENDMDL
MODEL 9
REMARK VINA RESULT:    -4.478      1.268      2.978
REMARK INTER + INTRA:          -5.588
REMARK INTER:                  -5.512
REMARK INTRA:                  -0.076
REMARK UNBOUND:                -0.195
REMARK SMILES O=c1c(O)c(-c2ccc(O)c(O)c2)oc2cc(O)cc(O)c12
REMARK SMILES IDX 5 1 3 2 2 3 1 4 22 5 20 6 19 7 17 8 16 9 15 10 14 11 6 12
REMARK SMILES IDX 7 13 8 14 9 15 13 16 11 17 10 18 12 20 4 22 21 24 18 26
REMARK H PARENT 10 19 12 21 4 23 21 25 18 27
REMARK Flexibility Score: inf
ROOT
ATOM      1  C   UNL     1      -5.856  -6.874  -8.933  1.00  0.00     0.180 A 
ATOM      2  C   UNL     1      -7.036  -6.572  -8.228  1.00  0.00     0.208 A 
ATOM      3  C   UNL     1      -7.659  -5.333  -8.448  1.00  0.00     0.238 A 
ATOM      4  O   UNL     1      -8.723  -5.055  -7.830  1.00  0.00    -0.285 OA
ATOM      5  C   UNL     1      -7.085  -4.414  -9.349  1.00  0.00     0.111 A 
ATOM      6  C   UNL     1      -7.647  -3.144  -9.623  1.00  0.00     0.134 A 
ATOM      7  C   UNL     1      -7.008  -2.281 -10.528  1.00  0.00     0.093 A 
ATOM      8  C   UNL     1      -5.820  -2.664 -11.159  1.00  0.00     0.123 A 
ATOM      9  C   UNL     1      -5.262  -3.915 -10.892  1.00  0.00     0.094 A 
ATOM     10  C   UNL     1      -5.884  -4.790  -9.996  1.00  0.00     0.146 A 
ATOM     11  O   UNL     1      -5.334  -5.977  -9.764  1.00  0.00    -0.452 OA
ENDROOT
BRANCH   1  12
ATOM     12  C   UNL     1      -5.151  -8.166  -8.770  1.00  0.00     0.025 A 
ATOM     13  C   UNL     1      -3.777  -8.171  -8.484  1.00  0.00     0.016 A 
ATOM     14  C   UNL     1      -3.088  -9.379  -8.347  1.00  0.00     0.051 A 
ATOM     15  C   UNL     1      -3.758 -10.599  -8.510  1.00  0.00     0.157 A 
ATOM     16  C   UNL     1      -5.816  -9.392  -8.953  1.00  0.00     0.062 A 
ATOM     17  C   UNL     1      -5.128 -10.603  -8.819  1.00  0.00     0.158 A 
BRANCH  15  18
ATOM     18  O   UNL     1      -3.067 -11.801  -8.370  1.00  0.00    -0.504 OA
ATOM     19  H   UNL     1      -3.236 -12.423  -7.587  1.00  0.00     0.293 HD
ENDBRANCH  15  18
BRANCH  17  20
ATOM     20  O   UNL     1      -5.821 -11.800  -9.001  1.00  0.00    -0.504 OA
ATOM     21  H   UNL     1      -5.617 -12.628  -8.455  1.00  0.00     0.293 HD
ENDBRANCH  17  20
ENDBRANCH   1  12
BRANCH   2  22
ATOM     22  O   UNL     1      -7.559  -7.480  -7.304  1.00  0.00    -0.502 OA
ATOM     23  H   UNL     1      -6.982  -8.162  -6.826  1.00  0.00     0.293 HD
ENDBRANCH   2  22
BRANCH   6  24
ATOM     24  O   UNL     1      -8.830  -2.734  -9.008  1.00  0.00    -0.507 OA
ATOM     25  H   UNL     1      -9.010  -1.760  -8.794  1.00  0.00     0.293 HD
ENDBRANCH   6  24
BRANCH   8  26
ATOM     26  O   UNL     1      -5.185  -1.807 -12.055  1.00  0.00    -0.508 OA
ATOM     27  H   UNL     1      -5.571  -1.620 -12.974  1.00  0.00     0.293 HD
ENDBRANCH   8  26
TORSDOF 6
ENDMDL
