MODEL 1
REMARK VINA RESULT:    -4.573      0.000      0.000
REMARK INTER + INTRA:          -5.949
REMARK INTER:                  -5.643
REMARK INTRA:                  -0.306
REMARK UNBOUND:                -0.306
REMARK SMILES C=CC[C@@H](C)C(=O)CC
REMARK SMILES IDX 4 1 5 2 6 3 7 4 8 5 9 6 3 7 2 8 1 9
REMARK H PARENT
REMARK Flexibility Score: inf
ROOT
ATOM      1  C   UNL     1      -8.611  32.257  21.053  1.00  0.00     0.057 C 
ATOM      2  C   UNL     1      -7.398  32.633  20.197  1.00  0.00     0.016 C 
ENDROOT
BRANCH   1   3
ATOM      3  C   UNL     1      -8.309  31.007  21.856  1.00  0.00     0.135 C 
ATOM      4  O   UNL     1      -8.848  29.950  21.558  1.00  0.00    -0.299 OA
BRANCH   3   5
ATOM      5  C   UNL     1      -7.365  31.044  23.030  1.00  0.00     0.072 C 
ATOM      6  C   UNL     1      -6.651  29.705  23.200  1.00  0.00     0.012 C 
ENDBRANCH   3   5
ENDBRANCH   1   3
BRANCH   1   7
ATOM      7  C   UNL     1      -9.007  33.429  21.974  1.00  0.00     0.038 C 
BRANCH   7   8
ATOM      8  C   UNL     1      -7.946  34.496  22.026  1.00  0.00    -0.034 C 
ATOM      9  C   UNL     1      -7.429  34.918  23.183  1.00  0.00     0.004 C 
ENDBRANCH   7   8
ENDBRANCH   1   7
TORSDOF 4
ENDMDL
MODEL 2
REMARK VINA RESULT:    -4.551      1.751      2.693
REMARK INTER + INTRA:          -5.922
REMARK INTER:                  -5.499
REMARK INTRA:                  -0.423
REMARK UNBOUND:                -0.306
REMARK SMILES C=CC[C@@H](C)C(=O)CC
REMARK SMILES IDX 4 1 5 2 6 3 7 4 8 5 9 6 3 7 2 8 1 9
REMARK H PARENT
REMARK Flexibility Score: inf
ROOT
ATOM      1  C   UNL     1      -7.860  32.975  22.969  1.00  0.00     0.057 C 
ATOM      2  C   UNL     1      -7.796  34.348  23.646  1.00  0.00     0.016 C 
ENDROOT
BRANCH   1   3
ATOM      3  C   UNL     1      -8.102  31.898  24.007  1.00  0.00     0.135 C 
ATOM      4  O   UNL     1      -8.238  32.208  25.182  1.00  0.00    -0.299 OA
BRANCH   3   5
ATOM      5  C   UNL     1      -8.162  30.442  23.621  1.00  0.00     0.072 C 
ATOM      6  C   UNL     1      -6.807  29.956  23.114  1.00  0.00     0.012 C 
ENDBRANCH   3   5
ENDBRANCH   1   3
BRANCH   1   7
ATOM      7  C   UNL     1      -8.953  32.959  21.881  1.00  0.00     0.038 C 
BRANCH   7   8
ATOM      8  C   UNL     1      -8.419  32.527  20.542  1.00  0.00    -0.034 C 
ATOM      9  C   UNL     1      -7.241  32.958  20.081  1.00  0.00     0.004 C 
ENDBRANCH   7   8
ENDBRANCH   1   7
TORSDOF 4
ENDMDL
MODEL 3
REMARK VINA RESULT:    -4.468      1.318      3.541
REMARK INTER + INTRA:          -5.819
REMARK INTER:                  -5.417
REMARK INTRA:                  -0.402
REMARK UNBOUND:                -0.306
REMARK SMILES C=CC[C@@H](C)C(=O)CC
REMARK SMILES IDX 4 1 5 2 6 3 7 4 8 5 9 6 3 7 2 8 1 9
REMARK H PARENT
REMARK Flexibility Score: inf
ROOT
ATOM      1  C   UNL     1      -9.195  32.618  23.020  1.00  0.00     0.057 C 
ATOM      2  C   UNL     1      -8.352  33.646  23.782  1.00  0.00     0.016 C 
ENDROOT
BRANCH   1   3
ATOM      3  C   UNL     1      -8.871  32.680  21.540  1.00  0.00     0.135 C 
ATOM      4  O   UNL     1      -9.438  31.925  20.764  1.00  0.00    -0.299 OA
BRANCH   3   5
ATOM      5  C   UNL     1      -7.845  33.647  21.007  1.00  0.00     0.072 C 
ATOM      6  C   UNL     1      -7.083  33.041  19.831  1.00  0.00     0.012 C 
ENDBRANCH   3   5
ENDBRANCH   1   3
BRANCH   1   7
ATOM      7  C   UNL     1      -8.961  31.202  23.584  1.00  0.00     0.038 C 
BRANCH   7   8
ATOM      8  C   UNL     1      -7.514  30.793  23.514  1.00  0.00    -0.034 C 
ATOM      9  C   UNL     1      -7.138  29.618  23.001  1.00  0.00     0.004 C 
ENDBRANCH   7   8
ENDBRANCH   1   7
TORSDOF 4
ENDMDL
MODEL 4
REMARK VINA RESULT:    -4.419      1.425      3.619
REMARK INTER + INTRA:          -5.758
REMARK INTER:                  -5.518
REMARK INTRA:                  -0.240
REMARK UNBOUND:                -0.306
REMARK SMILES C=CC[C@@H](C)C(=O)CC
REMARK SMILES IDX 4 1 5 2 6 3 7 4 8 5 9 6 3 7 2 8 1 9
REMARK H PARENT
REMARK Flexibility Score: inf
ROOT
ATOM      1  C   UNL     1      -7.758  32.179  21.762  1.00  0.00     0.057 C 
ATOM      2  C   UNL     1      -7.532  32.777  20.370  1.00  0.00     0.016 C 
ENDROOT
BRANCH   1   3
ATOM      3  C   UNL     1      -8.420  33.203  22.662  1.00  0.00     0.135 C 
ATOM      4  O   UNL     1      -9.451  32.914  23.253  1.00  0.00    -0.299 OA
BRANCH   3   5
ATOM      5  C   UNL     1      -7.840  34.584  22.830  1.00  0.00     0.072 C 
ATOM      6  C   UNL     1      -7.886  35.021  24.292  1.00  0.00     0.012 C 
ENDBRANCH   3   5
ENDBRANCH   1   3
BRANCH   1   7
ATOM      7  C   UNL     1      -8.601  30.891  21.667  1.00  0.00     0.038 C 
BRANCH   7   8
ATOM      8  C   UNL     1      -7.980  29.746  22.423  1.00  0.00    -0.034 C 
ATOM      9  C   UNL     1      -6.807  29.870  23.049  1.00  0.00     0.004 C 
ENDBRANCH   7   8
ENDBRANCH   1   7
TORSDOF 4
ENDMDL
MODEL 5
REMARK VINA RESULT:    -4.400      1.402      1.860
REMARK INTER + INTRA:          -5.735
REMARK INTER:                  -5.410
REMARK INTRA:                  -0.325
REMARK UNBOUND:                -0.306
REMARK SMILES C=CC[C@@H](C)C(=O)CC
REMARK SMILES IDX 4 1 5 2 6 3 7 4 8 5 9 6 3 7 2 8 1 9
REMARK H PARENT
REMARK Flexibility Score: inf
ROOT
ATOM      1  C   UNL     1      -8.332  33.925  21.903  1.00  0.00     0.057 C 
ATOM      2  C   UNL     1      -7.555  33.763  20.593  1.00  0.00     0.016 C 
ENDROOT
BRANCH   1   3
ATOM      3  C   UNL     1      -8.596  32.565  22.518  1.00  0.00     0.135 C 
ATOM      4  O   UNL     1      -9.735  32.121  22.542  1.00  0.00    -0.299 OA
BRANCH   3   5
ATOM      5  C   UNL     1      -7.478  31.752  23.120  1.00  0.00     0.072 C 
ATOM      6  C   UNL     1      -7.433  30.352  22.513  1.00  0.00     0.012 C 
ENDBRANCH   3   5
ENDBRANCH   1   3
BRANCH   1   7
ATOM      7  C   UNL     1      -7.564  34.840  22.878  1.00  0.00     0.038 C 
BRANCH   7   8
ATOM      8  C   UNL     1      -8.401  35.239  24.064  1.00  0.00    -0.034 C 
ATOM      9  C   UNL     1      -7.916  35.216  25.309  1.00  0.00     0.004 C 
ENDBRANCH   7   8
ENDBRANCH   1   7
TORSDOF 4
ENDMDL
MODEL 6
REMARK VINA RESULT:    -4.322      1.794      3.163
REMARK INTER + INTRA:          -5.638
REMARK INTER:                  -5.446
REMARK INTRA:                  -0.193
REMARK UNBOUND:                -0.306
REMARK SMILES C=CC[C@@H](C)C(=O)CC
REMARK SMILES IDX 4 1 5 2 6 3 7 4 8 5 9 6 3 7 2 8 1 9
REMARK H PARENT
REMARK Flexibility Score: inf
ROOT
ATOM      1  C   UNL     1      -8.012  33.018  23.548  1.00  0.00     0.057 C 
ATOM      2  C   UNL     1      -9.425  32.657  24.019  1.00  0.00     0.016 C 
ENDROOT
BRANCH   1   3
ATOM      3  C   UNL     1      -7.823  32.587  22.107  1.00  0.00     0.135 C 
ATOM      4  O   UNL     1      -7.639  31.406  21.848  1.00  0.00    -0.299 OA
BRANCH   3   5
ATOM      5  C   UNL     1      -7.839  33.592  20.984  1.00  0.00     0.072 C 
ATOM      6  C   UNL     1      -7.091  33.060  19.765  1.00  0.00     0.012 C 
ENDBRANCH   3   5
ENDBRANCH   1   3
BRANCH   1   7
ATOM      7  C   UNL     1      -7.757  34.530  23.716  1.00  0.00     0.038 C 
BRANCH   7   8
ATOM      8  C   UNL     1      -8.093  35.014  25.101  1.00  0.00    -0.034 C 
ATOM      9  C   UNL     1      -8.918  36.045  25.306  1.00  0.00     0.004 C 
ENDBRANCH   7   8
ENDBRANCH   1   7
TORSDOF 4
ENDMDL
MODEL 7
REMARK VINA RESULT:    -4.289      2.335      4.065
REMARK INTER + INTRA:          -5.599
REMARK INTER:                  -5.346
REMARK INTRA:                  -0.252
REMARK UNBOUND:                -0.306
REMARK SMILES C=CC[C@@H](C)C(=O)CC
REMARK SMILES IDX 4 1 5 2 6 3 7 4 8 5 9 6 3 7 2 8 1 9
REMARK H PARENT
REMARK Flexibility Score: inf
ROOT
ATOM      1  C   UNL     1      -8.669  33.272  23.140  1.00  0.00     0.057 C 
ATOM      2  C   UNL     1      -7.792  32.079  23.535  1.00  0.00     0.016 C 
ENDROOT
BRANCH   1   3
ATOM      3  C   UNL     1      -8.049  34.558  23.649  1.00  0.00     0.135 C 
ATOM      4  O   UNL     1      -6.933  34.884  23.271  1.00  0.00    -0.299 OA
BRANCH   3   5
ATOM      5  C   UNL     1      -8.779  35.440  24.630  1.00  0.00     0.072 C 
ATOM      6  C   UNL     1      -8.263  35.220  26.050  1.00  0.00     0.012 C 
ENDBRANCH   3   5
ENDBRANCH   1   3
BRANCH   1   7
ATOM      7  C   UNL     1      -8.868  33.314  21.612  1.00  0.00     0.038 C 
BRANCH   7   8
ATOM      8  C   UNL     1      -7.813  32.529  20.878  1.00  0.00    -0.034 C 
ATOM      9  C   UNL     1      -7.110  33.061  19.874  1.00  0.00     0.004 C 
ENDBRANCH   7   8
ENDBRANCH   1   7
TORSDOF 4
ENDMDL
MODEL 8
REMARK VINA RESULT:    -4.257     18.945     19.792
REMARK INTER + INTRA:          -5.559
REMARK INTER:                  -5.356
REMARK INTRA:                  -0.203
REMARK UNBOUND:                -0.306
REMARK SMILES C=CC[C@@H](C)C(=O)CC
REMARK SMILES IDX 4 1 5 2 6 3 7 4 8 5 9 6 3 7 2 8 1 9
REMARK H PARENT
REMARK Flexibility Score: inf
ROOT
ATOM      1  C   UNL     1       2.784  47.924  24.465  1.00  0.00     0.057 C 
ATOM      2  C   UNL     1       1.345  48.296  24.093  1.00  0.00     0.016 C 
ENDROOT
BRANCH   1   3
ATOM      3  C   UNL     1       3.725  48.320  23.345  1.00  0.00     0.135 C 
ATOM      4  O   UNL     1       4.840  48.746  23.613  1.00  0.00    -0.299 OA
BRANCH   3   5
ATOM      5  C   UNL     1       3.306  48.216  21.901  1.00  0.00     0.072 C 
ATOM      6  C   UNL     1       3.378  46.772  21.414  1.00  0.00     0.012 C 
ENDBRANCH   3   5
ENDBRANCH   1   3
BRANCH   1   7
ATOM      7  C   UNL     1       3.187  48.591  25.796  1.00  0.00     0.038 C 
BRANCH   7   8
ATOM      8  C   UNL     1       3.707  47.595  26.798  1.00  0.00    -0.034 C 
ATOM      9  C   UNL     1       2.986  47.222  27.859  1.00  0.00     0.004 C 
ENDBRANCH   7   8
ENDBRANCH   1   7
TORSDOF 4
ENDMDL
