MODEL 1
REMARK VINA RESULT:    -5.582      0.000      0.000
REMARK INTER + INTRA:          -6.699
REMARK INTER:                  -6.561
REMARK INTRA:                  -0.137
REMARK UNBOUND:                -0.137
REMARK SMILES O=C([O-])C=Cc1ccc(O)c(O)c1
REMARK SMILES IDX 6 1 13 2 7 3 11 4 8 5 9 6 5 7 4 8 2 9 1 10 3 11 12 12 10 14
REMARK H PARENT 12 13 10 15
REMARK Flexibility Score: inf
ROOT
ATOM      1  C   UNL     1      73.596  43.235  -4.416  1.00  0.00    -0.022 A 
ATOM      2  C   UNL     1      73.976  44.545  -4.076  1.00  0.00     0.058 A 
ATOM      3  C   UNL     1      72.858  42.478  -3.484  1.00  0.00     0.012 A 
ATOM      4  C   UNL     1      73.607  45.101  -2.843  1.00  0.00     0.157 A 
ATOM      5  C   UNL     1      72.491  43.033  -2.255  1.00  0.00     0.051 A 
ATOM      6  C   UNL     1      72.861  44.344  -1.932  1.00  0.00     0.157 A 
ENDROOT
BRANCH   1   7
ATOM      7  C   UNL     1      74.021  42.691  -5.730  1.00  0.00     0.010 C 
ATOM      8  C   UNL     1      73.502  41.585  -6.280  1.00  0.00     0.025 C 
BRANCH   8   9
ATOM      9  C   UNL     1      73.947  41.087  -7.592  1.00  0.00     0.064 C 
ATOM     10  O   UNL     1      75.111  40.628  -7.719  1.00  0.00    -0.545 OA
ATOM     11  O   UNL     1      73.101  41.117  -8.695  1.00  0.00    -0.545 OA
ENDBRANCH   8   9
ENDBRANCH   1   7
BRANCH   4  12
ATOM     12  O   UNL     1      73.979  46.404  -2.517  1.00  0.00    -0.504 OA
ATOM     13  H   UNL     1      73.974  46.733  -1.558  1.00  0.00     0.293 HD
ENDBRANCH   4  12
BRANCH   6  14
ATOM     14  O   UNL     1      72.495  44.899  -0.707  1.00  0.00    -0.504 OA
ATOM     15  H   UNL     1      71.558  45.247  -0.541  1.00  0.00     0.293 HD
ENDBRANCH   6  14
TORSDOF 4
ENDMDL
MODEL 2
REMARK VINA RESULT:    -5.251      1.746      6.528
REMARK INTER + INTRA:          -6.310
REMARK INTER:                  -6.178
REMARK INTRA:                  -0.131
REMARK UNBOUND:                -0.137
REMARK SMILES O=C([O-])C=Cc1ccc(O)c(O)c1
REMARK SMILES IDX 6 1 13 2 7 3 11 4 8 5 9 6 5 7 4 8 2 9 1 10 3 11 12 12 10 14
REMARK H PARENT 12 13 10 15
REMARK Flexibility Score: inf
ROOT
ATOM      1  C   UNL     1      73.774  41.346  -6.381  1.00  0.00    -0.022 A 
ATOM      2  C   UNL     1      72.718  40.513  -6.790  1.00  0.00     0.058 A 
ATOM      3  C   UNL     1      74.940  41.401  -7.171  1.00  0.00     0.012 A 
ATOM      4  C   UNL     1      72.809  39.770  -7.975  1.00  0.00     0.157 A 
ATOM      5  C   UNL     1      75.031  40.659  -8.352  1.00  0.00     0.051 A 
ATOM      6  C   UNL     1      73.966  39.845  -8.759  1.00  0.00     0.157 A 
ENDROOT
BRANCH   1   7
ATOM      7  C   UNL     1      73.631  42.104  -5.113  1.00  0.00     0.010 C 
ATOM      8  C   UNL     1      73.597  43.442  -5.046  1.00  0.00     0.025 C 
BRANCH   8   9
ATOM      9  C   UNL     1      73.442  44.151  -3.766  1.00  0.00     0.064 C 
ATOM     10  O   UNL     1      72.837  43.591  -2.815  1.00  0.00    -0.545 OA
ATOM     11  O   UNL     1      73.952  45.432  -3.590  1.00  0.00    -0.545 OA
ENDBRANCH   8   9
ENDBRANCH   1   7
BRANCH   4  12
ATOM     12  O   UNL     1      71.754  38.954  -8.379  1.00  0.00    -0.504 OA
ATOM     13  H   UNL     1      71.868  37.953  -8.486  1.00  0.00     0.293 HD
ENDBRANCH   4  12
BRANCH   6  14
ATOM     14  O   UNL     1      74.054  39.105  -9.936  1.00  0.00    -0.504 OA
ATOM     15  H   UNL     1      73.288  39.068 -10.598  1.00  0.00     0.293 HD
ENDBRANCH   6  14
TORSDOF 4
ENDMDL
MODEL 3
REMARK VINA RESULT:    -5.076      9.992     13.384
REMARK INTER + INTRA:          -6.103
REMARK INTER:                  -5.970
REMARK INTRA:                  -0.133
REMARK UNBOUND:                -0.137
REMARK SMILES O=C([O-])C=Cc1ccc(O)c(O)c1
REMARK SMILES IDX 6 1 13 2 7 3 11 4 8 5 9 6 5 7 4 8 2 9 1 10 3 11 12 12 10 14
REMARK H PARENT 12 13 10 15
REMARK Flexibility Score: inf
ROOT
ATOM      1  C   UNL     1      70.606  49.322   5.776  1.00  0.00    -0.022 A 
ATOM      2  C   UNL     1      71.295  48.335   5.050  1.00  0.00     0.058 A 
ATOM      3  C   UNL     1      69.915  50.327   5.069  1.00  0.00     0.012 A 
ATOM      4  C   UNL     1      71.276  48.332   3.648  1.00  0.00     0.157 A 
ATOM      5  C   UNL     1      69.897  50.323   3.671  1.00  0.00     0.051 A 
ATOM      6  C   UNL     1      70.574  49.326   2.958  1.00  0.00     0.157 A 
ENDROOT
BRANCH   1   7
ATOM      7  C   UNL     1      70.667  49.286   7.258  1.00  0.00     0.010 C 
ATOM      8  C   UNL     1      71.775  48.988   7.951  1.00  0.00     0.025 C 
BRANCH   8   9
ATOM      9  C   UNL     1      71.792  48.976   9.422  1.00  0.00     0.064 C 
ATOM     10  O   UNL     1      70.776  49.362  10.058  1.00  0.00    -0.545 OA
ATOM     11  O   UNL     1      72.912  48.546  10.123  1.00  0.00    -0.545 OA
ENDBRANCH   8   9
ENDBRANCH   1   7
BRANCH   4  12
ATOM     12  O   UNL     1      71.953  47.344   2.936  1.00  0.00    -0.504 OA
ATOM     13  H   UNL     1      72.196  46.455   3.360  1.00  0.00     0.293 HD
ENDBRANCH   4  12
BRANCH   6  14
ATOM     14  O   UNL     1      70.556  49.320   1.565  1.00  0.00    -0.504 OA
ATOM     15  H   UNL     1      70.081  48.592   1.043  1.00  0.00     0.293 HD
ENDBRANCH   6  14
TORSDOF 4
ENDMDL
MODEL 4
REMARK VINA RESULT:    -4.674     10.482     12.451
REMARK INTER + INTRA:          -5.631
REMARK INTER:                  -5.498
REMARK INTRA:                  -0.133
REMARK UNBOUND:                -0.137
REMARK SMILES O=C([O-])C=Cc1ccc(O)c(O)c1
REMARK SMILES IDX 6 1 13 2 7 3 11 4 8 5 9 6 5 7 4 8 2 9 1 10 3 11 12 12 10 14
REMARK H PARENT 12 13 10 15
REMARK Flexibility Score: inf
ROOT
ATOM      1  C   UNL     1      72.854  47.707   6.310  1.00  0.00    -0.022 A 
ATOM      2  C   UNL     1      72.776  48.644   7.355  1.00  0.00     0.058 A 
ATOM      3  C   UNL     1      73.518  46.485   6.542  1.00  0.00     0.012 A 
ATOM      4  C   UNL     1      73.324  48.361   8.614  1.00  0.00     0.157 A 
ATOM      5  C   UNL     1      74.065  46.204   7.797  1.00  0.00     0.051 A 
ATOM      6  C   UNL     1      73.968  47.139   8.836  1.00  0.00     0.157 A 
ENDROOT
BRANCH   1   7
ATOM      7  C   UNL     1      72.266  48.059   4.994  1.00  0.00     0.010 C 
ATOM      8  C   UNL     1      71.190  48.844   4.845  1.00  0.00     0.025 C 
BRANCH   8   9
ATOM      9  C   UNL     1      70.648  49.177   3.518  1.00  0.00     0.064 C 
ATOM     10  O   UNL     1      70.843  48.391   2.554  1.00  0.00    -0.545 OA
ATOM     11  O   UNL     1      69.925  50.345   3.311  1.00  0.00    -0.545 OA
ENDBRANCH   8   9
ENDBRANCH   1   7
BRANCH   4  12
ATOM     12  O   UNL     1      73.233  49.292   9.647  1.00  0.00    -0.504 OA
ATOM     13  H   UNL     1      72.648  50.115   9.571  1.00  0.00     0.293 HD
ENDBRANCH   4  12
BRANCH   6  14
ATOM     14  O   UNL     1      74.512  46.860  10.088  1.00  0.00    -0.504 OA
ATOM     15  H   UNL     1      74.093  46.177  10.709  1.00  0.00     0.293 HD
ENDBRANCH   6  14
TORSDOF 4
ENDMDL
MODEL 5
REMARK VINA RESULT:    -4.621     10.356     13.011
REMARK INTER + INTRA:          -5.569
REMARK INTER:                  -5.440
REMARK INTRA:                  -0.129
REMARK UNBOUND:                -0.137
REMARK SMILES O=C([O-])C=Cc1ccc(O)c(O)c1
REMARK SMILES IDX 6 1 13 2 7 3 11 4 8 5 9 6 5 7 4 8 2 9 1 10 3 11 12 12 10 14
REMARK H PARENT 12 13 10 15
REMARK Flexibility Score: inf
ROOT
ATOM      1  C   UNL     1      71.385  48.555   6.372  1.00  0.00    -0.022 A 
ATOM      2  C   UNL     1      71.766  48.090   5.101  1.00  0.00     0.058 A 
ATOM      3  C   UNL     1      70.474  49.627   6.458  1.00  0.00     0.012 A 
ATOM      4  C   UNL     1      71.231  48.663   3.939  1.00  0.00     0.157 A 
ATOM      5  C   UNL     1      69.942  50.198   5.299  1.00  0.00     0.051 A 
ATOM      6  C   UNL     1      70.316  49.717   4.038  1.00  0.00     0.157 A 
ENDROOT
BRANCH   1   7
ATOM      7  C   UNL     1      71.988  47.920   7.571  1.00  0.00     0.010 C 
ATOM      8  C   UNL     1      73.307  47.767   7.747  1.00  0.00     0.025 C 
BRANCH   8   9
ATOM      9  C   UNL     1      73.862  47.142   8.959  1.00  0.00     0.064 C 
ATOM     10  O   UNL     1      73.383  47.439  10.084  1.00  0.00    -0.545 OA
ATOM     11  O   UNL     1      74.907  46.229   8.881  1.00  0.00    -0.545 OA
ENDBRANCH   8   9
ENDBRANCH   1   7
BRANCH   4  12
ATOM     12  O   UNL     1      71.606  48.191   2.683  1.00  0.00    -0.504 OA
ATOM     13  H   UNL     1      72.417  48.557   2.198  1.00  0.00     0.293 HD
ENDBRANCH   4  12
BRANCH   6  14
ATOM     14  O   UNL     1      69.786  50.285   2.881  1.00  0.00    -0.504 OA
ATOM     15  H   UNL     1      69.302  49.725   2.189  1.00  0.00     0.293 HD
ENDBRANCH   6  14
TORSDOF 4
ENDMDL
MODEL 6
REMARK VINA RESULT:    -4.583      9.481     12.461
REMARK INTER + INTRA:          -5.524
REMARK INTER:                  -5.401
REMARK INTRA:                  -0.123
REMARK UNBOUND:                -0.137
REMARK SMILES O=C([O-])C=Cc1ccc(O)c(O)c1
REMARK SMILES IDX 6 1 13 2 7 3 11 4 8 5 9 6 5 7 4 8 2 9 1 10 3 11 12 12 10 14
REMARK H PARENT 12 13 10 15
REMARK Flexibility Score: inf
ROOT
ATOM      1  C   UNL     1      71.343  48.441   5.046  1.00  0.00    -0.022 A 
ATOM      2  C   UNL     1      70.607  49.620   4.841  1.00  0.00     0.058 A 
ATOM      3  C   UNL     1      71.670  47.642   3.931  1.00  0.00     0.012 A 
ATOM      4  C   UNL     1      70.225  50.012   3.550  1.00  0.00     0.157 A 
ATOM      5  C   UNL     1      71.288  48.032   2.645  1.00  0.00     0.051 A 
ATOM      6  C   UNL     1      70.568  49.218   2.450  1.00  0.00     0.157 A 
ENDROOT
BRANCH   1   7
ATOM      7  C   UNL     1      71.714  48.067   6.433  1.00  0.00     0.010 C 
ATOM      8  C   UNL     1      72.843  48.466   7.035  1.00  0.00     0.025 C 
BRANCH   8   9
ATOM      9  C   UNL     1      73.164  48.079   8.419  1.00  0.00     0.064 C 
ATOM     10  O   UNL     1      72.860  48.851   9.365  1.00  0.00    -0.545 OA
ATOM     11  O   UNL     1      73.800  46.875   8.697  1.00  0.00    -0.545 OA
ENDBRANCH   8   9
ENDBRANCH   1   7
BRANCH   4  12
ATOM     12  O   UNL     1      69.503  51.188   3.354  1.00  0.00    -0.504 OA
ATOM     13  H   UNL     1      68.490  51.194   3.346  1.00  0.00     0.293 HD
ENDBRANCH   4  12
BRANCH   6  14
ATOM     14  O   UNL     1      70.187  49.609   1.168  1.00  0.00    -0.504 OA
ATOM     15  H   UNL     1      70.871  49.769   0.437  1.00  0.00     0.293 HD
ENDBRANCH   6  14
TORSDOF 4
ENDMDL
MODEL 7
REMARK VINA RESULT:    -4.552      8.537     12.613
REMARK INTER + INTRA:          -5.488
REMARK INTER:                  -5.356
REMARK INTRA:                  -0.132
REMARK UNBOUND:                -0.137
REMARK SMILES O=C([O-])C=Cc1ccc(O)c(O)c1
REMARK SMILES IDX 6 1 13 2 7 3 11 4 8 5 9 6 5 7 4 8 2 9 1 10 3 11 12 12 10 14
REMARK H PARENT 12 13 10 15
REMARK Flexibility Score: inf
ROOT
ATOM      1  C   UNL     1      72.404  47.502   5.593  1.00  0.00    -0.022 A 
ATOM      2  C   UNL     1      73.072  46.270   5.688  1.00  0.00     0.058 A 
ATOM      3  C   UNL     1      71.782  47.846   4.376  1.00  0.00     0.012 A 
ATOM      4  C   UNL     1      73.099  45.383   4.602  1.00  0.00     0.157 A 
ATOM      5  C   UNL     1      71.810  46.963   3.293  1.00  0.00     0.051 A 
ATOM      6  C   UNL     1      72.464  45.729   3.403  1.00  0.00     0.157 A 
ENDROOT
BRANCH   1   7
ATOM      7  C   UNL     1      72.414  48.409   6.768  1.00  0.00     0.010 C 
ATOM      8  C   UNL     1      71.372  49.169   7.131  1.00  0.00     0.025 C 
BRANCH   8   9
ATOM      9  C   UNL     1      71.423  50.045   8.313  1.00  0.00     0.064 C 
ATOM     10  O   UNL     1      71.976  51.173   8.225  1.00  0.00    -0.545 OA
ATOM     11  O   UNL     1      70.872  49.648   9.525  1.00  0.00    -0.545 OA
ENDBRANCH   8   9
ENDBRANCH   1   7
BRANCH   4  12
ATOM     12  O   UNL     1      73.754  44.158   4.707  1.00  0.00    -0.504 OA
ATOM     13  H   UNL     1      73.545  43.506   5.455  1.00  0.00     0.293 HD
ENDBRANCH   4  12
BRANCH   6  14
ATOM     14  O   UNL     1      72.492  44.847   2.326  1.00  0.00    -0.504 OA
ATOM     15  H   UNL     1      73.351  44.645   1.827  1.00  0.00     0.293 HD
ENDBRANCH   6  14
TORSDOF 4
ENDMDL
MODEL 8
REMARK VINA RESULT:    -4.530     10.569     14.064
REMARK INTER + INTRA:          -5.462
REMARK INTER:                  -5.333
REMARK INTRA:                  -0.129
REMARK UNBOUND:                -0.137
REMARK SMILES O=C([O-])C=Cc1ccc(O)c(O)c1
REMARK SMILES IDX 6 1 13 2 7 3 11 4 8 5 9 6 5 7 4 8 2 9 1 10 3 11 12 12 10 14
REMARK H PARENT 12 13 10 15
REMARK Flexibility Score: inf
ROOT
ATOM      1  C   UNL     1      70.186  48.910   6.738  1.00  0.00    -0.022 A 
ATOM      2  C   UNL     1      69.892  49.504   5.499  1.00  0.00     0.058 A 
ATOM      3  C   UNL     1      71.270  48.013   6.821  1.00  0.00     0.012 A 
ATOM      4  C   UNL     1      70.676  49.233   4.370  1.00  0.00     0.157 A 
ATOM      5  C   UNL     1      72.051  47.742   5.695  1.00  0.00     0.051 A 
ATOM      6  C   UNL     1      71.759  48.352   4.468  1.00  0.00     0.157 A 
ENDROOT
BRANCH   1   7
ATOM      7  C   UNL     1      69.318  49.224   7.901  1.00  0.00     0.010 C 
ATOM      8  C   UNL     1      68.324  48.430   8.323  1.00  0.00     0.025 C 
BRANCH   8   9
ATOM      9  C   UNL     1      67.495  48.776   9.489  1.00  0.00     0.064 C 
ATOM     10  O   UNL     1      67.493  49.959   9.919  1.00  0.00    -0.545 OA
ATOM     11  O   UNL     1      66.715  47.817  10.124  1.00  0.00    -0.545 OA
ENDBRANCH   8   9
ENDBRANCH   1   7
BRANCH   4  12
ATOM     12  O   UNL     1      70.384  49.834   3.147  1.00  0.00    -0.504 OA
ATOM     13  H   UNL     1      69.437  50.088   2.893  1.00  0.00     0.293 HD
ENDBRANCH   4  12
BRANCH   6  14
ATOM     14  O   UNL     1      72.538  48.083   3.344  1.00  0.00    -0.504 OA
ATOM     15  H   UNL     1      73.509  47.805   3.425  1.00  0.00     0.293 HD
ENDBRANCH   6  14
TORSDOF 4
ENDMDL
MODEL 9
REMARK VINA RESULT:    -4.507     10.722     12.402
REMARK INTER + INTRA:          -5.435
REMARK INTER:                  -5.304
REMARK INTRA:                  -0.131
REMARK UNBOUND:                -0.137
REMARK SMILES O=C([O-])C=Cc1ccc(O)c(O)c1
REMARK SMILES IDX 6 1 13 2 7 3 11 4 8 5 9 6 5 7 4 8 2 9 1 10 3 11 12 12 10 14
REMARK H PARENT 12 13 10 15
REMARK Flexibility Score: inf
ROOT
ATOM      1  C   UNL     1      72.305  47.667   5.511  1.00  0.00    -0.022 A 
ATOM      2  C   UNL     1      71.276  48.351   6.180  1.00  0.00     0.058 A 
ATOM      3  C   UNL     1      72.436  47.830   4.117  1.00  0.00     0.012 A 
ATOM      4  C   UNL     1      70.409  49.202   5.481  1.00  0.00     0.157 A 
ATOM      5  C   UNL     1      71.571  48.678   3.420  1.00  0.00     0.051 A 
ATOM      6  C   UNL     1      70.558  49.368   4.099  1.00  0.00     0.157 A 
ENDROOT
BRANCH   1   7
ATOM      7  C   UNL     1      73.190  46.769   6.296  1.00  0.00     0.010 C 
ATOM      8  C   UNL     1      73.583  47.025   7.552  1.00  0.00     0.025 C 
BRANCH   8   9
ATOM      9  C   UNL     1      74.451  46.100   8.297  1.00  0.00     0.064 C 
ATOM     10  O   UNL     1      74.823  46.400   9.462  1.00  0.00    -0.545 OA
ATOM     11  O   UNL     1      74.870  44.899   7.736  1.00  0.00    -0.545 OA
ENDBRANCH   8   9
ENDBRANCH   1   7
BRANCH   4  12
ATOM     12  O   UNL     1      69.397  49.886   6.153  1.00  0.00    -0.504 OA
ATOM     13  H   UNL     1      68.781  49.414   6.805  1.00  0.00     0.293 HD
ENDBRANCH   4  12
BRANCH   6  14
ATOM     14  O   UNL     1      69.695  50.215   3.406  1.00  0.00    -0.504 OA
ATOM     15  H   UNL     1      69.989  50.700   2.566  1.00  0.00     0.293 HD
ENDBRANCH   6  14
TORSDOF 4
ENDMDL
