MODEL 1
REMARK VINA RESULT:    -3.110      0.000      0.000
REMARK INTER + INTRA:         -10.692
REMARK INTER:                  -6.747
REMARK INTRA:                  -3.945
REMARK UNBOUND:                -3.945
REMARK SMILES CCCCCCCCCCCCCCCCCCCCCC(=O)[O-]
REMARK SMILES IDX 12 1 11 2 10 3 9 4 8 5 7 6 6 7 5 8 4 9 3 10 2 11 1 12 13 13
REMARK SMILES IDX 14 14 15 15 16 16 17 17 18 18 19 19 20 20 21 21 22 22 23 23
REMARK SMILES IDX 24 24
REMARK H PARENT
REMARK Flexibility Score: inf
ROOT
ATOM      1  C   UNL     1      29.555  -0.223 -38.479  1.00  0.00     0.000 C 
ENDROOT
BRANCH   1   2
ATOM      2  C   UNL     1      28.360  -0.528 -37.568  1.00  0.00     0.000 C 
BRANCH   2   3
ATOM      3  C   UNL     1      28.828  -0.899 -36.156  1.00  0.00     0.000 C 
BRANCH   3   4
ATOM      4  C   UNL     1      30.347  -1.123 -36.118  1.00  0.00    -0.000 C 
BRANCH   4   5
ATOM      5  C   UNL     1      30.753  -2.271 -35.178  1.00  0.00    -0.000 C 
BRANCH   5   6
ATOM      6  C   UNL     1      31.706  -3.274 -35.851  1.00  0.00    -0.000 C 
BRANCH   6   7
ATOM      7  C   UNL     1      31.832  -3.055 -37.369  1.00  0.00    -0.000 C 
BRANCH   7   8
ATOM      8  C   UNL     1      33.191  -2.504 -37.853  1.00  0.00    -0.000 C 
BRANCH   8   9
ATOM      9  C   UNL     1      33.124  -1.192 -38.659  1.00  0.00    -0.000 C 
BRANCH   9  10
ATOM     10  C   UNL     1      33.451   0.072 -37.831  1.00  0.00    -0.000 C 
BRANCH  10  11
ATOM     11  C   UNL     1      34.122  -0.234 -36.481  1.00  0.00    -0.003 C 
ATOM     12  C   UNL     1      33.466   0.498 -35.310  1.00  0.00     0.004 C 
ENDBRANCH  10  11
ENDBRANCH   9  10
ENDBRANCH   8   9
ENDBRANCH   7   8
ENDBRANCH   6   7
ENDBRANCH   5   6
ENDBRANCH   4   5
ENDBRANCH   3   4
ENDBRANCH   2   3
ENDBRANCH   1   2
BRANCH   1  13
ATOM     13  C   UNL     1      29.551  -1.124 -39.722  1.00  0.00     0.000 C 
BRANCH  13  14
ATOM     14  C   UNL     1      28.655  -2.367 -39.560  1.00  0.00     0.000 C 
BRANCH  14  15
ATOM     15  C   UNL     1      29.388  -3.718 -39.654  1.00  0.00     0.000 C 
BRANCH  15  16
ATOM     16  C   UNL     1      28.770  -4.799 -38.751  1.00  0.00     0.000 C 
BRANCH  16  17
ATOM     17  C   UNL     1      28.306  -4.247 -37.395  1.00  0.00     0.000 C 
BRANCH  17  18
ATOM     18  C   UNL     1      26.990  -4.875 -36.912  1.00  0.00     0.000 C 
BRANCH  18  19
ATOM     19  C   UNL     1      25.906  -3.803 -36.722  1.00  0.00     0.000 C 
BRANCH  19  20
ATOM     20  C   UNL     1      26.000  -3.094 -35.357  1.00  0.00     0.006 C 
BRANCH  20  21
ATOM     21  C   UNL     1      24.668  -3.011 -34.595  1.00  0.00     0.053 C 
BRANCH  21  22
ATOM     22  C   UNL     1      24.486  -4.160 -33.652  1.00  0.00     0.041 C 
ATOM     23  O   UNL     1      23.426  -4.266 -32.981  1.00  0.00    -0.550 OA
ATOM     24  O   UNL     1      25.496  -5.101 -33.497  1.00  0.00    -0.550 OA
ENDBRANCH  21  22
ENDBRANCH  20  21
ENDBRANCH  19  20
ENDBRANCH  18  19
ENDBRANCH  17  18
ENDBRANCH  16  17
ENDBRANCH  15  16
ENDBRANCH  14  15
ENDBRANCH  13  14
ENDBRANCH   1  13
TORSDOF 20
ENDMDL
MODEL 2
REMARK VINA RESULT:    -3.102      1.588      2.973
REMARK INTER + INTRA:         -10.674
REMARK INTER:                  -6.829
REMARK INTRA:                  -3.845
REMARK UNBOUND:                -3.945
REMARK SMILES CCCCCCCCCCCCCCCCCCCCCC(=O)[O-]
REMARK SMILES IDX 12 1 11 2 10 3 9 4 8 5 7 6 6 7 5 8 4 9 3 10 2 11 1 12 13 13
REMARK SMILES IDX 14 14 15 15 16 16 17 17 18 18 19 19 20 20 21 21 22 22 23 23
REMARK SMILES IDX 24 24
REMARK H PARENT
REMARK Flexibility Score: inf
ROOT
ATOM      1  C   UNL     1      28.939  -0.931 -34.600  1.00  0.00     0.000 C 
ENDROOT
BRANCH   1   2
ATOM      2  C   UNL     1      29.047   0.307 -35.497  1.00  0.00     0.000 C 
BRANCH   2   3
ATOM      3  C   UNL     1      29.871   0.003 -36.754  1.00  0.00     0.000 C 
BRANCH   3   4
ATOM      4  C   UNL     1      30.446   1.290 -37.363  1.00  0.00    -0.000 C 
BRANCH   4   5
ATOM      5  C   UNL     1      31.268   1.025 -38.636  1.00  0.00    -0.000 C 
BRANCH   5   6
ATOM      6  C   UNL     1      31.736  -0.437 -38.741  1.00  0.00    -0.000 C 
BRANCH   6   7
ATOM      7  C   UNL     1      33.219  -0.619 -38.373  1.00  0.00    -0.000 C 
BRANCH   7   8
ATOM      8  C   UNL     1      33.529  -1.787 -37.411  1.00  0.00    -0.000 C 
BRANCH   8   9
ATOM      9  C   UNL     1      33.572  -1.418 -35.915  1.00  0.00    -0.000 C 
BRANCH   9  10
ATOM     10  C   UNL     1      33.690   0.099 -35.644  1.00  0.00    -0.000 C 
BRANCH  10  11
ATOM     11  C   UNL     1      33.133   0.524 -34.276  1.00  0.00    -0.003 C 
ATOM     12  C   UNL     1      32.347   1.835 -34.334  1.00  0.00     0.004 C 
ENDBRANCH  10  11
ENDBRANCH   9  10
ENDBRANCH   8   9
ENDBRANCH   7   8
ENDBRANCH   6   7
ENDBRANCH   5   6
ENDBRANCH   4   5
ENDBRANCH   3   4
ENDBRANCH   2   3
ENDBRANCH   1   2
BRANCH   1  13
ATOM     13  C   UNL     1      30.222  -1.773 -34.656  1.00  0.00     0.000 C 
BRANCH  13  14
ATOM     14  C   UNL     1      29.947  -3.276 -34.845  1.00  0.00     0.000 C 
BRANCH  14  15
ATOM     15  C   UNL     1      30.749  -3.951 -35.973  1.00  0.00     0.000 C 
BRANCH  15  16
ATOM     16  C   UNL     1      30.227  -3.597 -37.375  1.00  0.00     0.000 C 
BRANCH  16  17
ATOM     17  C   UNL     1      29.123  -4.551 -37.856  1.00  0.00     0.000 C 
BRANCH  17  18
ATOM     18  C   UNL     1      27.710  -4.035 -37.543  1.00  0.00     0.000 C 
BRANCH  18  19
ATOM     19  C   UNL     1      26.899  -5.087 -36.772  1.00  0.00     0.000 C 
BRANCH  19  20
ATOM     20  C   UNL     1      26.281  -4.532 -35.475  1.00  0.00     0.006 C 
BRANCH  20  21
ATOM     21  C   UNL     1      25.786  -3.081 -35.581  1.00  0.00     0.053 C 
BRANCH  21  22
ATOM     22  C   UNL     1      24.292  -2.991 -35.537  1.00  0.00     0.041 C 
ATOM     23  O   UNL     1      23.708  -2.708 -34.458  1.00  0.00    -0.550 OA
ATOM     24  O   UNL     1      23.545  -3.242 -36.680  1.00  0.00    -0.550 OA
ENDBRANCH  21  22
ENDBRANCH  20  21
ENDBRANCH  19  20
ENDBRANCH  18  19
ENDBRANCH  17  18
ENDBRANCH  16  17
ENDBRANCH  15  16
ENDBRANCH  14  15
ENDBRANCH  13  14
ENDBRANCH   1  13
TORSDOF 20
ENDMDL
MODEL 3
REMARK VINA RESULT:    -3.086      3.653      7.235
REMARK INTER + INTRA:         -10.638
REMARK INTER:                  -7.133
REMARK INTRA:                  -3.505
REMARK UNBOUND:                -3.945
REMARK SMILES CCCCCCCCCCCCCCCCCCCCCC(=O)[O-]
REMARK SMILES IDX 12 1 11 2 10 3 9 4 8 5 7 6 6 7 5 8 4 9 3 10 2 11 1 12 13 13
REMARK SMILES IDX 14 14 15 15 16 16 17 17 18 18 19 19 20 20 21 21 22 22 23 23
REMARK SMILES IDX 24 24
REMARK H PARENT
REMARK Flexibility Score: inf
ROOT
ATOM      1  C   UNL     1      31.784  -3.887 -36.550  1.00  0.00     0.000 C 
ENDROOT
BRANCH   1   2
ATOM      2  C   UNL     1      31.697  -5.151 -37.413  1.00  0.00     0.000 C 
BRANCH   2   3
ATOM      3  C   UNL     1      30.281  -5.338 -37.971  1.00  0.00     0.000 C 
BRANCH   3   4
ATOM      4  C   UNL     1      30.172  -4.782 -39.399  1.00  0.00    -0.000 C 
BRANCH   4   5
ATOM      5  C   UNL     1      29.100  -3.687 -39.526  1.00  0.00    -0.000 C 
BRANCH   5   6
ATOM      6  C   UNL     1      29.649  -2.286 -39.202  1.00  0.00    -0.000 C 
BRANCH   6   7
ATOM      7  C   UNL     1      28.646  -1.415 -38.425  1.00  0.00    -0.000 C 
BRANCH   7   8
ATOM      8  C   UNL     1      28.756  -1.485 -36.886  1.00  0.00    -0.000 C 
BRANCH   8   9
ATOM      9  C   UNL     1      28.301  -2.813 -36.249  1.00  0.00    -0.000 C 
BRANCH   9  10
ATOM     10  C   UNL     1      26.832  -3.185 -36.552  1.00  0.00    -0.000 C 
BRANCH  10  11
ATOM     11  C   UNL     1      26.526  -4.681 -36.371  1.00  0.00    -0.003 C 
ATOM     12  C   UNL     1      26.145  -5.041 -34.934  1.00  0.00     0.004 C 
ENDBRANCH  10  11
ENDBRANCH   9  10
ENDBRANCH   8   9
ENDBRANCH   7   8
ENDBRANCH   6   7
ENDBRANCH   5   6
ENDBRANCH   4   5
ENDBRANCH   3   4
ENDBRANCH   2   3
ENDBRANCH   1   2
BRANCH   1  13
ATOM     13  C   UNL     1      33.147  -3.198 -36.708  1.00  0.00     0.000 C 
BRANCH  13  14
ATOM     14  C   UNL     1      33.534  -2.962 -38.180  1.00  0.00     0.000 C 
BRANCH  14  15
ATOM     15  C   UNL     1      33.080  -1.613 -38.767  1.00  0.00     0.000 C 
BRANCH  15  16
ATOM     16  C   UNL     1      33.221  -0.448 -37.773  1.00  0.00     0.000 C 
BRANCH  16  17
ATOM     17  C   UNL     1      32.049   0.543 -37.850  1.00  0.00     0.000 C 
BRANCH  17  18
ATOM     18  C   UNL     1      31.519   0.951 -36.467  1.00  0.00     0.000 C 
BRANCH  18  19
ATOM     19  C   UNL     1      31.920  -0.077 -35.398  1.00  0.00     0.000 C 
BRANCH  19  20
ATOM     20  C   UNL     1      32.346   0.576 -34.070  1.00  0.00     0.006 C 
BRANCH  20  21
ATOM     21  C   UNL     1      33.589   1.473 -34.176  1.00  0.00     0.053 C 
BRANCH  21  22
ATOM     22  C   UNL     1      33.296   2.890 -33.793  1.00  0.00     0.041 C 
ATOM     23  O   UNL     1      32.107   3.302 -33.754  1.00  0.00    -0.550 OA
ATOM     24  O   UNL     1      34.337   3.762 -33.500  1.00  0.00    -0.550 OA
ENDBRANCH  21  22
ENDBRANCH  20  21
ENDBRANCH  19  20
ENDBRANCH  18  19
ENDBRANCH  17  18
ENDBRANCH  16  17
ENDBRANCH  15  16
ENDBRANCH  14  15
ENDBRANCH  13  14
ENDBRANCH   1  13
TORSDOF 20
ENDMDL
MODEL 4
REMARK VINA RESULT:    -3.078      1.322      2.853
REMARK INTER + INTRA:         -10.621
REMARK INTER:                  -6.701
REMARK INTRA:                  -3.920
REMARK UNBOUND:                -3.945
REMARK SMILES CCCCCCCCCCCCCCCCCCCCCC(=O)[O-]
REMARK SMILES IDX 12 1 11 2 10 3 9 4 8 5 7 6 6 7 5 8 4 9 3 10 2 11 1 12 13 13
REMARK SMILES IDX 14 14 15 15 16 16 17 17 18 18 19 19 20 20 21 21 22 22 23 23
REMARK SMILES IDX 24 24
REMARK H PARENT
REMARK Flexibility Score: inf
ROOT
ATOM      1  C   UNL     1      29.224  -1.939 -34.400  1.00  0.00     0.000 C 
ENDROOT
BRANCH   1   2
ATOM      2  C   UNL     1      29.056  -0.670 -35.245  1.00  0.00     0.000 C 
BRANCH   2   3
ATOM      3  C   UNL     1      27.573  -0.329 -35.432  1.00  0.00     0.000 C 
BRANCH   3   4
ATOM      4  C   UNL     1      27.227  -0.163 -36.919  1.00  0.00    -0.000 C 
BRANCH   4   5
ATOM      5  C   UNL     1      28.077   0.919 -37.606  1.00  0.00    -0.000 C 
BRANCH   5   6
ATOM      6  C   UNL     1      28.421   0.560 -39.062  1.00  0.00    -0.000 C 
BRANCH   6   7
ATOM      7  C   UNL     1      29.830  -0.038 -39.215  1.00  0.00    -0.000 C 
BRANCH   7   8
ATOM      8  C   UNL     1      31.000   0.932 -38.943  1.00  0.00    -0.000 C 
BRANCH   8   9
ATOM      9  C   UNL     1      31.835   0.625 -37.684  1.00  0.00    -0.000 C 
BRANCH   9  10
ATOM     10  C   UNL     1      33.120  -0.188 -37.965  1.00  0.00    -0.000 C 
BRANCH  10  11
ATOM     11  C   UNL     1      33.710  -0.857 -36.713  1.00  0.00    -0.003 C 
ATOM     12  C   UNL     1      33.102  -0.329 -35.413  1.00  0.00     0.004 C 
ENDBRANCH  10  11
ENDBRANCH   9  10
ENDBRANCH   8   9
ENDBRANCH   7   8
ENDBRANCH   6   7
ENDBRANCH   5   6
ENDBRANCH   4   5
ENDBRANCH   3   4
ENDBRANCH   2   3
ENDBRANCH   1   2
BRANCH   1  13
ATOM     13  C   UNL     1      29.857  -3.072 -35.220  1.00  0.00     0.000 C 
BRANCH  13  14
ATOM     14  C   UNL     1      30.367  -2.606 -36.597  1.00  0.00     0.000 C 
BRANCH  14  15
ATOM     15  C   UNL     1      29.862  -3.431 -37.795  1.00  0.00     0.000 C 
BRANCH  15  16
ATOM     16  C   UNL     1      28.331  -3.574 -37.823  1.00  0.00     0.000 C 
BRANCH  16  17
ATOM     17  C   UNL     1      27.865  -5.015 -37.567  1.00  0.00     0.000 C 
BRANCH  17  18
ATOM     18  C   UNL     1      26.558  -5.087 -36.762  1.00  0.00     0.000 C 
BRANCH  18  19
ATOM     19  C   UNL     1      26.139  -3.694 -36.268  1.00  0.00     0.000 C 
BRANCH  19  20
ATOM     20  C   UNL     1      25.964  -3.631 -34.739  1.00  0.00     0.006 C 
BRANCH  20  21
ATOM     21  C   UNL     1      25.767  -5.000 -34.068  1.00  0.00     0.053 C 
BRANCH  21  22
ATOM     22  C   UNL     1      24.969  -4.899 -32.805  1.00  0.00     0.041 C 
ATOM     23  O   UNL     1      23.743  -4.615 -32.854  1.00  0.00    -0.550 OA
ATOM     24  O   UNL     1      25.582  -5.096 -31.575  1.00  0.00    -0.550 OA
ENDBRANCH  21  22
ENDBRANCH  20  21
ENDBRANCH  19  20
ENDBRANCH  18  19
ENDBRANCH  17  18
ENDBRANCH  16  17
ENDBRANCH  15  16
ENDBRANCH  14  15
ENDBRANCH  13  14
ENDBRANCH   1  13
TORSDOF 20
ENDMDL
MODEL 5
REMARK VINA RESULT:    -3.063      2.452      5.630
REMARK INTER + INTRA:         -10.588
REMARK INTER:                  -5.873
REMARK INTRA:                  -4.716
REMARK UNBOUND:                -3.945
REMARK SMILES CCCCCCCCCCCCCCCCCCCCCC(=O)[O-]
REMARK SMILES IDX 12 1 11 2 10 3 9 4 8 5 7 6 6 7 5 8 4 9 3 10 2 11 1 12 13 13
REMARK SMILES IDX 14 14 15 15 16 16 17 17 18 18 19 19 20 20 21 21 22 22 23 23
REMARK SMILES IDX 24 24
REMARK H PARENT
REMARK Flexibility Score: inf
ROOT
ATOM      1  C   UNL     1      32.909  -1.768 -38.451  1.00  0.00     0.000 C 
ENDROOT
BRANCH   1   2
ATOM      2  C   UNL     1      31.501  -1.682 -39.052  1.00  0.00     0.000 C 
BRANCH   2   3
ATOM      3  C   UNL     1      30.562  -0.890 -38.134  1.00  0.00     0.000 C 
BRANCH   3   4
ATOM      4  C   UNL     1      29.851   0.231 -38.907  1.00  0.00    -0.000 C 
BRANCH   4   5
ATOM      5  C   UNL     1      29.659   1.502 -38.061  1.00  0.00    -0.000 C 
BRANCH   5   6
ATOM      6  C   UNL     1      30.540   1.507 -36.799  1.00  0.00    -0.000 C 
BRANCH   6   7
ATOM      7  C   UNL     1      29.725   1.637 -35.500  1.00  0.00    -0.000 C 
BRANCH   7   8
ATOM      8  C   UNL     1      28.206   1.847 -35.685  1.00  0.00    -0.000 C 
BRANCH   8   9
ATOM      9  C   UNL     1      27.317   0.666 -35.247  1.00  0.00    -0.000 C 
BRANCH   9  10
ATOM     10  C   UNL     1      28.089  -0.654 -35.024  1.00  0.00    -0.000 C 
BRANCH  10  11
ATOM     11  C   UNL     1      27.673  -1.779 -35.986  1.00  0.00    -0.003 C 
ATOM     12  C   UNL     1      26.862  -1.274 -37.179  1.00  0.00     0.004 C 
ENDBRANCH  10  11
ENDBRANCH   9  10
ENDBRANCH   8   9
ENDBRANCH   7   8
ENDBRANCH   6   7
ENDBRANCH   5   6
ENDBRANCH   4   5
ENDBRANCH   3   4
ENDBRANCH   2   3
ENDBRANCH   1   2
BRANCH   1  13
ATOM     13  C   UNL     1      33.458  -0.373 -38.119  1.00  0.00     0.000 C 
BRANCH  13  14
ATOM     14  C   UNL     1      33.872  -0.225 -36.643  1.00  0.00     0.000 C 
BRANCH  14  15
ATOM     15  C   UNL     1      33.457  -1.391 -35.727  1.00  0.00     0.000 C 
BRANCH  15  16
ATOM     16  C   UNL     1      32.298  -1.028 -34.782  1.00  0.00     0.000 C 
BRANCH  16  17
ATOM     17  C   UNL     1      31.344  -2.207 -34.533  1.00  0.00     0.000 C 
BRANCH  17  18
ATOM     18  C   UNL     1      31.747  -3.474 -35.302  1.00  0.00     0.000 C 
BRANCH  18  19
ATOM     19  C   UNL     1      30.570  -4.014 -36.128  1.00  0.00     0.000 C 
BRANCH  19  20
ATOM     20  C   UNL     1      31.024  -4.824 -37.357  1.00  0.00     0.006 C 
BRANCH  20  21
ATOM     21  C   UNL     1      29.891  -5.578 -38.071  1.00  0.00     0.053 C 
BRANCH  21  22
ATOM     22  C   UNL     1      28.663  -4.736 -38.224  1.00  0.00     0.041 C 
ATOM     23  O   UNL     1      27.635  -4.988 -37.543  1.00  0.00    -0.550 OA
ATOM     24  O   UNL     1      28.646  -3.688 -39.136  1.00  0.00    -0.550 OA
ENDBRANCH  21  22
ENDBRANCH  20  21
ENDBRANCH  19  20
ENDBRANCH  18  19
ENDBRANCH  17  18
ENDBRANCH  16  17
ENDBRANCH  15  16
ENDBRANCH  14  15
ENDBRANCH  13  14
ENDBRANCH   1  13
TORSDOF 20
ENDMDL
MODEL 6
REMARK VINA RESULT:    -3.014      1.508      3.550
REMARK INTER + INTRA:         -10.482
REMARK INTER:                  -7.297
REMARK INTRA:                  -3.185
REMARK UNBOUND:                -3.945
REMARK SMILES CCCCCCCCCCCCCCCCCCCCCC(=O)[O-]
REMARK SMILES IDX 12 1 11 2 10 3 9 4 8 5 7 6 6 7 5 8 4 9 3 10 2 11 1 12 13 13
REMARK SMILES IDX 14 14 15 15 16 16 17 17 18 18 19 19 20 20 21 21 22 22 23 23
REMARK SMILES IDX 24 24
REMARK H PARENT
REMARK Flexibility Score: inf
ROOT
ATOM      1  C   UNL     1      33.424  -4.370 -36.162  1.00  0.00     0.000 C 
ENDROOT
BRANCH   1   2
ATOM      2  C   UNL     1      34.131  -3.759 -37.378  1.00  0.00     0.000 C 
BRANCH   2   3
ATOM      3  C   UNL     1      33.946  -2.237 -37.411  1.00  0.00     0.000 C 
BRANCH   3   4
ATOM      4  C   UNL     1      33.197  -1.798 -38.678  1.00  0.00    -0.000 C 
BRANCH   4   5
ATOM      5  C   UNL     1      32.742  -0.331 -38.618  1.00  0.00    -0.000 C 
BRANCH   5   6
ATOM      6  C   UNL     1      31.211  -0.192 -38.545  1.00  0.00    -0.000 C 
BRANCH   6   7
ATOM      7  C   UNL     1      30.598  -0.939 -37.348  1.00  0.00    -0.000 C 
BRANCH   7   8
ATOM      8  C   UNL     1      30.820  -0.281 -35.968  1.00  0.00    -0.000 C 
BRANCH   8   9
ATOM      9  C   UNL     1      31.295  -1.232 -34.851  1.00  0.00    -0.000 C 
BRANCH   9  10
ATOM     10  C   UNL     1      32.686  -0.879 -34.275  1.00  0.00    -0.000 C 
BRANCH  10  11
ATOM     11  C   UNL     1      33.363   0.304 -34.985  1.00  0.00    -0.003 C 
ATOM     12  C   UNL     1      33.529   1.526 -34.082  1.00  0.00     0.004 C 
ENDBRANCH  10  11
ENDBRANCH   9  10
ENDBRANCH   8   9
ENDBRANCH   7   8
ENDBRANCH   6   7
ENDBRANCH   5   6
ENDBRANCH   4   5
ENDBRANCH   3   4
ENDBRANCH   2   3
ENDBRANCH   1   2
BRANCH   1  13
ATOM     13  C   UNL     1      31.915  -4.510 -36.409  1.00  0.00     0.000 C 
BRANCH  13  14
ATOM     14  C   UNL     1      31.585  -5.341 -37.663  1.00  0.00     0.000 C 
BRANCH  14  15
ATOM     15  C   UNL     1      30.745  -4.613 -38.728  1.00  0.00     0.000 C 
BRANCH  15  16
ATOM     16  C   UNL     1      29.426  -5.336 -39.049  1.00  0.00     0.000 C 
BRANCH  16  17
ATOM     17  C   UNL     1      28.369  -5.160 -37.948  1.00  0.00     0.000 C 
BRANCH  17  18
ATOM     18  C   UNL     1      28.151  -3.690 -37.557  1.00  0.00     0.000 C 
BRANCH  18  19
ATOM     19  C   UNL     1      27.002  -3.554 -36.547  1.00  0.00     0.000 C 
BRANCH  19  20
ATOM     20  C   UNL     1      26.353  -4.906 -36.195  1.00  0.00     0.006 C 
BRANCH  20  21
ATOM     21  C   UNL     1      26.057  -5.093 -34.698  1.00  0.00     0.053 C 
BRANCH  21  22
ATOM     22  C   UNL     1      25.254  -3.961 -34.136  1.00  0.00     0.041 C 
ATOM     23  O   UNL     1      25.757  -3.200 -33.269  1.00  0.00    -0.550 OA
ATOM     24  O   UNL     1      23.945  -3.761 -34.554  1.00  0.00    -0.550 OA
ENDBRANCH  21  22
ENDBRANCH  20  21
ENDBRANCH  19  20
ENDBRANCH  18  19
ENDBRANCH  17  18
ENDBRANCH  16  17
ENDBRANCH  15  16
ENDBRANCH  14  15
ENDBRANCH  13  14
ENDBRANCH   1  13
TORSDOF 20
ENDMDL
MODEL 7
REMARK VINA RESULT:    -3.003      3.502      6.910
REMARK INTER + INTRA:         -10.459
REMARK INTER:                  -6.953
REMARK INTRA:                  -3.506
REMARK UNBOUND:                -3.945
REMARK SMILES CCCCCCCCCCCCCCCCCCCCCC(=O)[O-]
REMARK SMILES IDX 12 1 11 2 10 3 9 4 8 5 7 6 6 7 5 8 4 9 3 10 2 11 1 12 13 13
REMARK SMILES IDX 14 14 15 15 16 16 17 17 18 18 19 19 20 20 21 21 22 22 23 23
REMARK SMILES IDX 24 24
REMARK H PARENT
REMARK Flexibility Score: inf
ROOT
ATOM      1  C   UNL     1      32.825  -2.284 -37.323  1.00  0.00     0.000 C 
ENDROOT
BRANCH   1   2
ATOM      2  C   UNL     1      31.872  -3.460 -37.567  1.00  0.00     0.000 C 
BRANCH   2   3
ATOM      3  C   UNL     1      31.673  -3.701 -39.069  1.00  0.00     0.000 C 
BRANCH   3   4
ATOM      4  C   UNL     1      30.181  -3.750 -39.428  1.00  0.00    -0.000 C 
BRANCH   4   5
ATOM      5  C   UNL     1      29.585  -5.161 -39.289  1.00  0.00    -0.000 C 
BRANCH   5   6
ATOM      6  C   UNL     1      28.592  -5.268 -38.118  1.00  0.00    -0.000 C 
BRANCH   6   7
ATOM      7  C   UNL     1      28.103  -3.896 -37.621  1.00  0.00    -0.000 C 
BRANCH   7   8
ATOM      8  C   UNL     1      28.395  -3.582 -36.137  1.00  0.00    -0.000 C 
BRANCH   8   9
ATOM      9  C   UNL     1      27.163  -3.557 -35.211  1.00  0.00    -0.000 C 
BRANCH   9  10
ATOM     10  C   UNL     1      25.931  -4.294 -35.784  1.00  0.00    -0.000 C 
BRANCH  10  11
ATOM     11  C   UNL     1      24.740  -3.367 -36.075  1.00  0.00    -0.003 C 
ATOM     12  C   UNL     1      24.545  -2.294 -35.003  1.00  0.00     0.004 C 
ENDBRANCH  10  11
ENDBRANCH   9  10
ENDBRANCH   8   9
ENDBRANCH   7   8
ENDBRANCH   6   7
ENDBRANCH   5   6
ENDBRANCH   4   5
ENDBRANCH   3   4
ENDBRANCH   2   3
ENDBRANCH   1   2
BRANCH   1  13
ATOM     13  C   UNL     1      33.005  -1.441 -38.593  1.00  0.00     0.000 C 
BRANCH  13  14
ATOM     14  C   UNL     1      33.073   0.071 -38.307  1.00  0.00     0.000 C 
BRANCH  14  15
ATOM     15  C   UNL     1      31.748   0.832 -38.493  1.00  0.00     0.000 C 
BRANCH  15  16
ATOM     16  C   UNL     1      30.598  -0.072 -38.968  1.00  0.00     0.000 C 
BRANCH  16  17
ATOM     17  C   UNL     1      29.602  -0.404 -37.847  1.00  0.00     0.000 C 
BRANCH  17  18
ATOM     18  C   UNL     1      29.809   0.454 -36.589  1.00  0.00     0.000 C 
BRANCH  18  19
ATOM     19  C   UNL     1      30.073  -0.428 -35.359  1.00  0.00     0.000 C 
BRANCH  19  20
ATOM     20  C   UNL     1      31.469  -0.201 -34.750  1.00  0.00     0.006 C 
BRANCH  20  21
ATOM     21  C   UNL     1      31.855   1.278 -34.586  1.00  0.00     0.053 C 
BRANCH  21  22
ATOM     22  C   UNL     1      33.338   1.467 -34.497  1.00  0.00     0.041 C 
ATOM     23  O   UNL     1      33.813   2.444 -33.861  1.00  0.00    -0.550 OA
ATOM     24  O   UNL     1      34.193   0.577 -35.134  1.00  0.00    -0.550 OA
ENDBRANCH  21  22
ENDBRANCH  20  21
ENDBRANCH  19  20
ENDBRANCH  18  19
ENDBRANCH  17  18
ENDBRANCH  16  17
ENDBRANCH  15  16
ENDBRANCH  14  15
ENDBRANCH  13  14
ENDBRANCH   1  13
TORSDOF 20
ENDMDL
MODEL 8
REMARK VINA RESULT:    -2.996      4.090      7.599
REMARK INTER + INTRA:         -10.443
REMARK INTER:                  -7.304
REMARK INTRA:                  -3.139
REMARK UNBOUND:                -3.945
REMARK SMILES CCCCCCCCCCCCCCCCCCCCCC(=O)[O-]
REMARK SMILES IDX 12 1 11 2 10 3 9 4 8 5 7 6 6 7 5 8 4 9 3 10 2 11 1 12 13 13
REMARK SMILES IDX 14 14 15 15 16 16 17 17 18 18 19 19 20 20 21 21 22 22 23 23
REMARK SMILES IDX 24 24
REMARK H PARENT
REMARK Flexibility Score: inf
ROOT
ATOM      1  C   UNL     1      32.061   0.437 -38.479  1.00  0.00     0.000 C 
ENDROOT
BRANCH   1   2
ATOM      2  C   UNL     1      30.873   1.272 -38.973  1.00  0.00     0.000 C 
BRANCH   2   3
ATOM      3  C   UNL     1      29.559   0.497 -38.819  1.00  0.00     0.000 C 
BRANCH   3   4
ATOM      4  C   UNL     1      29.060   0.539 -37.367  1.00  0.00    -0.000 C 
BRANCH   4   5
ATOM      5  C   UNL     1      28.581  -0.835 -36.867  1.00  0.00    -0.000 C 
BRANCH   5   6
ATOM      6  C   UNL     1      27.879  -1.650 -37.968  1.00  0.00    -0.000 C 
BRANCH   6   7
ATOM      7  C   UNL     1      28.441  -3.075 -38.108  1.00  0.00    -0.000 C 
BRANCH   7   8
ATOM      8  C   UNL     1      28.259  -3.988 -36.875  1.00  0.00    -0.000 C 
BRANCH   8   9
ATOM      9  C   UNL     1      26.909  -4.729 -36.795  1.00  0.00    -0.000 C 
BRANCH   9  10
ATOM     10  C   UNL     1      26.118  -4.456 -35.496  1.00  0.00    -0.000 C 
BRANCH  10  11
ATOM     11  C   UNL     1      25.299  -3.156 -35.537  1.00  0.00    -0.003 C 
ATOM     12  C   UNL     1      24.150  -3.207 -36.544  1.00  0.00     0.004 C 
ENDBRANCH  10  11
ENDBRANCH   9  10
ENDBRANCH   8   9
ENDBRANCH   7   8
ENDBRANCH   6   7
ENDBRANCH   5   6
ENDBRANCH   4   5
ENDBRANCH   3   4
ENDBRANCH   2   3
ENDBRANCH   1   2
BRANCH   1  13
ATOM     13  C   UNL     1      31.876  -1.049 -38.818  1.00  0.00     0.000 C 
BRANCH  13  14
ATOM     14  C   UNL     1      32.606  -1.985 -37.837  1.00  0.00     0.000 C 
BRANCH  14  15
ATOM     15  C   UNL     1      31.784  -2.414 -36.608  1.00  0.00     0.000 C 
BRANCH  15  16
ATOM     16  C   UNL     1      32.012  -1.506 -35.387  1.00  0.00     0.000 C 
BRANCH  16  17
ATOM     17  C   UNL     1      33.468  -1.029 -35.266  1.00  0.00     0.000 C 
BRANCH  17  18
ATOM     18  C   UNL     1      33.589   0.499 -35.161  1.00  0.00     0.000 C 
BRANCH  18  19
ATOM     19  C   UNL     1      32.221   1.143 -34.890  1.00  0.00     0.000 C 
BRANCH  19  20
ATOM     20  C   UNL     1      32.268   2.195 -33.766  1.00  0.00     0.006 C 
BRANCH  20  21
ATOM     21  C   UNL     1      33.687   2.566 -33.307  1.00  0.00     0.053 C 
BRANCH  21  22
ATOM     22  C   UNL     1      33.872   4.047 -33.190  1.00  0.00     0.041 C 
ATOM     23  O   UNL     1      32.871   4.811 -33.192  1.00  0.00    -0.550 OA
ATOM     24  O   UNL     1      35.149   4.585 -33.102  1.00  0.00    -0.550 OA
ENDBRANCH  21  22
ENDBRANCH  20  21
ENDBRANCH  19  20
ENDBRANCH  18  19
ENDBRANCH  17  18
ENDBRANCH  16  17
ENDBRANCH  15  16
ENDBRANCH  14  15
ENDBRANCH  13  14
ENDBRANCH   1  13
TORSDOF 20
ENDMDL
MODEL 9
REMARK VINA RESULT:    -2.945      2.332      3.956
REMARK INTER + INTRA:         -10.332
REMARK INTER:                  -7.132
REMARK INTRA:                  -3.200
REMARK UNBOUND:                -3.945
REMARK SMILES CCCCCCCCCCCCCCCCCCCCCC(=O)[O-]
REMARK SMILES IDX 12 1 11 2 10 3 9 4 8 5 7 6 6 7 5 8 4 9 3 10 2 11 1 12 13 13
REMARK SMILES IDX 14 14 15 15 16 16 17 17 18 18 19 19 20 20 21 21 22 22 23 23
REMARK SMILES IDX 24 24
REMARK H PARENT
REMARK Flexibility Score: inf
ROOT
ATOM      1  C   UNL     1      30.592  -0.251 -38.721  1.00  0.00     0.000 C 
ENDROOT
BRANCH   1   2
ATOM      2  C   UNL     1      31.902   0.485 -38.411  1.00  0.00     0.000 C 
BRANCH   2   3
ATOM      3  C   UNL     1      33.066  -0.504 -38.275  1.00  0.00     0.000 C 
BRANCH   3   4
ATOM      4  C   UNL     1      33.866  -0.241 -36.991  1.00  0.00    -0.000 C 
BRANCH   4   5
ATOM      5  C   UNL     1      33.528  -1.237 -35.869  1.00  0.00    -0.000 C 
BRANCH   5   6
ATOM      6  C   UNL     1      33.072  -0.535 -34.577  1.00  0.00    -0.000 C 
BRANCH   6   7
ATOM      7  C   UNL     1      31.741   0.220 -34.743  1.00  0.00    -0.000 C 
BRANCH   7   8
ATOM      8  C   UNL     1      31.833   1.759 -34.663  1.00  0.00    -0.000 C 
BRANCH   8   9
ATOM      9  C   UNL     1      33.082   2.311 -33.947  1.00  0.00    -0.000 C 
BRANCH   9  10
ATOM     10  C   UNL     1      32.803   2.862 -32.530  1.00  0.00    -0.000 C 
BRANCH  10  11
ATOM     11  C   UNL     1      33.848   3.883 -32.051  1.00  0.00    -0.003 C 
ATOM     12  C   UNL     1      34.570   4.582 -33.203  1.00  0.00     0.004 C 
ENDBRANCH  10  11
ENDBRANCH   9  10
ENDBRANCH   8   9
ENDBRANCH   7   8
ENDBRANCH   6   7
ENDBRANCH   5   6
ENDBRANCH   4   5
ENDBRANCH   3   4
ENDBRANCH   2   3
ENDBRANCH   1   2
BRANCH   1  13
ATOM     13  C   UNL     1      30.862  -1.650 -39.291  1.00  0.00     0.000 C 
BRANCH  13  14
ATOM     14  C   UNL     1      29.574  -2.392 -39.699  1.00  0.00     0.000 C 
BRANCH  14  15
ATOM     15  C   UNL     1      29.641  -3.926 -39.590  1.00  0.00     0.000 C 
BRANCH  15  16
ATOM     16  C   UNL     1      30.944  -4.426 -38.944  1.00  0.00     0.000 C 
BRANCH  16  17
ATOM     17  C   UNL     1      30.723  -5.022 -37.545  1.00  0.00     0.000 C 
BRANCH  17  18
ATOM     18  C   UNL     1      31.337  -4.167 -36.427  1.00  0.00     0.000 C 
BRANCH  18  19
ATOM     19  C   UNL     1      30.394  -3.022 -36.029  1.00  0.00     0.000 C 
BRANCH  19  20
ATOM     20  C   UNL     1      29.028  -3.522 -35.523  1.00  0.00     0.006 C 
BRANCH  20  21
ATOM     21  C   UNL     1      27.822  -2.932 -36.273  1.00  0.00     0.053 C 
BRANCH  21  22
ATOM     22  C   UNL     1      26.826  -3.984 -36.653  1.00  0.00     0.041 C 
ATOM     23  O   UNL     1      25.598  -3.792 -36.454  1.00  0.00    -0.550 OA
ATOM     24  O   UNL     1      27.256  -5.183 -37.205  1.00  0.00    -0.550 OA
ENDBRANCH  21  22
ENDBRANCH  20  21
ENDBRANCH  19  20
ENDBRANCH  18  19
ENDBRANCH  17  18
ENDBRANCH  16  17
ENDBRANCH  15  16
ENDBRANCH  14  15
ENDBRANCH  13  14
ENDBRANCH   1  13
TORSDOF 20
ENDMDL
