MODEL 1
REMARK VINA RESULT:    -4.028      0.000      0.000
REMARK INTER + INTRA:          -5.055
REMARK INTER:                  -4.970
REMARK INTRA:                  -0.084
REMARK UNBOUND:                -0.084
REMARK SMILES CCCCC=CC(C)=O
REMARK SMILES IDX 4 1 3 2 2 3 1 4 5 5 6 6 7 7 9 8 8 9
REMARK H PARENT
REMARK Flexibility Score: inf
ROOT
ATOM      1  C   UNL     1      54.874  31.250  31.737  1.00  0.00     0.027 C 
ENDROOT
BRANCH   1   2
ATOM      2  C   UNL     1      55.979  32.194  31.240  1.00  0.00     0.004 C 
BRANCH   2   3
ATOM      3  C   UNL     1      57.384  31.722  31.643  1.00  0.00    -0.003 C 
ATOM      4  C   UNL     1      58.489  32.403  30.835  1.00  0.00     0.004 C 
ENDBRANCH   2   3
ENDBRANCH   1   2
BRANCH   1   5
ATOM      5  C   UNL     1      53.521  31.894  31.629  1.00  0.00    -0.023 C 
ATOM      6  C   UNL     1      52.406  31.236  31.969  1.00  0.00     0.042 C 
BRANCH   6   7
ATOM      7  C   UNL     1      51.055  31.823  31.869  1.00  0.00     0.152 C 
ATOM      8  O   UNL     1      50.256  31.358  31.014  1.00  0.00    -0.295 OA
ATOM      9  C   UNL     1      50.601  32.952  32.747  1.00  0.00     0.093 C 
ENDBRANCH   6   7
ENDBRANCH   1   5
TORSDOF 4
ENDMDL
MODEL 2
REMARK VINA RESULT:    -3.962      2.175      5.031
REMARK INTER + INTRA:          -4.973
REMARK INTER:                  -4.693
REMARK INTRA:                  -0.281
REMARK UNBOUND:                -0.084
REMARK SMILES CCCCC=CC(C)=O
REMARK SMILES IDX 4 1 3 2 2 3 1 4 5 5 6 6 7 7 9 8 8 9
REMARK H PARENT
REMARK Flexibility Score: inf
ROOT
ATOM      1  C   UNL     1      51.016  32.487  30.400  1.00  0.00     0.027 C 
ENDROOT
BRANCH   1   2
ATOM      2  C   UNL     1      51.570  33.918  30.470  1.00  0.00     0.004 C 
BRANCH   2   3
ATOM      3  C   UNL     1      50.655  34.868  31.257  1.00  0.00    -0.003 C 
ATOM      4  C   UNL     1      50.499  34.458  32.721  1.00  0.00     0.004 C 
ENDBRANCH   2   3
ENDBRANCH   1   2
BRANCH   1   5
ATOM      5  C   UNL     1      52.008  31.495  30.937  1.00  0.00    -0.023 C 
ATOM      6  C   UNL     1      53.011  31.876  31.738  1.00  0.00     0.042 C 
BRANCH   6   7
ATOM      7  C   UNL     1      54.016  30.939  32.280  1.00  0.00     0.152 C 
ATOM      8  O   UNL     1      53.663  30.125  33.173  1.00  0.00    -0.295 OA
ATOM      9  C   UNL     1      55.440  30.924  31.806  1.00  0.00     0.093 C 
ENDBRANCH   6   7
ENDBRANCH   1   5
TORSDOF 4
ENDMDL
MODEL 3
REMARK VINA RESULT:    -3.957      1.854      2.624
REMARK INTER + INTRA:          -4.966
REMARK INTER:                  -4.861
REMARK INTRA:                  -0.105
REMARK UNBOUND:                -0.084
REMARK SMILES CCCCC=CC(C)=O
REMARK SMILES IDX 4 1 3 2 2 3 1 4 5 5 6 6 7 7 9 8 8 9
REMARK H PARENT
REMARK Flexibility Score: inf
ROOT
ATOM      1  C   UNL     1      56.843  32.226  31.259  1.00  0.00     0.027 C 
ENDROOT
BRANCH   1   2
ATOM      2  C   UNL     1      58.119  31.868  32.036  1.00  0.00     0.004 C 
BRANCH   2   3
ATOM      3  C   UNL     1      59.266  31.425  31.115  1.00  0.00    -0.003 C 
ATOM      4  C   UNL     1      60.161  30.365  31.757  1.00  0.00     0.004 C 
ENDBRANCH   2   3
ENDBRANCH   1   2
BRANCH   1   5
ATOM      5  C   UNL     1      55.711  31.309  31.624  1.00  0.00    -0.023 C 
ATOM      6  C   UNL     1      54.512  31.788  31.977  1.00  0.00     0.042 C 
BRANCH   6   7
ATOM      7  C   UNL     1      53.373  30.926  32.355  1.00  0.00     0.152 C 
ATOM      8  O   UNL     1      53.574  29.980  33.162  1.00  0.00    -0.295 OA
ATOM      9  C   UNL     1      51.990  31.138  31.814  1.00  0.00     0.093 C 
ENDBRANCH   6   7
ENDBRANCH   1   5
TORSDOF 4
ENDMDL
MODEL 4
REMARK VINA RESULT:    -3.907      2.990      5.846
REMARK INTER + INTRA:          -4.905
REMARK INTER:                  -4.781
REMARK INTRA:                  -0.124
REMARK UNBOUND:                -0.084
REMARK SMILES CCCCC=CC(C)=O
REMARK SMILES IDX 4 1 3 2 2 3 1 4 5 5 6 6 7 7 9 8 8 9
REMARK H PARENT
REMARK Flexibility Score: inf
ROOT
ATOM      1  C   UNL     1      54.080  32.102  31.845  1.00  0.00     0.027 C 
ENDROOT
BRANCH   1   2
ATOM      2  C   UNL     1      53.085  30.950  32.056  1.00  0.00     0.004 C 
BRANCH   2   3
ATOM      3  C   UNL     1      51.675  31.288  31.547  1.00  0.00    -0.003 C 
ATOM      4  C   UNL     1      51.351  30.610  30.216  1.00  0.00     0.004 C 
ENDBRANCH   2   3
ENDBRANCH   1   2
BRANCH   1   5
ATOM      5  C   UNL     1      55.467  31.581  31.598  1.00  0.00    -0.023 C 
ATOM      6  C   UNL     1      56.517  32.408  31.511  1.00  0.00     0.042 C 
BRANCH   6   7
ATOM      7  C   UNL     1      57.896  31.944  31.258  1.00  0.00     0.152 C 
ATOM      8  O   UNL     1      58.572  32.519  30.365  1.00  0.00    -0.295 OA
ATOM      9  C   UNL     1      58.518  30.816  32.026  1.00  0.00     0.093 C 
ENDBRANCH   6   7
ENDBRANCH   1   5
TORSDOF 4
ENDMDL
MODEL 5
REMARK VINA RESULT:    -3.898      2.443      5.309
REMARK INTER + INTRA:          -4.894
REMARK INTER:                  -4.703
REMARK INTRA:                  -0.192
REMARK UNBOUND:                -0.084
REMARK SMILES CCCCC=CC(C)=O
REMARK SMILES IDX 4 1 3 2 2 3 1 4 5 5 6 6 7 7 9 8 8 9
REMARK H PARENT
REMARK Flexibility Score: inf
ROOT
ATOM      1  C   UNL     1      52.886  30.730  32.260  1.00  0.00     0.027 C 
ENDROOT
BRANCH   1   2
ATOM      2  C   UNL     1      52.218  30.721  30.876  1.00  0.00     0.004 C 
BRANCH   2   3
ATOM      3  C   UNL     1      50.953  31.591  30.826  1.00  0.00    -0.003 C 
ATOM      4  C   UNL     1      51.217  32.982  30.250  1.00  0.00     0.004 C 
ENDBRANCH   2   3
ENDBRANCH   1   2
BRANCH   1   5
ATOM      5  C   UNL     1      54.133  31.567  32.253  1.00  0.00    -0.023 C 
ATOM      6  C   UNL     1      55.258  31.137  31.666  1.00  0.00     0.042 C 
BRANCH   6   7
ATOM      7  C   UNL     1      56.511  31.919  31.644  1.00  0.00     0.152 C 
ATOM      8  O   UNL     1      56.441  33.167  31.496  1.00  0.00    -0.295 OA
ATOM      9  C   UNL     1      57.860  31.280  31.792  1.00  0.00     0.093 C 
ENDBRANCH   6   7
ENDBRANCH   1   5
TORSDOF 4
ENDMDL
MODEL 6
REMARK VINA RESULT:    -3.810      3.411      6.123
REMARK INTER + INTRA:          -4.785
REMARK INTER:                  -4.578
REMARK INTRA:                  -0.207
REMARK UNBOUND:                -0.084
REMARK SMILES CCCCC=CC(C)=O
REMARK SMILES IDX 4 1 3 2 2 3 1 4 5 5 6 6 7 7 9 8 8 9
REMARK H PARENT
REMARK Flexibility Score: inf
ROOT
ATOM      1  C   UNL     1      50.592  34.547  32.833  1.00  0.00     0.027 C 
ENDROOT
BRANCH   1   2
ATOM      2  C   UNL     1      49.400  35.065  32.013  1.00  0.00     0.004 C 
BRANCH   2   3
ATOM      3  C   UNL     1      48.499  33.931  31.501  1.00  0.00    -0.003 C 
ATOM      4  C   UNL     1      47.023  34.157  31.828  1.00  0.00     0.004 C 
ENDBRANCH   2   3
ENDBRANCH   1   2
BRANCH   1   5
ATOM      5  C   UNL     1      50.832  33.086  32.577  1.00  0.00    -0.023 C 
ATOM      6  C   UNL     1      51.927  32.661  31.935  1.00  0.00     0.042 C 
BRANCH   6   7
ATOM      7  C   UNL     1      52.200  31.238  31.650  1.00  0.00     0.152 C 
ATOM      8  O   UNL     1      52.887  30.579  32.474  1.00  0.00    -0.295 OA
ATOM      9  C   UNL     1      51.689  30.551  30.418  1.00  0.00     0.093 C 
ENDBRANCH   6   7
ENDBRANCH   1   5
TORSDOF 4
ENDMDL
MODEL 7
REMARK VINA RESULT:    -3.798      3.323      5.744
REMARK INTER + INTRA:          -4.770
REMARK INTER:                  -4.502
REMARK INTRA:                  -0.268
REMARK UNBOUND:                -0.084
REMARK SMILES CCCCC=CC(C)=O
REMARK SMILES IDX 4 1 3 2 2 3 1 4 5 5 6 6 7 7 9 8 8 9
REMARK H PARENT
REMARK Flexibility Score: inf
ROOT
ATOM      1  C   UNL     1      54.643  31.276  31.467  1.00  0.00     0.027 C 
ENDROOT
BRANCH   1   2
ATOM      2  C   UNL     1      53.887  31.615  32.761  1.00  0.00     0.004 C 
BRANCH   2   3
ATOM      3  C   UNL     1      53.287  33.029  32.740  1.00  0.00    -0.003 C 
ATOM      4  C   UNL     1      53.120  33.577  31.323  1.00  0.00     0.004 C 
ENDBRANCH   2   3
ENDBRANCH   1   2
BRANCH   1   5
ATOM      5  C   UNL     1      56.128  31.384  31.663  1.00  0.00    -0.023 C 
ATOM      6  C   UNL     1      56.851  32.310  31.019  1.00  0.00     0.042 C 
BRANCH   6   7
ATOM      7  C   UNL     1      58.314  32.447  31.171  1.00  0.00     0.152 C 
ATOM      8  O   UNL     1      58.822  33.598  31.110  1.00  0.00    -0.295 OA
ATOM      9  C   UNL     1      59.214  31.268  31.396  1.00  0.00     0.093 C 
ENDBRANCH   6   7
ENDBRANCH   1   5
TORSDOF 4
ENDMDL
MODEL 8
REMARK VINA RESULT:    -3.764      1.879      2.937
REMARK INTER + INTRA:          -4.729
REMARK INTER:                  -4.560
REMARK INTRA:                  -0.169
REMARK UNBOUND:                -0.084
REMARK SMILES CCCCC=CC(C)=O
REMARK SMILES IDX 4 1 3 2 2 3 1 4 5 5 6 6 7 7 9 8 8 9
REMARK H PARENT
REMARK Flexibility Score: inf
ROOT
ATOM      1  C   UNL     1      52.212  30.786  30.885  1.00  0.00     0.027 C 
ENDROOT
BRANCH   1   2
ATOM      2  C   UNL     1      52.876  30.765  32.270  1.00  0.00     0.004 C 
BRANCH   2   3
ATOM      3  C   UNL     1      54.111  31.676  32.346  1.00  0.00    -0.003 C 
ATOM      4  C   UNL     1      55.311  31.106  31.589  1.00  0.00     0.004 C 
ENDBRANCH   2   3
ENDBRANCH   1   2
BRANCH   1   5
ATOM      5  C   UNL     1      50.835  31.381  30.954  1.00  0.00    -0.023 C 
ATOM      6  C   UNL     1      50.635  32.697  30.806  1.00  0.00     0.042 C 
BRANCH   6   7
ATOM      7  C   UNL     1      49.302  33.328  30.877  1.00  0.00     0.152 C 
ATOM      8  O   UNL     1      48.359  32.825  30.210  1.00  0.00    -0.295 OA
ATOM      9  C   UNL     1      49.030  34.543  31.714  1.00  0.00     0.093 C 
ENDBRANCH   6   7
ENDBRANCH   1   5
TORSDOF 4
ENDMDL
MODEL 9
REMARK VINA RESULT:    -3.667      2.329      5.354
REMARK INTER + INTRA:          -4.609
REMARK INTER:                  -4.319
REMARK INTRA:                  -0.290
REMARK UNBOUND:                -0.084
REMARK SMILES CCCCC=CC(C)=O
REMARK SMILES IDX 4 1 3 2 2 3 1 4 5 5 6 6 7 7 9 8 8 9
REMARK H PARENT
REMARK Flexibility Score: inf
ROOT
ATOM      1  C   UNL     1      52.040  31.213  31.336  1.00  0.00     0.027 C 
ENDROOT
BRANCH   1   2
ATOM      2  C   UNL     1      51.353  32.359  30.578  1.00  0.00     0.004 C 
BRANCH   2   3
ATOM      3  C   UNL     1      50.080  32.852  31.282  1.00  0.00    -0.003 C 
ATOM      4  C   UNL     1      50.305  33.153  32.764  1.00  0.00     0.004 C 
ENDBRANCH   2   3
ENDBRANCH   1   2
BRANCH   1   5
ATOM      5  C   UNL     1      53.486  31.526  31.598  1.00  0.00    -0.023 C 
ATOM      6  C   UNL     1      53.958  32.775  31.497  1.00  0.00     0.042 C 
BRANCH   6   7
ATOM      7  C   UNL     1      55.372  33.130  31.734  1.00  0.00     0.152 C 
ATOM      8  O   UNL     1      55.631  34.145  32.432  1.00  0.00    -0.295 OA
ATOM      9  C   UNL     1      56.508  32.325  31.174  1.00  0.00     0.093 C 
ENDBRANCH   6   7
ENDBRANCH   1   5
TORSDOF 4
ENDMDL
