MODEL 1
REMARK VINA RESULT:    -3.840      0.000      0.000
REMARK INTER + INTRA:          -9.495
REMARK INTER:                  -7.208
REMARK INTRA:                  -2.287
REMARK UNBOUND:                -2.287
REMARK SMILES O=C([O-])CCCCCCCCCCCCCCC(=O)[O-]
REMARK SMILES IDX 10 1 9 2 8 3 7 4 6 5 5 6 4 7 2 8 1 9 3 10 11 11 12 12 13 13
REMARK SMILES IDX 14 14 15 15 16 16 17 17 18 18 19 19 20 20
REMARK H PARENT
REMARK Flexibility Score: inf
ROOT
ATOM      1  C   UNL     1     302.879 325.397 646.778  1.00  0.00     0.000 C 
ENDROOT
BRANCH   1   2
ATOM      2  C   UNL     1     303.373 324.354 645.762  1.00  0.00     0.000 C 
BRANCH   2   3
ATOM      3  C   UNL     1     304.905 324.280 645.687  1.00  0.00     0.000 C 
BRANCH   3   4
ATOM      4  C   UNL     1     305.467 323.398 646.813  1.00  0.00     0.000 C 
BRANCH   4   5
ATOM      5  C   UNL     1     304.627 322.134 647.050  1.00  0.00     0.000 C 
BRANCH   5   6
ATOM      6  C   UNL     1     304.508 321.773 648.540  1.00  0.00     0.006 C 
BRANCH   6   7
ATOM      7  C   UNL     1     305.182 322.814 649.444  1.00  0.00     0.053 C 
BRANCH   7   8
ATOM      8  C   UNL     1     306.336 322.230 650.199  1.00  0.00     0.041 C 
ATOM      9  O   UNL     1     307.467 322.131 649.652  1.00  0.00    -0.550 OA
ATOM     10  O   UNL     1     306.156 321.761 651.494  1.00  0.00    -0.550 OA
ENDBRANCH   7   8
ENDBRANCH   6   7
ENDBRANCH   5   6
ENDBRANCH   4   5
ENDBRANCH   3   4
ENDBRANCH   2   3
ENDBRANCH   1   2
BRANCH   1  11
ATOM     11  C   UNL     1     302.000 324.783 647.878  1.00  0.00     0.000 C 
BRANCH  11  12
ATOM     12  C   UNL     1     301.204 323.587 647.342  1.00  0.00     0.000 C 
BRANCH  12  13
ATOM     13  C   UNL     1     299.698 323.774 647.585  1.00  0.00     0.000 C 
BRANCH  13  14
ATOM     14  C   UNL     1     299.022 324.615 646.492  1.00  0.00     0.000 C 
BRANCH  14  15
ATOM     15  C   UNL     1     299.579 324.323 645.090  1.00  0.00     0.000 C 
BRANCH  15  16
ATOM     16  C   UNL     1     299.848 325.625 644.325  1.00  0.00     0.006 C 
BRANCH  16  17
ATOM     17  C   UNL     1     299.730 326.840 645.250  1.00  0.00     0.053 C 
BRANCH  17  18
ATOM     18  C   UNL     1     300.657 327.927 644.806  1.00  0.00     0.041 C 
ATOM     19  O   UNL     1     301.559 327.687 643.962  1.00  0.00    -0.550 OA
ATOM     20  O   UNL     1     300.493 329.219 645.289  1.00  0.00    -0.550 OA
ENDBRANCH  17  18
ENDBRANCH  16  17
ENDBRANCH  15  16
ENDBRANCH  14  15
ENDBRANCH  13  14
ENDBRANCH  12  13
ENDBRANCH  11  12
ENDBRANCH   1  11
TORSDOF 15
ENDMDL
MODEL 2
REMARK VINA RESULT:    -3.669      2.342      3.607
REMARK INTER + INTRA:          -9.173
REMARK INTER:                  -7.357
REMARK INTRA:                  -1.816
REMARK UNBOUND:                -2.287
REMARK SMILES O=C([O-])CCCCCCCCCCCCCCC(=O)[O-]
REMARK SMILES IDX 10 1 9 2 8 3 7 4 6 5 5 6 4 7 2 8 1 9 3 10 11 11 12 12 13 13
REMARK SMILES IDX 14 14 15 15 16 16 17 17 18 18 19 19 20 20
REMARK H PARENT
REMARK Flexibility Score: inf
ROOT
ATOM      1  C   UNL     1     299.575 324.762 647.540  1.00  0.00     0.000 C 
ENDROOT
BRANCH   1   2
ATOM      2  C   UNL     1     300.635 323.651 647.479  1.00  0.00     0.000 C 
BRANCH   2   3
ATOM      3  C   UNL     1     302.020 324.128 647.942  1.00  0.00     0.000 C 
BRANCH   3   4
ATOM      4  C   UNL     1     303.042 322.982 647.883  1.00  0.00     0.000 C 
BRANCH   4   5
ATOM      5  C   UNL     1     304.433 323.403 648.379  1.00  0.00     0.000 C 
BRANCH   5   6
ATOM      6  C   UNL     1     304.662 323.062 649.862  1.00  0.00     0.006 C 
BRANCH   6   7
ATOM      7  C   UNL     1     305.412 321.736 650.042  1.00  0.00     0.053 C 
BRANCH   7   8
ATOM      8  C   UNL     1     306.869 321.874 649.721  1.00  0.00     0.041 C 
ATOM      9  O   UNL     1     307.374 321.217 648.772  1.00  0.00    -0.550 OA
ATOM     10  O   UNL     1     307.677 322.700 650.491  1.00  0.00    -0.550 OA
ENDBRANCH   7   8
ENDBRANCH   6   7
ENDBRANCH   5   6
ENDBRANCH   4   5
ENDBRANCH   3   4
ENDBRANCH   2   3
ENDBRANCH   1   2
BRANCH   1  11
ATOM     11  C   UNL     1     298.948 325.059 646.169  1.00  0.00     0.000 C 
BRANCH  11  12
ATOM     12  C   UNL     1     299.013 326.557 645.848  1.00  0.00     0.000 C 
BRANCH  12  13
ATOM     13  C   UNL     1     300.462 327.007 645.611  1.00  0.00     0.000 C 
BRANCH  13  14
ATOM     14  C   UNL     1     301.057 326.431 644.316  1.00  0.00     0.000 C 
BRANCH  14  15
ATOM     15  C   UNL     1     302.380 325.687 644.552  1.00  0.00     0.000 C 
BRANCH  15  16
ATOM     16  C   UNL     1     302.237 324.196 644.220  1.00  0.00     0.006 C 
BRANCH  16  17
ATOM     17  C   UNL     1     300.950 323.929 643.435  1.00  0.00     0.053 C 
BRANCH  17  18
ATOM     18  C   UNL     1     301.260 323.261 642.132  1.00  0.00     0.041 C 
ATOM     19  O   UNL     1     302.007 323.827 641.292  1.00  0.00    -0.550 OA
ATOM     20  O   UNL     1     300.764 321.991 641.868  1.00  0.00    -0.550 OA
ENDBRANCH  17  18
ENDBRANCH  16  17
ENDBRANCH  15  16
ENDBRANCH  14  15
ENDBRANCH  13  14
ENDBRANCH  12  13
ENDBRANCH  11  12
ENDBRANCH   1  11
TORSDOF 15
ENDMDL
MODEL 3
REMARK VINA RESULT:    -3.661      1.263      7.484
REMARK INTER + INTRA:          -9.158
REMARK INTER:                  -7.136
REMARK INTRA:                  -2.023
REMARK UNBOUND:                -2.287
REMARK SMILES O=C([O-])CCCCCCCCCCCCCCC(=O)[O-]
REMARK SMILES IDX 10 1 9 2 8 3 7 4 6 5 5 6 4 7 2 8 1 9 3 10 11 11 12 12 13 13
REMARK SMILES IDX 14 14 15 15 16 16 17 17 18 18 19 19 20 20
REMARK H PARENT
REMARK Flexibility Score: inf
ROOT
ATOM      1  C   UNL     1     303.401 324.817 645.959  1.00  0.00     0.000 C 
ENDROOT
BRANCH   1   2
ATOM      2  C   UNL     1     303.064 325.231 647.400  1.00  0.00     0.000 C 
BRANCH   2   3
ATOM      3  C   UNL     1     302.279 324.149 648.159  1.00  0.00     0.000 C 
BRANCH   3   4
ATOM      4  C   UNL     1     301.158 323.569 647.282  1.00  0.00     0.000 C 
BRANCH   4   5
ATOM      5  C   UNL     1     299.777 324.145 647.629  1.00  0.00     0.000 C 
BRANCH   5   6
ATOM      6  C   UNL     1     298.910 324.397 646.384  1.00  0.00     0.006 C 
BRANCH   6   7
ATOM      7  C   UNL     1     299.749 324.473 645.101  1.00  0.00     0.053 C 
BRANCH   7   8
ATOM      8  C   UNL     1     299.839 325.875 644.578  1.00  0.00     0.041 C 
ATOM      9  O   UNL     1     300.352 326.782 645.285  1.00  0.00    -0.550 OA
ATOM     10  O   UNL     1     299.324 326.186 643.327  1.00  0.00    -0.550 OA
ENDBRANCH   7   8
ENDBRANCH   6   7
ENDBRANCH   5   6
ENDBRANCH   4   5
ENDBRANCH   3   4
ENDBRANCH   2   3
ENDBRANCH   1   2
BRANCH   1  11
ATOM     11  C   UNL     1     304.873 325.069 645.600  1.00  0.00     0.000 C 
BRANCH  11  12
ATOM     12  C   UNL     1     305.423 323.945 644.712  1.00  0.00     0.000 C 
BRANCH  12  13
ATOM     13  C   UNL     1     304.659 322.634 644.949  1.00  0.00     0.000 C 
BRANCH  13  14
ATOM     14  C   UNL     1     305.431 321.652 645.845  1.00  0.00     0.000 C 
BRANCH  14  15
ATOM     15  C   UNL     1     304.851 321.566 647.265  1.00  0.00     0.000 C 
BRANCH  15  16
ATOM     16  C   UNL     1     305.943 321.796 648.318  1.00  0.00     0.006 C 
BRANCH  16  17
ATOM     17  C   UNL     1     305.355 322.404 649.594  1.00  0.00     0.053 C 
BRANCH  17  18
ATOM     18  C   UNL     1     305.694 321.559 650.781  1.00  0.00     0.041 C 
ATOM     19  O   UNL     1     306.370 322.038 651.729  1.00  0.00    -0.550 OA
ATOM     20  O   UNL     1     305.220 320.256 650.864  1.00  0.00    -0.550 OA
ENDBRANCH  17  18
ENDBRANCH  16  17
ENDBRANCH  15  16
ENDBRANCH  14  15
ENDBRANCH  13  14
ENDBRANCH  12  13
ENDBRANCH  11  12
ENDBRANCH   1  11
TORSDOF 15
ENDMDL
MODEL 4
REMARK VINA RESULT:    -3.645      1.979      3.443
REMARK INTER + INTRA:          -9.129
REMARK INTER:                  -7.258
REMARK INTRA:                  -1.871
REMARK UNBOUND:                -2.287
REMARK SMILES O=C([O-])CCCCCCCCCCCCCCC(=O)[O-]
REMARK SMILES IDX 10 1 9 2 8 3 7 4 6 5 5 6 4 7 2 8 1 9 3 10 11 11 12 12 13 13
REMARK SMILES IDX 14 14 15 15 16 16 17 17 18 18 19 19 20 20
REMARK H PARENT
REMARK Flexibility Score: inf
ROOT
ATOM      1  C   UNL     1     299.242 325.309 646.827  1.00  0.00     0.000 C 
ENDROOT
BRANCH   1   2
ATOM      2  C   UNL     1     299.930 324.573 647.986  1.00  0.00     0.000 C 
BRANCH   2   3
ATOM      3  C   UNL     1     301.036 323.618 647.509  1.00  0.00     0.000 C 
BRANCH   3   4
ATOM      4  C   UNL     1     302.376 323.953 648.181  1.00  0.00     0.000 C 
BRANCH   4   5
ATOM      5  C   UNL     1     303.468 322.918 647.871  1.00  0.00     0.000 C 
BRANCH   5   6
ATOM      6  C   UNL     1     304.811 323.256 648.540  1.00  0.00     0.006 C 
BRANCH   6   7
ATOM      7  C   UNL     1     304.873 322.766 649.993  1.00  0.00     0.053 C 
BRANCH   7   8
ATOM      8  C   UNL     1     305.679 321.509 650.122  1.00  0.00     0.041 C 
ATOM      9  O   UNL     1     305.254 320.554 650.824  1.00  0.00    -0.550 OA
ATOM     10  O   UNL     1     306.914 321.407 649.497  1.00  0.00    -0.550 OA
ENDBRANCH   7   8
ENDBRANCH   6   7
ENDBRANCH   5   6
ENDBRANCH   4   5
ENDBRANCH   3   4
ENDBRANCH   2   3
ENDBRANCH   1   2
BRANCH   1  11
ATOM     11  C   UNL     1     299.100 324.436 645.571  1.00  0.00     0.000 C 
BRANCH  11  12
ATOM     12  C   UNL     1     299.680 325.144 644.340  1.00  0.00     0.000 C 
BRANCH  12  13
ATOM     13  C   UNL     1     300.900 324.387 643.794  1.00  0.00     0.000 C 
BRANCH  13  14
ATOM     14  C   UNL     1     302.208 324.792 644.492  1.00  0.00     0.000 C 
BRANCH  14  15
ATOM     15  C   UNL     1     302.423 326.313 644.513  1.00  0.00     0.000 C 
BRANCH  15  16
ATOM     16  C   UNL     1     302.453 326.843 645.952  1.00  0.00     0.006 C 
BRANCH  16  17
ATOM     17  C   UNL     1     303.889 326.926 646.477  1.00  0.00     0.053 C 
BRANCH  17  18
ATOM     18  C   UNL     1     304.266 328.349 646.747  1.00  0.00     0.041 C 
ATOM     19  O   UNL     1     304.754 328.675 647.860  1.00  0.00    -0.550 OA
ATOM     20  O   UNL     1     304.124 329.306 645.750  1.00  0.00    -0.550 OA
ENDBRANCH  17  18
ENDBRANCH  16  17
ENDBRANCH  15  16
ENDBRANCH  14  15
ENDBRANCH  13  14
ENDBRANCH  12  13
ENDBRANCH  11  12
ENDBRANCH   1  11
TORSDOF 15
ENDMDL
MODEL 5
REMARK VINA RESULT:    -3.631      0.654      7.496
REMARK INTER + INTRA:          -9.102
REMARK INTER:                  -7.017
REMARK INTRA:                  -2.084
REMARK UNBOUND:                -2.287
REMARK SMILES O=C([O-])CCCCCCCCCCCCCCC(=O)[O-]
REMARK SMILES IDX 10 1 9 2 8 3 7 4 6 5 5 6 4 7 2 8 1 9 3 10 11 11 12 12 13 13
REMARK SMILES IDX 14 14 15 15 16 16 17 17 18 18 19 19 20 20
REMARK H PARENT
REMARK Flexibility Score: inf
ROOT
ATOM      1  C   UNL     1     302.421 325.130 647.479  1.00  0.00     0.000 C 
ENDROOT
BRANCH   1   2
ATOM      2  C   UNL     1     301.432 323.954 647.474  1.00  0.00     0.000 C 
BRANCH   2   3
ATOM      3  C   UNL     1     300.038 324.350 647.983  1.00  0.00     0.000 C 
BRANCH   3   4
ATOM      4  C   UNL     1     298.953 323.960 646.968  1.00  0.00     0.000 C 
BRANCH   4   5
ATOM      5  C   UNL     1     299.336 324.320 645.525  1.00  0.00     0.000 C 
BRANCH   5   6
ATOM      6  C   UNL     1     299.171 325.819 645.224  1.00  0.00     0.006 C 
BRANCH   6   7
ATOM      7  C   UNL     1     300.194 326.320 644.196  1.00  0.00     0.053 C 
BRANCH   7   8
ATOM      8  C   UNL     1     300.536 327.763 644.410  1.00  0.00     0.041 C 
ATOM      9  O   UNL     1     301.220 328.386 643.554  1.00  0.00    -0.550 OA
ATOM     10  O   UNL     1     300.133 328.410 645.570  1.00  0.00    -0.550 OA
ENDBRANCH   7   8
ENDBRANCH   6   7
ENDBRANCH   5   6
ENDBRANCH   4   5
ENDBRANCH   3   4
ENDBRANCH   2   3
ENDBRANCH   1   2
BRANCH   1  11
ATOM     11  C   UNL     1     303.185 325.268 646.154  1.00  0.00     0.000 C 
BRANCH  11  12
ATOM     12  C   UNL     1     303.428 323.895 645.514  1.00  0.00     0.000 C 
BRANCH  12  13
ATOM     13  C   UNL     1     304.931 323.629 645.338  1.00  0.00     0.000 C 
BRANCH  13  14
ATOM     14  C   UNL     1     305.572 323.006 646.588  1.00  0.00     0.000 C 
BRANCH  14  15
ATOM     15  C   UNL     1     304.773 321.812 647.132  1.00  0.00     0.000 C 
BRANCH  15  16
ATOM     16  C   UNL     1     304.508 321.968 648.634  1.00  0.00     0.006 C 
BRANCH  16  17
ATOM     17  C   UNL     1     305.392 323.062 649.238  1.00  0.00     0.053 C 
BRANCH  17  18
ATOM     18  C   UNL     1     306.344 322.477 650.233  1.00  0.00     0.041 C 
ATOM     19  O   UNL     1     305.912 321.788 651.194  1.00  0.00    -0.550 OA
ATOM     20  O   UNL     1     307.713 322.651 650.070  1.00  0.00    -0.550 OA
ENDBRANCH  17  18
ENDBRANCH  16  17
ENDBRANCH  15  16
ENDBRANCH  14  15
ENDBRANCH  13  14
ENDBRANCH  12  13
ENDBRANCH  11  12
ENDBRANCH   1  11
TORSDOF 15
ENDMDL
MODEL 6
REMARK VINA RESULT:    -3.582      1.754      3.656
REMARK INTER + INTRA:          -9.011
REMARK INTER:                  -7.100
REMARK INTRA:                  -1.910
REMARK UNBOUND:                -2.287
REMARK SMILES O=C([O-])CCCCCCCCCCCCCCC(=O)[O-]
REMARK SMILES IDX 10 1 9 2 8 3 7 4 6 5 5 6 4 7 2 8 1 9 3 10 11 11 12 12 13 13
REMARK SMILES IDX 14 14 15 15 16 16 17 17 18 18 19 19 20 20
REMARK H PARENT
REMARK Flexibility Score: inf
ROOT
ATOM      1  C   UNL     1     298.875 324.175 646.025  1.00  0.00     0.000 C 
ENDROOT
BRANCH   1   2
ATOM      2  C   UNL     1     299.232 323.982 647.507  1.00  0.00     0.000 C 
BRANCH   2   3
ATOM      3  C   UNL     1     300.598 324.586 647.871  1.00  0.00     0.000 C 
BRANCH   3   4
ATOM      4  C   UNL     1     301.736 323.611 647.531  1.00  0.00     0.000 C 
BRANCH   4   5
ATOM      5  C   UNL     1     303.007 323.877 648.351  1.00  0.00     0.000 C 
BRANCH   5   6
ATOM      6  C   UNL     1     304.055 322.761 648.197  1.00  0.00     0.006 C 
BRANCH   6   7
ATOM      7  C   UNL     1     305.452 323.213 648.640  1.00  0.00     0.053 C 
BRANCH   7   8
ATOM      8  C   UNL     1     305.949 322.419 649.810  1.00  0.00     0.041 C 
ATOM      9  O   UNL     1     307.161 322.477 650.146  1.00  0.00    -0.550 OA
ATOM     10  O   UNL     1     305.081 321.588 650.506  1.00  0.00    -0.550 OA
ENDBRANCH   7   8
ENDBRANCH   6   7
ENDBRANCH   5   6
ENDBRANCH   4   5
ENDBRANCH   3   4
ENDBRANCH   2   3
ENDBRANCH   1   2
BRANCH   1  11
ATOM     11  C   UNL     1     299.025 325.632 645.564  1.00  0.00     0.000 C 
BRANCH  11  12
ATOM     12  C   UNL     1     299.982 325.736 644.370  1.00  0.00     0.000 C 
BRANCH  12  13
ATOM     13  C   UNL     1     300.604 324.370 644.043  1.00  0.00     0.000 C 
BRANCH  13  14
ATOM     14  C   UNL     1     301.488 324.408 642.787  1.00  0.00     0.000 C 
BRANCH  14  15
ATOM     15  C   UNL     1     302.771 323.575 642.940  1.00  0.00     0.000 C 
BRANCH  15  16
ATOM     16  C   UNL     1     303.278 323.610 644.386  1.00  0.00     0.006 C 
BRANCH  16  17
ATOM     17  C   UNL     1     304.556 324.446 644.500  1.00  0.00     0.053 C 
BRANCH  17  18
ATOM     18  C   UNL     1     304.302 325.683 645.303  1.00  0.00     0.041 C 
ATOM     19  O   UNL     1     304.970 325.911 646.346  1.00  0.00    -0.550 OA
ATOM     20  O   UNL     1     303.362 326.611 644.872  1.00  0.00    -0.550 OA
ENDBRANCH  17  18
ENDBRANCH  16  17
ENDBRANCH  15  16
ENDBRANCH  14  15
ENDBRANCH  13  14
ENDBRANCH  12  13
ENDBRANCH  11  12
ENDBRANCH   1  11
TORSDOF 15
ENDMDL
MODEL 7
REMARK VINA RESULT:    -3.549      1.534      7.033
REMARK INTER + INTRA:          -8.948
REMARK INTER:                  -7.191
REMARK INTRA:                  -1.757
REMARK UNBOUND:                -2.287
REMARK SMILES O=C([O-])CCCCCCCCCCCCCCC(=O)[O-]
REMARK SMILES IDX 10 1 9 2 8 3 7 4 6 5 5 6 4 7 2 8 1 9 3 10 11 11 12 12 13 13
REMARK SMILES IDX 14 14 15 15 16 16 17 17 18 18 19 19 20 20
REMARK H PARENT
REMARK Flexibility Score: inf
ROOT
ATOM      1  C   UNL     1     298.996 324.189 646.383  1.00  0.00     0.000 C 
ENDROOT
BRANCH   1   2
ATOM      2  C   UNL     1     298.878 325.574 645.727  1.00  0.00     0.000 C 
BRANCH   2   3
ATOM      3  C   UNL     1     299.791 325.728 644.501  1.00  0.00     0.000 C 
BRANCH   3   4
ATOM      4  C   UNL     1     300.432 324.385 644.123  1.00  0.00     0.000 C 
BRANCH   4   5
ATOM      5  C   UNL     1     301.968 324.445 644.108  1.00  0.00     0.000 C 
BRANCH   5   6
ATOM      6  C   UNL     1     302.502 325.832 643.712  1.00  0.00     0.006 C 
BRANCH   6   7
ATOM      7  C   UNL     1     303.034 326.614 644.920  1.00  0.00     0.053 C 
BRANCH   7   8
ATOM      8  C   UNL     1     303.037 328.091 644.668  1.00  0.00     0.041 C 
ATOM      9  O   UNL     1     303.230 328.895 645.619  1.00  0.00    -0.550 OA
ATOM     10  O   UNL     1     302.792 328.581 643.393  1.00  0.00    -0.550 OA
ENDBRANCH   7   8
ENDBRANCH   6   7
ENDBRANCH   5   6
ENDBRANCH   4   5
ENDBRANCH   3   4
ENDBRANCH   2   3
ENDBRANCH   1   2
BRANCH   1  11
ATOM     11  C   UNL     1     299.723 324.234 647.735  1.00  0.00     0.000 C 
BRANCH  11  12
ATOM     12  C   UNL     1     301.129 323.632 647.624  1.00  0.00     0.000 C 
BRANCH  12  13
ATOM     13  C   UNL     1     302.207 324.697 647.876  1.00  0.00     0.000 C 
BRANCH  13  14
ATOM     14  C   UNL     1     303.630 324.165 647.649  1.00  0.00     0.000 C 
BRANCH  14  15
ATOM     15  C   UNL     1     303.653 322.675 647.276  1.00  0.00     0.000 C 
BRANCH  15  16
ATOM     16  C   UNL     1     304.695 321.917 648.108  1.00  0.00     0.006 C 
BRANCH  16  17
ATOM     17  C   UNL     1     304.893 322.579 649.475  1.00  0.00     0.053 C 
BRANCH  17  18
ATOM     18  C   UNL     1     305.341 321.570 650.485  1.00  0.00     0.041 C 
ATOM     19  O   UNL     1     306.071 321.919 651.449  1.00  0.00    -0.550 OA
ATOM     20  O   UNL     1     304.912 320.252 650.389  1.00  0.00    -0.550 OA
ENDBRANCH  17  18
ENDBRANCH  16  17
ENDBRANCH  15  16
ENDBRANCH  14  15
ENDBRANCH  13  14
ENDBRANCH  12  13
ENDBRANCH  11  12
ENDBRANCH   1  11
TORSDOF 15
ENDMDL
MODEL 8
REMARK VINA RESULT:    -3.548      1.880      7.308
REMARK INTER + INTRA:          -8.946
REMARK INTER:                  -7.256
REMARK INTRA:                  -1.690
REMARK UNBOUND:                -2.287
REMARK SMILES O=C([O-])CCCCCCCCCCCCCCC(=O)[O-]
REMARK SMILES IDX 10 1 9 2 8 3 7 4 6 5 5 6 4 7 2 8 1 9 3 10 11 11 12 12 13 13
REMARK SMILES IDX 14 14 15 15 16 16 17 17 18 18 19 19 20 20
REMARK H PARENT
REMARK Flexibility Score: inf
ROOT
ATOM      1  C   UNL     1     299.080 324.373 645.708  1.00  0.00     0.000 C 
ENDROOT
BRANCH   1   2
ATOM      2  C   UNL     1     298.875 325.824 645.245  1.00  0.00     0.000 C 
BRANCH   2   3
ATOM      3  C   UNL     1     299.364 326.850 646.279  1.00  0.00     0.000 C 
BRANCH   3   4
ATOM      4  C   UNL     1     300.235 327.926 645.613  1.00  0.00     0.000 C 
BRANCH   4   5
ATOM      5  C   UNL     1     300.747 327.500 644.229  1.00  0.00     0.000 C 
BRANCH   5   6
ATOM      6  C   UNL     1     302.219 327.053 644.254  1.00  0.00     0.006 C 
BRANCH   6   7
ATOM      7  C   UNL     1     302.368 325.539 644.055  1.00  0.00     0.053 C 
BRANCH   7   8
ATOM      8  C   UNL     1     301.944 325.114 642.682  1.00  0.00     0.041 C 
ATOM      9  O   UNL     1     302.627 325.447 641.677  1.00  0.00    -0.550 OA
ATOM     10  O   UNL     1     300.776 324.384 642.508  1.00  0.00    -0.550 OA
ENDBRANCH   7   8
ENDBRANCH   6   7
ENDBRANCH   5   6
ENDBRANCH   4   5
ENDBRANCH   3   4
ENDBRANCH   2   3
ENDBRANCH   1   2
BRANCH   1  11
ATOM     11  C   UNL     1     299.324 324.262 647.220  1.00  0.00     0.000 C 
BRANCH  11  12
ATOM     12  C   UNL     1     300.603 323.468 647.515  1.00  0.00     0.000 C 
BRANCH  12  13
ATOM     13  C   UNL     1     301.724 324.394 648.012  1.00  0.00     0.000 C 
BRANCH  13  14
ATOM     14  C   UNL     1     303.042 324.192 647.249  1.00  0.00     0.000 C 
BRANCH  14  15
ATOM     15  C   UNL     1     303.797 322.930 647.694  1.00  0.00     0.000 C 
BRANCH  15  16
ATOM     16  C   UNL     1     304.939 323.284 648.653  1.00  0.00     0.006 C 
BRANCH  16  17
ATOM     17  C   UNL     1     304.626 322.818 650.078  1.00  0.00     0.053 C 
BRANCH  17  18
ATOM     18  C   UNL     1     305.645 321.825 650.540  1.00  0.00     0.041 C 
ATOM     19  O   UNL     1     305.295 320.657 650.855  1.00  0.00    -0.550 OA
ATOM     20  O   UNL     1     306.989 322.174 650.575  1.00  0.00    -0.550 OA
ENDBRANCH  17  18
ENDBRANCH  16  17
ENDBRANCH  15  16
ENDBRANCH  14  15
ENDBRANCH  13  14
ENDBRANCH  12  13
ENDBRANCH  11  12
ENDBRANCH   1  11
TORSDOF 15
ENDMDL
MODEL 9
REMARK VINA RESULT:    -3.543      2.513      3.538
REMARK INTER + INTRA:          -8.936
REMARK INTER:                  -7.521
REMARK INTRA:                  -1.415
REMARK UNBOUND:                -2.287
REMARK SMILES O=C([O-])CCCCCCCCCCCCCCC(=O)[O-]
REMARK SMILES IDX 10 1 9 2 8 3 7 4 6 5 5 6 4 7 2 8 1 9 3 10 11 11 12 12 13 13
REMARK SMILES IDX 14 14 15 15 16 16 17 17 18 18 19 19 20 20
REMARK H PARENT
REMARK Flexibility Score: inf
ROOT
ATOM      1  C   UNL     1     300.568 324.435 647.884  1.00  0.00     0.000 C 
ENDROOT
BRANCH   1   2
ATOM      2  C   UNL     1     301.705 323.457 647.548  1.00  0.00     0.000 C 
BRANCH   2   3
ATOM      3  C   UNL     1     303.093 324.023 647.889  1.00  0.00     0.000 C 
BRANCH   3   4
ATOM      4  C   UNL     1     304.153 322.911 647.886  1.00  0.00     0.000 C 
BRANCH   4   5
ATOM      5  C   UNL     1     305.509 323.386 648.430  1.00  0.00     0.000 C 
BRANCH   5   6
ATOM      6  C   UNL     1     306.366 322.230 648.973  1.00  0.00     0.006 C 
BRANCH   6   7
ATOM      7  C   UNL     1     306.204 322.051 650.488  1.00  0.00     0.053 C 
BRANCH   7   8
ATOM      8  C   UNL     1     305.681 320.690 650.835  1.00  0.00     0.041 C 
ATOM      9  O   UNL     1     306.035 320.129 651.905  1.00  0.00    -0.550 OA
ATOM     10  O   UNL     1     304.833 320.026 649.959  1.00  0.00    -0.550 OA
ENDBRANCH   7   8
ENDBRANCH   6   7
ENDBRANCH   5   6
ENDBRANCH   4   5
ENDBRANCH   3   4
ENDBRANCH   2   3
ENDBRANCH   1   2
BRANCH   1  11
ATOM     11  C   UNL     1     299.194 323.929 647.419  1.00  0.00     0.000 C 
BRANCH  11  12
ATOM     12  C   UNL     1     298.953 324.269 645.943  1.00  0.00     0.000 C 
BRANCH  12  13
ATOM     13  C   UNL     1     299.259 325.748 645.662  1.00  0.00     0.000 C 
BRANCH  13  14
ATOM     14  C   UNL     1     300.373 325.934 644.620  1.00  0.00     0.000 C 
BRANCH  14  15
ATOM     15  C   UNL     1     300.817 324.608 643.984  1.00  0.00     0.000 C 
BRANCH  15  16
ATOM     16  C   UNL     1     302.346 324.487 643.978  1.00  0.00     0.006 C 
BRANCH  16  17
ATOM     17  C   UNL     1     302.789 323.153 643.372  1.00  0.00     0.053 C 
BRANCH  17  18
ATOM     18  C   UNL     1     303.478 323.375 642.062  1.00  0.00     0.041 C 
ATOM     19  O   UNL     1     304.719 323.186 641.958  1.00  0.00    -0.550 OA
ATOM     20  O   UNL     1     302.742 323.743 640.944  1.00  0.00    -0.550 OA
ENDBRANCH  17  18
ENDBRANCH  16  17
ENDBRANCH  15  16
ENDBRANCH  14  15
ENDBRANCH  13  14
ENDBRANCH  12  13
ENDBRANCH  11  12
ENDBRANCH   1  11
TORSDOF 15
ENDMDL
