MODEL 1
REMARK VINA RESULT:    -6.558      0.000      0.000
REMARK INTER + INTRA:          -8.062
REMARK INTER:                  -7.900
REMARK INTRA:                  -0.162
REMARK UNBOUND:                -0.162
REMARK SMILES O=c1c(O)c(-c2ccc(O)c(O)c2)oc2cc(O)cc(O)c12
REMARK SMILES IDX 5 1 3 2 2 3 1 4 22 5 20 6 19 7 17 8 16 9 15 10 14 11 6 12
REMARK SMILES IDX 7 13 8 14 9 15 13 16 11 17 10 18 12 20 4 22 21 24 18 26
REMARK H PARENT 10 19 12 21 4 23 21 25 18 27
REMARK Flexibility Score: inf
ROOT
ATOM      1  C   UNL     1     102.789 110.902 111.838  1.00  0.00     0.180 A 
ATOM      2  C   UNL     1     103.217 109.942 112.770  1.00  0.00     0.208 A 
ATOM      3  C   UNL     1     102.638 108.663 112.744  1.00  0.00     0.238 A 
ATOM      4  O   UNL     1     103.064 107.790 113.546  1.00  0.00    -0.285 OA
ATOM      5  C   UNL     1     101.627 108.365 111.799  1.00  0.00     0.111 A 
ATOM      6  C   UNL     1     100.942 107.116 111.709  1.00  0.00     0.134 A 
ATOM      7  C   UNL     1     100.053 106.890 110.652  1.00  0.00     0.093 A 
ATOM      8  C   UNL     1      99.774 107.892 109.719  1.00  0.00     0.123 A 
ATOM      9  C   UNL     1     100.392 109.135 109.833  1.00  0.00     0.094 A 
ATOM     10  C   UNL     1     101.312 109.378 110.856  1.00  0.00     0.146 A 
ATOM     11  O   UNL     1     101.886 110.574 110.921  1.00  0.00    -0.452 OA
ENDROOT
BRANCH   1  12
ATOM     12  C   UNL     1     103.335 112.279 111.818  1.00  0.00     0.025 A 
ATOM     13  C   UNL     1     104.685 112.527 111.515  1.00  0.00     0.016 A 
ATOM     14  C   UNL     1     105.183 113.832 111.525  1.00  0.00     0.051 A 
ATOM     15  C   UNL     1     104.345 114.906 111.851  1.00  0.00     0.157 A 
ATOM     16  C   UNL     1     102.505 113.357 112.164  1.00  0.00     0.062 A 
ATOM     17  C   UNL     1     103.000 114.666 112.175  1.00  0.00     0.158 A 
BRANCH  15  18
ATOM     18  O   UNL     1     104.845 116.208 111.858  1.00  0.00    -0.504 OA
ATOM     19  H   UNL     1     105.500 116.521 112.565  1.00  0.00     0.293 HD
ENDBRANCH  15  18
BRANCH  17  20
ATOM     20  O   UNL     1     102.141 115.713 112.511  1.00  0.00    -0.504 OA
ATOM     21  H   UNL     1     101.241 115.835 112.063  1.00  0.00     0.293 HD
ENDBRANCH  17  20
ENDBRANCH   1  12
BRANCH   2  22
ATOM     22  O   UNL     1     104.232 110.249 113.681  1.00  0.00    -0.502 OA
ATOM     23  H   UNL     1     104.168 110.019 114.665  1.00  0.00     0.293 HD
ENDBRANCH   2  22
BRANCH   6  24
ATOM     24  O   UNL     1     101.079 106.084 112.642  1.00  0.00    -0.507 OA
ATOM     25  H   UNL     1     100.411 105.341 112.780  1.00  0.00     0.293 HD
ENDBRANCH   6  24
BRANCH   8  26
ATOM     26  O   UNL     1      98.875 107.664 108.679  1.00  0.00    -0.508 OA
ATOM     27  H   UNL     1      97.883 107.840 108.788  1.00  0.00     0.293 HD
ENDBRANCH   8  26
TORSDOF 6
ENDMDL
MODEL 2
REMARK VINA RESULT:    -6.105      1.393      2.961
REMARK INTER + INTRA:          -7.516
REMARK INTER:                  -7.479
REMARK INTRA:                  -0.037
REMARK UNBOUND:                -0.162
REMARK SMILES O=c1c(O)c(-c2ccc(O)c(O)c2)oc2cc(O)cc(O)c12
REMARK SMILES IDX 5 1 3 2 2 3 1 4 22 5 20 6 19 7 17 8 16 9 15 10 14 11 6 12
REMARK SMILES IDX 7 13 8 14 9 15 13 16 11 17 10 18 12 20 4 22 21 24 18 26
REMARK H PARENT 10 19 12 21 4 23 21 25 18 27
REMARK Flexibility Score: inf
ROOT
ATOM      1  C   UNL     1     102.606 111.695 111.216  1.00  0.00     0.180 A 
ATOM      2  C   UNL     1     101.596 111.994 110.287  1.00  0.00     0.208 A 
ATOM      3  C   UNL     1     100.662 111.001 109.952  1.00  0.00     0.238 A 
ATOM      4  O   UNL     1      99.727 111.292 109.161  1.00  0.00    -0.285 OA
ATOM      5  C   UNL     1     100.759 109.716 110.537  1.00  0.00     0.111 A 
ATOM      6  C   UNL     1      99.892 108.622 110.242  1.00  0.00     0.134 A 
ATOM      7  C   UNL     1     100.000 107.436 110.977  1.00  0.00     0.093 A 
ATOM      8  C   UNL     1     100.988 107.281 111.954  1.00  0.00     0.123 A 
ATOM      9  C   UNL     1     101.878 108.322 112.208  1.00  0.00     0.094 A 
ATOM     10  C   UNL     1     101.771 109.531 111.516  1.00  0.00     0.146 A 
ATOM     11  O   UNL     1     102.633 110.501 111.798  1.00  0.00    -0.452 OA
ENDROOT
BRANCH   1  12
ATOM     12  C   UNL     1     103.642 112.682 111.601  1.00  0.00     0.025 A 
ATOM     13  C   UNL     1     105.012 112.381 111.502  1.00  0.00     0.016 A 
ATOM     14  C   UNL     1     105.971 113.318 111.892  1.00  0.00     0.051 A 
ATOM     15  C   UNL     1     105.577 114.563 112.400  1.00  0.00     0.157 A 
ATOM     16  C   UNL     1     103.253 113.922 112.130  1.00  0.00     0.062 A 
ATOM     17  C   UNL     1     104.210 114.864 112.522  1.00  0.00     0.158 A 
BRANCH  15  18
ATOM     18  O   UNL     1     106.537 115.497 112.787  1.00  0.00    -0.504 OA
ATOM     19  H   UNL     1     107.523 115.350 112.607  1.00  0.00     0.293 HD
ENDBRANCH  15  18
BRANCH  17  20
ATOM     20  O   UNL     1     103.786 116.091 113.031  1.00  0.00    -0.504 OA
ATOM     21  H   UNL     1     104.022 116.969 112.585  1.00  0.00     0.293 HD
ENDBRANCH  17  20
ENDBRANCH   1  12
BRANCH   2  22
ATOM     22  O   UNL     1     101.504 113.277 109.736  1.00  0.00    -0.502 OA
ATOM     23  H   UNL     1     100.960 114.015 110.165  1.00  0.00     0.293 HD
ENDBRANCH   2  22
BRANCH   6  24
ATOM     24  O   UNL     1      98.934 108.640 109.224  1.00  0.00    -0.507 OA
ATOM     25  H   UNL     1      98.459 107.825 108.866  1.00  0.00     0.293 HD
ENDBRANCH   6  24
BRANCH   8  26
ATOM     26  O   UNL     1     101.099 106.092 112.670  1.00  0.00    -0.508 OA
ATOM     27  H   UNL     1     101.963 105.828 113.129  1.00  0.00     0.293 HD
ENDBRANCH   8  26
TORSDOF 6
ENDMDL
MODEL 3
REMARK VINA RESULT:    -5.966      1.519      7.144
REMARK INTER + INTRA:          -7.349
REMARK INTER:                  -7.209
REMARK INTRA:                  -0.139
REMARK UNBOUND:                -0.162
REMARK SMILES O=c1c(O)c(-c2ccc(O)c(O)c2)oc2cc(O)cc(O)c12
REMARK SMILES IDX 5 1 3 2 2 3 1 4 22 5 20 6 19 7 17 8 16 9 15 10 14 11 6 12
REMARK SMILES IDX 7 13 8 14 9 15 13 16 11 17 10 18 12 20 4 22 21 24 18 26
REMARK H PARENT 10 19 12 21 4 23 21 25 18 27
REMARK Flexibility Score: inf
ROOT
ATOM      1  C   UNL     1     102.112 111.193 111.465  1.00  0.00     0.180 A 
ATOM      2  C   UNL     1     101.425 112.397 111.687  1.00  0.00     0.208 A 
ATOM      3  C   UNL     1     102.156 113.546 112.030  1.00  0.00     0.238 A 
ATOM      4  O   UNL     1     101.540 114.634 112.174  1.00  0.00    -0.285 OA
ATOM      5  C   UNL     1     103.563 113.472 112.165  1.00  0.00     0.111 A 
ATOM      6  C   UNL     1     104.401 114.562 112.548  1.00  0.00     0.134 A 
ATOM      7  C   UNL     1     105.792 114.407 112.522  1.00  0.00     0.093 A 
ATOM      8  C   UNL     1     106.374 113.182 112.190  1.00  0.00     0.123 A 
ATOM      9  C   UNL     1     105.564 112.094 111.872  1.00  0.00     0.094 A 
ATOM     10  C   UNL     1     104.173 112.228 111.854  1.00  0.00     0.146 A 
ATOM     11  O   UNL     1     103.439 111.169 111.535  1.00  0.00    -0.452 OA
ENDROOT
BRANCH   1  12
ATOM     12  C   UNL     1     101.409 109.934 111.123  1.00  0.00     0.025 A 
ATOM     13  C   UNL     1     100.660 109.813 109.940  1.00  0.00     0.016 A 
ATOM     14  C   UNL     1      99.986 108.625 109.650  1.00  0.00     0.051 A 
ATOM     15  C   UNL     1     100.037 107.546 110.542  1.00  0.00     0.157 A 
ATOM     16  C   UNL     1     101.440 108.858 112.024  1.00  0.00     0.062 A 
ATOM     17  C   UNL     1     100.766 107.666 111.737  1.00  0.00     0.158 A 
BRANCH  15  18
ATOM     18  O   UNL     1      99.365 106.360 110.248  1.00  0.00    -0.504 OA
ATOM     19  H   UNL     1      99.366 105.968 109.315  1.00  0.00     0.293 HD
ENDBRANCH  15  18
BRANCH  17  20
ATOM     20  O   UNL     1     100.831 106.614 112.650  1.00  0.00    -0.504 OA
ATOM     21  H   UNL     1     101.163 105.693 112.387  1.00  0.00     0.293 HD
ENDBRANCH  17  20
ENDBRANCH   1  12
BRANCH   2  22
ATOM     22  O   UNL     1     100.037 112.455 111.527  1.00  0.00    -0.502 OA
ATOM     23  H   UNL     1      99.429 112.893 112.208  1.00  0.00     0.293 HD
ENDBRANCH   2  22
BRANCH   6  24
ATOM     24  O   UNL     1     103.917 115.799 112.986  1.00  0.00    -0.507 OA
ATOM     25  H   UNL     1     104.289 116.694 112.705  1.00  0.00     0.293 HD
ENDBRANCH   6  24
BRANCH   8  26
ATOM     26  O   UNL     1     107.759 113.032 112.182  1.00  0.00    -0.508 OA
ATOM     27  H   UNL     1     108.305 113.192 111.343  1.00  0.00     0.293 HD
ENDBRANCH   8  26
TORSDOF 6
ENDMDL
MODEL 4
REMARK VINA RESULT:    -5.925      9.273     13.111
REMARK INTER + INTRA:          -7.299
REMARK INTER:                  -7.022
REMARK INTRA:                  -0.277
REMARK UNBOUND:                -0.162
REMARK SMILES O=c1c(O)c(-c2ccc(O)c(O)c2)oc2cc(O)cc(O)c12
REMARK SMILES IDX 5 1 3 2 2 3 1 4 22 5 20 6 19 7 17 8 16 9 15 10 14 11 6 12
REMARK SMILES IDX 7 13 8 14 9 15 13 16 11 17 10 18 12 20 4 22 21 24 18 26
REMARK H PARENT 10 19 12 21 4 23 21 25 18 27
REMARK Flexibility Score: inf
ROOT
ATOM      1  C   UNL     1     111.938 116.343 108.668  1.00  0.00     0.180 A 
ATOM      2  C   UNL     1     113.278 116.756 108.592  1.00  0.00     0.208 A 
ATOM      3  C   UNL     1     113.683 117.560 107.514  1.00  0.00     0.238 A 
ATOM      4  O   UNL     1     114.873 117.972 107.480  1.00  0.00    -0.285 OA
ATOM      5  C   UNL     1     112.748 117.926 106.517  1.00  0.00     0.111 A 
ATOM      6  C   UNL     1     113.056 118.703 105.360  1.00  0.00     0.134 A 
ATOM      7  C   UNL     1     112.024 119.114 104.509  1.00  0.00     0.093 A 
ATOM      8  C   UNL     1     110.702 118.722 104.737  1.00  0.00     0.123 A 
ATOM      9  C   UNL     1     110.400 117.914 105.830  1.00  0.00     0.094 A 
ATOM     10  C   UNL     1     111.403 117.518 106.718  1.00  0.00     0.146 A 
ATOM     11  O   UNL     1     111.069 116.756 107.753  1.00  0.00    -0.452 OA
ENDROOT
BRANCH   1  12
ATOM     12  C   UNL     1     111.441 115.475 109.761  1.00  0.00     0.025 A 
ATOM     13  C   UNL     1     111.185 115.989 111.044  1.00  0.00     0.016 A 
ATOM     14  C   UNL     1     110.740 115.147 112.066  1.00  0.00     0.051 A 
ATOM     15  C   UNL     1     110.557 113.779 111.826  1.00  0.00     0.157 A 
ATOM     16  C   UNL     1     111.277 114.100 109.531  1.00  0.00     0.062 A 
ATOM     17  C   UNL     1     110.830 113.253 110.552  1.00  0.00     0.158 A 
BRANCH  15  18
ATOM     18  O   UNL     1     110.110 112.941 112.847  1.00  0.00    -0.504 OA
ATOM     19  H   UNL     1     110.750 112.540 113.522  1.00  0.00     0.293 HD
ENDBRANCH  15  18
BRANCH  17  20
ATOM     20  O   UNL     1     110.666 111.895 110.282  1.00  0.00    -0.504 OA
ATOM     21  H   UNL     1     110.479 111.220 111.014  1.00  0.00     0.293 HD
ENDBRANCH  17  20
ENDBRANCH   1  12
BRANCH   2  22
ATOM     22  O   UNL     1     114.183 116.402 109.598  1.00  0.00    -0.502 OA
ATOM     23  H   UNL     1     113.883 116.099 110.517  1.00  0.00     0.293 HD
ENDBRANCH   2  22
BRANCH   6  24
ATOM     24  O   UNL     1     114.354 119.069 104.991  1.00  0.00    -0.507 OA
ATOM     25  H   UNL     1     114.718 120.009 105.025  1.00  0.00     0.293 HD
ENDBRANCH   6  24
BRANCH   8  26
ATOM     26  O   UNL     1     109.684 119.123 103.875  1.00  0.00    -0.508 OA
ATOM     27  H   UNL     1     109.013 118.461 103.503  1.00  0.00     0.293 HD
ENDBRANCH   8  26
TORSDOF 6
ENDMDL
MODEL 5
REMARK VINA RESULT:    -5.838     10.315     12.333
REMARK INTER + INTRA:          -7.195
REMARK INTER:                  -6.976
REMARK INTRA:                  -0.219
REMARK UNBOUND:                -0.162
REMARK SMILES O=c1c(O)c(-c2ccc(O)c(O)c2)oc2cc(O)cc(O)c12
REMARK SMILES IDX 5 1 3 2 2 3 1 4 22 5 20 6 19 7 17 8 16 9 15 10 14 11 6 12
REMARK SMILES IDX 7 13 8 14 9 15 13 16 11 17 10 18 12 20 4 22 21 24 18 26
REMARK H PARENT 10 19 12 21 4 23 21 25 18 27
REMARK Flexibility Score: inf
ROOT
ATOM      1  C   UNL     1     109.772 119.278 109.689  1.00  0.00     0.180 A 
ATOM      2  C   UNL     1     111.015 118.677 109.945  1.00  0.00     0.208 A 
ATOM      3  C   UNL     1     111.771 118.190 108.868  1.00  0.00     0.238 A 
ATOM      4  O   UNL     1     112.909 117.702 109.099  1.00  0.00    -0.285 OA
ATOM      5  C   UNL     1     111.268 118.293 107.549  1.00  0.00     0.111 A 
ATOM      6  C   UNL     1     111.931 117.798 106.386  1.00  0.00     0.134 A 
ATOM      7  C   UNL     1     111.401 118.072 105.119  1.00  0.00     0.093 A 
ATOM      8  C   UNL     1     110.198 118.769 104.977  1.00  0.00     0.123 A 
ATOM      9  C   UNL     1     109.513 119.205 106.109  1.00  0.00     0.094 A 
ATOM     10  C   UNL     1     110.035 118.978 107.384  1.00  0.00     0.146 A 
ATOM     11  O   UNL     1     109.355 119.420 108.436  1.00  0.00    -0.452 OA
ENDROOT
BRANCH   1  12
ATOM     12  C   UNL     1     108.906 119.794 110.774  1.00  0.00     0.025 A 
ATOM     13  C   UNL     1     109.258 120.940 111.509  1.00  0.00     0.016 A 
ATOM     14  C   UNL     1     108.437 121.394 112.544  1.00  0.00     0.051 A 
ATOM     15  C   UNL     1     107.262 120.705 112.870  1.00  0.00     0.157 A 
ATOM     16  C   UNL     1     107.738 119.095 111.119  1.00  0.00     0.062 A 
ATOM     17  C   UNL     1     106.914 119.547 112.154  1.00  0.00     0.158 A 
BRANCH  15  18
ATOM     18  O   UNL     1     106.444 121.162 113.903  1.00  0.00    -0.504 OA
ATOM     19  H   UNL     1     106.786 121.245 114.853  1.00  0.00     0.293 HD
ENDBRANCH  15  18
BRANCH  17  20
ATOM     20  O   UNL     1     105.754 118.834 112.459  1.00  0.00    -0.504 OA
ATOM     21  H   UNL     1     105.516 118.575 113.409  1.00  0.00     0.293 HD
ENDBRANCH  17  20
ENDBRANCH   1  12
BRANCH   2  22
ATOM     22  O   UNL     1     111.504 118.604 111.253  1.00  0.00    -0.502 OA
ATOM     23  H   UNL     1     112.493 118.651 111.468  1.00  0.00     0.293 HD
ENDBRANCH   2  22
BRANCH   6  24
ATOM     24  O   UNL     1     113.087 117.013 106.423  1.00  0.00    -0.507 OA
ATOM     25  H   UNL     1     113.915 117.183 105.873  1.00  0.00     0.293 HD
ENDBRANCH   6  24
BRANCH   8  26
ATOM     26  O   UNL     1     109.670 119.024 103.713  1.00  0.00    -0.508 OA
ATOM     27  H   UNL     1     108.685 119.218 103.580  1.00  0.00     0.293 HD
ENDBRANCH   8  26
TORSDOF 6
ENDMDL
MODEL 6
REMARK VINA RESULT:    -5.674      3.309      6.024
REMARK INTER + INTRA:          -6.997
REMARK INTER:                  -6.674
REMARK INTRA:                  -0.324
REMARK UNBOUND:                -0.162
REMARK SMILES O=c1c(O)c(-c2ccc(O)c(O)c2)oc2cc(O)cc(O)c12
REMARK SMILES IDX 5 1 3 2 2 3 1 4 22 5 20 6 19 7 17 8 16 9 15 10 14 11 6 12
REMARK SMILES IDX 7 13 8 14 9 15 13 16 11 17 10 18 12 20 4 22 21 24 18 26
REMARK H PARENT 10 19 12 21 4 23 21 25 18 27
REMARK Flexibility Score: inf
ROOT
ATOM      1  C   UNL     1     103.319 108.600 112.358  1.00  0.00     0.180 A 
ATOM      2  C   UNL     1     103.107 108.196 113.686  1.00  0.00     0.208 A 
ATOM      3  C   UNL     1     104.187 107.682 114.422  1.00  0.00     0.238 A 
ATOM      4  O   UNL     1     104.004 107.373 115.629  1.00  0.00    -0.285 OA
ATOM      5  C   UNL     1     105.460 107.562 113.816  1.00  0.00     0.111 A 
ATOM      6  C   UNL     1     106.615 107.017 114.454  1.00  0.00     0.134 A 
ATOM      7  C   UNL     1     107.853 107.068 113.802  1.00  0.00     0.093 A 
ATOM      8  C   UNL     1     107.966 107.585 112.508  1.00  0.00     0.123 A 
ATOM      9  C   UNL     1     106.833 108.064 111.854  1.00  0.00     0.094 A 
ATOM     10  C   UNL     1     105.591 108.060 112.493  1.00  0.00     0.146 A 
ATOM     11  O   UNL     1     104.539 108.536 111.837  1.00  0.00    -0.452 OA
ENDROOT
BRANCH   1  12
ATOM     12  C   UNL     1     102.225 109.129 111.510  1.00  0.00     0.025 A 
ATOM     13  C   UNL     1     101.928 110.503 111.473  1.00  0.00     0.016 A 
ATOM     14  C   UNL     1     100.877 110.976 110.685  1.00  0.00     0.051 A 
ATOM     15  C   UNL     1     100.099 110.085 109.934  1.00  0.00     0.157 A 
ATOM     16  C   UNL     1     101.429 108.238 110.773  1.00  0.00     0.062 A 
ATOM     17  C   UNL     1     100.376 108.709 109.982  1.00  0.00     0.158 A 
BRANCH  15  18
ATOM     18  O   UNL     1      99.051 110.561 109.146  1.00  0.00    -0.504 OA
ATOM     19  H   UNL     1      98.100 110.595 109.493  1.00  0.00     0.293 HD
ENDBRANCH  15  18
BRANCH  17  20
ATOM     20  O   UNL     1      99.615 107.795 109.252  1.00  0.00    -0.504 OA
ATOM     21  H   UNL     1      99.257 108.009 108.329  1.00  0.00     0.293 HD
ENDBRANCH  17  20
ENDBRANCH   1  12
BRANCH   2  22
ATOM     22  O   UNL     1     101.847 108.343 114.274  1.00  0.00    -0.502 OA
ATOM     23  H   UNL     1     101.017 108.561 113.736  1.00  0.00     0.293 HD
ENDBRANCH   2  22
BRANCH   6  24
ATOM     24  O   UNL     1     106.593 106.395 115.705  1.00  0.00    -0.507 OA
ATOM     25  H   UNL     1     105.933 106.603 116.439  1.00  0.00     0.293 HD
ENDBRANCH   6  24
BRANCH   8  26
ATOM     26  O   UNL     1     109.199 107.618 111.861  1.00  0.00    -0.508 OA
ATOM     27  H   UNL     1     109.266 107.632 110.850  1.00  0.00     0.293 HD
ENDBRANCH   8  26
TORSDOF 6
ENDMDL
MODEL 7
REMARK VINA RESULT:    -5.626      2.221      4.032
REMARK INTER + INTRA:          -6.939
REMARK INTER:                  -6.693
REMARK INTRA:                  -0.247
REMARK UNBOUND:                -0.162
REMARK SMILES O=c1c(O)c(-c2ccc(O)c(O)c2)oc2cc(O)cc(O)c12
REMARK SMILES IDX 5 1 3 2 2 3 1 4 22 5 20 6 19 7 17 8 16 9 15 10 14 11 6 12
REMARK SMILES IDX 7 13 8 14 9 15 13 16 11 17 10 18 12 20 4 22 21 24 18 26
REMARK H PARENT 10 19 12 21 4 23 21 25 18 27
REMARK Flexibility Score: inf
ROOT
ATOM      1  C   UNL     1     102.702 113.708 111.605  1.00  0.00     0.180 A 
ATOM      2  C   UNL     1     101.629 114.208 110.849  1.00  0.00     0.208 A 
ATOM      3  C   UNL     1     100.741 113.304 110.245  1.00  0.00     0.238 A 
ATOM      4  O   UNL     1      99.750 113.759 109.615  1.00  0.00    -0.285 OA
ATOM      5  C   UNL     1     100.945 111.911 110.390  1.00  0.00     0.111 A 
ATOM      6  C   UNL     1     100.132 110.904 109.789  1.00  0.00     0.134 A 
ATOM      7  C   UNL     1     100.350 109.558 110.108  1.00  0.00     0.093 A 
ATOM      8  C   UNL     1     101.394 109.179 110.955  1.00  0.00     0.123 A 
ATOM      9  C   UNL     1     102.231 110.150 111.499  1.00  0.00     0.094 A 
ATOM     10  C   UNL     1     102.016 111.504 111.229  1.00  0.00     0.146 A 
ATOM     11  O   UNL     1     102.831 112.397 111.777  1.00  0.00    -0.452 OA
ENDROOT
BRANCH   1  12
ATOM     12  C   UNL     1     103.694 114.598 112.251  1.00  0.00     0.025 A 
ATOM     13  C   UNL     1     104.631 115.321 111.493  1.00  0.00     0.016 A 
ATOM     14  C   UNL     1     105.573 116.136 112.125  1.00  0.00     0.051 A 
ATOM     15  C   UNL     1     105.603 116.230 113.522  1.00  0.00     0.157 A 
ATOM     16  C   UNL     1     103.742 114.679 113.652  1.00  0.00     0.062 A 
ATOM     17  C   UNL     1     104.683 115.494 114.289  1.00  0.00     0.158 A 
BRANCH  15  18
ATOM     18  O   UNL     1     106.543 117.046 114.150  1.00  0.00    -0.504 OA
ATOM     19  H   UNL     1     107.280 117.505 113.628  1.00  0.00     0.293 HD
ENDBRANCH  15  18
BRANCH  17  20
ATOM     20  O   UNL     1     104.692 115.560 115.682  1.00  0.00    -0.504 OA
ATOM     21  H   UNL     1     105.196 114.889 116.249  1.00  0.00     0.293 HD
ENDBRANCH  17  20
ENDBRANCH   1  12
BRANCH   2  22
ATOM     22  O   UNL     1     101.431 115.588 110.736  1.00  0.00    -0.502 OA
ATOM     23  H   UNL     1     100.918 116.123 111.426  1.00  0.00     0.293 HD
ENDBRANCH   2  22
BRANCH   6  24
ATOM     24  O   UNL     1      99.123 111.170 108.858  1.00  0.00    -0.507 OA
ATOM     25  H   UNL     1      98.948 112.072 108.443  1.00  0.00     0.293 HD
ENDBRANCH   6  24
BRANCH   8  26
ATOM     26  O   UNL     1     101.614 107.836 111.254  1.00  0.00    -0.508 OA
ATOM     27  H   UNL     1     100.918 107.128 111.055  1.00  0.00     0.293 HD
ENDBRANCH   8  26
TORSDOF 6
ENDMDL
MODEL 8
REMARK VINA RESULT:    -5.602     10.983     12.457
REMARK INTER + INTRA:          -6.911
REMARK INTER:                  -6.609
REMARK INTRA:                  -0.302
REMARK UNBOUND:                -0.162
REMARK SMILES O=c1c(O)c(-c2ccc(O)c(O)c2)oc2cc(O)cc(O)c12
REMARK SMILES IDX 5 1 3 2 2 3 1 4 22 5 20 6 19 7 17 8 16 9 15 10 14 11 6 12
REMARK SMILES IDX 7 13 8 14 9 15 13 16 11 17 10 18 12 20 4 22 21 24 18 26
REMARK H PARENT 10 19 12 21 4 23 21 25 18 27
REMARK Flexibility Score: inf
ROOT
ATOM      1  C   UNL     1     110.718 118.670 109.657  1.00  0.00     0.180 A 
ATOM      2  C   UNL     1     111.266 119.370 108.570  1.00  0.00     0.208 A 
ATOM      3  C   UNL     1     112.083 118.681 107.659  1.00  0.00     0.238 A 
ATOM      4  O   UNL     1     112.526 119.300 106.656  1.00  0.00    -0.285 OA
ATOM      5  C   UNL     1     112.357 117.307 107.857  1.00  0.00     0.111 A 
ATOM      6  C   UNL     1     113.203 116.519 107.020  1.00  0.00     0.134 A 
ATOM      7  C   UNL     1     113.297 115.139 107.236  1.00  0.00     0.093 A 
ATOM      8  C   UNL     1     112.626 114.529 108.298  1.00  0.00     0.123 A 
ATOM      9  C   UNL     1     111.845 115.299 109.157  1.00  0.00     0.094 A 
ATOM     10  C   UNL     1     111.702 116.672 108.945  1.00  0.00     0.146 A 
ATOM     11  O   UNL     1     110.939 117.366 109.781  1.00  0.00    -0.452 OA
ENDROOT
BRANCH   1  12
ATOM     12  C   UNL     1     109.867 119.332 110.673  1.00  0.00     0.025 A 
ATOM     13  C   UNL     1     110.390 119.739 111.913  1.00  0.00     0.016 A 
ATOM     14  C   UNL     1     109.564 120.340 112.865  1.00  0.00     0.051 A 
ATOM     15  C   UNL     1     108.201 120.532 112.600  1.00  0.00     0.157 A 
ATOM     16  C   UNL     1     108.497 119.507 110.421  1.00  0.00     0.062 A 
ATOM     17  C   UNL     1     107.666 120.109 111.371  1.00  0.00     0.158 A 
BRANCH  15  18
ATOM     18  O   UNL     1     107.379 121.134 113.552  1.00  0.00    -0.504 OA
ATOM     19  H   UNL     1     106.375 121.185 113.429  1.00  0.00     0.293 HD
ENDBRANCH  15  18
BRANCH  17  20
ATOM     20  O   UNL     1     106.312 120.278 111.080  1.00  0.00    -0.504 OA
ATOM     21  H   UNL     1     105.593 120.173 111.785  1.00  0.00     0.293 HD
ENDBRANCH  17  20
ENDBRANCH   1  12
BRANCH   2  22
ATOM     22  O   UNL     1     110.966 120.722 108.380  1.00  0.00    -0.502 OA
ATOM     23  H   UNL     1     110.085 121.035 107.990  1.00  0.00     0.293 HD
ENDBRANCH   2  22
BRANCH   6  24
ATOM     24  O   UNL     1     113.988 117.045 105.990  1.00  0.00    -0.507 OA
ATOM     25  H   UNL     1     114.747 117.697 106.121  1.00  0.00     0.293 HD
ENDBRANCH   6  24
BRANCH   8  26
ATOM     26  O   UNL     1     112.738 113.157 108.515  1.00  0.00    -0.508 OA
ATOM     27  H   UNL     1     111.929 112.587 108.734  1.00  0.00     0.293 HD
ENDBRANCH   8  26
TORSDOF 6
ENDMDL
