MODEL 1
REMARK VINA RESULT:    -4.849      0.000      0.000
REMARK INTER + INTRA:          -5.634
REMARK INTER:                  -5.558
REMARK INTRA:                  -0.077
REMARK UNBOUND:                -0.077
REMARK SMILES COc1cc(C(=O)[O-])ccc1O
REMARK SMILES IDX 5 1 9 2 4 3 10 4 3 5 11 6 6 7 7 8 8 9 2 10 1 11 12 12
REMARK H PARENT 12 13
REMARK Flexibility Score: inf
ROOT
ATOM      1  C   UNL     1      61.407  -5.238  -4.012  1.00  0.00     0.001 A 
ATOM      2  C   UNL     1      62.445  -4.335  -3.723  1.00  0.00     0.014 A 
ATOM      3  C   UNL     1      60.721  -5.121  -5.234  1.00  0.00     0.060 A 
ATOM      4  C   UNL     1      62.788  -3.337  -4.637  1.00  0.00     0.051 A 
ATOM      5  C   UNL     1      61.065  -4.116  -6.159  1.00  0.00     0.161 A 
ATOM      6  C   UNL     1      62.103  -3.225  -5.852  1.00  0.00     0.157 A 
ENDROOT
BRANCH   1   7
ATOM      7  C   UNL     1      61.040  -6.296  -3.046  1.00  0.00     0.072 C 
ATOM      8  O   UNL     1      59.909  -6.292  -2.489  1.00  0.00    -0.545 OA
ATOM      9  O   UNL     1      61.938  -7.312  -2.736  1.00  0.00    -0.545 OA
ENDBRANCH   1   7
BRANCH   5  10
ATOM     10  O   UNL     1      60.402  -3.970  -7.388  1.00  0.00    -0.493 OA
ATOM     11  C   UNL     1      59.131  -4.536  -7.692  1.00  0.00     0.278 C 
ENDBRANCH   5  10
BRANCH   6  12
ATOM     12  O   UNL     1      62.447  -2.228  -6.764  1.00  0.00    -0.504 OA
ATOM     13  H   UNL     1      61.829  -1.446  -6.952  1.00  0.00     0.293 HD
ENDBRANCH   6  12
TORSDOF 3
ENDMDL
MODEL 2
REMARK VINA RESULT:    -4.798      1.771      2.258
REMARK INTER + INTRA:          -5.575
REMARK INTER:                  -5.472
REMARK INTRA:                  -0.103
REMARK UNBOUND:                -0.077
REMARK SMILES COc1cc(C(=O)[O-])ccc1O
REMARK SMILES IDX 5 1 9 2 4 3 10 4 3 5 11 6 6 7 7 8 8 9 2 10 1 11 12 12
REMARK H PARENT 12 13
REMARK Flexibility Score: inf
ROOT
ATOM      1  C   UNL     1      61.755  -4.016  -5.130  1.00  0.00     0.001 A 
ATOM      2  C   UNL     1      62.757  -3.374  -5.876  1.00  0.00     0.014 A 
ATOM      3  C   UNL     1      60.645  -4.561  -5.802  1.00  0.00     0.060 A 
ATOM      4  C   UNL     1      62.653  -3.279  -7.265  1.00  0.00     0.051 A 
ATOM      5  C   UNL     1      60.538  -4.467  -7.204  1.00  0.00     0.161 A 
ATOM      6  C   UNL     1      61.549  -3.822  -7.930  1.00  0.00     0.157 A 
ENDROOT
BRANCH   1   7
ATOM      7  C   UNL     1      61.861  -4.119  -3.658  1.00  0.00     0.072 C 
ATOM      8  O   UNL     1      61.068  -4.851  -3.007  1.00  0.00    -0.545 OA
ATOM      9  O   UNL     1      62.838  -3.409  -2.969  1.00  0.00    -0.545 OA
ENDBRANCH   1   7
BRANCH   5  10
ATOM     10  O   UNL     1      59.445  -4.998  -7.908  1.00  0.00    -0.493 OA
ATOM     11  C   UNL     1      58.144  -4.423  -7.933  1.00  0.00     0.278 C 
ENDBRANCH   5  10
BRANCH   6  12
ATOM     12  O   UNL     1      61.446  -3.726  -9.317  1.00  0.00    -0.504 OA
ATOM     13  H   UNL     1      62.241  -3.904  -9.921  1.00  0.00     0.293 HD
ENDBRANCH   6  12
TORSDOF 3
ENDMDL
MODEL 3
REMARK VINA RESULT:    -4.677      2.028      3.154
REMARK INTER + INTRA:          -5.437
REMARK INTER:                  -5.334
REMARK INTRA:                  -0.103
REMARK UNBOUND:                -0.077
REMARK SMILES COc1cc(C(=O)[O-])ccc1O
REMARK SMILES IDX 5 1 9 2 4 3 10 4 3 5 11 6 6 7 7 8 8 9 2 10 1 11 12 12
REMARK H PARENT 12 13
REMARK Flexibility Score: inf
ROOT
ATOM      1  C   UNL     1      61.602  -4.111  -5.218  1.00  0.00     0.001 A 
ATOM      2  C   UNL     1      60.358  -4.516  -5.731  1.00  0.00     0.014 A 
ATOM      3  C   UNL     1      62.598  -3.673  -6.109  1.00  0.00     0.060 A 
ATOM      4  C   UNL     1      60.116  -4.483  -7.106  1.00  0.00     0.051 A 
ATOM      5  C   UNL     1      62.357  -3.639  -7.497  1.00  0.00     0.161 A 
ATOM      6  C   UNL     1      61.110  -4.046  -7.989  1.00  0.00     0.157 A 
ENDROOT
BRANCH   1   7
ATOM      7  C   UNL     1      61.862  -4.144  -3.763  1.00  0.00     0.072 C 
ATOM      8  O   UNL     1      61.104  -4.790  -2.990  1.00  0.00    -0.545 OA
ATOM      9  O   UNL     1      62.947  -3.462  -3.223  1.00  0.00    -0.545 OA
ENDBRANCH   1   7
BRANCH   5  10
ATOM     10  O   UNL     1      63.328  -3.207  -8.415  1.00  0.00    -0.493 OA
ATOM     11  C   UNL     1      63.690  -1.847  -8.628  1.00  0.00     0.278 C 
ENDBRANCH   5  10
BRANCH   6  12
ATOM     12  O   UNL     1      60.867  -4.015  -9.361  1.00  0.00    -0.504 OA
ATOM     13  H   UNL     1      60.860  -4.863  -9.918  1.00  0.00     0.293 HD
ENDBRANCH   6  12
TORSDOF 3
ENDMDL
MODEL 4
REMARK VINA RESULT:    -4.406      1.696      4.063
REMARK INTER + INTRA:          -5.127
REMARK INTER:                  -5.040
REMARK INTRA:                  -0.088
REMARK UNBOUND:                -0.077
REMARK SMILES COc1cc(C(=O)[O-])ccc1O
REMARK SMILES IDX 5 1 9 2 4 3 10 4 3 5 11 6 6 7 7 8 8 9 2 10 1 11 12 12
REMARK H PARENT 12 13
REMARK Flexibility Score: inf
ROOT
ATOM      1  C   UNL     1      61.250  -4.339  -5.943  1.00  0.00     0.001 A 
ATOM      2  C   UNL     1      61.983  -3.145  -5.849  1.00  0.00     0.014 A 
ATOM      3  C   UNL     1      61.489  -5.363  -5.008  1.00  0.00     0.060 A 
ATOM      4  C   UNL     1      62.935  -2.977  -4.842  1.00  0.00     0.051 A 
ATOM      5  C   UNL     1      62.449  -5.197  -3.990  1.00  0.00     0.161 A 
ATOM      6  C   UNL     1      63.170  -3.997  -3.913  1.00  0.00     0.157 A 
ENDROOT
BRANCH   1   7
ATOM      7  C   UNL     1      60.240  -4.521  -7.008  1.00  0.00     0.072 C 
ATOM      8  O   UNL     1      59.049  -4.147  -6.834  1.00  0.00    -0.545 OA
ATOM      9  O   UNL     1      60.589  -5.108  -8.219  1.00  0.00    -0.545 OA
ENDBRANCH   1   7
BRANCH   5  10
ATOM     10  O   UNL     1      62.714  -6.197  -3.040  1.00  0.00    -0.493 OA
ATOM     11  C   UNL     1      63.075  -7.537  -3.358  1.00  0.00     0.278 C 
ENDBRANCH   5  10
BRANCH   6  12
ATOM     12  O   UNL     1      64.122  -3.829  -2.909  1.00  0.00    -0.504 OA
ATOM     13  H   UNL     1      64.329  -2.914  -2.523  1.00  0.00     0.293 HD
ENDBRANCH   6  12
TORSDOF 3
ENDMDL
MODEL 5
REMARK VINA RESULT:    -4.292      3.778      6.780
REMARK INTER + INTRA:          -4.996
REMARK INTER:                  -4.915
REMARK INTRA:                  -0.081
REMARK UNBOUND:                -0.077
REMARK SMILES COc1cc(C(=O)[O-])ccc1O
REMARK SMILES IDX 5 1 9 2 4 3 10 4 3 5 11 6 6 7 7 8 8 9 2 10 1 11 12 12
REMARK H PARENT 12 13
REMARK Flexibility Score: inf
ROOT
ATOM      1  C   UNL     1      56.768  -4.497  -9.038  1.00  0.00     0.001 A 
ATOM      2  C   UNL     1      56.412  -5.618  -9.806  1.00  0.00     0.014 A 
ATOM      3  C   UNL     1      58.086  -4.387  -8.559  1.00  0.00     0.060 A 
ATOM      4  C   UNL     1      57.353  -6.609 -10.090  1.00  0.00     0.051 A 
ATOM      5  C   UNL     1      59.039  -5.385  -8.844  1.00  0.00     0.161 A 
ATOM      6  C   UNL     1      58.664  -6.496  -9.613  1.00  0.00     0.157 A 
ENDROOT
BRANCH   1   7
ATOM      7  C   UNL     1      55.773  -3.445  -8.735  1.00  0.00     0.072 C 
ATOM      8  O   UNL     1      56.143  -2.272  -8.459  1.00  0.00    -0.545 OA
ATOM      9  O   UNL     1      54.413  -3.735  -8.749  1.00  0.00    -0.545 OA
ENDBRANCH   1   7
BRANCH   5  10
ATOM     10  O   UNL     1      60.364  -5.309  -8.383  1.00  0.00    -0.493 OA
ATOM     11  C   UNL     1      60.821  -4.399  -7.390  1.00  0.00     0.278 C 
ENDBRANCH   5  10
BRANCH   6  12
ATOM     12  O   UNL     1      59.603  -7.486  -9.896  1.00  0.00    -0.504 OA
ATOM     13  H   UNL     1      59.404  -8.234 -10.551  1.00  0.00     0.293 HD
ENDBRANCH   6  12
TORSDOF 3
ENDMDL
MODEL 6
REMARK VINA RESULT:    -4.285      2.303      5.017
REMARK INTER + INTRA:          -4.988
REMARK INTER:                  -4.957
REMARK INTRA:                  -0.031
REMARK UNBOUND:                -0.077
REMARK SMILES COc1cc(C(=O)[O-])ccc1O
REMARK SMILES IDX 5 1 9 2 4 3 10 4 3 5 11 6 6 7 7 8 8 9 2 10 1 11 12 12
REMARK H PARENT 12 13
REMARK Flexibility Score: inf
ROOT
ATOM      1  C   UNL     1      58.527  -4.659  -8.275  1.00  0.00     0.001 A 
ATOM      2  C   UNL     1      59.506  -4.428  -9.256  1.00  0.00     0.014 A 
ATOM      3  C   UNL     1      58.885  -4.569  -6.918  1.00  0.00     0.060 A 
ATOM      4  C   UNL     1      60.815  -4.113  -8.888  1.00  0.00     0.051 A 
ATOM      5  C   UNL     1      60.206  -4.251  -6.543  1.00  0.00     0.161 A 
ATOM      6  C   UNL     1      61.168  -4.023  -7.537  1.00  0.00     0.157 A 
ENDROOT
BRANCH   1   7
ATOM      7  C   UNL     1      57.139  -4.993  -8.662  1.00  0.00     0.072 C 
ATOM      8  O   UNL     1      56.907  -5.924  -9.480  1.00  0.00    -0.545 OA
ATOM      9  O   UNL     1      56.068  -4.285  -8.129  1.00  0.00    -0.545 OA
ENDBRANCH   1   7
BRANCH   5  10
ATOM     10  O   UNL     1      60.599  -4.153  -5.198  1.00  0.00    -0.493 OA
ATOM     11  C   UNL     1      61.227  -5.197  -4.463  1.00  0.00     0.278 C 
ENDBRANCH   5  10
BRANCH   6  12
ATOM     12  O   UNL     1      62.476  -3.710  -7.171  1.00  0.00    -0.504 OA
ATOM     13  H   UNL     1      63.064  -3.124  -7.754  1.00  0.00     0.293 HD
ENDBRANCH   6  12
TORSDOF 3
ENDMDL
MODEL 7
REMARK VINA RESULT:    -4.243      1.776      4.273
REMARK INTER + INTRA:          -4.940
REMARK INTER:                  -4.853
REMARK INTRA:                  -0.087
REMARK UNBOUND:                -0.077
REMARK SMILES COc1cc(C(=O)[O-])ccc1O
REMARK SMILES IDX 5 1 9 2 4 3 10 4 3 5 11 6 6 7 7 8 8 9 2 10 1 11 12 12
REMARK H PARENT 12 13
REMARK Flexibility Score: inf
ROOT
ATOM      1  C   UNL     1      60.489  -4.375  -7.700  1.00  0.00     0.001 A 
ATOM      2  C   UNL     1      61.514  -3.484  -8.057  1.00  0.00     0.014 A 
ATOM      3  C   UNL     1      60.343  -4.743  -6.350  1.00  0.00     0.060 A 
ATOM      4  C   UNL     1      62.375  -2.971  -7.086  1.00  0.00     0.051 A 
ATOM      5  C   UNL     1      61.209  -4.227  -5.367  1.00  0.00     0.161 A 
ATOM      6  C   UNL     1      62.226  -3.338  -5.744  1.00  0.00     0.157 A 
ENDROOT
BRANCH   1   7
ATOM      7  C   UNL     1      59.575  -4.922  -8.727  1.00  0.00     0.072 C 
ATOM      8  O   UNL     1      58.696  -4.190  -9.258  1.00  0.00    -0.545 OA
ATOM      9  O   UNL     1      59.671  -6.251  -9.123  1.00  0.00    -0.545 OA
ENDBRANCH   1   7
BRANCH   5  10
ATOM     10  O   UNL     1      61.093  -4.571  -4.010  1.00  0.00    -0.493 OA
ATOM     11  C   UNL     1      61.051  -5.906  -3.517  1.00  0.00     0.278 C 
ENDBRANCH   5  10
BRANCH   6  12
ATOM     12  O   UNL     1      63.087  -2.826  -4.774  1.00  0.00    -0.504 OA
ATOM     13  H   UNL     1      63.874  -3.362  -4.427  1.00  0.00     0.293 HD
ENDBRANCH   6  12
TORSDOF 3
ENDMDL
MODEL 8
REMARK VINA RESULT:    -4.240      1.906      4.965
REMARK INTER + INTRA:          -4.937
REMARK INTER:                  -4.841
REMARK INTRA:                  -0.096
REMARK UNBOUND:                -0.077
REMARK SMILES COc1cc(C(=O)[O-])ccc1O
REMARK SMILES IDX 5 1 9 2 4 3 10 4 3 5 11 6 6 7 7 8 8 9 2 10 1 11 12 12
REMARK H PARENT 12 13
REMARK Flexibility Score: inf
ROOT
ATOM      1  C   UNL     1      62.805  -4.025  -6.518  1.00  0.00     0.001 A 
ATOM      2  C   UNL     1      61.401  -4.006  -6.477  1.00  0.00     0.014 A 
ATOM      3  C   UNL     1      63.517  -4.415  -5.369  1.00  0.00     0.060 A 
ATOM      4  C   UNL     1      60.722  -4.369  -5.312  1.00  0.00     0.051 A 
ATOM      5  C   UNL     1      62.835  -4.782  -4.192  1.00  0.00     0.161 A 
ATOM      6  C   UNL     1      61.434  -4.757  -4.172  1.00  0.00     0.157 A 
ENDROOT
BRANCH   1   7
ATOM      7  C   UNL     1      63.527  -3.640  -7.751  1.00  0.00     0.072 C 
ATOM      8  O   UNL     1      63.903  -2.451  -7.929  1.00  0.00    -0.545 OA
ATOM      9  O   UNL     1      63.801  -4.586  -8.732  1.00  0.00    -0.545 OA
ENDBRANCH   1   7
BRANCH   5  10
ATOM     10  O   UNL     1      63.513  -5.177  -3.027  1.00  0.00    -0.493 OA
ATOM     11  C   UNL     1      64.123  -6.449  -2.840  1.00  0.00     0.278 C 
ENDBRANCH   5  10
BRANCH   6  12
ATOM     12  O   UNL     1      60.755  -5.119  -3.009  1.00  0.00    -0.504 OA
ATOM     13  H   UNL     1      59.870  -5.612  -3.043  1.00  0.00     0.293 HD
ENDBRANCH   6  12
TORSDOF 3
ENDMDL
MODEL 9
REMARK VINA RESULT:    -4.219      2.733      4.094
REMARK INTER + INTRA:          -4.912
REMARK INTER:                  -4.833
REMARK INTRA:                  -0.079
REMARK UNBOUND:                -0.077
REMARK SMILES COc1cc(C(=O)[O-])ccc1O
REMARK SMILES IDX 5 1 9 2 4 3 10 4 3 5 11 6 6 7 7 8 8 9 2 10 1 11 12 12
REMARK H PARENT 12 13
REMARK Flexibility Score: inf
ROOT
ATOM      1  C   UNL     1      60.277  -4.528  -7.423  1.00  0.00     0.001 A 
ATOM      2  C   UNL     1      60.150  -4.556  -6.025  1.00  0.00     0.014 A 
ATOM      3  C   UNL     1      61.374  -3.860  -7.997  1.00  0.00     0.060 A 
ATOM      4  C   UNL     1      61.100  -3.930  -5.216  1.00  0.00     0.051 A 
ATOM      5  C   UNL     1      62.335  -3.227  -7.183  1.00  0.00     0.161 A 
ATOM      6  C   UNL     1      62.190  -3.267  -5.790  1.00  0.00     0.157 A 
ENDROOT
BRANCH   1   7
ATOM      7  C   UNL     1      59.272  -5.191  -8.284  1.00  0.00     0.072 C 
ATOM      8  O   UNL     1      58.092  -4.751  -8.347  1.00  0.00    -0.545 OA
ATOM      9  O   UNL     1      59.614  -6.309  -9.035  1.00  0.00    -0.545 OA
ENDBRANCH   1   7
BRANCH   5  10
ATOM     10  O   UNL     1      63.443  -2.552  -7.721  1.00  0.00    -0.493 OA
ATOM     11  C   UNL     1      63.444  -1.869  -8.969  1.00  0.00     0.278 C 
ENDBRANCH   5  10
BRANCH   6  12
ATOM     12  O   UNL     1      63.138  -2.641  -4.981  1.00  0.00    -0.504 OA
ATOM     13  H   UNL     1      63.562  -1.759  -5.247  1.00  0.00     0.293 HD
ENDBRANCH   6  12
TORSDOF 3
ENDMDL
