MODEL 1
REMARK VINA RESULT:    -7.764      0.000      0.000
REMARK INTER + INTRA:          -9.635
REMARK INTER:                  -9.353
REMARK INTRA:                  -0.283
REMARK UNBOUND:                -0.283
REMARK SMILES O=c1c(O)c(-c2ccc(O)c(O)c2)oc2cc(O)cc(O)c12
REMARK SMILES IDX 5 1 3 2 2 3 1 4 22 5 20 6 19 7 17 8 16 9 15 10 14 11 6 12
REMARK SMILES IDX 7 13 8 14 9 15 13 16 11 17 10 18 12 20 4 22 21 24 18 26
REMARK H PARENT 10 19 12 21 4 23 21 25 18 27
REMARK Flexibility Score: inf
ROOT
ATOM      1  C   UNL     1      -2.222  -2.519   5.491  1.00  0.00     0.180 A 
ATOM      2  C   UNL     1      -1.149  -2.836   6.341  1.00  0.00     0.208 A 
ATOM      3  C   UNL     1      -1.097  -4.110   6.929  1.00  0.00     0.238 A 
ATOM      4  O   UNL     1      -0.174  -4.359   7.747  1.00  0.00    -0.285 OA
ATOM      5  C   UNL     1      -2.089  -5.070   6.617  1.00  0.00     0.111 A 
ATOM      6  C   UNL     1      -2.112  -6.408   7.118  1.00  0.00     0.134 A 
ATOM      7  C   UNL     1      -3.202  -7.237   6.824  1.00  0.00     0.093 A 
ATOM      8  C   UNL     1      -4.237  -6.800   5.995  1.00  0.00     0.123 A 
ATOM      9  C   UNL     1      -4.197  -5.517   5.455  1.00  0.00     0.094 A 
ATOM     10  C   UNL     1      -3.143  -4.652   5.761  1.00  0.00     0.146 A 
ATOM     11  O   UNL     1      -3.155  -3.431   5.243  1.00  0.00    -0.452 OA
ENDROOT
BRANCH   1  12
ATOM     12  C   UNL     1      -2.353  -1.193   4.846  1.00  0.00     0.025 A 
ATOM     13  C   UNL     1      -3.224  -0.240   5.396  1.00  0.00     0.016 A 
ATOM     14  C   UNL     1      -3.346   1.025   4.816  1.00  0.00     0.051 A 
ATOM     15  C   UNL     1      -2.591   1.362   3.689  1.00  0.00     0.157 A 
ATOM     16  C   UNL     1      -1.577  -0.844   3.725  1.00  0.00     0.062 A 
ATOM     17  C   UNL     1      -1.698   0.426   3.143  1.00  0.00     0.158 A 
BRANCH  15  18
ATOM     18  O   UNL     1      -2.737   2.632   3.130  1.00  0.00    -0.504 OA
ATOM     19  H   UNL     1      -2.370   2.862   2.214  1.00  0.00     0.293 HD
ENDBRANCH  15  18
BRANCH  17  20
ATOM     20  O   UNL     1      -0.930   0.761   2.029  1.00  0.00    -0.504 OA
ATOM     21  H   UNL     1      -0.740   0.090   1.293  1.00  0.00     0.293 HD
ENDBRANCH  17  20
ENDBRANCH   1  12
BRANCH   2  22
ATOM     22  O   UNL     1      -0.138  -1.899   6.577  1.00  0.00    -0.502 OA
ATOM     23  H   UNL     1      -0.297  -0.901   6.510  1.00  0.00     0.293 HD
ENDBRANCH   2  22
BRANCH   6  24
ATOM     24  O   UNL     1      -1.089  -6.975   7.883  1.00  0.00    -0.507 OA
ATOM     25  H   UNL     1      -0.112  -6.981   7.628  1.00  0.00     0.293 HD
ENDBRANCH   6  24
BRANCH   8  26
ATOM     26  O   UNL     1      -5.308  -7.639   5.694  1.00  0.00    -0.508 OA
ATOM     27  H   UNL     1      -5.484  -8.484   6.223  1.00  0.00     0.293 HD
ENDBRANCH   8  26
TORSDOF 6
ENDMDL
MODEL 2
REMARK VINA RESULT:    -7.663     14.148     16.156
REMARK INTER + INTRA:          -9.514
REMARK INTER:                  -9.205
REMARK INTRA:                  -0.309
REMARK UNBOUND:                -0.283
REMARK SMILES O=c1c(O)c(-c2ccc(O)c(O)c2)oc2cc(O)cc(O)c12
REMARK SMILES IDX 5 1 3 2 2 3 1 4 22 5 20 6 19 7 17 8 16 9 15 10 14 11 6 12
REMARK SMILES IDX 7 13 8 14 9 15 13 16 11 17 10 18 12 20 4 22 21 24 18 26
REMARK H PARENT 10 19 12 21 4 23 21 25 18 27
REMARK Flexibility Score: inf
ROOT
ATOM      1  C   UNL     1       1.803   6.661  -6.402  1.00  0.00     0.180 A 
ATOM      2  C   UNL     1       2.086   6.649  -7.779  1.00  0.00     0.208 A 
ATOM      3  C   UNL     1       1.274   5.888  -8.635  1.00  0.00     0.238 A 
ATOM      4  O   UNL     1       1.579   5.823  -9.854  1.00  0.00    -0.285 OA
ATOM      5  C   UNL     1       0.156   5.194  -8.113  1.00  0.00     0.111 A 
ATOM      6  C   UNL     1      -0.763   4.429  -8.895  1.00  0.00     0.134 A 
ATOM      7  C   UNL     1      -1.772   3.698  -8.255  1.00  0.00     0.093 A 
ATOM      8  C   UNL     1      -1.936   3.756  -6.870  1.00  0.00     0.123 A 
ATOM      9  C   UNL     1      -1.080   4.543  -6.104  1.00  0.00     0.094 A 
ATOM     10  C   UNL     1      -0.039   5.253  -6.708  1.00  0.00     0.146 A 
ATOM     11  O   UNL     1       0.766   5.974  -5.938  1.00  0.00    -0.452 OA
ENDROOT
BRANCH   1  12
ATOM     12  C   UNL     1       2.622   7.428  -5.435  1.00  0.00     0.025 A 
ATOM     13  C   UNL     1       2.142   8.650  -4.942  1.00  0.00     0.016 A 
ATOM     14  C   UNL     1       2.887   9.380  -4.012  1.00  0.00     0.051 A 
ATOM     15  C   UNL     1       4.113   8.893  -3.550  1.00  0.00     0.157 A 
ATOM     16  C   UNL     1       3.845   6.929  -4.953  1.00  0.00     0.062 A 
ATOM     17  C   UNL     1       4.594   7.659  -4.019  1.00  0.00     0.158 A 
BRANCH  15  18
ATOM     18  O   UNL     1       4.837   9.645  -2.625  1.00  0.00    -0.504 OA
ATOM     19  H   UNL     1       5.763   9.374  -2.317  1.00  0.00     0.293 HD
ENDBRANCH  15  18
BRANCH  17  20
ATOM     20  O   UNL     1       5.809   7.160  -3.551  1.00  0.00    -0.504 OA
ATOM     21  H   UNL     1       6.134   6.233  -3.802  1.00  0.00     0.293 HD
ENDBRANCH  17  20
ENDBRANCH   1  12
BRANCH   2  22
ATOM     22  O   UNL     1       3.150   7.403  -8.285  1.00  0.00    -0.502 OA
ATOM     23  H   UNL     1       3.024   8.105  -9.003  1.00  0.00     0.293 HD
ENDBRANCH   2  22
BRANCH   6  24
ATOM     24  O   UNL     1      -0.744   4.372 -10.292  1.00  0.00    -0.507 OA
ATOM     25  H   UNL     1      -1.332   3.774 -10.853  1.00  0.00     0.293 HD
ENDBRANCH   6  24
BRANCH   8  26
ATOM     26  O   UNL     1      -2.954   3.039  -6.244  1.00  0.00    -0.508 OA
ATOM     27  H   UNL     1      -3.803   3.492  -5.927  1.00  0.00     0.293 HD
ENDBRANCH   8  26
TORSDOF 6
ENDMDL
MODEL 3
REMARK VINA RESULT:    -7.603      2.552      7.241
REMARK INTER + INTRA:          -9.441
REMARK INTER:                  -9.721
REMARK INTRA:                   0.280
REMARK UNBOUND:                -0.283
REMARK SMILES O=c1c(O)c(-c2ccc(O)c(O)c2)oc2cc(O)cc(O)c12
REMARK SMILES IDX 5 1 3 2 2 3 1 4 22 5 20 6 19 7 17 8 16 9 15 10 14 11 6 12
REMARK SMILES IDX 7 13 8 14 9 15 13 16 11 17 10 18 12 20 4 22 21 24 18 26
REMARK H PARENT 10 19 12 21 4 23 21 25 18 27
REMARK Flexibility Score: inf
ROOT
ATOM      1  C   UNL     1      -1.655  -0.903   4.378  1.00  0.00     0.180 A 
ATOM      2  C   UNL     1      -1.327  -0.126   3.254  1.00  0.00     0.208 A 
ATOM      3  C   UNL     1      -1.174   1.262   3.406  1.00  0.00     0.238 A 
ATOM      4  O   UNL     1      -0.955   1.960   2.382  1.00  0.00    -0.285 OA
ATOM      5  C   UNL     1      -1.295   1.847   4.689  1.00  0.00     0.111 A 
ATOM      6  C   UNL     1      -1.115   3.237   4.969  1.00  0.00     0.134 A 
ATOM      7  C   UNL     1      -1.364   3.719   6.260  1.00  0.00     0.093 A 
ATOM      8  C   UNL     1      -1.723   2.855   7.295  1.00  0.00     0.123 A 
ATOM      9  C   UNL     1      -1.847   1.491   7.047  1.00  0.00     0.094 A 
ATOM     10  C   UNL     1      -1.643   0.983   5.760  1.00  0.00     0.146 A 
ATOM     11  O   UNL     1      -1.793  -0.320   5.563  1.00  0.00    -0.452 OA
ENDROOT
BRANCH   1  12
ATOM     12  C   UNL     1      -1.846  -2.369   4.294  1.00  0.00     0.025 A 
ATOM     13  C   UNL     1      -1.649  -3.157   5.439  1.00  0.00     0.016 A 
ATOM     14  C   UNL     1      -1.844  -4.539   5.388  1.00  0.00     0.051 A 
ATOM     15  C   UNL     1      -2.255  -5.153   4.201  1.00  0.00     0.157 A 
ATOM     16  C   UNL     1      -2.280  -2.985   3.107  1.00  0.00     0.062 A 
ATOM     17  C   UNL     1      -2.478  -4.372   3.055  1.00  0.00     0.158 A 
BRANCH  15  18
ATOM     18  O   UNL     1      -2.439  -6.535   4.180  1.00  0.00    -0.504 OA
ATOM     19  H   UNL     1      -1.837  -7.166   4.694  1.00  0.00     0.293 HD
ENDBRANCH  15  18
BRANCH  17  20
ATOM     20  O   UNL     1      -2.902  -4.975   1.871  1.00  0.00    -0.504 OA
ATOM     21  H   UNL     1      -3.452  -4.470   1.185  1.00  0.00     0.293 HD
ENDBRANCH  17  20
ENDBRANCH   1  12
BRANCH   2  22
ATOM     22  O   UNL     1      -1.137  -0.734   2.009  1.00  0.00    -0.502 OA
ATOM     23  H   UNL     1      -1.072  -0.203   1.150  1.00  0.00     0.293 HD
ENDBRANCH   2  22
BRANCH   6  24
ATOM     24  O   UNL     1      -0.673   4.174   4.029  1.00  0.00    -0.507 OA
ATOM     25  H   UNL     1      -0.330   3.950   3.108  1.00  0.00     0.293 HD
ENDBRANCH   6  24
BRANCH   8  26
ATOM     26  O   UNL     1      -1.951   3.342   8.581  1.00  0.00    -0.508 OA
ATOM     27  H   UNL     1      -2.689   4.010   8.771  1.00  0.00     0.293 HD
ENDBRANCH   8  26
TORSDOF 6
ENDMDL
MODEL 4
REMARK VINA RESULT:    -7.576      2.403      7.090
REMARK INTER + INTRA:          -9.408
REMARK INTER:                  -9.328
REMARK INTRA:                  -0.080
REMARK UNBOUND:                -0.283
REMARK SMILES O=c1c(O)c(-c2ccc(O)c(O)c2)oc2cc(O)cc(O)c12
REMARK SMILES IDX 5 1 3 2 2 3 1 4 22 5 20 6 19 7 17 8 16 9 15 10 14 11 6 12
REMARK SMILES IDX 7 13 8 14 9 15 13 16 11 17 10 18 12 20 4 22 21 24 18 26
REMARK H PARENT 10 19 12 21 4 23 21 25 18 27
REMARK Flexibility Score: inf
ROOT
ATOM      1  C   UNL     1      -2.499  -0.934   4.219  1.00  0.00     0.180 A 
ATOM      2  C   UNL     1      -1.745  -0.092   3.383  1.00  0.00     0.208 A 
ATOM      3  C   UNL     1      -1.908   1.299   3.491  1.00  0.00     0.238 A 
ATOM      4  O   UNL     1      -1.286   2.042   2.688  1.00  0.00    -0.285 OA
ATOM      5  C   UNL     1      -2.779   1.832   4.470  1.00  0.00     0.111 A 
ATOM      6  C   UNL     1      -2.988   3.227   4.700  1.00  0.00     0.134 A 
ATOM      7  C   UNL     1      -3.954   3.637   5.626  1.00  0.00     0.093 A 
ATOM      8  C   UNL     1      -4.674   2.706   6.377  1.00  0.00     0.123 A 
ATOM      9  C   UNL     1      -4.439   1.345   6.201  1.00  0.00     0.094 A 
ATOM     10  C   UNL     1      -3.509   0.903   5.257  1.00  0.00     0.146 A 
ATOM     11  O   UNL     1      -3.332  -0.404   5.107  1.00  0.00    -0.452 OA
ENDROOT
BRANCH   1  12
ATOM     12  C   UNL     1      -2.392  -2.409   4.155  1.00  0.00     0.025 A 
ATOM     13  C   UNL     1      -2.138  -3.134   5.329  1.00  0.00     0.016 A 
ATOM     14  C   UNL     1      -2.055  -4.528   5.296  1.00  0.00     0.051 A 
ATOM     15  C   UNL     1      -2.241  -5.219   4.095  1.00  0.00     0.157 A 
ATOM     16  C   UNL     1      -2.600  -3.107   2.952  1.00  0.00     0.062 A 
ATOM     17  C   UNL     1      -2.519  -4.506   2.917  1.00  0.00     0.158 A 
BRANCH  15  18
ATOM     18  O   UNL     1      -2.149  -6.611   4.092  1.00  0.00    -0.504 OA
ATOM     19  H   UNL     1      -1.379  -7.101   4.533  1.00  0.00     0.293 HD
ENDBRANCH  15  18
BRANCH  17  20
ATOM     20  O   UNL     1      -2.719  -5.190   1.719  1.00  0.00    -0.504 OA
ATOM     21  H   UNL     1      -3.551  -5.746   1.557  1.00  0.00     0.293 HD
ENDBRANCH  17  20
ENDBRANCH   1  12
BRANCH   2  22
ATOM     22  O   UNL     1      -0.833  -0.636   2.474  1.00  0.00    -0.502 OA
ATOM     23  H   UNL     1      -0.470  -0.111   1.688  1.00  0.00     0.293 HD
ENDBRANCH   2  22
BRANCH   6  24
ATOM     24  O   UNL     1      -2.262   4.241   4.068  1.00  0.00    -0.507 OA
ATOM     25  H   UNL     1      -1.256   4.280   4.007  1.00  0.00     0.293 HD
ENDBRANCH   6  24
BRANCH   8  26
ATOM     26  O   UNL     1      -5.622   3.125   7.310  1.00  0.00    -0.508 OA
ATOM     27  H   UNL     1      -6.548   3.422   7.026  1.00  0.00     0.293 HD
ENDBRANCH   8  26
TORSDOF 6
ENDMDL
MODEL 5
REMARK VINA RESULT:    -7.538      5.108     10.287
REMARK INTER + INTRA:          -9.363
REMARK INTER:                  -9.042
REMARK INTRA:                  -0.320
REMARK UNBOUND:                -0.283
REMARK SMILES O=c1c(O)c(-c2ccc(O)c(O)c2)oc2cc(O)cc(O)c12
REMARK SMILES IDX 5 1 3 2 2 3 1 4 22 5 20 6 19 7 17 8 16 9 15 10 14 11 6 12
REMARK SMILES IDX 7 13 8 14 9 15 13 16 11 17 10 18 12 20 4 22 21 24 18 26
REMARK H PARENT 10 19 12 21 4 23 21 25 18 27
REMARK Flexibility Score: inf
ROOT
ATOM      1  C   UNL     1      -1.259   4.403   4.596  1.00  0.00     0.180 A 
ATOM      2  C   UNL     1      -0.376   4.673   5.656  1.00  0.00     0.208 A 
ATOM      3  C   UNL     1       0.067   5.991   5.855  1.00  0.00     0.238 A 
ATOM      4  O   UNL     1       0.914   6.212   6.758  1.00  0.00    -0.285 OA
ATOM      5  C   UNL     1      -0.421   7.031   5.028  1.00  0.00     0.111 A 
ATOM      6  C   UNL     1      -0.077   8.410   5.167  1.00  0.00     0.134 A 
ATOM      7  C   UNL     1      -0.538   9.336   4.223  1.00  0.00     0.093 A 
ATOM      8  C   UNL     1      -1.384   8.945   3.184  1.00  0.00     0.123 A 
ATOM      9  C   UNL     1      -1.772   7.612   3.071  1.00  0.00     0.094 A 
ATOM     10  C   UNL     1      -1.297   6.657   3.974  1.00  0.00     0.146 A 
ATOM     11  O   UNL     1      -1.674   5.395   3.817  1.00  0.00    -0.452 OA
ENDROOT
BRANCH   1  12
ATOM     12  C   UNL     1      -1.758   3.038   4.314  1.00  0.00     0.025 A 
ATOM     13  C   UNL     1      -2.908   2.575   4.972  1.00  0.00     0.016 A 
ATOM     14  C   UNL     1      -3.410   1.298   4.706  1.00  0.00     0.051 A 
ATOM     15  C   UNL     1      -2.782   0.473   3.769  1.00  0.00     0.157 A 
ATOM     16  C   UNL     1      -1.140   2.214   3.357  1.00  0.00     0.062 A 
ATOM     17  C   UNL     1      -1.643   0.934   3.087  1.00  0.00     0.158 A 
BRANCH  15  18
ATOM     18  O   UNL     1      -3.304  -0.798   3.526  1.00  0.00    -0.504 OA
ATOM     19  H   UNL     1      -3.169  -1.275   2.643  1.00  0.00     0.293 HD
ENDBRANCH  15  18
BRANCH  17  20
ATOM     20  O   UNL     1      -1.020   0.121   2.141  1.00  0.00    -0.504 OA
ATOM     21  H   UNL     1      -1.534  -0.279   1.364  1.00  0.00     0.293 HD
ENDBRANCH  17  20
ENDBRANCH   1  12
BRANCH   2  22
ATOM     22  O   UNL     1       0.034   3.645   6.509  1.00  0.00    -0.502 OA
ATOM     23  H   UNL     1       0.469   2.796   6.167  1.00  0.00     0.293 HD
ENDBRANCH   2  22
BRANCH   6  24
ATOM     24  O   UNL     1       0.690   8.923   6.218  1.00  0.00    -0.507 OA
ATOM     25  H   UNL     1       1.578   9.390   6.111  1.00  0.00     0.293 HD
ENDBRANCH   6  24
BRANCH   8  26
ATOM     26  O   UNL     1      -1.853   9.877   2.260  1.00  0.00    -0.508 OA
ATOM     27  H   UNL     1      -1.568   9.849   1.289  1.00  0.00     0.293 HD
ENDBRANCH   8  26
TORSDOF 6
ENDMDL
MODEL 6
REMARK VINA RESULT:    -7.441     11.331     14.480
REMARK INTER + INTRA:          -9.246
REMARK INTER:                  -8.921
REMARK INTRA:                  -0.325
REMARK UNBOUND:                -0.283
REMARK SMILES O=c1c(O)c(-c2ccc(O)c(O)c2)oc2cc(O)cc(O)c12
REMARK SMILES IDX 5 1 3 2 2 3 1 4 22 5 20 6 19 7 17 8 16 9 15 10 14 11 6 12
REMARK SMILES IDX 7 13 8 14 9 15 13 16 11 17 10 18 12 20 4 22 21 24 18 26
REMARK H PARENT 10 19 12 21 4 23 21 25 18 27
REMARK Flexibility Score: inf
ROOT
ATOM      1  C   UNL     1      -8.113  -2.589  -5.779  1.00  0.00     0.180 A 
ATOM      2  C   UNL     1      -8.937  -2.378  -6.898  1.00  0.00     0.208 A 
ATOM      3  C   UNL     1      -8.538  -1.450  -7.873  1.00  0.00     0.238 A 
ATOM      4  O   UNL     1      -9.316  -1.212  -8.833  1.00  0.00    -0.285 OA
ATOM      5  C   UNL     1      -7.295  -0.786  -7.746  1.00  0.00     0.111 A 
ATOM      6  C   UNL     1      -6.768   0.141  -8.697  1.00  0.00     0.134 A 
ATOM      7  C   UNL     1      -5.575   0.818  -8.413  1.00  0.00     0.093 A 
ATOM      8  C   UNL     1      -4.857   0.554  -7.245  1.00  0.00     0.123 A 
ATOM      9  C   UNL     1      -5.332  -0.388  -6.338  1.00  0.00     0.094 A 
ATOM     10  C   UNL     1      -6.540  -1.052  -6.573  1.00  0.00     0.146 A 
ATOM     11  O   UNL     1      -6.967  -1.927  -5.672  1.00  0.00    -0.452 OA
ENDROOT
BRANCH   1  12
ATOM     12  C   UNL     1      -8.473  -3.540  -4.703  1.00  0.00     0.025 A 
ATOM     13  C   UNL     1      -8.085  -4.884  -4.812  1.00  0.00     0.016 A 
ATOM     14  C   UNL     1      -8.394  -5.795  -3.799  1.00  0.00     0.051 A 
ATOM     15  C   UNL     1      -9.080  -5.375  -2.656  1.00  0.00     0.157 A 
ATOM     16  C   UNL     1      -9.144  -3.115  -3.542  1.00  0.00     0.062 A 
ATOM     17  C   UNL     1      -9.453  -4.027  -2.524  1.00  0.00     0.158 A 
BRANCH  15  18
ATOM     18  O   UNL     1      -9.378  -6.307  -1.662  1.00  0.00    -0.504 OA
ATOM     19  H   UNL     1      -8.701  -6.580  -0.960  1.00  0.00     0.293 HD
ENDBRANCH  15  18
BRANCH  17  20
ATOM     20  O   UNL     1     -10.125  -3.598  -1.379  1.00  0.00    -0.504 OA
ATOM     21  H   UNL     1     -11.030  -3.975  -1.122  1.00  0.00     0.293 HD
ENDBRANCH  17  20
ENDBRANCH   1  12
BRANCH   2  22
ATOM     22  O   UNL     1     -10.125  -3.101  -7.043  1.00  0.00    -0.502 OA
ATOM     23  H   UNL     1     -10.387  -3.546  -7.913  1.00  0.00     0.293 HD
ENDBRANCH   2  22
BRANCH   6  24
ATOM     24  O   UNL     1      -7.358   0.414  -9.934  1.00  0.00    -0.507 OA
ATOM     25  H   UNL     1      -8.352   0.465 -10.102  1.00  0.00     0.293 HD
ENDBRANCH   6  24
BRANCH   8  26
ATOM     26  O   UNL     1      -3.661   1.220  -6.981  1.00  0.00    -0.508 OA
ATOM     27  H   UNL     1      -3.407   2.068  -7.472  1.00  0.00     0.293 HD
ENDBRANCH   8  26
TORSDOF 6
ENDMDL
MODEL 7
REMARK VINA RESULT:    -7.436      2.190      2.990
REMARK INTER + INTRA:          -9.241
REMARK INTER:                  -8.917
REMARK INTRA:                  -0.323
REMARK UNBOUND:                -0.283
REMARK SMILES O=c1c(O)c(-c2ccc(O)c(O)c2)oc2cc(O)cc(O)c12
REMARK SMILES IDX 5 1 3 2 2 3 1 4 22 5 20 6 19 7 17 8 16 9 15 10 14 11 6 12
REMARK SMILES IDX 7 13 8 14 9 15 13 16 11 17 10 18 12 20 4 22 21 24 18 26
REMARK H PARENT 10 19 12 21 4 23 21 25 18 27
REMARK Flexibility Score: inf
ROOT
ATOM      1  C   UNL     1      -2.668  -1.064   4.681  1.00  0.00     0.180 A 
ATOM      2  C   UNL     1      -2.234  -1.983   3.710  1.00  0.00     0.208 A 
ATOM      3  C   UNL     1      -2.414  -3.356   3.942  1.00  0.00     0.238 A 
ATOM      4  O   UNL     1      -1.956  -4.174   3.103  1.00  0.00    -0.285 OA
ATOM      5  C   UNL     1      -3.076  -3.791   5.115  1.00  0.00     0.111 A 
ATOM      6  C   UNL     1      -3.354  -5.156   5.433  1.00  0.00     0.134 A 
ATOM      7  C   UNL     1      -3.920  -5.475   6.673  1.00  0.00     0.093 A 
ATOM      8  C   UNL     1      -4.278  -4.476   7.580  1.00  0.00     0.123 A 
ATOM      9  C   UNL     1      -4.062  -3.139   7.258  1.00  0.00     0.094 A 
ATOM     10  C   UNL     1      -3.463  -2.790   6.044  1.00  0.00     0.146 A 
ATOM     11  O   UNL     1      -3.256  -1.505   5.787  1.00  0.00    -0.452 OA
ENDROOT
BRANCH   1  12
ATOM     12  C   UNL     1      -2.501   0.397   4.514  1.00  0.00     0.025 A 
ATOM     13  C   UNL     1      -1.320   1.012   4.959  1.00  0.00     0.016 A 
ATOM     14  C   UNL     1      -1.132   2.386   4.792  1.00  0.00     0.051 A 
ATOM     15  C   UNL     1      -2.110   3.163   4.166  1.00  0.00     0.157 A 
ATOM     16  C   UNL     1      -3.475   1.177   3.865  1.00  0.00     0.062 A 
ATOM     17  C   UNL     1      -3.286   2.556   3.696  1.00  0.00     0.158 A 
BRANCH  15  18
ATOM     18  O   UNL     1      -1.896   4.534   4.017  1.00  0.00    -0.504 OA
ATOM     19  H   UNL     1      -1.354   4.913   3.250  1.00  0.00     0.293 HD
ENDBRANCH  15  18
BRANCH  17  20
ATOM     20  O   UNL     1      -4.260   3.323   3.057  1.00  0.00    -0.504 OA
ATOM     21  H   UNL     1      -4.798   2.957   2.279  1.00  0.00     0.293 HD
ENDBRANCH  17  20
ENDBRANCH   1  12
BRANCH   2  22
ATOM     22  O   UNL     1      -1.652  -1.529   2.523  1.00  0.00    -0.502 OA
ATOM     23  H   UNL     1      -1.765  -2.015   1.641  1.00  0.00     0.293 HD
ENDBRANCH   2  22
BRANCH   6  24
ATOM     24  O   UNL     1      -3.118  -6.226   4.564  1.00  0.00    -0.507 OA
ATOM     25  H   UNL     1      -2.448  -6.963   4.723  1.00  0.00     0.293 HD
ENDBRANCH   6  24
BRANCH   8  26
ATOM     26  O   UNL     1      -4.857  -4.802   8.805  1.00  0.00    -0.508 OA
ATOM     27  H   UNL     1      -4.686  -5.696   9.250  1.00  0.00     0.293 HD
ENDBRANCH   8  26
TORSDOF 6
ENDMDL
MODEL 8
REMARK VINA RESULT:    -7.307      2.321      3.052
REMARK INTER + INTRA:          -9.085
REMARK INTER:                  -9.231
REMARK INTRA:                   0.146
REMARK UNBOUND:                -0.283
REMARK SMILES O=c1c(O)c(-c2ccc(O)c(O)c2)oc2cc(O)cc(O)c12
REMARK SMILES IDX 5 1 3 2 2 3 1 4 22 5 20 6 19 7 17 8 16 9 15 10 14 11 6 12
REMARK SMILES IDX 7 13 8 14 9 15 13 16 11 17 10 18 12 20 4 22 21 24 18 26
REMARK H PARENT 10 19 12 21 4 23 21 25 18 27
REMARK Flexibility Score: inf
ROOT
ATOM      1  C   UNL     1      -2.649  -0.580   5.069  1.00  0.00     0.180 A 
ATOM      2  C   UNL     1      -3.586  -0.652   6.114  1.00  0.00     0.208 A 
ATOM      3  C   UNL     1      -4.122  -1.901   6.466  1.00  0.00     0.238 A 
ATOM      4  O   UNL     1      -5.015  -1.947   7.350  1.00  0.00    -0.285 OA
ATOM      5  C   UNL     1      -3.672  -3.071   5.807  1.00  0.00     0.111 A 
ATOM      6  C   UNL     1      -4.111  -4.395   6.112  1.00  0.00     0.134 A 
ATOM      7  C   UNL     1      -3.676  -5.467   5.322  1.00  0.00     0.093 A 
ATOM      8  C   UNL     1      -2.768  -5.271   4.279  1.00  0.00     0.123 A 
ATOM      9  C   UNL     1      -2.291  -3.992   4.009  1.00  0.00     0.094 A 
ATOM     10  C   UNL     1      -2.736  -2.896   4.754  1.00  0.00     0.146 A 
ATOM     11  O   UNL     1      -2.271  -1.692   4.448  1.00  0.00    -0.452 OA
ENDROOT
BRANCH   1  12
ATOM     12  C   UNL     1      -2.051   0.702   4.632  1.00  0.00     0.025 A 
ATOM     13  C   UNL     1      -1.623   1.627   5.596  1.00  0.00     0.016 A 
ATOM     14  C   UNL     1      -1.036   2.834   5.206  1.00  0.00     0.051 A 
ATOM     15  C   UNL     1      -0.853   3.127   3.852  1.00  0.00     0.157 A 
ATOM     16  C   UNL     1      -1.847   0.989   3.270  1.00  0.00     0.062 A 
ATOM     17  C   UNL     1      -1.257   2.198   2.878  1.00  0.00     0.158 A 
BRANCH  15  18
ATOM     18  O   UNL     1      -0.267   4.341   3.493  1.00  0.00    -0.504 OA
ATOM     19  H   UNL     1       0.718   4.525   3.635  1.00  0.00     0.293 HD
ENDBRANCH  15  18
BRANCH  17  20
ATOM     20  O   UNL     1      -1.064   2.478   1.526  1.00  0.00    -0.504 OA
ATOM     21  H   UNL     1      -0.141   2.474   1.109  1.00  0.00     0.293 HD
ENDBRANCH  17  20
ENDBRANCH   1  12
BRANCH   2  22
ATOM     22  O   UNL     1      -3.960   0.506   6.803  1.00  0.00    -0.502 OA
ATOM     23  H   UNL     1      -4.928   0.774   6.929  1.00  0.00     0.293 HD
ENDBRANCH   2  22
BRANCH   6  24
ATOM     24  O   UNL     1      -4.949  -4.715   7.185  1.00  0.00    -0.507 OA
ATOM     25  H   UNL     1      -4.655  -4.780   8.148  1.00  0.00     0.293 HD
ENDBRANCH   6  24
BRANCH   8  26
ATOM     26  O   UNL     1      -2.327  -6.346   3.509  1.00  0.00    -0.508 OA
ATOM     27  H   UNL     1      -1.348  -6.468   3.282  1.00  0.00     0.293 HD
ENDBRANCH   8  26
TORSDOF 6
ENDMDL
MODEL 9
REMARK VINA RESULT:    -7.161      2.227      2.775
REMARK INTER + INTRA:          -8.909
REMARK INTER:                  -8.633
REMARK INTRA:                  -0.276
REMARK UNBOUND:                -0.283
REMARK SMILES O=c1c(O)c(-c2ccc(O)c(O)c2)oc2cc(O)cc(O)c12
REMARK SMILES IDX 5 1 3 2 2 3 1 4 22 5 20 6 19 7 17 8 16 9 15 10 14 11 6 12
REMARK SMILES IDX 7 13 8 14 9 15 13 16 11 17 10 18 12 20 4 22 21 24 18 26
REMARK H PARENT 10 19 12 21 4 23 21 25 18 27
REMARK Flexibility Score: inf
ROOT
ATOM      1  C   UNL     1      -1.995  -0.395   5.042  1.00  0.00     0.180 A 
ATOM      2  C   UNL     1      -1.593  -0.856   6.308  1.00  0.00     0.208 A 
ATOM      3  C   UNL     1      -1.462  -2.238   6.520  1.00  0.00     0.238 A 
ATOM      4  O   UNL     1      -1.175  -2.646   7.675  1.00  0.00    -0.285 OA
ATOM      5  C   UNL     1      -1.679  -3.139   5.450  1.00  0.00     0.111 A 
ATOM      6  C   UNL     1      -1.530  -4.557   5.538  1.00  0.00     0.134 A 
ATOM      7  C   UNL     1      -1.875  -5.357   4.442  1.00  0.00     0.093 A 
ATOM      8  C   UNL     1      -2.301  -4.788   3.240  1.00  0.00     0.123 A 
ATOM      9  C   UNL     1      -2.397  -3.404   3.125  1.00  0.00     0.094 A 
ATOM     10  C   UNL     1      -2.097  -2.580   4.213  1.00  0.00     0.146 A 
ATOM     11  O   UNL     1      -2.223  -1.267   4.067  1.00  0.00    -0.452 OA
ENDROOT
BRANCH   1  12
ATOM     12  C   UNL     1      -2.169   1.045   4.746  1.00  0.00     0.025 A 
ATOM     13  C   UNL     1      -3.313   1.711   5.209  1.00  0.00     0.016 A 
ATOM     14  C   UNL     1      -3.487   3.075   4.959  1.00  0.00     0.051 A 
ATOM     15  C   UNL     1      -2.516   3.796   4.259  1.00  0.00     0.157 A 
ATOM     16  C   UNL     1      -1.182   1.776   4.060  1.00  0.00     0.062 A 
ATOM     17  C   UNL     1      -1.354   3.145   3.811  1.00  0.00     0.158 A 
BRANCH  15  18
ATOM     18  O   UNL     1      -2.718   5.155   4.022  1.00  0.00    -0.504 OA
ATOM     19  H   UNL     1      -2.272   5.871   4.583  1.00  0.00     0.293 HD
ENDBRANCH  15  18
BRANCH  17  20
ATOM     20  O   UNL     1      -0.374   3.861   3.125  1.00  0.00    -0.504 OA
ATOM     21  H   UNL     1       0.573   3.938   3.479  1.00  0.00     0.293 HD
ENDBRANCH  17  20
ENDBRANCH   1  12
BRANCH   2  22
ATOM     22  O   UNL     1      -1.310   0.054   7.330  1.00  0.00    -0.502 OA
ATOM     23  H   UNL     1      -1.040  -0.241   8.261  1.00  0.00     0.293 HD
ENDBRANCH   2  22
BRANCH   6  24
ATOM     24  O   UNL     1      -1.030  -5.223   6.661  1.00  0.00    -0.507 OA
ATOM     25  H   UNL     1      -1.312  -5.044   7.613  1.00  0.00     0.293 HD
ENDBRANCH   6  24
BRANCH   8  26
ATOM     26  O   UNL     1      -2.625  -5.592   2.148  1.00  0.00    -0.508 OA
ATOM     27  H   UNL     1      -2.460  -6.591   2.159  1.00  0.00     0.293 HD
ENDBRANCH   8  26
TORSDOF 6
ENDMDL
