MODEL 1
REMARK VINA RESULT:    -6.116      0.000      0.000
REMARK INTER + INTRA:         -11.360
REMARK INTER:                  -9.334
REMARK INTRA:                  -2.026
REMARK UNBOUND:                -2.026
REMARK SMILES CC(=O)CCC=C(C)CCC=C(C)CCC=C(C)C
REMARK SMILES IDX 10 1 11 2 12 3 13 4 14 5 15 6 16 7 18 8 17 9 19 10 9 11 7 12
REMARK SMILES IDX 6 13 8 14 5 15 4 16 2 17 3 18 1 19
REMARK H PARENT
REMARK Flexibility Score: inf
ROOT
ATOM      1  C   UNL     1     -13.615 -16.295  32.455  1.00  0.00     0.032 C 
ENDROOT
BRANCH   1   2
ATOM      2  C   UNL     1     -12.424 -15.882  33.289  1.00  0.00    -0.028 C 
ATOM      3  C   UNL     1     -11.128 -15.971  32.906  1.00  0.00    -0.077 C 
ATOM      4  C   UNL     1     -10.065 -15.563  33.894  1.00  0.00     0.039 C 
BRANCH   3   5
ATOM      5  C   UNL     1     -10.699 -16.441  31.531  1.00  0.00     0.034 C 
BRANCH   5   6
ATOM      6  C   UNL     1     -10.549 -17.965  31.495  1.00  0.00     0.032 C 
BRANCH   6   7
ATOM      7  C   UNL     1     -11.266 -18.541  30.299  1.00  0.00    -0.028 C 
ATOM      8  C   UNL     1     -12.926 -19.796  31.692  1.00  0.00     0.039 C 
ATOM      9  C   UNL     1     -12.357 -19.337  30.372  1.00  0.00    -0.080 C 
ATOM     10  C   UNL     1     -13.015 -19.826  29.108  1.00  0.00     0.039 C 
ENDBRANCH   6   7
ENDBRANCH   5   6
ENDBRANCH   3   5
ENDBRANCH   1   2
BRANCH   1  11
ATOM     11  C   UNL     1     -14.461 -15.078  32.057  1.00  0.00     0.034 C 
BRANCH  11  12
ATOM     12  C   UNL     1     -14.259 -14.704  30.604  1.00  0.00    -0.077 C 
ATOM     13  C   UNL     1     -13.304 -15.333  29.887  1.00  0.00    -0.028 C 
ATOM     14  C   UNL     1     -15.144 -13.649  29.984  1.00  0.00     0.039 C 
BRANCH  13  15
ATOM     15  C   UNL     1     -13.061 -15.060  28.420  1.00  0.00     0.035 C 
BRANCH  15  16
ATOM     16  C   UNL     1     -12.933 -16.354  27.605  1.00  0.00     0.079 C 
BRANCH  16  17
ATOM     17  C   UNL     1     -11.501 -16.644  27.239  1.00  0.00     0.130 C 
ATOM     18  O   UNL     1     -10.600 -16.276  27.978  1.00  0.00    -0.300 OA
ATOM     19  C   UNL     1     -11.160 -17.355  25.963  1.00  0.00     0.087 C 
ENDBRANCH  16  17
ENDBRANCH  15  16
ENDBRANCH  13  15
ENDBRANCH  11  12
ENDBRANCH   1  11
TORSDOF 9
ENDMDL
MODEL 2
REMARK VINA RESULT:    -6.005      2.047      3.844
REMARK INTER + INTRA:         -11.190
REMARK INTER:                  -8.672
REMARK INTRA:                  -2.519
REMARK UNBOUND:                -2.026
REMARK SMILES CC(=O)CCC=C(C)CCC=C(C)CCC=C(C)C
REMARK SMILES IDX 10 1 11 2 12 3 13 4 14 5 15 6 16 7 18 8 17 9 19 10 9 11 7 12
REMARK SMILES IDX 6 13 8 14 5 15 4 16 2 17 3 18 1 19
REMARK H PARENT
REMARK Flexibility Score: inf
ROOT
ATOM      1  C   UNL     1     -10.396 -15.736  29.215  1.00  0.00     0.032 C 
ENDROOT
BRANCH   1   2
ATOM      2  C   UNL     1      -9.934 -16.489  30.442  1.00  0.00    -0.028 C 
ATOM      3  C   UNL     1     -10.642 -16.637  31.586  1.00  0.00    -0.077 C 
ATOM      4  C   UNL     1      -9.999 -17.375  32.732  1.00  0.00     0.039 C 
BRANCH   3   5
ATOM      5  C   UNL     1     -12.054 -16.113  31.762  1.00  0.00     0.034 C 
BRANCH   5   6
ATOM      6  C   UNL     1     -13.047 -17.266  31.942  1.00  0.00     0.032 C 
BRANCH   6   7
ATOM      7  C   UNL     1     -13.226 -18.019  30.647  1.00  0.00    -0.028 C 
ATOM      8  C   UNL     1     -12.384 -20.179  31.596  1.00  0.00     0.039 C 
ATOM      9  C   UNL     1     -12.965 -19.337  30.487  1.00  0.00    -0.080 C 
ATOM     10  C   UNL     1     -13.217 -19.995  29.156  1.00  0.00     0.039 C 
ENDBRANCH   6   7
ENDBRANCH   5   6
ENDBRANCH   3   5
ENDBRANCH   1   2
BRANCH   1  11
ATOM     11  C   UNL     1     -11.002 -16.688  28.177  1.00  0.00     0.034 C 
BRANCH  11  12
ATOM     12  C   UNL     1     -12.354 -16.207  27.694  1.00  0.00    -0.077 C 
ATOM     13  C   UNL     1     -12.911 -15.118  28.267  1.00  0.00    -0.028 C 
ATOM     14  C   UNL     1     -13.042 -16.945  26.570  1.00  0.00     0.039 C 
BRANCH  13  15
ATOM     15  C   UNL     1     -14.233 -14.538  27.822  1.00  0.00     0.035 C 
BRANCH  15  16
ATOM     16  C   UNL     1     -14.576 -13.241  28.567  1.00  0.00     0.079 C 
BRANCH  16  17
ATOM     17  C   UNL     1     -15.580 -13.476  29.665  1.00  0.00     0.130 C 
ATOM     18  O   UNL     1     -16.760 -13.226  29.469  1.00  0.00    -0.300 OA
ATOM     19  C   UNL     1     -15.151 -13.986  31.008  1.00  0.00     0.087 C 
ENDBRANCH  16  17
ENDBRANCH  15  16
ENDBRANCH  13  15
ENDBRANCH  11  12
ENDBRANCH   1  11
TORSDOF 9
ENDMDL
MODEL 3
REMARK VINA RESULT:    -5.977      1.469      4.457
REMARK INTER + INTRA:         -11.148
REMARK INTER:                  -9.221
REMARK INTRA:                  -1.927
REMARK UNBOUND:                -2.026
REMARK SMILES CC(=O)CCC=C(C)CCC=C(C)CCC=C(C)C
REMARK SMILES IDX 10 1 11 2 12 3 13 4 14 5 15 6 16 7 18 8 17 9 19 10 9 11 7 12
REMARK SMILES IDX 6 13 8 14 5 15 4 16 2 17 3 18 1 19
REMARK H PARENT
REMARK Flexibility Score: inf
ROOT
ATOM      1  C   UNL     1     -13.874 -15.735  33.138  1.00  0.00     0.032 C 
ENDROOT
BRANCH   1   2
ATOM      2  C   UNL     1     -14.562 -14.773  32.196  1.00  0.00    -0.028 C 
ATOM      3  C   UNL     1     -14.376 -14.716  30.857  1.00  0.00    -0.077 C 
ATOM      4  C   UNL     1     -15.108 -13.652  30.080  1.00  0.00     0.039 C 
BRANCH   3   5
ATOM      5  C   UNL     1     -13.484 -15.681  30.101  1.00  0.00     0.034 C 
BRANCH   5   6
ATOM      6  C   UNL     1     -12.762 -14.973  28.950  1.00  0.00     0.032 C 
BRANCH   6   7
ATOM      7  C   UNL     1     -11.886 -15.942  28.196  1.00  0.00    -0.028 C 
ATOM      8  C   UNL     1     -13.592 -16.349  26.407  1.00  0.00     0.039 C 
ATOM      9  C   UNL     1     -12.232 -16.541  27.034  1.00  0.00    -0.080 C 
ATOM     10  C   UNL     1     -11.261 -17.466  26.348  1.00  0.00     0.039 C 
ENDBRANCH   6   7
ENDBRANCH   5   6
ENDBRANCH   3   5
ENDBRANCH   1   2
BRANCH   1  11
ATOM     11  C   UNL     1     -12.471 -15.237  33.509  1.00  0.00     0.034 C 
BRANCH  11  12
ATOM     12  C   UNL     1     -11.394 -16.201  33.056  1.00  0.00    -0.077 C 
ATOM     13  C   UNL     1     -11.750 -17.328  32.403  1.00  0.00    -0.028 C 
ATOM     14  C   UNL     1      -9.946 -15.871  33.328  1.00  0.00     0.039 C 
BRANCH  13  15
ATOM     15  C   UNL     1     -10.745 -18.325  31.873  1.00  0.00     0.035 C 
BRANCH  15  16
ATOM     16  C   UNL     1     -11.042 -18.728  30.422  1.00  0.00     0.079 C 
BRANCH  16  17
ATOM     17  C   UNL     1     -12.293 -19.560  30.318  1.00  0.00     0.130 C 
ATOM     18  O   UNL     1     -12.522 -20.417  31.159  1.00  0.00    -0.300 OA
ATOM     19  C   UNL     1     -13.250 -19.376  29.179  1.00  0.00     0.087 C 
ENDBRANCH  16  17
ENDBRANCH  15  16
ENDBRANCH  13  15
ENDBRANCH  11  12
ENDBRANCH   1  11
TORSDOF 9
ENDMDL
MODEL 4
REMARK VINA RESULT:    -5.865      2.029      5.116
REMARK INTER + INTRA:         -10.978
REMARK INTER:                  -9.020
REMARK INTRA:                  -1.957
REMARK UNBOUND:                -2.026
REMARK SMILES CC(=O)CCC=C(C)CCC=C(C)CCC=C(C)C
REMARK SMILES IDX 10 1 11 2 12 3 13 4 14 5 15 6 16 7 18 8 17 9 19 10 9 11 7 12
REMARK SMILES IDX 6 13 8 14 5 15 4 16 2 17 3 18 1 19
REMARK H PARENT
REMARK Flexibility Score: inf
ROOT
ATOM      1  C   UNL     1     -10.810 -15.496  29.429  1.00  0.00     0.032 C 
ENDROOT
BRANCH   1   2
ATOM      2  C   UNL     1     -10.518 -16.245  28.148  1.00  0.00    -0.028 C 
ATOM      3  C   UNL     1     -11.447 -16.705  27.278  1.00  0.00    -0.077 C 
ATOM      4  C   UNL     1     -10.974 -17.482  26.076  1.00  0.00     0.039 C 
BRANCH   3   5
ATOM      5  C   UNL     1     -12.934 -16.462  27.445  1.00  0.00     0.034 C 
BRANCH   5   6
ATOM      6  C   UNL     1     -13.666 -17.762  27.795  1.00  0.00     0.032 C 
BRANCH   6   7
ATOM      7  C   UNL     1     -13.148 -18.329  29.093  1.00  0.00    -0.028 C 
ATOM      8  C   UNL     1     -13.963 -20.645  28.596  1.00  0.00     0.039 C 
ATOM      9  C   UNL     1     -13.244 -19.631  29.450  1.00  0.00    -0.080 C 
ATOM     10  C   UNL     1     -12.657 -20.094  30.758  1.00  0.00     0.039 C 
ENDBRANCH   6   7
ENDBRANCH   5   6
ENDBRANCH   3   5
ENDBRANCH   1   2
BRANCH   1  11
ATOM     11  C   UNL     1      -9.924 -15.996  30.577  1.00  0.00     0.034 C 
BRANCH  11  12
ATOM     12  C   UNL     1     -10.744 -16.592  31.702  1.00  0.00    -0.077 C 
ATOM     13  C   UNL     1     -12.080 -16.398  31.719  1.00  0.00    -0.028 C 
ATOM     14  C   UNL     1     -10.051 -17.405  32.769  1.00  0.00     0.039 C 
BRANCH  13  15
ATOM     15  C   UNL     1     -12.985 -16.991  32.774  1.00  0.00     0.035 C 
BRANCH  15  16
ATOM     16  C   UNL     1     -14.418 -16.450  32.678  1.00  0.00     0.079 C 
BRANCH  16  17
ATOM     17  C   UNL     1     -14.442 -14.946  32.596  1.00  0.00     0.130 C 
ATOM     18  O   UNL     1     -14.182 -14.281  33.588  1.00  0.00    -0.300 OA
ATOM     19  C   UNL     1     -14.810 -14.248  31.320  1.00  0.00     0.087 C 
ENDBRANCH  16  17
ENDBRANCH  15  16
ENDBRANCH  13  15
ENDBRANCH  11  12
ENDBRANCH   1  11
TORSDOF 9
ENDMDL
MODEL 5
REMARK VINA RESULT:    -5.851      2.826      5.539
REMARK INTER + INTRA:         -10.956
REMARK INTER:                  -9.286
REMARK INTRA:                  -1.670
REMARK UNBOUND:                -2.026
REMARK SMILES CC(=O)CCC=C(C)CCC=C(C)CCC=C(C)C
REMARK SMILES IDX 10 1 11 2 12 3 13 4 14 5 15 6 16 7 18 8 17 9 19 10 9 11 7 12
REMARK SMILES IDX 6 13 8 14 5 15 4 16 2 17 3 18 1 19
REMARK H PARENT
REMARK Flexibility Score: inf
ROOT
ATOM      1  C   UNL     1     -13.122 -15.128  29.793  1.00  0.00     0.032 C 
ENDROOT
BRANCH   1   2
ATOM      2  C   UNL     1     -12.834 -15.840  28.490  1.00  0.00    -0.028 C 
ATOM      3  C   UNL     1     -11.651 -16.398  28.144  1.00  0.00    -0.077 C 
ATOM      4  C   UNL     1     -11.529 -17.020  26.777  1.00  0.00     0.039 C 
BRANCH   3   5
ATOM      5  C   UNL     1     -10.452 -16.444  29.071  1.00  0.00     0.034 C 
BRANCH   5   6
ATOM      6  C   UNL     1     -10.070 -17.890  29.402  1.00  0.00     0.032 C 
BRANCH   6   7
ATOM      7  C   UNL     1     -10.817 -18.371  30.620  1.00  0.00    -0.028 C 
ATOM      8  C   UNL     1     -12.524 -19.623  29.282  1.00  0.00     0.039 C 
ATOM      9  C   UNL     1     -11.900 -19.180  30.583  1.00  0.00    -0.080 C 
ATOM     10  C   UNL     1     -12.546 -19.629  31.867  1.00  0.00     0.039 C 
ENDBRANCH   6   7
ENDBRANCH   5   6
ENDBRANCH   3   5
ENDBRANCH   1   2
BRANCH   1  11
ATOM     11  C   UNL     1     -13.553 -16.119  30.882  1.00  0.00     0.034 C 
BRANCH  11  12
ATOM     12  C   UNL     1     -13.806 -15.426  32.204  1.00  0.00    -0.077 C 
ATOM     13  C   UNL     1     -12.835 -15.417  33.142  1.00  0.00    -0.028 C 
ATOM     14  C   UNL     1     -15.133 -14.744  32.438  1.00  0.00     0.039 C 
BRANCH  13  15
ATOM     15  C   UNL     1     -12.978 -14.712  34.471  1.00  0.00     0.035 C 
BRANCH  15  16
ATOM     16  C   UNL     1     -11.621 -14.305  35.060  1.00  0.00     0.079 C 
BRANCH  16  17
ATOM     17  C   UNL     1     -11.776 -13.567  36.363  1.00  0.00     0.130 C 
ATOM     18  O   UNL     1     -11.825 -14.194  37.412  1.00  0.00    -0.300 OA
ATOM     19  C   UNL     1     -11.901 -12.073  36.395  1.00  0.00     0.087 C 
ENDBRANCH  16  17
ENDBRANCH  15  16
ENDBRANCH  13  15
ENDBRANCH  11  12
ENDBRANCH   1  11
TORSDOF 9
ENDMDL
MODEL 6
REMARK VINA RESULT:    -5.773      2.773      6.132
REMARK INTER + INTRA:         -10.837
REMARK INTER:                  -9.098
REMARK INTRA:                  -1.739
REMARK UNBOUND:                -2.026
REMARK SMILES CC(=O)CCC=C(C)CCC=C(C)CCC=C(C)C
REMARK SMILES IDX 10 1 11 2 12 3 13 4 14 5 15 6 16 7 18 8 17 9 19 10 9 11 7 12
REMARK SMILES IDX 6 13 8 14 5 15 4 16 2 17 3 18 1 19
REMARK H PARENT
REMARK Flexibility Score: inf
ROOT
ATOM      1  C   UNL     1     -12.500 -18.044  32.147  1.00  0.00     0.032 C 
ENDROOT
BRANCH   1   2
ATOM      2  C   UNL     1     -13.209 -18.650  30.956  1.00  0.00    -0.028 C 
ATOM      3  C   UNL     1     -12.678 -18.806  29.721  1.00  0.00    -0.077 C 
ATOM      4  C   UNL     1     -13.553 -19.381  28.637  1.00  0.00     0.039 C 
BRANCH   3   5
ATOM      5  C   UNL     1     -11.244 -18.449  29.383  1.00  0.00     0.034 C 
BRANCH   5   6
ATOM      6  C   UNL     1     -11.189 -17.420  28.249  1.00  0.00     0.032 C 
BRANCH   6   7
ATOM      7  C   UNL     1     -11.927 -16.163  28.636  1.00  0.00    -0.028 C 
ATOM      8  C   UNL     1     -13.492 -16.285  26.685  1.00  0.00     0.039 C 
ATOM      9  C   UNL     1     -12.986 -15.661  27.962  1.00  0.00    -0.080 C 
ATOM     10  C   UNL     1     -13.671 -14.416  28.462  1.00  0.00     0.039 C 
ENDBRANCH   6   7
ENDBRANCH   5   6
ENDBRANCH   3   5
ENDBRANCH   1   2
BRANCH   1  11
ATOM     11  C   UNL     1     -12.534 -16.512  32.090  1.00  0.00     0.034 C 
BRANCH  11  12
ATOM     12  C   UNL     1     -11.289 -15.899  32.695  1.00  0.00    -0.077 C 
ATOM     13  C   UNL     1     -11.358 -15.340  33.923  1.00  0.00    -0.028 C 
ATOM     14  C   UNL     1      -9.994 -15.942  31.920  1.00  0.00     0.039 C 
BRANCH  13  15
ATOM     15  C   UNL     1     -10.159 -14.746  34.626  1.00  0.00     0.035 C 
BRANCH  15  16
ATOM     16  C   UNL     1     -10.493 -13.415  35.313  1.00  0.00     0.079 C 
BRANCH  16  17
ATOM     17  C   UNL     1     -11.629 -13.560  36.290  1.00  0.00     0.130 C 
ATOM     18  O   UNL     1     -11.486 -14.252  37.287  1.00  0.00    -0.300 OA
ATOM     19  C   UNL     1     -12.948 -12.890  36.045  1.00  0.00     0.087 C 
ENDBRANCH  16  17
ENDBRANCH  15  16
ENDBRANCH  13  15
ENDBRANCH  11  12
ENDBRANCH   1  11
TORSDOF 9
ENDMDL
MODEL 7
REMARK VINA RESULT:    -5.750      1.760      4.376
REMARK INTER + INTRA:         -10.802
REMARK INTER:                  -8.908
REMARK INTRA:                  -1.894
REMARK UNBOUND:                -2.026
REMARK SMILES CC(=O)CCC=C(C)CCC=C(C)CCC=C(C)C
REMARK SMILES IDX 10 1 11 2 12 3 13 4 14 5 15 6 16 7 18 8 17 9 19 10 9 11 7 12
REMARK SMILES IDX 6 13 8 14 5 15 4 16 2 17 3 18 1 19
REMARK H PARENT
REMARK Flexibility Score: inf
ROOT
ATOM      1  C   UNL     1     -11.228 -16.612  32.681  1.00  0.00     0.032 C 
ENDROOT
BRANCH   1   2
ATOM      2  C   UNL     1     -11.714 -15.539  33.629  1.00  0.00    -0.028 C 
ATOM      3  C   UNL     1     -12.995 -15.115  33.746  1.00  0.00    -0.077 C 
ATOM      4  C   UNL     1     -13.288 -13.992  34.707  1.00  0.00     0.039 C 
BRANCH   3   5
ATOM      5  C   UNL     1     -14.145 -15.728  32.973  1.00  0.00     0.034 C 
BRANCH   5   6
ATOM      6  C   UNL     1     -14.691 -14.745  31.932  1.00  0.00     0.032 C 
BRANCH   6   7
ATOM      7  C   UNL     1     -14.005 -14.942  30.604  1.00  0.00    -0.028 C 
ATOM      8  C   UNL     1     -15.470 -13.293  29.417  1.00  0.00     0.039 C 
ATOM      9  C   UNL     1     -14.322 -14.270  29.473  1.00  0.00    -0.080 C 
ATOM     10  C   UNL     1     -13.542 -14.522  28.209  1.00  0.00     0.039 C 
ENDBRANCH   6   7
ENDBRANCH   5   6
ENDBRANCH   3   5
ENDBRANCH   1   2
BRANCH   1  11
ATOM     11  C   UNL     1     -10.202 -16.051  31.688  1.00  0.00     0.034 C 
BRANCH  11  12
ATOM     12  C   UNL     1     -10.581 -16.357  30.255  1.00  0.00    -0.077 C 
ATOM     13  C   UNL     1     -11.286 -17.476  29.983  1.00  0.00    -0.028 C 
ATOM     14  C   UNL     1     -10.179 -15.394  29.163  1.00  0.00     0.039 C 
BRANCH  13  15
ATOM     15  C   UNL     1     -11.749 -17.841  28.591  1.00  0.00     0.035 C 
BRANCH  15  16
ATOM     16  C   UNL     1     -13.237 -18.214  28.556  1.00  0.00     0.079 C 
BRANCH  16  17
ATOM     17  C   UNL     1     -13.471 -19.622  29.038  1.00  0.00     0.130 C 
ATOM     18  O   UNL     1     -13.927 -20.457  28.270  1.00  0.00    -0.300 OA
ATOM     19  C   UNL     1     -13.180 -20.011  30.457  1.00  0.00     0.087 C 
ENDBRANCH  16  17
ENDBRANCH  15  16
ENDBRANCH  13  15
ENDBRANCH  11  12
ENDBRANCH   1  11
TORSDOF 9
ENDMDL
MODEL 8
REMARK VINA RESULT:    -5.546      2.721      6.072
REMARK INTER + INTRA:         -10.491
REMARK INTER:                  -9.021
REMARK INTRA:                  -1.469
REMARK UNBOUND:                -2.026
REMARK SMILES CC(=O)CCC=C(C)CCC=C(C)CCC=C(C)C
REMARK SMILES IDX 10 1 11 2 12 3 13 4 14 5 15 6 16 7 18 8 17 9 19 10 9 11 7 12
REMARK SMILES IDX 6 13 8 14 5 15 4 16 2 17 3 18 1 19
REMARK H PARENT
REMARK Flexibility Score: inf
ROOT
ATOM      1  C   UNL     1     -10.540 -15.580  29.632  1.00  0.00     0.032 C 
ENDROOT
BRANCH   1   2
ATOM      2  C   UNL     1     -10.357 -16.296  28.314  1.00  0.00    -0.028 C 
ATOM      3  C   UNL     1     -11.355 -16.708  27.498  1.00  0.00    -0.077 C 
ATOM      4  C   UNL     1     -10.986 -17.460  26.244  1.00  0.00     0.039 C 
BRANCH   3   5
ATOM      5  C   UNL     1     -12.820 -16.434  27.775  1.00  0.00     0.034 C 
BRANCH   5   6
ATOM      6  C   UNL     1     -13.574 -17.735  28.069  1.00  0.00     0.032 C 
BRANCH   6   7
ATOM      7  C   UNL     1     -13.127 -18.321  29.385  1.00  0.00    -0.028 C 
ATOM      8  C   UNL     1     -13.772 -20.657  28.750  1.00  0.00     0.039 C 
ATOM      9  C   UNL     1     -13.178 -19.638  29.691  1.00  0.00    -0.080 C 
ATOM     10  C   UNL     1     -12.669 -20.117  31.026  1.00  0.00     0.039 C 
ENDBRANCH   6   7
ENDBRANCH   5   6
ENDBRANCH   3   5
ENDBRANCH   1   2
BRANCH   1  11
ATOM     11  C   UNL     1     -10.201 -16.497  30.814  1.00  0.00     0.034 C 
BRANCH  11  12
ATOM     12  C   UNL     1     -10.909 -16.068  32.081  1.00  0.00    -0.077 C 
ATOM     13  C   UNL     1     -10.185 -15.563  33.103  1.00  0.00    -0.028 C 
ATOM     14  C   UNL     1     -12.411 -16.197  32.167  1.00  0.00     0.039 C 
BRANCH  13  15
ATOM     15  C   UNL     1     -10.807 -15.066  34.387  1.00  0.00     0.035 C 
BRANCH  15  16
ATOM     16  C   UNL     1     -10.001 -13.921  35.015  1.00  0.00     0.079 C 
BRANCH  16  17
ATOM     17  C   UNL     1     -10.751 -13.263  36.144  1.00  0.00     0.130 C 
ATOM     18  O   UNL     1     -11.355 -13.953  36.953  1.00  0.00    -0.300 OA
ATOM     19  C   UNL     1     -10.795 -11.770  36.275  1.00  0.00     0.087 C 
ENDBRANCH  16  17
ENDBRANCH  15  16
ENDBRANCH  13  15
ENDBRANCH  11  12
ENDBRANCH   1  11
TORSDOF 9
ENDMDL
MODEL 9
REMARK VINA RESULT:    -5.446      3.103      5.934
REMARK INTER + INTRA:         -10.339
REMARK INTER:                  -8.578
REMARK INTRA:                  -1.761
REMARK UNBOUND:                -2.026
REMARK SMILES CC(=O)CCC=C(C)CCC=C(C)CCC=C(C)C
REMARK SMILES IDX 10 1 11 2 12 3 13 4 14 5 15 6 16 7 18 8 17 9 19 10 9 11 7 12
REMARK SMILES IDX 6 13 8 14 5 15 4 16 2 17 3 18 1 19
REMARK H PARENT
REMARK Flexibility Score: inf
ROOT
ATOM      1  C   UNL     1     -13.207 -15.808  31.430  1.00  0.00     0.032 C 
ENDROOT
BRANCH   1   2
ATOM      2  C   UNL     1     -11.959 -15.563  30.611  1.00  0.00    -0.028 C 
ATOM      3  C   UNL     1     -11.761 -15.978  29.338  1.00  0.00    -0.077 C 
ATOM      4  C   UNL     1     -10.428 -15.692  28.695  1.00  0.00     0.039 C 
BRANCH   3   5
ATOM      5  C   UNL     1     -12.819 -16.698  28.526  1.00  0.00     0.034 C 
BRANCH   5   6
ATOM      6  C   UNL     1     -12.444 -18.169  28.318  1.00  0.00     0.032 C 
BRANCH   6   7
ATOM      7  C   UNL     1     -12.868 -18.998  29.505  1.00  0.00    -0.028 C 
ATOM      8  C   UNL     1     -10.585 -18.990  30.535  1.00  0.00     0.039 C 
ATOM      9  C   UNL     1     -12.051 -19.344  30.526  1.00  0.00    -0.080 C 
ATOM     10  C   UNL     1     -12.594 -20.145  31.681  1.00  0.00     0.039 C 
ENDBRANCH   6   7
ENDBRANCH   5   6
ENDBRANCH   3   5
ENDBRANCH   1   2
BRANCH   1  11
ATOM     11  C   UNL     1     -12.875 -16.521  32.747  1.00  0.00     0.034 C 
BRANCH  11  12
ATOM     12  C   UNL     1     -11.676 -15.902  33.434  1.00  0.00    -0.077 C 
ATOM     13  C   UNL     1     -11.858 -14.849  34.259  1.00  0.00    -0.028 C 
ATOM     14  C   UNL     1     -10.305 -16.488  33.196  1.00  0.00     0.039 C 
BRANCH  13  15
ATOM     15  C   UNL     1     -10.731 -14.196  35.024  1.00  0.00     0.035 C 
BRANCH  15  16
ATOM     16  C   UNL     1     -11.072 -14.007  36.509  1.00  0.00     0.079 C 
BRANCH  16  17
ATOM     17  C   UNL     1     -11.894 -12.767  36.740  1.00  0.00     0.130 C 
ATOM     18  O   UNL     1     -13.030 -12.867  37.180  1.00  0.00    -0.300 OA
ATOM     19  C   UNL     1     -11.352 -11.408  36.411  1.00  0.00     0.087 C 
ENDBRANCH  16  17
ENDBRANCH  15  16
ENDBRANCH  13  15
ENDBRANCH  11  12
ENDBRANCH   1  11
TORSDOF 9
ENDMDL
