MODEL 1
REMARK VINA RESULT:    -4.888      0.000      0.000
REMARK INTER + INTRA:         -16.832
REMARK INTER:                 -12.317
REMARK INTRA:                  -4.515
REMARK UNBOUND:                -4.515
REMARK SMILES CCCCCCCCCCCCCCCCCCCCCCCCCCCC(=O)[O-]
REMARK SMILES IDX 15 1 16 2 17 3 18 4 19 5 20 6 21 7 22 8 23 9 24 10 25 11
REMARK SMILES IDX 26 12 27 13 28 14 29 15 30 16 14 17 13 18 12 19 11 20 10 21
REMARK SMILES IDX 9 22 8 23 7 24 6 25 5 26 4 27 3 28 2 29 1 30
REMARK H PARENT
REMARK Flexibility Score: inf
ROOT
ATOM      1  C   UNL     1       4.597  24.832  52.794  1.00  0.00     0.000 C 
ENDROOT
BRANCH   1   2
ATOM      2  C   UNL     1       4.937  24.285  51.402  1.00  0.00     0.000 C 
BRANCH   2   3
ATOM      3  C   UNL     1       4.895  22.750  51.389  1.00  0.00     0.000 C 
BRANCH   3   4
ATOM      4  C   UNL     1       4.135  22.163  52.592  1.00  0.00     0.000 C 
BRANCH   4   5
ATOM      5  C   UNL     1       2.742  21.583  52.268  1.00  0.00     0.000 C 
BRANCH   5   6
ATOM      6  C   UNL     1       2.120  22.065  50.945  1.00  0.00     0.000 C 
BRANCH   6   7
ATOM      7  C   UNL     1       1.021  23.122  51.151  1.00  0.00     0.000 C 
BRANCH   7   8
ATOM      8  C   UNL     1       1.275  24.402  50.339  1.00  0.00     0.000 C 
BRANCH   8   9
ATOM      9  C   UNL     1       1.953  24.120  48.986  1.00  0.00     0.000 C 
BRANCH   9  10
ATOM     10  C   UNL     1       1.182  24.728  47.803  1.00  0.00     0.000 C 
BRANCH  10  11
ATOM     11  C   UNL     1       1.983  24.698  46.492  1.00  0.00     0.000 C 
BRANCH  11  12
ATOM     12  C   UNL     1       1.567  23.499  45.626  1.00  0.00     0.006 C 
BRANCH  12  13
ATOM     13  C   UNL     1       2.764  22.621  45.231  1.00  0.00     0.053 C 
BRANCH  13  14
ATOM     14  C   UNL     1       3.065  22.704  43.765  1.00  0.00     0.041 C 
ATOM     15  O   UNL     1       2.538  21.889  42.962  1.00  0.00    -0.550 OA
ATOM     16  O   UNL     1       3.921  23.688  43.287  1.00  0.00    -0.550 OA
ENDBRANCH  13  14
ENDBRANCH  12  13
ENDBRANCH  11  12
ENDBRANCH  10  11
ENDBRANCH   9  10
ENDBRANCH   8   9
ENDBRANCH   7   8
ENDBRANCH   6   7
ENDBRANCH   5   6
ENDBRANCH   4   5
ENDBRANCH   3   4
ENDBRANCH   2   3
ENDBRANCH   1   2
BRANCH   1  17
ATOM     17  C   UNL     1       3.800  26.141  52.694  1.00  0.00     0.000 C 
BRANCH  17  18
ATOM     18  C   UNL     1       2.446  26.077  53.424  1.00  0.00     0.000 C 
BRANCH  18  19
ATOM     19  C   UNL     1       2.227  24.815  54.278  1.00  0.00     0.000 C 
BRANCH  19  20
ATOM     20  C   UNL     1       0.754  24.386  54.344  1.00  0.00     0.000 C 
BRANCH  20  21
ATOM     21  C   UNL     1      -0.167  25.521  53.868  1.00  0.00     0.000 C 
BRANCH  21  22
ATOM     22  C   UNL     1      -1.353  25.767  54.813  1.00  0.00    -0.000 C 
BRANCH  22  23
ATOM     23  C   UNL     1      -2.097  24.470  55.177  1.00  0.00    -0.000 C 
BRANCH  23  24
ATOM     24  C   UNL     1      -2.045  24.153  56.685  1.00  0.00    -0.000 C 
BRANCH  24  25
ATOM     25  C   UNL     1      -1.119  25.062  57.513  1.00  0.00    -0.000 C 
BRANCH  25  26
ATOM     26  C   UNL     1       0.173  24.360  57.954  1.00  0.00    -0.000 C 
BRANCH  26  27
ATOM     27  C   UNL     1       0.057  22.838  57.796  1.00  0.00    -0.000 C 
BRANCH  27  28
ATOM     28  C   UNL     1       1.288  22.211  57.119  1.00  0.00    -0.000 C 
BRANCH  28  29
ATOM     29  C   UNL     1       2.631  22.734  57.666  1.00  0.00    -0.003 C 
ATOM     30  C   UNL     1       3.794  22.463  56.712  1.00  0.00     0.004 C 
ENDBRANCH  28  29
ENDBRANCH  27  28
ENDBRANCH  26  27
ENDBRANCH  25  26
ENDBRANCH  24  25
ENDBRANCH  23  24
ENDBRANCH  22  23
ENDBRANCH  21  22
ENDBRANCH  20  21
ENDBRANCH  19  20
ENDBRANCH  18  19
ENDBRANCH  17  18
ENDBRANCH   1  17
TORSDOF 26
ENDMDL
MODEL 2
REMARK VINA RESULT:    -4.764      4.117      8.988
REMARK INTER + INTRA:         -16.519
REMARK INTER:                 -12.399
REMARK INTRA:                  -4.120
REMARK UNBOUND:                -4.515
REMARK SMILES CCCCCCCCCCCCCCCCCCCCCCCCCCCC(=O)[O-]
REMARK SMILES IDX 15 1 16 2 17 3 18 4 19 5 20 6 21 7 22 8 23 9 24 10 25 11
REMARK SMILES IDX 26 12 27 13 28 14 29 15 30 16 14 17 13 18 12 19 11 20 10 21
REMARK SMILES IDX 9 22 8 23 7 24 6 25 5 26 4 27 3 28 2 29 1 30
REMARK H PARENT
REMARK Flexibility Score: inf
ROOT
ATOM      1  C   UNL     1       4.999  24.406  52.757  1.00  0.00     0.000 C 
ENDROOT
BRANCH   1   2
ATOM      2  C   UNL     1       4.429  25.652  52.069  1.00  0.00     0.000 C 
BRANCH   2   3
ATOM      3  C   UNL     1       3.397  26.350  52.967  1.00  0.00     0.000 C 
BRANCH   3   4
ATOM      4  C   UNL     1       2.641  25.371  53.882  1.00  0.00     0.000 C 
BRANCH   4   5
ATOM      5  C   UNL     1       1.470  25.987  54.678  1.00  0.00     0.000 C 
BRANCH   5   6
ATOM      6  C   UNL     1       0.148  26.128  53.900  1.00  0.00     0.000 C 
BRANCH   6   7
ATOM      7  C   UNL     1      -1.084  26.174  54.819  1.00  0.00     0.000 C 
BRANCH   7   8
ATOM      8  C   UNL     1      -1.772  24.805  54.952  1.00  0.00     0.000 C 
BRANCH   8   9
ATOM      9  C   UNL     1      -2.327  24.556  56.366  1.00  0.00     0.000 C 
BRANCH   9  10
ATOM     10  C   UNL     1      -1.640  23.374  57.068  1.00  0.00     0.000 C 
BRANCH  10  11
ATOM     11  C   UNL     1      -0.155  23.638  57.364  1.00  0.00     0.000 C 
BRANCH  11  12
ATOM     12  C   UNL     1       0.731  22.568  56.707  1.00  0.00     0.006 C 
BRANCH  12  13
ATOM     13  C   UNL     1       2.192  22.653  57.174  1.00  0.00     0.053 C 
BRANCH  13  14
ATOM     14  C   UNL     1       2.524  21.596  58.183  1.00  0.00     0.041 C 
ATOM     15  O   UNL     1       3.528  20.853  58.017  1.00  0.00    -0.550 OA
ATOM     16  O   UNL     1       1.729  21.438  59.311  1.00  0.00    -0.550 OA
ENDBRANCH  13  14
ENDBRANCH  12  13
ENDBRANCH  11  12
ENDBRANCH  10  11
ENDBRANCH   9  10
ENDBRANCH   8   9
ENDBRANCH   7   8
ENDBRANCH   6   7
ENDBRANCH   5   6
ENDBRANCH   4   5
ENDBRANCH   3   4
ENDBRANCH   2   3
ENDBRANCH   1   2
BRANCH   1  17
ATOM     17  C   UNL     1       5.448  23.361  51.725  1.00  0.00     0.000 C 
BRANCH  17  18
ATOM     18  C   UNL     1       4.416  22.237  51.521  1.00  0.00     0.000 C 
BRANCH  18  19
ATOM     19  C   UNL     1       3.817  21.662  52.817  1.00  0.00     0.000 C 
BRANCH  19  20
ATOM     20  C   UNL     1       2.305  21.902  52.935  1.00  0.00     0.000 C 
BRANCH  20  21
ATOM     21  C   UNL     1       1.685  22.170  51.554  1.00  0.00     0.000 C 
BRANCH  21  22
ATOM     22  C   UNL     1       0.560  23.215  51.594  1.00  0.00    -0.000 C 
BRANCH  22  23
ATOM     23  C   UNL     1       0.881  24.462  50.752  1.00  0.00    -0.000 C 
BRANCH  23  24
ATOM     24  C   UNL     1       1.961  24.201  49.684  1.00  0.00    -0.000 C 
BRANCH  24  25
ATOM     25  C   UNL     1       1.919  25.143  48.467  1.00  0.00    -0.000 C 
BRANCH  25  26
ATOM     26  C   UNL     1       0.986  24.643  47.354  1.00  0.00    -0.000 C 
BRANCH  26  27
ATOM     27  C   UNL     1       1.681  24.692  45.986  1.00  0.00    -0.000 C 
BRANCH  27  28
ATOM     28  C   UNL     1       1.472  23.411  45.162  1.00  0.00    -0.000 C 
BRANCH  28  29
ATOM     29  C   UNL     1       2.726  22.517  45.078  1.00  0.00    -0.003 C 
ATOM     30  C   UNL     1       3.606  22.859  43.876  1.00  0.00     0.004 C 
ENDBRANCH  28  29
ENDBRANCH  27  28
ENDBRANCH  26  27
ENDBRANCH  25  26
ENDBRANCH  24  25
ENDBRANCH  23  24
ENDBRANCH  22  23
ENDBRANCH  21  22
ENDBRANCH  20  21
ENDBRANCH  19  20
ENDBRANCH  18  19
ENDBRANCH  17  18
ENDBRANCH   1  17
TORSDOF 26
ENDMDL
MODEL 3
REMARK VINA RESULT:    -4.760      3.725      9.308
REMARK INTER + INTRA:         -16.511
REMARK INTER:                 -12.651
REMARK INTRA:                  -3.860
REMARK UNBOUND:                -4.515
REMARK SMILES CCCCCCCCCCCCCCCCCCCCCCCCCCCC(=O)[O-]
REMARK SMILES IDX 15 1 16 2 17 3 18 4 19 5 20 6 21 7 22 8 23 9 24 10 25 11
REMARK SMILES IDX 26 12 27 13 28 14 29 15 30 16 14 17 13 18 12 19 11 20 10 21
REMARK SMILES IDX 9 22 8 23 7 24 6 25 5 26 4 27 3 28 2 29 1 30
REMARK H PARENT
REMARK Flexibility Score: inf
ROOT
ATOM      1  C   UNL     1       4.241  22.479  52.250  1.00  0.00     0.000 C 
ENDROOT
BRANCH   1   2
ATOM      2  C   UNL     1       3.127  21.502  51.853  1.00  0.00     0.000 C 
BRANCH   2   3
ATOM      3  C   UNL     1       1.743  22.124  52.089  1.00  0.00     0.000 C 
BRANCH   3   4
ATOM      4  C   UNL     1       1.771  23.277  53.109  1.00  0.00     0.000 C 
BRANCH   4   5
ATOM      5  C   UNL     1       0.481  24.122  53.180  1.00  0.00     0.000 C 
BRANCH   5   6
ATOM      6  C   UNL     1       0.625  25.483  53.885  1.00  0.00     0.000 C 
BRANCH   6   7
ATOM      7  C   UNL     1      -0.712  26.022  54.422  1.00  0.00     0.000 C 
BRANCH   7   8
ATOM      8  C   UNL     1      -1.667  24.901  54.861  1.00  0.00     0.000 C 
BRANCH   8   9
ATOM      9  C   UNL     1      -2.047  24.996  56.350  1.00  0.00     0.000 C 
BRANCH   9  10
ATOM     10  C   UNL     1      -1.705  23.715  57.127  1.00  0.00     0.000 C 
BRANCH  10  11
ATOM     11  C   UNL     1      -0.376  23.085  56.682  1.00  0.00     0.000 C 
BRANCH  11  12
ATOM     12  C   UNL     1       0.772  23.525  57.605  1.00  0.00     0.006 C 
BRANCH  12  13
ATOM     13  C   UNL     1       2.063  23.822  56.829  1.00  0.00     0.053 C 
BRANCH  13  14
ATOM     14  C   UNL     1       3.025  22.674  56.876  1.00  0.00     0.041 C 
ATOM     15  O   UNL     1       2.997  21.862  57.839  1.00  0.00    -0.550 OA
ATOM     16  O   UNL     1       3.946  22.496  55.851  1.00  0.00    -0.550 OA
ENDBRANCH  13  14
ENDBRANCH  12  13
ENDBRANCH  11  12
ENDBRANCH  10  11
ENDBRANCH   9  10
ENDBRANCH   8   9
ENDBRANCH   7   8
ENDBRANCH   6   7
ENDBRANCH   5   6
ENDBRANCH   4   5
ENDBRANCH   3   4
ENDBRANCH   2   3
ENDBRANCH   1   2
BRANCH   1  17
ATOM     17  C   UNL     1       5.044  22.930  51.021  1.00  0.00     0.000 C 
BRANCH  17  18
ATOM     18  C   UNL     1       5.429  24.420  51.069  1.00  0.00     0.000 C 
BRANCH  18  19
ATOM     19  C   UNL     1       4.337  25.355  51.620  1.00  0.00     0.000 C 
BRANCH  19  20
ATOM     20  C   UNL     1       4.089  26.577  50.722  1.00  0.00     0.000 C 
BRANCH  20  21
ATOM     21  C   UNL     1       3.164  26.214  49.549  1.00  0.00     0.000 C 
BRANCH  21  22
ATOM     22  C   UNL     1       2.033  25.255  49.952  1.00  0.00    -0.000 C 
BRANCH  22  23
ATOM     23  C   UNL     1       1.844  24.108  48.945  1.00  0.00    -0.000 C 
BRANCH  23  24
ATOM     24  C   UNL     1       1.253  24.580  47.603  1.00  0.00    -0.000 C 
BRANCH  24  25
ATOM     25  C   UNL     1       1.669  23.750  46.375  1.00  0.00    -0.000 C 
BRANCH  25  26
ATOM     26  C   UNL     1       1.678  24.565  45.074  1.00  0.00    -0.000 C 
BRANCH  26  27
ATOM     27  C   UNL     1       2.945  24.284  44.254  1.00  0.00    -0.000 C 
BRANCH  27  28
ATOM     28  C   UNL     1       3.258  22.784  44.130  1.00  0.00    -0.000 C 
BRANCH  28  29
ATOM     29  C   UNL     1       2.678  22.132  42.858  1.00  0.00    -0.003 C 
ATOM     30  C   UNL     1       1.493  21.215  43.162  1.00  0.00     0.004 C 
ENDBRANCH  28  29
ENDBRANCH  27  28
ENDBRANCH  26  27
ENDBRANCH  25  26
ENDBRANCH  24  25
ENDBRANCH  23  24
ENDBRANCH  22  23
ENDBRANCH  21  22
ENDBRANCH  20  21
ENDBRANCH  19  20
ENDBRANCH  18  19
ENDBRANCH  17  18
ENDBRANCH   1  17
TORSDOF 26
ENDMDL
MODEL 4
REMARK VINA RESULT:    -4.759      1.310      2.659
REMARK INTER + INTRA:         -16.508
REMARK INTER:                 -12.490
REMARK INTRA:                  -4.018
REMARK UNBOUND:                -4.515
REMARK SMILES CCCCCCCCCCCCCCCCCCCCCCCCCCCC(=O)[O-]
REMARK SMILES IDX 15 1 16 2 17 3 18 4 19 5 20 6 21 7 22 8 23 9 24 10 25 11
REMARK SMILES IDX 26 12 27 13 28 14 29 15 30 16 14 17 13 18 12 19 11 20 10 21
REMARK SMILES IDX 9 22 8 23 7 24 6 25 5 26 4 27 3 28 2 29 1 30
REMARK H PARENT
REMARK Flexibility Score: inf
ROOT
ATOM      1  C   UNL     1       4.259  22.247  52.695  1.00  0.00     0.000 C 
ENDROOT
BRANCH   1   2
ATOM      2  C   UNL     1       5.008  22.629  51.413  1.00  0.00     0.000 C 
BRANCH   2   3
ATOM      3  C   UNL     1       4.325  23.812  50.711  1.00  0.00     0.000 C 
BRANCH   3   4
ATOM      4  C   UNL     1       4.314  25.090  51.568  1.00  0.00     0.000 C 
BRANCH   4   5
ATOM      5  C   UNL     1       3.348  26.195  51.087  1.00  0.00     0.000 C 
BRANCH   5   6
ATOM      6  C   UNL     1       2.902  26.085  49.618  1.00  0.00     0.000 C 
BRANCH   6   7
ATOM      7  C   UNL     1       1.496  26.658  49.375  1.00  0.00     0.000 C 
BRANCH   7   8
ATOM      8  C   UNL     1       0.812  26.043  48.144  1.00  0.00     0.000 C 
BRANCH   8   9
ATOM      9  C   UNL     1       1.229  24.580  47.905  1.00  0.00     0.000 C 
BRANCH   9  10
ATOM     10  C   UNL     1       1.161  24.184  46.421  1.00  0.00     0.000 C 
BRANCH  10  11
ATOM     11  C   UNL     1       2.306  23.248  46.003  1.00  0.00     0.000 C 
BRANCH  11  12
ATOM     12  C   UNL     1       2.100  22.743  44.567  1.00  0.00     0.006 C 
BRANCH  12  13
ATOM     13  C   UNL     1       3.405  22.736  43.757  1.00  0.00     0.053 C 
BRANCH  13  14
ATOM     14  C   UNL     1       3.622  24.027  43.027  1.00  0.00     0.041 C 
ATOM     15  O   UNL     1       3.364  24.110  41.796  1.00  0.00    -0.550 OA
ATOM     16  O   UNL     1       4.100  25.140  43.707  1.00  0.00    -0.550 OA
ENDBRANCH  13  14
ENDBRANCH  12  13
ENDBRANCH  11  12
ENDBRANCH  10  11
ENDBRANCH   9  10
ENDBRANCH   8   9
ENDBRANCH   7   8
ENDBRANCH   6   7
ENDBRANCH   5   6
ENDBRANCH   4   5
ENDBRANCH   3   4
ENDBRANCH   2   3
ENDBRANCH   1   2
BRANCH   1  17
ATOM     17  C   UNL     1       3.076  21.316  52.389  1.00  0.00     0.000 C 
BRANCH  17  18
ATOM     18  C   UNL     1       1.719  21.917  52.795  1.00  0.00     0.000 C 
BRANCH  18  19
ATOM     19  C   UNL     1       0.881  22.477  51.631  1.00  0.00     0.000 C 
BRANCH  19  20
ATOM     20  C   UNL     1       0.517  23.958  51.815  1.00  0.00     0.000 C 
BRANCH  20  21
ATOM     21  C   UNL     1       0.582  24.356  53.298  1.00  0.00     0.000 C 
BRANCH  21  22
ATOM     22  C   UNL     1       0.390  25.864  53.522  1.00  0.00    -0.000 C 
BRANCH  22  23
ATOM     23  C   UNL     1      -0.821  26.179  54.418  1.00  0.00    -0.000 C 
BRANCH  23  24
ATOM     24  C   UNL     1      -1.661  24.931  54.750  1.00  0.00    -0.000 C 
BRANCH  24  25
ATOM     25  C   UNL     1      -2.145  24.836  56.208  1.00  0.00    -0.000 C 
BRANCH  25  26
ATOM     26  C   UNL     1      -1.885  23.461  56.839  1.00  0.00    -0.000 C 
BRANCH  26  27
ATOM     27  C   UNL     1      -0.545  23.439  57.586  1.00  0.00    -0.000 C 
BRANCH  27  28
ATOM     28  C   UNL     1       0.528  22.605  56.866  1.00  0.00    -0.000 C 
BRANCH  28  29
ATOM     29  C   UNL     1       1.696  23.444  56.309  1.00  0.00    -0.003 C 
ATOM     30  C   UNL     1       1.849  24.782  57.033  1.00  0.00     0.004 C 
ENDBRANCH  28  29
ENDBRANCH  27  28
ENDBRANCH  26  27
ENDBRANCH  25  26
ENDBRANCH  24  25
ENDBRANCH  23  24
ENDBRANCH  22  23
ENDBRANCH  21  22
ENDBRANCH  20  21
ENDBRANCH  19  20
ENDBRANCH  18  19
ENDBRANCH  17  18
ENDBRANCH   1  17
TORSDOF 26
ENDMDL
MODEL 5
REMARK VINA RESULT:    -4.742      4.218      8.490
REMARK INTER + INTRA:         -16.464
REMARK INTER:                 -10.578
REMARK INTRA:                  -5.886
REMARK UNBOUND:                -4.515
REMARK SMILES CCCCCCCCCCCCCCCCCCCCCCCCCCCC(=O)[O-]
REMARK SMILES IDX 15 1 16 2 17 3 18 4 19 5 20 6 21 7 22 8 23 9 24 10 25 11
REMARK SMILES IDX 26 12 27 13 28 14 29 15 30 16 14 17 13 18 12 19 11 20 10 21
REMARK SMILES IDX 9 22 8 23 7 24 6 25 5 26 4 27 3 28 2 29 1 30
REMARK H PARENT
REMARK Flexibility Score: inf
ROOT
ATOM      1  C   UNL     1       1.438  26.251  55.133  1.00  0.00     0.000 C 
ENDROOT
BRANCH   1   2
ATOM      2  C   UNL     1       0.979  25.654  53.797  1.00  0.00     0.000 C 
BRANCH   2   3
ATOM      3  C   UNL     1      -0.247  24.750  53.992  1.00  0.00     0.000 C 
BRANCH   3   4
ATOM      4  C   UNL     1      -1.362  25.423  54.812  1.00  0.00     0.000 C 
BRANCH   4   5
ATOM      5  C   UNL     1      -2.415  24.461  55.402  1.00  0.00     0.000 C 
BRANCH   5   6
ATOM      6  C   UNL     1      -1.991  23.732  56.690  1.00  0.00     0.000 C 
BRANCH   6   7
ATOM      7  C   UNL     1      -1.091  24.590  57.595  1.00  0.00     0.000 C 
BRANCH   7   8
ATOM      8  C   UNL     1       0.232  23.890  57.946  1.00  0.00     0.000 C 
BRANCH   8   9
ATOM      9  C   UNL     1       0.558  22.728  56.991  1.00  0.00     0.000 C 
BRANCH   9  10
ATOM     10  C   UNL     1       1.976  22.173  57.201  1.00  0.00     0.000 C 
BRANCH  10  11
ATOM     11  C   UNL     1       2.657  22.741  58.457  1.00  0.00     0.000 C 
BRANCH  11  12
ATOM     12  C   UNL     1       4.186  22.642  58.340  1.00  0.00     0.006 C 
BRANCH  12  13
ATOM     13  C   UNL     1       4.725  21.300  58.857  1.00  0.00     0.053 C 
BRANCH  13  14
ATOM     14  C   UNL     1       5.162  20.401  57.741  1.00  0.00     0.041 C 
ATOM     15  O   UNL     1       4.659  19.252  57.618  1.00  0.00    -0.550 OA
ATOM     16  O   UNL     1       6.118  20.835  56.832  1.00  0.00    -0.550 OA
ENDBRANCH  13  14
ENDBRANCH  12  13
ENDBRANCH  11  12
ENDBRANCH  10  11
ENDBRANCH   9  10
ENDBRANCH   8   9
ENDBRANCH   7   8
ENDBRANCH   6   7
ENDBRANCH   5   6
ENDBRANCH   4   5
ENDBRANCH   3   4
ENDBRANCH   2   3
ENDBRANCH   1   2
BRANCH   1  17
ATOM     17  C   UNL     1       2.695  25.538  55.654  1.00  0.00     0.000 C 
BRANCH  17  18
ATOM     18  C   UNL     1       3.490  24.834  54.541  1.00  0.00     0.000 C 
BRANCH  18  19
ATOM     19  C   UNL     1       4.504  23.784  55.030  1.00  0.00     0.000 C 
BRANCH  19  20
ATOM     20  C   UNL     1       4.424  22.465  54.248  1.00  0.00     0.000 C 
BRANCH  20  21
ATOM     21  C   UNL     1       3.089  22.356  53.495  1.00  0.00     0.000 C 
BRANCH  21  22
ATOM     22  C   UNL     1       3.123  21.322  52.359  1.00  0.00    -0.000 C 
BRANCH  22  23
ATOM     23  C   UNL     1       2.424  21.821  51.083  1.00  0.00    -0.000 C 
BRANCH  23  24
ATOM     24  C   UNL     1       1.273  22.803  51.376  1.00  0.00    -0.000 C 
BRANCH  24  25
ATOM     25  C   UNL     1       1.189  24.014  50.429  1.00  0.00    -0.000 C 
BRANCH  25  26
ATOM     26  C   UNL     1       2.564  24.481  49.928  1.00  0.00    -0.000 C 
BRANCH  26  27
ATOM     27  C   UNL     1       3.257  25.373  50.967  1.00  0.00    -0.000 C 
BRANCH  27  28
ATOM     28  C   UNL     1       4.750  25.589  50.669  1.00  0.00    -0.000 C 
BRANCH  28  29
ATOM     29  C   UNL     1       5.688  24.736  51.547  1.00  0.00    -0.003 C 
ATOM     30  C   UNL     1       5.954  23.356  50.946  1.00  0.00     0.004 C 
ENDBRANCH  28  29
ENDBRANCH  27  28
ENDBRANCH  26  27
ENDBRANCH  25  26
ENDBRANCH  24  25
ENDBRANCH  23  24
ENDBRANCH  22  23
ENDBRANCH  21  22
ENDBRANCH  20  21
ENDBRANCH  19  20
ENDBRANCH  18  19
ENDBRANCH  17  18
ENDBRANCH   1  17
TORSDOF 26
ENDMDL
MODEL 6
REMARK VINA RESULT:    -4.637      3.517      6.340
REMARK INTER + INTRA:         -16.199
REMARK INTER:                 -10.356
REMARK INTRA:                  -5.843
REMARK UNBOUND:                -4.515
REMARK SMILES CCCCCCCCCCCCCCCCCCCCCCCCCCCC(=O)[O-]
REMARK SMILES IDX 15 1 16 2 17 3 18 4 19 5 20 6 21 7 22 8 23 9 24 10 25 11
REMARK SMILES IDX 26 12 27 13 28 14 29 15 30 16 14 17 13 18 12 19 11 20 10 21
REMARK SMILES IDX 9 22 8 23 7 24 6 25 5 26 4 27 3 28 2 29 1 30
REMARK H PARENT
REMARK Flexibility Score: inf
ROOT
ATOM      1  C   UNL     1       0.283  22.796  56.633  1.00  0.00     0.000 C 
ENDROOT
BRANCH   1   2
ATOM      2  C   UNL     1      -0.823  23.436  57.481  1.00  0.00     0.000 C 
BRANCH   2   3
ATOM      3  C   UNL     1      -2.085  23.684  56.641  1.00  0.00     0.000 C 
BRANCH   3   4
ATOM      4  C   UNL     1      -2.488  25.168  56.593  1.00  0.00     0.000 C 
BRANCH   4   5
ATOM      5  C   UNL     1      -1.369  26.166  56.960  1.00  0.00     0.000 C 
BRANCH   5   6
ATOM      6  C   UNL     1      -0.621  26.785  55.765  1.00  0.00     0.000 C 
BRANCH   6   7
ATOM      7  C   UNL     1      -0.954  26.098  54.430  1.00  0.00     0.000 C 
BRANCH   7   8
ATOM      8  C   UNL     1       0.301  25.787  53.598  1.00  0.00     0.000 C 
BRANCH   8   9
ATOM      9  C   UNL     1       0.384  24.306  53.185  1.00  0.00     0.000 C 
BRANCH   9  10
ATOM     10  C   UNL     1       1.832  23.795  53.117  1.00  0.00     0.000 C 
BRANCH  10  11
ATOM     11  C   UNL     1       1.932  22.269  53.274  1.00  0.00     0.000 C 
BRANCH  11  12
ATOM     12  C   UNL     1       3.361  21.784  52.983  1.00  0.00     0.006 C 
BRANCH  12  13
ATOM     13  C   UNL     1       4.311  22.940  52.635  1.00  0.00     0.053 C 
BRANCH  13  14
ATOM     14  C   UNL     1       4.677  22.950  51.182  1.00  0.00     0.041 C 
ATOM     15  O   UNL     1       5.887  23.000  50.833  1.00  0.00    -0.550 OA
ATOM     16  O   UNL     1       3.683  22.895  50.213  1.00  0.00    -0.550 OA
ENDBRANCH  13  14
ENDBRANCH  12  13
ENDBRANCH  11  12
ENDBRANCH  10  11
ENDBRANCH   9  10
ENDBRANCH   8   9
ENDBRANCH   7   8
ENDBRANCH   6   7
ENDBRANCH   5   6
ENDBRANCH   4   5
ENDBRANCH   3   4
ENDBRANCH   2   3
ENDBRANCH   1   2
BRANCH   1  17
ATOM     17  C   UNL     1       1.287  22.038  57.513  1.00  0.00     0.000 C 
BRANCH  17  18
ATOM     18  C   UNL     1       1.160  22.388  59.007  1.00  0.00     0.000 C 
BRANCH  18  19
ATOM     19  C   UNL     1       2.493  22.661  59.726  1.00  0.00     0.000 C 
BRANCH  19  20
ATOM     20  C   UNL     1       2.610  24.103  60.242  1.00  0.00     0.000 C 
BRANCH  20  21
ATOM     21  C   UNL     1       1.399  24.941  59.801  1.00  0.00     0.000 C 
BRANCH  21  22
ATOM     22  C   UNL     1       1.799  26.255  59.112  1.00  0.00    -0.000 C 
BRANCH  22  23
ATOM     23  C   UNL     1       2.987  26.081  58.151  1.00  0.00    -0.000 C 
BRANCH  23  24
ATOM     24  C   UNL     1       2.559  25.603  56.750  1.00  0.00    -0.000 C 
BRANCH  24  25
ATOM     25  C   UNL     1       3.532  24.625  56.067  1.00  0.00    -0.000 C 
BRANCH  25  26
ATOM     26  C   UNL     1       4.589  24.061  57.027  1.00  0.00    -0.000 C 
BRANCH  26  27
ATOM     27  C   UNL     1       5.345  22.887  56.390  1.00  0.00    -0.000 C 
BRANCH  27  28
ATOM     28  C   UNL     1       4.658  21.532  56.629  1.00  0.00    -0.000 C 
BRANCH  28  29
ATOM     29  C   UNL     1       5.176  20.786  57.875  1.00  0.00    -0.003 C 
ATOM     30  C   UNL     1       4.677  19.342  57.939  1.00  0.00     0.004 C 
ENDBRANCH  28  29
ENDBRANCH  27  28
ENDBRANCH  26  27
ENDBRANCH  25  26
ENDBRANCH  24  25
ENDBRANCH  23  24
ENDBRANCH  22  23
ENDBRANCH  21  22
ENDBRANCH  20  21
ENDBRANCH  19  20
ENDBRANCH  18  19
ENDBRANCH  17  18
ENDBRANCH   1  17
TORSDOF 26
ENDMDL
MODEL 7
REMARK VINA RESULT:    -4.621      1.241      3.435
REMARK INTER + INTRA:         -16.159
REMARK INTER:                 -11.465
REMARK INTRA:                  -4.694
REMARK UNBOUND:                -4.515
REMARK SMILES CCCCCCCCCCCCCCCCCCCCCCCCCCCC(=O)[O-]
REMARK SMILES IDX 15 1 16 2 17 3 18 4 19 5 20 6 21 7 22 8 23 9 24 10 25 11
REMARK SMILES IDX 26 12 27 13 28 14 29 15 30 16 14 17 13 18 12 19 11 20 10 21
REMARK SMILES IDX 9 22 8 23 7 24 6 25 5 26 4 27 3 28 2 29 1 30
REMARK H PARENT
REMARK Flexibility Score: inf
ROOT
ATOM      1  C   UNL     1       1.707  22.315  51.310  1.00  0.00     0.000 C 
ENDROOT
BRANCH   1   2
ATOM      2  C   UNL     1       2.334  21.902  52.648  1.00  0.00     0.000 C 
BRANCH   2   3
ATOM      3  C   UNL     1       3.866  21.870  52.549  1.00  0.00     0.000 C 
BRANCH   3   4
ATOM      4  C   UNL     1       4.397  22.551  51.275  1.00  0.00     0.000 C 
BRANCH   4   5
ATOM      5  C   UNL     1       5.528  23.577  51.502  1.00  0.00     0.000 C 
BRANCH   5   6
ATOM      6  C   UNL     1       5.298  24.962  50.871  1.00  0.00     0.000 C 
BRANCH   6   7
ATOM      7  C   UNL     1       3.820  25.389  50.890  1.00  0.00     0.000 C 
BRANCH   7   8
ATOM      8  C   UNL     1       3.337  25.903  49.524  1.00  0.00     0.000 C 
BRANCH   8   9
ATOM      9  C   UNL     1       1.833  26.230  49.514  1.00  0.00     0.000 C 
BRANCH   9  10
ATOM     10  C   UNL     1       1.126  25.711  48.251  1.00  0.00     0.000 C 
BRANCH  10  11
ATOM     11  C   UNL     1       1.636  24.331  47.809  1.00  0.00     0.000 C 
BRANCH  11  12
ATOM     12  C   UNL     1       1.323  24.083  46.325  1.00  0.00     0.006 C 
BRANCH  12  13
ATOM     13  C   UNL     1       2.288  23.073  45.686  1.00  0.00     0.053 C 
BRANCH  13  14
ATOM     14  C   UNL     1       2.918  23.609  44.436  1.00  0.00     0.041 C 
ATOM     15  O   UNL     1       3.793  22.937  43.829  1.00  0.00    -0.550 OA
ATOM     16  O   UNL     1       2.531  24.848  43.939  1.00  0.00    -0.550 OA
ENDBRANCH  13  14
ENDBRANCH  12  13
ENDBRANCH  11  12
ENDBRANCH  10  11
ENDBRANCH   9  10
ENDBRANCH   8   9
ENDBRANCH   7   8
ENDBRANCH   6   7
ENDBRANCH   5   6
ENDBRANCH   4   5
ENDBRANCH   3   4
ENDBRANCH   2   3
ENDBRANCH   1   2
BRANCH   1  17
ATOM     17  C   UNL     1       0.626  23.387  51.514  1.00  0.00     0.000 C 
BRANCH  17  18
ATOM     18  C   UNL     1       0.542  23.887  52.967  1.00  0.00     0.000 C 
BRANCH  18  19
ATOM     19  C   UNL     1       1.160  25.275  53.215  1.00  0.00     0.000 C 
BRANCH  19  20
ATOM     20  C   UNL     1       1.902  25.368  54.556  1.00  0.00     0.000 C 
BRANCH  20  21
ATOM     21  C   UNL     1       3.422  25.277  54.347  1.00  0.00     0.000 C 
BRANCH  21  22
ATOM     22  C   UNL     1       4.094  24.254  55.277  1.00  0.00    -0.000 C 
BRANCH  22  23
ATOM     23  C   UNL     1       3.340  24.079  56.606  1.00  0.00    -0.000 C 
BRANCH  23  24
ATOM     24  C   UNL     1       2.896  22.625  56.856  1.00  0.00    -0.000 C 
BRANCH  24  25
ATOM     25  C   UNL     1       1.514  22.256  56.287  1.00  0.00    -0.000 C 
BRANCH  25  26
ATOM     26  C   UNL     1       0.363  22.582  57.250  1.00  0.00    -0.000 C 
BRANCH  26  27
ATOM     27  C   UNL     1      -0.309  23.911  56.879  1.00  0.00    -0.000 C 
BRANCH  27  28
ATOM     28  C   UNL     1      -1.808  23.759  56.572  1.00  0.00    -0.000 C 
BRANCH  28  29
ATOM     29  C   UNL     1      -2.562  25.101  56.480  1.00  0.00    -0.003 C 
ATOM     30  C   UNL     1      -1.652  26.300  56.748  1.00  0.00     0.004 C 
ENDBRANCH  28  29
ENDBRANCH  27  28
ENDBRANCH  26  27
ENDBRANCH  25  26
ENDBRANCH  24  25
ENDBRANCH  23  24
ENDBRANCH  22  23
ENDBRANCH  21  22
ENDBRANCH  20  21
ENDBRANCH  19  20
ENDBRANCH  18  19
ENDBRANCH  17  18
ENDBRANCH   1  17
TORSDOF 26
ENDMDL
MODEL 8
REMARK VINA RESULT:    -4.594      3.980      8.354
REMARK INTER + INTRA:         -16.091
REMARK INTER:                 -10.227
REMARK INTRA:                  -5.863
REMARK UNBOUND:                -4.515
REMARK SMILES CCCCCCCCCCCCCCCCCCCCCCCCCCCC(=O)[O-]
REMARK SMILES IDX 15 1 16 2 17 3 18 4 19 5 20 6 21 7 22 8 23 9 24 10 25 11
REMARK SMILES IDX 26 12 27 13 28 14 29 15 30 16 14 17 13 18 12 19 11 20 10 21
REMARK SMILES IDX 9 22 8 23 7 24 6 25 5 26 4 27 3 28 2 29 1 30
REMARK H PARENT
REMARK Flexibility Score: inf
ROOT
ATOM      1  C   UNL     1       1.193  25.586  54.605  1.00  0.00     0.000 C 
ENDROOT
BRANCH   1   2
ATOM      2  C   UNL     1      -0.319  25.798  54.461  1.00  0.00     0.000 C 
BRANCH   2   3
ATOM      3  C   UNL     1      -1.071  24.462  54.549  1.00  0.00     0.000 C 
BRANCH   3   4
ATOM      4  C   UNL     1      -2.145  24.452  55.651  1.00  0.00     0.000 C 
BRANCH   4   5
ATOM      5  C   UNL     1      -1.718  23.785  56.977  1.00  0.00     0.000 C 
BRANCH   5   6
ATOM      6  C   UNL     1      -0.747  24.607  57.844  1.00  0.00     0.000 C 
BRANCH   6   7
ATOM      7  C   UNL     1       0.640  23.954  57.972  1.00  0.00     0.000 C 
BRANCH   7   8
ATOM      8  C   UNL     1       0.750  22.642  57.178  1.00  0.00     0.000 C 
BRANCH   8   9
ATOM      9  C   UNL     1       2.106  22.494  56.465  1.00  0.00     0.000 C 
BRANCH   9  10
ATOM     10  C   UNL     1       3.196  23.386  57.083  1.00  0.00     0.000 C 
BRANCH  10  11
ATOM     11  C   UNL     1       4.236  23.855  56.054  1.00  0.00     0.000 C 
BRANCH  11  12
ATOM     12  C   UNL     1       5.272  22.752  55.784  1.00  0.00     0.006 C 
BRANCH  12  13
ATOM     13  C   UNL     1       6.096  22.408  57.033  1.00  0.00     0.053 C 
BRANCH  13  14
ATOM     14  C   UNL     1       6.094  20.937  57.322  1.00  0.00     0.041 C 
ATOM     15  O   UNL     1       5.097  20.232  57.014  1.00  0.00    -0.550 OA
ATOM     16  O   UNL     1       7.198  20.345  57.923  1.00  0.00    -0.550 OA
ENDBRANCH  13  14
ENDBRANCH  12  13
ENDBRANCH  11  12
ENDBRANCH  10  11
ENDBRANCH   9  10
ENDBRANCH   8   9
ENDBRANCH   7   8
ENDBRANCH   6   7
ENDBRANCH   5   6
ENDBRANCH   4   5
ENDBRANCH   3   4
ENDBRANCH   2   3
ENDBRANCH   1   2
BRANCH   1  17
ATOM     17  C   UNL     1       1.976  26.574  53.728  1.00  0.00     0.000 C 
BRANCH  17  18
ATOM     18  C   UNL     1       3.422  26.120  53.457  1.00  0.00     0.000 C 
BRANCH  18  19
ATOM     19  C   UNL     1       3.937  26.409  52.036  1.00  0.00     0.000 C 
BRANCH  19  20
ATOM     20  C   UNL     1       4.946  25.361  51.542  1.00  0.00     0.000 C 
BRANCH  20  21
ATOM     21  C   UNL     1       4.824  24.061  52.352  1.00  0.00     0.000 C 
BRANCH  21  22
ATOM     22  C   UNL     1       4.988  22.800  51.490  1.00  0.00    -0.000 C 
BRANCH  22  23
ATOM     23  C   UNL     1       3.830  21.803  51.673  1.00  0.00    -0.000 C 
BRANCH  23  24
ATOM     24  C   UNL     1       3.046  22.030  52.980  1.00  0.00    -0.000 C 
BRANCH  24  25
ATOM     25  C   UNL     1       1.543  22.310  52.802  1.00  0.00    -0.000 C 
BRANCH  25  26
ATOM     26  C   UNL     1       1.175  22.721  51.369  1.00  0.00    -0.000 C 
BRANCH  26  27
ATOM     27  C   UNL     1       0.650  24.162  51.324  1.00  0.00    -0.000 C 
BRANCH  27  28
ATOM     28  C   UNL     1       1.270  24.989  50.185  1.00  0.00    -0.000 C 
BRANCH  28  29
ATOM     29  C   UNL     1       2.155  24.164  49.229  1.00  0.00    -0.003 C 
ATOM     30  C   UNL     1       1.645  24.198  47.788  1.00  0.00     0.004 C 
ENDBRANCH  28  29
ENDBRANCH  27  28
ENDBRANCH  26  27
ENDBRANCH  25  26
ENDBRANCH  24  25
ENDBRANCH  23  24
ENDBRANCH  22  23
ENDBRANCH  21  22
ENDBRANCH  20  21
ENDBRANCH  19  20
ENDBRANCH  18  19
ENDBRANCH  17  18
ENDBRANCH   1  17
TORSDOF 26
ENDMDL
MODEL 9
REMARK VINA RESULT:    -4.576      4.419      8.268
REMARK INTER + INTRA:         -16.047
REMARK INTER:                 -10.851
REMARK INTRA:                  -5.196
REMARK UNBOUND:                -4.515
REMARK SMILES CCCCCCCCCCCCCCCCCCCCCCCCCCCC(=O)[O-]
REMARK SMILES IDX 15 1 16 2 17 3 18 4 19 5 20 6 21 7 22 8 23 9 24 10 25 11
REMARK SMILES IDX 26 12 27 13 28 14 29 15 30 16 14 17 13 18 12 19 11 20 10 21
REMARK SMILES IDX 9 22 8 23 7 24 6 25 5 26 4 27 3 28 2 29 1 30
REMARK H PARENT
REMARK Flexibility Score: inf
ROOT
ATOM      1  C   UNL     1       0.571  22.623  56.814  1.00  0.00     0.000 C 
ENDROOT
BRANCH   1   2
ATOM      2  C   UNL     1       1.450  21.798  57.762  1.00  0.00     0.000 C 
BRANCH   2   3
ATOM      3  C   UNL     1       1.221  22.213  59.223  1.00  0.00     0.000 C 
BRANCH   3   4
ATOM      4  C   UNL     1       2.448  21.960  60.116  1.00  0.00     0.000 C 
BRANCH   4   5
ATOM      5  C   UNL     1       3.267  23.217  60.478  1.00  0.00     0.000 C 
BRANCH   5   6
ATOM      6  C   UNL     1       2.683  24.550  59.975  1.00  0.00     0.000 C 
BRANCH   6   7
ATOM      7  C   UNL     1       3.511  25.175  58.840  1.00  0.00     0.000 C 
BRANCH   7   8
ATOM      8  C   UNL     1       2.657  26.028  57.887  1.00  0.00     0.000 C 
BRANCH   8   9
ATOM      9  C   UNL     1       2.744  25.550  56.427  1.00  0.00     0.000 C 
BRANCH   9  10
ATOM     10  C   UNL     1       3.975  24.666  56.169  1.00  0.00     0.000 C 
BRANCH  10  11
ATOM     11  C   UNL     1       3.752  23.648  55.040  1.00  0.00     0.000 C 
BRANCH  11  12
ATOM     12  C   UNL     1       4.355  22.284  55.408  1.00  0.00     0.006 C 
BRANCH  12  13
ATOM     13  C   UNL     1       4.900  22.255  56.843  1.00  0.00     0.053 C 
BRANCH  13  14
ATOM     14  C   UNL     1       5.462  20.914  57.206  1.00  0.00     0.041 C 
ATOM     15  O   UNL     1       6.686  20.671  57.030  1.00  0.00    -0.550 OA
ATOM     16  O   UNL     1       4.636  19.936  57.745  1.00  0.00    -0.550 OA
ENDBRANCH  13  14
ENDBRANCH  12  13
ENDBRANCH  11  12
ENDBRANCH  10  11
ENDBRANCH   9  10
ENDBRANCH   8   9
ENDBRANCH   7   8
ENDBRANCH   6   7
ENDBRANCH   5   6
ENDBRANCH   4   5
ENDBRANCH   3   4
ENDBRANCH   2   3
ENDBRANCH   1   2
BRANCH   1  17
ATOM     17  C   UNL     1      -0.245  23.670  57.588  1.00  0.00     0.000 C 
BRANCH  17  18
ATOM     18  C   UNL     1      -1.717  23.732  57.142  1.00  0.00     0.000 C 
BRANCH  18  19
ATOM     19  C   UNL     1      -2.137  25.048  56.464  1.00  0.00     0.000 C 
BRANCH  19  20
ATOM     20  C   UNL     1      -1.821  25.073  54.961  1.00  0.00     0.000 C 
BRANCH  20  21
ATOM     21  C   UNL     1      -0.489  25.793  54.695  1.00  0.00     0.000 C 
BRANCH  21  22
ATOM     22  C   UNL     1       0.167  25.367  53.372  1.00  0.00    -0.000 C 
BRANCH  22  23
ATOM     23  C   UNL     1       0.501  23.866  53.334  1.00  0.00    -0.000 C 
BRANCH  23  24
ATOM     24  C   UNL     1       0.465  23.281  51.909  1.00  0.00    -0.000 C 
BRANCH  24  25
ATOM     25  C   UNL     1       1.378  23.984  50.889  1.00  0.00    -0.000 C 
BRANCH  25  26
ATOM     26  C   UNL     1       2.408  23.039  50.253  1.00  0.00    -0.000 C 
BRANCH  26  27
ATOM     27  C   UNL     1       2.712  21.851  51.177  1.00  0.00    -0.000 C 
BRANCH  27  28
ATOM     28  C   UNL     1       4.122  21.915  51.789  1.00  0.00    -0.000 C 
BRANCH  28  29
ATOM     29  C   UNL     1       5.060  22.915  51.083  1.00  0.00    -0.003 C 
ATOM     30  C   UNL     1       5.999  23.622  52.061  1.00  0.00     0.004 C 
ENDBRANCH  28  29
ENDBRANCH  27  28
ENDBRANCH  26  27
ENDBRANCH  25  26
ENDBRANCH  24  25
ENDBRANCH  23  24
ENDBRANCH  22  23
ENDBRANCH  21  22
ENDBRANCH  20  21
ENDBRANCH  19  20
ENDBRANCH  18  19
ENDBRANCH  17  18
ENDBRANCH   1  17
TORSDOF 26
ENDMDL
