MODEL 1
REMARK VINA RESULT:    -5.903      0.000      0.000
REMARK INTER + INTRA:          -7.202
REMARK INTER:                  -6.939
REMARK INTRA:                  -0.263
REMARK UNBOUND:                -0.263
REMARK SMILES O=c1cc(-c2ccc(O)c(O)c2)oc2cc(O)cc(O)c12
REMARK SMILES IDX 4 1 3 2 2 3 1 4 21 5 19 6 18 7 16 8 15 9 14 10 13 11 5 12
REMARK SMILES IDX 6 13 7 14 8 15 12 16 10 17 9 18 11 20 20 22 17 24
REMARK H PARENT 9 19 11 21 20 23 17 25
REMARK Flexibility Score: inf
ROOT
ATOM      1  C   UNL     1       5.920 -17.367  14.281  1.00  0.00     0.138 A 
ATOM      2  C   UNL     1       6.820 -16.293  14.377  1.00  0.00     0.100 A 
ATOM      3  C   UNL     1       6.331 -15.007  14.614  1.00  0.00     0.197 A 
ATOM      4  O   UNL     1       7.147 -14.050  14.700  1.00  0.00    -0.289 OA
ATOM      5  C   UNL     1       4.944 -14.806  14.759  1.00  0.00     0.107 A 
ATOM      6  C   UNL     1       4.367 -13.535  15.000  1.00  0.00     0.134 A 
ATOM      7  C   UNL     1       2.976 -13.420  15.137  1.00  0.00     0.093 A 
ATOM      8  C   UNL     1       2.153 -14.545  15.039  1.00  0.00     0.123 A 
ATOM      9  C   UNL     1       2.719 -15.802  14.801  1.00  0.00     0.094 A 
ATOM     10  C   UNL     1       4.103 -15.939  14.660  1.00  0.00     0.146 A 
ATOM     11  O   UNL     1       4.616 -17.143  14.432  1.00  0.00    -0.456 OA
ENDROOT
BRANCH   1  12
ATOM     12  C   UNL     1       6.381 -18.756  14.031  1.00  0.00     0.021 A 
ATOM     13  C   UNL     1       6.213 -19.775  14.989  1.00  0.00     0.016 A 
ATOM     14  C   UNL     1       6.666 -21.071  14.732  1.00  0.00     0.051 A 
ATOM     15  C   UNL     1       7.300 -21.371  13.519  1.00  0.00     0.157 A 
ATOM     16  C   UNL     1       7.031 -19.063  12.822  1.00  0.00     0.062 A 
ATOM     17  C   UNL     1       7.484 -20.365  12.564  1.00  0.00     0.158 A 
BRANCH  15  18
ATOM     18  O   UNL     1       7.751 -22.663  13.259  1.00  0.00    -0.504 OA
ATOM     19  H   UNL     1       7.155 -23.354  12.818  1.00  0.00     0.293 HD
ENDBRANCH  15  18
BRANCH  17  20
ATOM     20  O   UNL     1       8.118 -20.664  11.360  1.00  0.00    -0.504 OA
ATOM     21  H   UNL     1       8.228 -21.619  11.040  1.00  0.00     0.293 HD
ENDBRANCH  17  20
ENDBRANCH   1  12
BRANCH   6  22
ATOM     22  O   UNL     1       5.162 -12.394  15.104  1.00  0.00    -0.507 OA
ATOM     23  H   UNL     1       5.832 -12.144  14.386  1.00  0.00     0.293 HD
ENDBRANCH   6  22
BRANCH   8  24
ATOM     24  O   UNL     1       0.775 -14.403  15.180  1.00  0.00    -0.508 OA
ATOM     25  H   UNL     1       0.149 -15.195  15.097  1.00  0.00     0.293 HD
ENDBRANCH   8  24
TORSDOF 5
ENDMDL
MODEL 2
REMARK VINA RESULT:    -5.548      1.589      7.196
REMARK INTER + INTRA:          -6.784
REMARK INTER:                  -6.516
REMARK INTRA:                  -0.269
REMARK UNBOUND:                -0.263
REMARK SMILES O=c1cc(-c2ccc(O)c(O)c2)oc2cc(O)cc(O)c12
REMARK SMILES IDX 4 1 3 2 2 3 1 4 21 5 19 6 18 7 16 8 15 9 14 10 13 11 5 12
REMARK SMILES IDX 6 13 7 14 8 15 12 16 10 17 9 18 11 20 20 22 17 24
REMARK H PARENT 9 19 11 21 20 23 17 25
REMARK Flexibility Score: inf
ROOT
ATOM      1  C   UNL     1       4.992 -17.196  15.412  1.00  0.00     0.138 A 
ATOM      2  C   UNL     1       5.091 -17.998  16.560  1.00  0.00     0.100 A 
ATOM      3  C   UNL     1       5.785 -19.207  16.494  1.00  0.00     0.197 A 
ATOM      4  O   UNL     1       5.870 -19.920  17.531  1.00  0.00    -0.289 OA
ATOM      5  C   UNL     1       6.380 -19.603  15.280  1.00  0.00     0.107 A 
ATOM      6  C   UNL     1       7.099 -20.813  15.128  1.00  0.00     0.134 A 
ATOM      7  C   UNL     1       7.665 -21.132  13.885  1.00  0.00     0.093 A 
ATOM      8  C   UNL     1       7.528 -20.269  12.795  1.00  0.00     0.123 A 
ATOM      9  C   UNL     1       6.818 -19.073  12.940  1.00  0.00     0.094 A 
ATOM     10  C   UNL     1       6.244 -18.736  14.170  1.00  0.00     0.146 A 
ATOM     11  O   UNL     1       5.573 -17.595  14.282  1.00  0.00    -0.456 OA
ENDROOT
BRANCH   1  12
ATOM     12  C   UNL     1       4.267 -15.900  15.422  1.00  0.00     0.021 A 
ATOM     13  C   UNL     1       4.821 -14.748  16.013  1.00  0.00     0.016 A 
ATOM     14  C   UNL     1       4.113 -13.543  16.018  1.00  0.00     0.051 A 
ATOM     15  C   UNL     1       2.840 -13.470  15.439  1.00  0.00     0.157 A 
ATOM     16  C   UNL     1       2.983 -15.820  14.856  1.00  0.00     0.062 A 
ATOM     17  C   UNL     1       2.273 -14.610  14.859  1.00  0.00     0.158 A 
BRANCH  15  18
ATOM     18  O   UNL     1       2.131 -12.270  15.440  1.00  0.00    -0.504 OA
ATOM     19  H   UNL     1       1.140 -12.239  15.650  1.00  0.00     0.293 HD
ENDBRANCH  15  18
BRANCH  17  20
ATOM     20  O   UNL     1       1.004 -14.536  14.287  1.00  0.00    -0.504 OA
ATOM     21  H   UNL     1       0.619 -15.302  13.748  1.00  0.00     0.293 HD
ENDBRANCH  17  20
ENDBRANCH   1  12
BRANCH   6  22
ATOM     22  O   UNL     1       7.255 -21.695  16.197  1.00  0.00    -0.507 OA
ATOM     23  H   UNL     1       6.485 -21.925  16.815  1.00  0.00     0.293 HD
ENDBRANCH   6  22
BRANCH   8  24
ATOM     24  O   UNL     1       8.101 -20.610  11.572  1.00  0.00    -0.508 OA
ATOM     25  H   UNL     1       9.070 -20.893  11.501  1.00  0.00     0.293 HD
ENDBRANCH   8  24
TORSDOF 5
ENDMDL
MODEL 3
REMARK VINA RESULT:    -5.335      2.412      4.335
REMARK INTER + INTRA:          -6.533
REMARK INTER:                  -6.258
REMARK INTRA:                  -0.275
REMARK UNBOUND:                -0.263
REMARK SMILES O=c1cc(-c2ccc(O)c(O)c2)oc2cc(O)cc(O)c12
REMARK SMILES IDX 4 1 3 2 2 3 1 4 21 5 19 6 18 7 16 8 15 9 14 10 13 11 5 12
REMARK SMILES IDX 6 13 7 14 8 15 12 16 10 17 9 18 11 20 20 22 17 24
REMARK H PARENT 9 19 11 21 20 23 17 25
REMARK Flexibility Score: inf
ROOT
ATOM      1  C   UNL     1       4.696 -14.400  15.319  1.00  0.00     0.138 A 
ATOM      2  C   UNL     1       3.842 -14.525  16.427  1.00  0.00     0.100 A 
ATOM      3  C   UNL     1       3.203 -13.392  16.932  1.00  0.00     0.197 A 
ATOM      4  O   UNL     1       2.438 -13.514  17.926  1.00  0.00    -0.289 OA
ATOM      5  C   UNL     1       3.419 -12.140  16.321  1.00  0.00     0.107 A 
ATOM      6  C   UNL     1       2.811 -10.943  16.771  1.00  0.00     0.134 A 
ATOM      7  C   UNL     1       3.075  -9.738  16.104  1.00  0.00     0.093 A 
ATOM      8  C   UNL     1       3.930  -9.705  14.999  1.00  0.00     0.123 A 
ATOM      9  C   UNL     1       4.533 -10.886  14.551  1.00  0.00     0.094 A 
ATOM     10  C   UNL     1       4.285 -12.097  15.202  1.00  0.00     0.146 A 
ATOM     11  O   UNL     1       4.871 -13.204  14.759  1.00  0.00    -0.456 OA
ENDROOT
BRANCH   1  12
ATOM     12  C   UNL     1       5.402 -15.569  14.737  1.00  0.00     0.021 A 
ATOM     13  C   UNL     1       6.762 -15.509  14.378  1.00  0.00     0.016 A 
ATOM     14  C   UNL     1       7.399 -16.622  13.823  1.00  0.00     0.051 A 
ATOM     15  C   UNL     1       6.689 -17.810  13.611  1.00  0.00     0.157 A 
ATOM     16  C   UNL     1       4.693 -16.762  14.508  1.00  0.00     0.062 A 
ATOM     17  C   UNL     1       5.333 -17.880  13.952  1.00  0.00     0.158 A 
BRANCH  15  18
ATOM     18  O   UNL     1       7.321 -18.922  13.059  1.00  0.00    -0.504 OA
ATOM     19  H   UNL     1       8.271 -18.872  12.707  1.00  0.00     0.293 HD
ENDBRANCH  15  18
BRANCH  17  20
ATOM     20  O   UNL     1       4.627 -19.062  13.737  1.00  0.00    -0.504 OA
ATOM     21  H   UNL     1       4.778 -19.628  12.911  1.00  0.00     0.293 HD
ENDBRANCH  17  20
ENDBRANCH   1  12
BRANCH   6  22
ATOM     22  O   UNL     1       1.953 -10.944  17.870  1.00  0.00    -0.507 OA
ATOM     23  H   UNL     1       2.071 -11.593  18.639  1.00  0.00     0.293 HD
ENDBRANCH   6  22
BRANCH   8  24
ATOM     24  O   UNL     1       4.174  -8.495  14.354  1.00  0.00    -0.508 OA
ATOM     25  H   UNL     1       4.763  -7.783  14.768  1.00  0.00     0.293 HD
ENDBRANCH   8  24
TORSDOF 5
ENDMDL
MODEL 4
REMARK VINA RESULT:    -5.324      3.936      6.697
REMARK INTER + INTRA:          -6.521
REMARK INTER:                  -6.257
REMARK INTRA:                  -0.264
REMARK UNBOUND:                -0.263
REMARK SMILES O=c1cc(-c2ccc(O)c(O)c2)oc2cc(O)cc(O)c12
REMARK SMILES IDX 4 1 3 2 2 3 1 4 21 5 19 6 18 7 16 8 15 9 14 10 13 11 5 12
REMARK SMILES IDX 6 13 7 14 8 15 12 16 10 17 9 18 11 20 20 22 17 24
REMARK H PARENT 9 19 11 21 20 23 17 25
REMARK Flexibility Score: inf
ROOT
ATOM      1  C   UNL     1       5.416 -12.029  14.411  1.00  0.00     0.138 A 
ATOM      2  C   UNL     1       5.219 -11.057  15.405  1.00  0.00     0.100 A 
ATOM      3  C   UNL     1       5.656  -9.751  15.184  1.00  0.00     0.197 A 
ATOM      4  O   UNL     1       5.473  -8.885  16.082  1.00  0.00    -0.289 OA
ATOM      5  C   UNL     1       6.285  -9.424  13.966  1.00  0.00     0.107 A 
ATOM      6  C   UNL     1       6.758  -8.125  13.662  1.00  0.00     0.134 A 
ATOM      7  C   UNL     1       7.370  -7.881  12.423  1.00  0.00     0.093 A 
ATOM      8  C   UNL     1       7.515  -8.906  11.485  1.00  0.00     0.123 A 
ATOM      9  C   UNL     1       7.049 -10.191  11.781  1.00  0.00     0.094 A 
ATOM     10  C   UNL     1       6.438 -10.456  13.010  1.00  0.00     0.146 A 
ATOM     11  O   UNL     1       6.005 -11.686  13.268  1.00  0.00    -0.456 OA
ENDROOT
BRANCH   1  12
ATOM     12  C   UNL     1       4.971 -13.435  14.590  1.00  0.00     0.021 A 
ATOM     13  C   UNL     1       5.893 -14.489  14.743  1.00  0.00     0.016 A 
ATOM     14  C   UNL     1       5.447 -15.804  14.899  1.00  0.00     0.051 A 
ATOM     15  C   UNL     1       4.076 -16.089  14.897  1.00  0.00     0.157 A 
ATOM     16  C   UNL     1       3.597 -13.733  14.575  1.00  0.00     0.062 A 
ATOM     17  C   UNL     1       3.150 -15.053  14.733  1.00  0.00     0.158 A 
BRANCH  15  18
ATOM     18  O   UNL     1       3.627 -17.400  15.054  1.00  0.00    -0.504 OA
ATOM     19  H   UNL     1       3.485 -18.010  14.258  1.00  0.00     0.293 HD
ENDBRANCH  15  18
BRANCH  17  20
ATOM     20  O   UNL     1       1.786 -15.340  14.728  1.00  0.00    -0.504 OA
ATOM     21  H   UNL     1       1.438 -16.270  14.929  1.00  0.00     0.293 HD
ENDBRANCH  17  20
ENDBRANCH   1  12
BRANCH   6  22
ATOM     22  O   UNL     1       6.627  -7.081  14.578  1.00  0.00    -0.507 OA
ATOM     23  H   UNL     1       7.390  -6.804  15.183  1.00  0.00     0.293 HD
ENDBRANCH   6  22
BRANCH   8  24
ATOM     24  O   UNL     1       8.125  -8.636  10.262  1.00  0.00    -0.508 OA
ATOM     25  H   UNL     1       8.848  -9.237   9.886  1.00  0.00     0.293 HD
ENDBRANCH   8  24
TORSDOF 5
ENDMDL
MODEL 5
REMARK VINA RESULT:    -5.318      3.610      7.587
REMARK INTER + INTRA:          -6.513
REMARK INTER:                  -6.252
REMARK INTRA:                  -0.261
REMARK UNBOUND:                -0.263
REMARK SMILES O=c1cc(-c2ccc(O)c(O)c2)oc2cc(O)cc(O)c12
REMARK SMILES IDX 4 1 3 2 2 3 1 4 21 5 19 6 18 7 16 8 15 9 14 10 13 11 5 12
REMARK SMILES IDX 6 13 7 14 8 15 12 16 10 17 9 18 11 20 20 22 17 24
REMARK H PARENT 9 19 11 21 20 23 17 25
REMARK Flexibility Score: inf
ROOT
ATOM      1  C   UNL     1       5.721 -12.058  14.226  1.00  0.00     0.138 A 
ATOM      2  C   UNL     1       6.651 -13.088  14.445  1.00  0.00     0.100 A 
ATOM      3  C   UNL     1       6.196 -14.361  14.793  1.00  0.00     0.197 A 
ATOM      4  O   UNL     1       7.039 -15.279  14.986  1.00  0.00    -0.289 OA
ATOM      5  C   UNL     1       4.812 -14.596  14.917  1.00  0.00     0.107 A 
ATOM      6  C   UNL     1       4.269 -15.855  15.268  1.00  0.00     0.134 A 
ATOM      7  C   UNL     1       2.878 -16.007  15.365  1.00  0.00     0.093 A 
ATOM      8  C   UNL     1       2.023 -14.930  15.119  1.00  0.00     0.123 A 
ATOM      9  C   UNL     1       2.556 -13.684  14.772  1.00  0.00     0.094 A 
ATOM     10  C   UNL     1       3.939 -13.510  14.671  1.00  0.00     0.146 A 
ATOM     11  O   UNL     1       4.420 -12.316  14.342  1.00  0.00    -0.456 OA
ENDROOT
BRANCH   1  12
ATOM     12  C   UNL     1       6.146 -10.686  13.852  1.00  0.00     0.021 A 
ATOM     13  C   UNL     1       6.135  -9.628  14.782  1.00  0.00     0.016 A 
ATOM     14  C   UNL     1       6.530  -8.344  14.401  1.00  0.00     0.051 A 
ATOM     15  C   UNL     1       6.935  -8.091  13.084  1.00  0.00     0.157 A 
ATOM     16  C   UNL     1       6.540 -10.420  12.529  1.00  0.00     0.062 A 
ATOM     17  C   UNL     1       6.938  -9.130  12.146  1.00  0.00     0.158 A 
BRANCH  15  18
ATOM     18  O   UNL     1       7.331  -6.811  12.700  1.00  0.00    -0.504 OA
ATOM     19  H   UNL     1       7.551  -6.591  11.735  1.00  0.00     0.293 HD
ENDBRANCH  15  18
BRANCH  17  20
ATOM     20  O   UNL     1       7.338  -8.876  10.836  1.00  0.00    -0.504 OA
ATOM     21  H   UNL     1       8.142  -9.337  10.427  1.00  0.00     0.293 HD
ENDBRANCH  17  20
ENDBRANCH   1  12
BRANCH   6  22
ATOM     22  O   UNL     1       5.096 -16.949  15.518  1.00  0.00    -0.507 OA
ATOM     23  H   UNL     1       5.447 -17.535  14.770  1.00  0.00     0.293 HD
ENDBRANCH   6  22
BRANCH   8  24
ATOM     24  O   UNL     1       0.645 -15.109  15.222  1.00  0.00    -0.508 OA
ATOM     25  H   UNL     1       0.237 -15.675  15.955  1.00  0.00     0.293 HD
ENDBRANCH   8  24
TORSDOF 5
ENDMDL
MODEL 6
REMARK VINA RESULT:    -5.307      3.648      6.136
REMARK INTER + INTRA:          -6.501
REMARK INTER:                  -6.225
REMARK INTRA:                  -0.275
REMARK UNBOUND:                -0.263
REMARK SMILES O=c1cc(-c2ccc(O)c(O)c2)oc2cc(O)cc(O)c12
REMARK SMILES IDX 4 1 3 2 2 3 1 4 21 5 19 6 18 7 16 8 15 9 14 10 13 11 5 12
REMARK SMILES IDX 6 13 7 14 8 15 12 16 10 17 9 18 11 20 20 22 17 24
REMARK H PARENT 9 19 11 21 20 23 17 25
REMARK Flexibility Score: inf
ROOT
ATOM      1  C   UNL     1       5.188 -12.410  14.479  1.00  0.00     0.138 A 
ATOM      2  C   UNL     1       4.763 -11.476  15.438  1.00  0.00     0.100 A 
ATOM      3  C   UNL     1       5.103 -10.132  15.285  1.00  0.00     0.197 A 
ATOM      4  O   UNL     1       4.715  -9.301  16.150  1.00  0.00    -0.289 OA
ATOM      5  C   UNL     1       5.863  -9.729  14.169  1.00  0.00     0.107 A 
ATOM      6  C   UNL     1       6.251  -8.387  13.939  1.00  0.00     0.134 A 
ATOM      7  C   UNL     1       7.006  -8.068  12.800  1.00  0.00     0.093 A 
ATOM      8  C   UNL     1       7.377  -9.060  11.889  1.00  0.00     0.123 A 
ATOM      9  C   UNL     1       6.996 -10.387  12.112  1.00  0.00     0.094 A 
ATOM     10  C   UNL     1       6.246 -10.727  13.241  1.00  0.00     0.146 A 
ATOM     11  O   UNL     1       5.898 -11.995  13.432  1.00  0.00    -0.456 OA
ENDROOT
BRANCH   1  12
ATOM     12  C   UNL     1       4.856 -13.853  14.589  1.00  0.00     0.021 A 
ATOM     13  C   UNL     1       3.523 -14.309  14.569  1.00  0.00     0.016 A 
ATOM     14  C   UNL     1       3.239 -15.672  14.685  1.00  0.00     0.051 A 
ATOM     15  C   UNL     1       4.277 -16.601  14.829  1.00  0.00     0.157 A 
ATOM     16  C   UNL     1       5.891 -14.792  14.748  1.00  0.00     0.062 A 
ATOM     17  C   UNL     1       5.604 -16.161  14.863  1.00  0.00     0.158 A 
BRANCH  15  18
ATOM     18  O   UNL     1       3.996 -17.961  14.943  1.00  0.00    -0.504 OA
ATOM     19  H   UNL     1       4.664 -18.667  14.654  1.00  0.00     0.293 HD
ENDBRANCH  15  18
BRANCH  17  20
ATOM     20  O   UNL     1       6.635 -17.086  15.010  1.00  0.00    -0.504 OA
ATOM     21  H   UNL     1       7.170 -17.417  14.215  1.00  0.00     0.293 HD
ENDBRANCH  17  20
ENDBRANCH   1  12
BRANCH   6  22
ATOM     22  O   UNL     1       5.895  -7.375  14.830  1.00  0.00    -0.507 OA
ATOM     23  H   UNL     1       6.505  -7.094  15.589  1.00  0.00     0.293 HD
ENDBRANCH   6  22
BRANCH   8  24
ATOM     24  O   UNL     1       8.125  -8.716  10.765  1.00  0.00    -0.508 OA
ATOM     25  H   UNL     1       8.838  -9.331  10.395  1.00  0.00     0.293 HD
ENDBRANCH   8  24
TORSDOF 5
ENDMDL
MODEL 7
REMARK VINA RESULT:    -5.268      3.018      7.745
REMARK INTER + INTRA:          -6.455
REMARK INTER:                  -6.176
REMARK INTRA:                  -0.280
REMARK UNBOUND:                -0.263
REMARK SMILES O=c1cc(-c2ccc(O)c(O)c2)oc2cc(O)cc(O)c12
REMARK SMILES IDX 4 1 3 2 2 3 1 4 21 5 19 6 18 7 16 8 15 9 14 10 13 11 5 12
REMARK SMILES IDX 6 13 7 14 8 15 12 16 10 17 9 18 11 20 20 22 17 24
REMARK H PARENT 9 19 11 21 20 23 17 25
REMARK Flexibility Score: inf
ROOT
ATOM      1  C   UNL     1       5.359 -12.883  14.376  1.00  0.00     0.138 A 
ATOM      2  C   UNL     1       4.061 -13.294  14.719  1.00  0.00     0.100 A 
ATOM      3  C   UNL     1       3.808 -14.647  14.949  1.00  0.00     0.197 A 
ATOM      4  O   UNL     1       2.639 -15.007  15.258  1.00  0.00    -0.289 OA
ATOM      5  C   UNL     1       4.859 -15.580  14.840  1.00  0.00     0.107 A 
ATOM      6  C   UNL     1       4.687 -16.969  15.056  1.00  0.00     0.134 A 
ATOM      7  C   UNL     1       5.787 -17.831  14.931  1.00  0.00     0.093 A 
ATOM      8  C   UNL     1       7.049 -17.334  14.598  1.00  0.00     0.123 A 
ATOM      9  C   UNL     1       7.223 -15.963  14.383  1.00  0.00     0.094 A 
ATOM     10  C   UNL     1       6.141 -15.086  14.501  1.00  0.00     0.146 A 
ATOM     11  O   UNL     1       6.331 -13.788  14.290  1.00  0.00    -0.456 OA
ENDROOT
BRANCH   1  12
ATOM     12  C   UNL     1       5.687 -11.457  14.120  1.00  0.00     0.021 A 
ATOM     13  C   UNL     1       5.459 -10.460  15.088  1.00  0.00     0.016 A 
ATOM     14  C   UNL     1       5.768  -9.125  14.818  1.00  0.00     0.051 A 
ATOM     15  C   UNL     1       6.302  -8.761  13.575  1.00  0.00     0.157 A 
ATOM     16  C   UNL     1       6.211 -11.081  12.871  1.00  0.00     0.062 A 
ATOM     17  C   UNL     1       6.522  -9.740  12.600  1.00  0.00     0.158 A 
BRANCH  15  18
ATOM     18  O   UNL     1       6.613  -7.430  13.302  1.00  0.00    -0.504 OA
ATOM     19  H   UNL     1       6.040  -6.670  13.651  1.00  0.00     0.293 HD
ENDBRANCH  15  18
BRANCH  17  20
ATOM     20  O   UNL     1       7.051  -9.375  11.363  1.00  0.00    -0.504 OA
ATOM     21  H   UNL     1       7.571 -10.032  10.793  1.00  0.00     0.293 HD
ENDBRANCH  17  20
ENDBRANCH   1  12
BRANCH   6  22
ATOM     22  O   UNL     1       3.440 -17.494  15.391  1.00  0.00    -0.507 OA
ATOM     23  H   UNL     1       2.596 -16.935  15.345  1.00  0.00     0.293 HD
ENDBRANCH   6  22
BRANCH   8  24
ATOM     24  O   UNL     1       8.124 -18.212  14.481  1.00  0.00    -0.508 OA
ATOM     25  H   UNL     1       7.990 -19.186  14.238  1.00  0.00     0.293 HD
ENDBRANCH   8  24
TORSDOF 5
ENDMDL
MODEL 8
REMARK VINA RESULT:    -5.241      2.928      7.390
REMARK INTER + INTRA:          -6.424
REMARK INTER:                  -6.106
REMARK INTRA:                  -0.318
REMARK UNBOUND:                -0.263
REMARK SMILES O=c1cc(-c2ccc(O)c(O)c2)oc2cc(O)cc(O)c12
REMARK SMILES IDX 4 1 3 2 2 3 1 4 21 5 19 6 18 7 16 8 15 9 14 10 13 11 5 12
REMARK SMILES IDX 6 13 7 14 8 15 12 16 10 17 9 18 11 20 20 22 17 24
REMARK H PARENT 9 19 11 21 20 23 17 25
REMARK Flexibility Score: inf
ROOT
ATOM      1  C   UNL     1       4.751 -13.441  15.883  1.00  0.00     0.138 A 
ATOM      2  C   UNL     1       4.472 -13.718  17.231  1.00  0.00     0.100 A 
ATOM      3  C   UNL     1       4.294 -15.041  17.637  1.00  0.00     0.197 A 
ATOM      4  O   UNL     1       4.045 -15.279  18.850  1.00  0.00    -0.289 OA
ATOM      5  C   UNL     1       4.401 -16.080  16.691  1.00  0.00     0.107 A 
ATOM      6  C   UNL     1       4.233 -17.447  17.019  1.00  0.00     0.134 A 
ATOM      7  C   UNL     1       4.360 -18.421  16.018  1.00  0.00     0.093 A 
ATOM      8  C   UNL     1       4.652 -18.058  14.701  1.00  0.00     0.123 A 
ATOM      9  C   UNL     1       4.818 -16.708  14.372  1.00  0.00     0.094 A 
ATOM     10  C   UNL     1       4.694 -15.721  15.354  1.00  0.00     0.146 A 
ATOM     11  O   UNL     1       4.855 -14.446  15.016  1.00  0.00    -0.456 OA
ENDROOT
BRANCH   1  12
ATOM     12  C   UNL     1       4.952 -12.053  15.393  1.00  0.00     0.021 A 
ATOM     13  C   UNL     1       4.751 -10.937  16.229  1.00  0.00     0.016 A 
ATOM     14  C   UNL     1       4.937  -9.642  15.739  1.00  0.00     0.051 A 
ATOM     15  C   UNL     1       5.318  -9.439  14.407  1.00  0.00     0.157 A 
ATOM     16  C   UNL     1       5.321 -11.838  14.053  1.00  0.00     0.062 A 
ATOM     17  C   UNL     1       5.508 -10.537  13.562  1.00  0.00     0.158 A 
BRANCH  15  18
ATOM     18  O   UNL     1       5.506  -8.148  13.915  1.00  0.00    -0.504 OA
ATOM     19  H   UNL     1       5.668  -7.974  12.930  1.00  0.00     0.293 HD
ENDBRANCH  15  18
BRANCH  17  20
ATOM     20  O   UNL     1       5.885 -10.333  12.236  1.00  0.00    -0.504 OA
ATOM     21  H   UNL     1       6.009  -9.401  11.857  1.00  0.00     0.293 HD
ENDBRANCH  17  20
ENDBRANCH   1  12
BRANCH   6  22
ATOM     22  O   UNL     1       3.943 -17.841  18.324  1.00  0.00    -0.507 OA
ATOM     23  H   UNL     1       3.145 -18.427  18.539  1.00  0.00     0.293 HD
ENDBRANCH   6  22
BRANCH   8  24
ATOM     24  O   UNL     1       4.774 -19.045  13.726  1.00  0.00    -0.508 OA
ATOM     25  H   UNL     1       5.651 -19.523  13.563  1.00  0.00     0.293 HD
ENDBRANCH   8  24
TORSDOF 5
ENDMDL
MODEL 9
REMARK VINA RESULT:    -5.096      1.956      7.127
REMARK INTER + INTRA:          -6.253
REMARK INTER:                  -5.989
REMARK INTRA:                  -0.264
REMARK UNBOUND:                -0.263
REMARK SMILES O=c1cc(-c2ccc(O)c(O)c2)oc2cc(O)cc(O)c12
REMARK SMILES IDX 4 1 3 2 2 3 1 4 21 5 19 6 18 7 16 8 15 9 14 10 13 11 5 12
REMARK SMILES IDX 6 13 7 14 8 15 12 16 10 17 9 18 11 20 20 22 17 24
REMARK H PARENT 9 19 11 21 20 23 17 25
REMARK Flexibility Score: inf
ROOT
ATOM      1  C   UNL     1       5.085 -17.128  15.202  1.00  0.00     0.138 A 
ATOM      2  C   UNL     1       5.538 -17.635  13.973  1.00  0.00     0.100 A 
ATOM      3  C   UNL     1       6.242 -18.839  13.945  1.00  0.00     0.197 A 
ATOM      4  O   UNL     1       6.644 -19.287  12.837  1.00  0.00    -0.289 OA
ATOM      5  C   UNL     1       6.484 -19.532  15.148  1.00  0.00     0.107 A 
ATOM      6  C   UNL     1       7.190 -20.758  15.208  1.00  0.00     0.134 A 
ATOM      7  C   UNL     1       7.385 -21.387  16.447  1.00  0.00     0.093 A 
ATOM      8  C   UNL     1       6.889 -20.817  17.622  1.00  0.00     0.123 A 
ATOM      9  C   UNL     1       6.190 -19.606  17.568  1.00  0.00     0.094 A 
ATOM     10  C   UNL     1       5.987 -18.962  16.344  1.00  0.00     0.146 A 
ATOM     11  O   UNL     1       5.322 -17.812  16.319  1.00  0.00    -0.456 OA
ENDROOT
BRANCH   1  12
ATOM     12  C   UNL     1       4.330 -15.853  15.293  1.00  0.00     0.021 A 
ATOM     13  C   UNL     1       4.878 -14.711  15.910  1.00  0.00     0.016 A 
ATOM     14  C   UNL     1       4.141 -13.526  15.991  1.00  0.00     0.051 A 
ATOM     15  C   UNL     1       2.845 -13.463  15.465  1.00  0.00     0.157 A 
ATOM     16  C   UNL     1       3.022 -15.784  14.781  1.00  0.00     0.062 A 
ATOM     17  C   UNL     1       2.283 -14.594  14.862  1.00  0.00     0.158 A 
BRANCH  15  18
ATOM     18  O   UNL     1       2.108 -12.283  15.543  1.00  0.00    -0.504 OA
ATOM     19  H   UNL     1       1.362 -12.168  16.219  1.00  0.00     0.293 HD
ENDBRANCH  15  18
BRANCH  17  20
ATOM     20  O   UNL     1       0.992 -14.530  14.342  1.00  0.00    -0.504 OA
ATOM     21  H   UNL     1       0.787 -14.812  13.391  1.00  0.00     0.293 HD
ENDBRANCH  17  20
ENDBRANCH   1  12
BRANCH   6  22
ATOM     22  O   UNL     1       7.697 -21.351  14.052  1.00  0.00    -0.507 OA
ATOM     23  H   UNL     1       7.823 -20.826  13.195  1.00  0.00     0.293 HD
ENDBRANCH   6  22
BRANCH   8  24
ATOM     24  O   UNL     1       7.095 -21.463  18.839  1.00  0.00    -0.508 OA
ATOM     25  H   UNL     1       6.583 -22.300  19.088  1.00  0.00     0.293 HD
ENDBRANCH   8  24
TORSDOF 5
ENDMDL
