MODEL 1
REMARK VINA RESULT:    -4.597      0.000      0.000
REMARK INTER + INTRA:          -6.779
REMARK INTER:                  -6.209
REMARK INTRA:                  -0.570
REMARK UNBOUND:                -0.570
REMARK SMILES CC(=O)CCC=C(C)CCC=C(C)C
REMARK SMILES IDX 7 1 6 2 8 3 9 4 10 5 11 6 13 7 12 8 14 9 5 10 4 11 2 12 3 13
REMARK SMILES IDX 1 14
REMARK H PARENT
REMARK Flexibility Score: inf
ROOT
ATOM      1  C   UNL     1      11.380   9.699   4.124  1.00  0.00    -0.077 C 
ATOM      2  C   UNL     1      11.072  10.298   5.297  1.00  0.00    -0.028 C 
ATOM      3  C   UNL     1      12.016   8.330   4.069  1.00  0.00     0.039 C 
ENDROOT
BRANCH   1   4
ATOM      4  C   UNL     1      11.058  10.413   2.826  1.00  0.00     0.034 C 
BRANCH   4   5
ATOM      5  C   UNL     1      11.203   9.485   1.611  1.00  0.00     0.032 C 
BRANCH   5   6
ATOM      6  C   UNL     1       9.861   9.004   1.110  1.00  0.00    -0.028 C 
ATOM      7  C   UNL     1       8.160   7.385   0.387  1.00  0.00     0.039 C 
ATOM      8  C   UNL     1       9.562   7.716   0.831  1.00  0.00    -0.080 C 
ATOM      9  C   UNL     1      10.590   6.614   0.933  1.00  0.00     0.039 C 
ENDBRANCH   5   6
ENDBRANCH   4   5
ENDBRANCH   1   4
BRANCH   2  10
ATOM     10  C   UNL     1      11.364   9.714   6.657  1.00  0.00     0.035 C 
BRANCH  10  11
ATOM     11  C   UNL     1      11.714  10.818   7.659  1.00  0.00     0.079 C 
BRANCH  11  12
ATOM     12  C   UNL     1      11.868  10.249   9.045  1.00  0.00     0.130 C 
ATOM     13  O   UNL     1      12.677   9.356   9.242  1.00  0.00    -0.300 OA
ATOM     14  C   UNL     1      11.056  10.765  10.196  1.00  0.00     0.087 C 
ENDBRANCH  11  12
ENDBRANCH  10  11
ENDBRANCH   2  10
TORSDOF 6
ENDMDL
MODEL 2
REMARK VINA RESULT:    -4.455      2.673      7.129
REMARK INTER + INTRA:          -6.588
REMARK INTER:                  -5.897
REMARK INTRA:                  -0.690
REMARK UNBOUND:                -0.570
REMARK SMILES CC(=O)CCC=C(C)CCC=C(C)C
REMARK SMILES IDX 7 1 6 2 8 3 9 4 10 5 11 6 13 7 12 8 14 9 5 10 4 11 2 12 3 13
REMARK SMILES IDX 1 14
REMARK H PARENT
REMARK Flexibility Score: inf
ROOT
ATOM      1  C   UNL     1      11.841   9.537   4.977  1.00  0.00    -0.077 C 
ATOM      2  C   UNL     1      11.599   8.377   4.326  1.00  0.00    -0.028 C 
ATOM      3  C   UNL     1      12.990  10.441   4.599  1.00  0.00     0.039 C 
ENDROOT
BRANCH   1   4
ATOM      4  C   UNL     1      10.918   9.954   6.106  1.00  0.00     0.034 C 
BRANCH   4   5
ATOM      5  C   UNL     1      11.657  10.768   7.179  1.00  0.00     0.032 C 
BRANCH   5   6
ATOM      6  C   UNL     1      12.303   9.874   8.212  1.00  0.00    -0.028 C 
ATOM      7  C   UNL     1      12.705   8.900  10.431  1.00  0.00     0.039 C 
ATOM      8  C   UNL     1      12.010   9.889   9.531  1.00  0.00    -0.080 C 
ATOM      9  C   UNL     1      11.031  10.874  10.124  1.00  0.00     0.039 C 
ENDBRANCH   5   6
ENDBRANCH   4   5
ENDBRANCH   1   4
BRANCH   2  10
ATOM     10  C   UNL     1      12.453   7.831   3.209  1.00  0.00     0.035 C 
BRANCH  10  11
ATOM     11  C   UNL     1      11.581   7.336   2.051  1.00  0.00     0.079 C 
BRANCH  11  12
ATOM     12  C   UNL     1      10.908   8.493   1.359  1.00  0.00     0.130 C 
ATOM     13  O   UNL     1       9.703   8.459   1.165  1.00  0.00    -0.300 OA
ATOM     14  C   UNL     1      11.686   9.696   0.912  1.00  0.00     0.087 C 
ENDBRANCH  11  12
ENDBRANCH  10  11
ENDBRANCH   2  10
TORSDOF 6
ENDMDL
MODEL 3
REMARK VINA RESULT:    -4.446      1.387      2.004
REMARK INTER + INTRA:          -6.576
REMARK INTER:                  -6.068
REMARK INTRA:                  -0.508
REMARK UNBOUND:                -0.570
REMARK SMILES CC(=O)CCC=C(C)CCC=C(C)C
REMARK SMILES IDX 7 1 6 2 8 3 9 4 10 5 11 6 13 7 12 8 14 9 5 10 4 11 2 12 3 13
REMARK SMILES IDX 1 14
REMARK H PARENT
REMARK Flexibility Score: inf
ROOT
ATOM      1  C   UNL     1      11.578   9.044   3.899  1.00  0.00    -0.077 C 
ATOM      2  C   UNL     1      11.609   9.128   5.248  1.00  0.00    -0.028 C 
ATOM      3  C   UNL     1      11.188  10.219   3.034  1.00  0.00     0.039 C 
ENDROOT
BRANCH   1   4
ATOM      4  C   UNL     1      11.968   7.739   3.233  1.00  0.00     0.034 C 
BRANCH   4   5
ATOM      5  C   UNL     1      11.849   7.817   1.704  1.00  0.00     0.032 C 
BRANCH   5   6
ATOM      6  C   UNL     1      11.313   6.532   1.117  1.00  0.00    -0.028 C 
ATOM      7  C   UNL     1       9.707   5.053  -0.010  1.00  0.00     0.039 C 
ATOM      8  C   UNL     1      10.079   6.387   0.584  1.00  0.00    -0.080 C 
ATOM      9  C   UNL     1       9.068   7.509   0.585  1.00  0.00     0.039 C 
ENDBRANCH   5   6
ENDBRANCH   4   5
ENDBRANCH   1   4
BRANCH   2  10
ATOM     10  C   UNL     1      11.219  10.353   6.037  1.00  0.00     0.035 C 
BRANCH  10  11
ATOM     11  C   UNL     1      12.076  10.482   7.299  1.00  0.00     0.079 C 
BRANCH  11  12
ATOM     12  C   UNL     1      11.285  11.107   8.418  1.00  0.00     0.130 C 
ATOM     13  O   UNL     1      10.568  12.068   8.184  1.00  0.00    -0.300 OA
ATOM     14  C   UNL     1      11.348  10.567   9.817  1.00  0.00     0.087 C 
ENDBRANCH  11  12
ENDBRANCH  10  11
ENDBRANCH   2  10
TORSDOF 6
ENDMDL
MODEL 4
REMARK VINA RESULT:    -4.425      2.668      7.066
REMARK INTER + INTRA:          -6.547
REMARK INTER:                  -5.911
REMARK INTRA:                  -0.636
REMARK UNBOUND:                -0.570
REMARK SMILES CC(=O)CCC=C(C)CCC=C(C)C
REMARK SMILES IDX 7 1 6 2 8 3 9 4 10 5 11 6 13 7 12 8 14 9 5 10 4 11 2 12 3 13
REMARK SMILES IDX 1 14
REMARK H PARENT
REMARK Flexibility Score: inf
ROOT
ATOM      1  C   UNL     1      11.518   9.151   4.207  1.00  0.00    -0.077 C 
ATOM      2  C   UNL     1      11.267  10.263   3.479  1.00  0.00    -0.028 C 
ATOM      3  C   UNL     1      12.059   7.889   3.577  1.00  0.00     0.039 C 
ENDROOT
BRANCH   1   4
ATOM      4  C   UNL     1      11.268   9.178   5.702  1.00  0.00     0.034 C 
BRANCH   4   5
ATOM      5  C   UNL     1      12.381   9.922   6.455  1.00  0.00     0.032 C 
BRANCH   5   6
ATOM      6  C   UNL     1      12.149   9.912   7.949  1.00  0.00    -0.028 C 
ATOM      7  C   UNL     1      11.282  10.692  10.111  1.00  0.00     0.039 C 
ATOM      8  C   UNL     1      11.475  10.868   8.627  1.00  0.00    -0.080 C 
ATOM      9  C   UNL     1      10.933  12.103   7.947  1.00  0.00     0.039 C 
ENDBRANCH   5   6
ENDBRANCH   4   5
ENDBRANCH   1   4
BRANCH   2  10
ATOM     10  C   UNL     1      11.443  10.362   1.984  1.00  0.00     0.035 C 
BRANCH  10  11
ATOM     11  C   UNL     1      10.109  10.140   1.264  1.00  0.00     0.079 C 
BRANCH  11  12
ATOM     12  C   UNL     1      10.096   8.805   0.566  1.00  0.00     0.130 C 
ATOM     13  O   UNL     1      11.146   8.327   0.166  1.00  0.00    -0.300 OA
ATOM     14  C   UNL     1       8.821   8.042   0.362  1.00  0.00     0.087 C 
ENDBRANCH  11  12
ENDBRANCH  10  11
ENDBRANCH   2  10
TORSDOF 6
ENDMDL
MODEL 5
REMARK VINA RESULT:    -4.176      2.886      7.229
REMARK INTER + INTRA:          -6.211
REMARK INTER:                  -5.688
REMARK INTRA:                  -0.523
REMARK UNBOUND:                -0.570
REMARK SMILES CC(=O)CCC=C(C)CCC=C(C)C
REMARK SMILES IDX 7 1 6 2 8 3 9 4 10 5 11 6 13 7 12 8 14 9 5 10 4 11 2 12 3 13
REMARK SMILES IDX 1 14
REMARK H PARENT
REMARK Flexibility Score: inf
ROOT
ATOM      1  C   UNL     1      11.918   9.219   3.413  1.00  0.00    -0.077 C 
ATOM      2  C   UNL     1      12.319   8.195   2.625  1.00  0.00    -0.028 C 
ATOM      3  C   UNL     1      11.034  10.328   2.894  1.00  0.00     0.039 C 
ENDROOT
BRANCH   1   4
ATOM      4  C   UNL     1      12.350   9.242   4.866  1.00  0.00     0.034 C 
BRANCH   4   5
ATOM      5  C   UNL     1      11.356  10.013   5.747  1.00  0.00     0.032 C 
BRANCH   5   6
ATOM      6  C   UNL     1      11.590   9.749   7.217  1.00  0.00    -0.028 C 
ATOM      7  C   UNL     1      11.616  10.225   9.627  1.00  0.00     0.039 C 
ATOM      8  C   UNL     1      11.386  10.653   8.201  1.00  0.00    -0.080 C 
ATOM      9  C   UNL     1      10.957  12.072   7.910  1.00  0.00     0.039 C 
ENDBRANCH   5   6
ENDBRANCH   4   5
ENDBRANCH   1   4
BRANCH   2  10
ATOM     10  C   UNL     1      11.987   8.066   1.159  1.00  0.00     0.035 C 
BRANCH  10  11
ATOM     11  C   UNL     1      11.580   6.628   0.820  1.00  0.00     0.079 C 
BRANCH  11  12
ATOM     12  C   UNL     1      10.098   6.542   0.561  1.00  0.00     0.130 C 
ATOM     13  O   UNL     1       9.585   5.451   0.364  1.00  0.00    -0.300 OA
ATOM     14  C   UNL     1       9.234   7.768   0.550  1.00  0.00     0.087 C 
ENDBRANCH  11  12
ENDBRANCH  10  11
ENDBRANCH   2  10
TORSDOF 6
ENDMDL
MODEL 6
REMARK VINA RESULT:    -4.063      2.896      6.984
REMARK INTER + INTRA:          -6.058
REMARK INTER:                  -5.419
REMARK INTRA:                  -0.639
REMARK UNBOUND:                -0.570
REMARK SMILES CC(=O)CCC=C(C)CCC=C(C)C
REMARK SMILES IDX 7 1 6 2 8 3 9 4 10 5 11 6 13 7 12 8 14 9 5 10 4 11 2 12 3 13
REMARK SMILES IDX 1 14
REMARK H PARENT
REMARK Flexibility Score: inf
ROOT
ATOM      1  C   UNL     1      12.180   8.532   2.785  1.00  0.00    -0.077 C 
ATOM      2  C   UNL     1      12.347   8.868   1.486  1.00  0.00    -0.028 C 
ATOM      3  C   UNL     1      12.017   7.096   3.224  1.00  0.00     0.039 C 
ENDROOT
BRANCH   1   4
ATOM      4  C   UNL     1      12.178   9.627   3.835  1.00  0.00     0.034 C 
BRANCH   4   5
ATOM      5  C   UNL     1      11.476   9.181   5.126  1.00  0.00     0.032 C 
BRANCH   5   6
ATOM      6  C   UNL     1      11.003  10.361   5.943  1.00  0.00    -0.028 C 
ATOM      7  C   UNL     1      10.949  11.934   7.829  1.00  0.00     0.039 C 
ATOM      8  C   UNL     1      11.487  10.696   7.159  1.00  0.00    -0.080 C 
ATOM      9  C   UNL     1      12.528   9.860   7.866  1.00  0.00     0.039 C 
ENDBRANCH   5   6
ENDBRANCH   4   5
ENDBRANCH   1   4
BRANCH   2  10
ATOM     10  C   UNL     1      12.340   7.886   0.342  1.00  0.00     0.035 C 
BRANCH  10  11
ATOM     11  C   UNL     1      11.079   8.055  -0.512  1.00  0.00     0.079 C 
BRANCH  11  12
ATOM     12  C   UNL     1       9.877   7.487   0.196  1.00  0.00     0.130 C 
ATOM     13  O   UNL     1       8.948   8.224   0.489  1.00  0.00    -0.300 OA
ATOM     14  C   UNL     1       9.788   6.029   0.539  1.00  0.00     0.087 C 
ENDBRANCH  11  12
ENDBRANCH  10  11
ENDBRANCH   2  10
TORSDOF 6
ENDMDL
MODEL 7
REMARK VINA RESULT:    -4.018      1.266      1.975
REMARK INTER + INTRA:          -5.996
REMARK INTER:                  -5.385
REMARK INTRA:                  -0.611
REMARK UNBOUND:                -0.570
REMARK SMILES CC(=O)CCC=C(C)CCC=C(C)C
REMARK SMILES IDX 7 1 6 2 8 3 9 4 10 5 11 6 13 7 12 8 14 9 5 10 4 11 2 12 3 13
REMARK SMILES IDX 1 14
REMARK H PARENT
REMARK Flexibility Score: inf
ROOT
ATOM      1  C   UNL     1      11.530  10.579   2.659  1.00  0.00    -0.077 C 
ATOM      2  C   UNL     1      11.127   9.966   3.795  1.00  0.00    -0.028 C 
ATOM      3  C   UNL     1      12.952  11.049   2.465  1.00  0.00     0.039 C 
ENDROOT
BRANCH   1   4
ATOM      4  C   UNL     1      10.530  10.781   1.537  1.00  0.00     0.034 C 
BRANCH   4   5
ATOM      5  C   UNL     1      10.892   9.961   0.291  1.00  0.00     0.032 C 
BRANCH   5   6
ATOM      6  C   UNL     1      11.027   8.489   0.609  1.00  0.00    -0.028 C 
ATOM      7  C   UNL     1      10.309   6.155   0.875  1.00  0.00     0.039 C 
ATOM      8  C   UNL     1      10.007   7.602   0.582  1.00  0.00    -0.080 C 
ATOM      9  C   UNL     1       8.587   8.021   0.288  1.00  0.00     0.039 C 
ENDBRANCH   5   6
ENDBRANCH   4   5
ENDBRANCH   1   4
BRANCH   2  10
ATOM     10  C   UNL     1      12.009   9.728   4.995  1.00  0.00     0.035 C 
BRANCH  10  11
ATOM     11  C   UNL     1      11.165   9.481   6.249  1.00  0.00     0.079 C 
BRANCH  11  12
ATOM     12  C   UNL     1      11.682  10.293   7.408  1.00  0.00     0.130 C 
ATOM     13  O   UNL     1      12.364   9.752   8.264  1.00  0.00    -0.300 OA
ATOM     14  C   UNL     1      11.389  11.760   7.528  1.00  0.00     0.087 C 
ENDBRANCH  11  12
ENDBRANCH  10  11
ENDBRANCH   2  10
TORSDOF 6
ENDMDL
MODEL 8
REMARK VINA RESULT:    -3.994     22.021     23.732
REMARK INTER + INTRA:          -5.965
REMARK INTER:                  -4.998
REMARK INTRA:                  -0.967
REMARK UNBOUND:                -0.570
REMARK SMILES CC(=O)CCC=C(C)CCC=C(C)C
REMARK SMILES IDX 7 1 6 2 8 3 9 4 10 5 11 6 13 7 12 8 14 9 5 10 4 11 2 12 3 13
REMARK SMILES IDX 1 14
REMARK H PARENT
REMARK Flexibility Score: inf
ROOT
ATOM      1  C   UNL     1      -0.793  -5.554  17.501  1.00  0.00    -0.077 C 
ATOM      2  C   UNL     1      -1.038  -6.634  16.726  1.00  0.00    -0.028 C 
ATOM      3  C   UNL     1       0.103  -4.428  17.042  1.00  0.00     0.039 C 
ENDROOT
BRANCH   1   4
ATOM      4  C   UNL     1      -1.454  -5.460  18.863  1.00  0.00     0.034 C 
BRANCH   4   5
ATOM      5  C   UNL     1      -2.819  -6.162  18.887  1.00  0.00     0.032 C 
BRANCH   5   6
ATOM      6  C   UNL     1      -3.954  -5.174  19.024  1.00  0.00    -0.028 C 
ATOM      7  C   UNL     1      -5.837  -3.772  18.298  1.00  0.00     0.039 C 
ATOM      8  C   UNL     1      -4.704  -4.719  17.996  1.00  0.00    -0.080 C 
ATOM      9  C   UNL     1      -4.426  -5.114  16.564  1.00  0.00     0.039 C 
ENDBRANCH   5   6
ENDBRANCH   4   5
ENDBRANCH   1   4
BRANCH   2  10
ATOM     10  C   UNL     1      -0.425  -6.868  15.368  1.00  0.00     0.035 C 
BRANCH  10  11
ATOM     11  C   UNL     1       0.712  -7.890  15.453  1.00  0.00     0.079 C 
BRANCH  11  12
ATOM     12  C   UNL     1       2.051  -7.202  15.401  1.00  0.00     0.130 C 
ATOM     13  O   UNL     1       3.008  -7.705  15.971  1.00  0.00    -0.300 OA
ATOM     14  C   UNL     1       2.241  -5.916  14.653  1.00  0.00     0.087 C 
ENDBRANCH  11  12
ENDBRANCH  10  11
ENDBRANCH   2  10
TORSDOF 6
ENDMDL
MODEL 9
REMARK VINA RESULT:    -3.905     22.505     24.087
REMARK INTER + INTRA:          -5.844
REMARK INTER:                  -5.258
REMARK INTRA:                  -0.587
REMARK UNBOUND:                -0.570
REMARK SMILES CC(=O)CCC=C(C)CCC=C(C)C
REMARK SMILES IDX 7 1 6 2 8 3 9 4 10 5 11 6 13 7 12 8 14 9 5 10 4 11 2 12 3 13
REMARK SMILES IDX 1 14
REMARK H PARENT
REMARK Flexibility Score: inf
ROOT
ATOM      1  C   UNL     1      -2.865  -5.707  17.731  1.00  0.00    -0.077 C 
ATOM      2  C   UNL     1      -4.104  -5.267  17.418  1.00  0.00    -0.028 C 
ATOM      3  C   UNL     1      -2.256  -5.477  19.095  1.00  0.00     0.039 C 
ENDROOT
BRANCH   1   4
ATOM      4  C   UNL     1      -2.070  -6.472  16.691  1.00  0.00     0.034 C 
BRANCH   4   5
ATOM      5  C   UNL     1      -0.661  -6.823  17.191  1.00  0.00     0.032 C 
BRANCH   5   6
ATOM      6  C   UNL     1       0.355  -6.790  16.073  1.00  0.00    -0.028 C 
ATOM      7  C   UNL     1       2.127  -5.858  14.649  1.00  0.00     0.039 C 
ATOM      8  C   UNL     1       1.120  -5.720  15.762  1.00  0.00    -0.080 C 
ATOM      9  C   UNL     1       0.981  -4.399  16.481  1.00  0.00     0.039 C 
ENDBRANCH   5   6
ENDBRANCH   4   5
ENDBRANCH   1   4
BRANCH   2  10
ATOM     10  C   UNL     1      -4.988  -4.471  18.345  1.00  0.00     0.035 C 
BRANCH  10  11
ATOM     11  C   UNL     1      -6.462  -4.627  17.958  1.00  0.00     0.079 C 
BRANCH  11  12
ATOM     12  C   UNL     1      -6.876  -3.549  16.991  1.00  0.00     0.130 C 
ATOM     13  O   UNL     1      -7.079  -2.417  17.403  1.00  0.00    -0.300 OA
ATOM     14  C   UNL     1      -7.032  -3.831  15.526  1.00  0.00     0.087 C 
ENDBRANCH  11  12
ENDBRANCH  10  11
ENDBRANCH   2  10
TORSDOF 6
ENDMDL
