MODEL 1
REMARK VINA RESULT:     7.084      0.000      0.000
REMARK INTER + INTRA:           9.706
REMARK INTER:                   9.983
REMARK INTRA:                  -0.277
REMARK UNBOUND:                -0.277
REMARK SMILES CCCCCCCCC(=O)[O-]
REMARK SMILES IDX 6 1 7 2 8 3 9 4 10 5 11 6 5 7 4 8 3 9 2 10 1 11
REMARK H PARENT
REMARK Flexibility Score: inf
ROOT
ATOM      1  C   UNL     1      -2.455  -8.450  23.616  1.00  0.00     0.000 C 
ENDROOT
BRANCH   1   2
ATOM      2  C   UNL     1      -1.073  -8.222  24.248  1.00  0.00     0.006 C 
BRANCH   2   3
ATOM      3  C   UNL     1      -0.837  -9.098  25.486  1.00  0.00     0.053 C 
BRANCH   3   4
ATOM      4  C   UNL     1       0.290  -8.553  26.304  1.00  0.00     0.041 C 
ATOM      5  O   UNL     1       0.901  -9.296  27.116  1.00  0.00    -0.550 OA
ATOM      6  O   UNL     1       0.700  -7.236  26.134  1.00  0.00    -0.550 OA
ENDBRANCH   3   4
ENDBRANCH   2   3
ENDBRANCH   1   2
BRANCH   1   7
ATOM      7  C   UNL     1      -3.212  -7.138  23.359  1.00  0.00     0.000 C 
BRANCH   7   8
ATOM      8  C   UNL     1      -3.651  -7.036  21.893  1.00  0.00    -0.000 C 
BRANCH   8   9
ATOM      9  C   UNL     1      -2.460  -7.244  20.946  1.00  0.00    -0.000 C 
BRANCH   9  10
ATOM     10  C   UNL     1      -2.872  -7.231  19.466  1.00  0.00    -0.003 C 
ATOM     11  C   UNL     1      -4.324  -7.657  19.252  1.00  0.00     0.004 C 
ENDBRANCH   9  10
ENDBRANCH   8   9
ENDBRANCH   7   8
ENDBRANCH   1   7
TORSDOF 7
ENDMDL
MODEL 2
REMARK VINA RESULT:     9.316     13.458     14.111
REMARK INTER + INTRA:          12.852
REMARK INTER:                  13.084
REMARK INTRA:                  -0.233
REMARK UNBOUND:                -0.277
REMARK SMILES CCCCCCCCC(=O)[O-]
REMARK SMILES IDX 6 1 7 2 8 3 9 4 10 5 11 6 5 7 4 8 3 9 2 10 1 11
REMARK H PARENT
REMARK Flexibility Score: inf
ROOT
ATOM      1  C   UNL     1       4.749 -17.753  15.116  1.00  0.00     0.000 C 
ENDROOT
BRANCH   1   2
ATOM      2  C   UNL     1       5.057 -16.834  16.309  1.00  0.00     0.006 C 
BRANCH   2   3
ATOM      3  C   UNL     1       4.758 -17.497  17.659  1.00  0.00     0.053 C 
BRANCH   3   4
ATOM      4  C   UNL     1       4.105 -16.522  18.587  1.00  0.00     0.041 C 
ATOM      5  O   UNL     1       3.095 -16.863  19.257  1.00  0.00    -0.550 OA
ATOM      6  O   UNL     1       4.642 -15.251  18.751  1.00  0.00    -0.550 OA
ENDBRANCH   3   4
ENDBRANCH   2   3
ENDBRANCH   1   2
BRANCH   1   7
ATOM      7  C   UNL     1       4.780 -17.010  13.772  1.00  0.00     0.000 C 
BRANCH   7   8
ATOM      8  C   UNL     1       4.701 -17.994  12.599  1.00  0.00    -0.000 C 
BRANCH   8   9
ATOM      9  C   UNL     1       3.716 -19.133  12.901  1.00  0.00    -0.000 C 
BRANCH   9  10
ATOM     10  C   UNL     1       2.404 -19.005  12.113  1.00  0.00    -0.003 C 
ATOM     11  C   UNL     1       1.711 -20.350  11.892  1.00  0.00     0.004 C 
ENDBRANCH   9  10
ENDBRANCH   8   9
ENDBRANCH   7   8
ENDBRANCH   1   7
TORSDOF 7
ENDMDL
MODEL 3
REMARK VINA RESULT:     9.384      3.019      5.950
REMARK INTER + INTRA:          12.947
REMARK INTER:                  12.872
REMARK INTRA:                   0.076
REMARK UNBOUND:                -0.277
REMARK SMILES CCCCCCCCC(=O)[O-]
REMARK SMILES IDX 6 1 7 2 8 3 9 4 10 5 11 6 5 7 4 8 3 9 2 10 1 11
REMARK H PARENT
REMARK Flexibility Score: inf
ROOT
ATOM      1  C   UNL     1      -2.701  -8.595  23.859  1.00  0.00     0.000 C 
ENDROOT
BRANCH   1   2
ATOM      2  C   UNL     1      -2.771  -7.142  23.363  1.00  0.00     0.006 C 
BRANCH   2   3
ATOM      3  C   UNL     1      -3.686  -6.978  22.143  1.00  0.00     0.053 C 
BRANCH   3   4
ATOM      4  C   UNL     1      -2.926  -7.236  20.881  1.00  0.00     0.041 C 
ATOM      5  O   UNL     1      -1.693  -7.487  20.924  1.00  0.00    -0.550 OA
ATOM      6  O   UNL     1      -3.589  -7.252  19.660  1.00  0.00    -0.550 OA
ENDBRANCH   3   4
ENDBRANCH   2   3
ENDBRANCH   1   2
BRANCH   1   7
ATOM      7  C   UNL     1      -1.682  -8.786  24.993  1.00  0.00     0.000 C 
BRANCH   7   8
ATOM      8  C   UNL     1      -0.282  -8.342  24.552  1.00  0.00    -0.000 C 
BRANCH   8   9
ATOM      9  C   UNL     1       0.261  -7.240  25.474  1.00  0.00    -0.000 C 
BRANCH   9  10
ATOM     10  C   UNL     1       0.634  -7.766  26.868  1.00  0.00    -0.003 C 
ATOM     11  C   UNL     1       0.792  -9.286  26.905  1.00  0.00     0.004 C 
ENDBRANCH   9  10
ENDBRANCH   8   9
ENDBRANCH   7   8
ENDBRANCH   1   7
TORSDOF 7
ENDMDL
