MODEL 1
REMARK VINA RESULT:    -3.094      0.000      0.000
REMARK INTER + INTRA:          -6.740
REMARK INTER:                  -5.264
REMARK INTRA:                  -1.476
REMARK UNBOUND:                -1.476
REMARK SMILES CCCCCCCCCCCCCC(=O)[O-]
REMARK SMILES IDX 8 1 9 2 10 3 11 4 12 5 13 6 14 7 15 8 16 9 7 10 6 11 5 12
REMARK SMILES IDX 4 13 3 14 2 15 1 16
REMARK H PARENT
REMARK Flexibility Score: inf
ROOT
ATOM      1  C   UNL     1       8.615 -34.590  13.245  1.00  0.00     0.000 C 
ENDROOT
BRANCH   1   2
ATOM      2  C   UNL     1      10.114 -34.924  13.273  1.00  0.00     0.000 C 
BRANCH   2   3
ATOM      3  C   UNL     1      11.006 -33.670  13.232  1.00  0.00     0.000 C 
BRANCH   3   4
ATOM      4  C   UNL     1      10.421 -32.428  13.936  1.00  0.00     0.000 C 
BRANCH   4   5
ATOM      5  C   UNL     1      11.250 -31.137  13.783  1.00  0.00     0.006 C 
BRANCH   5   6
ATOM      6  C   UNL     1      12.487 -31.067  14.691  1.00  0.00     0.053 C 
BRANCH   6   7
ATOM      7  C   UNL     1      13.760 -31.110  13.905  1.00  0.00     0.041 C 
ATOM      8  O   UNL     1      14.226 -32.212  13.512  1.00  0.00    -0.550 OA
ATOM      9  O   UNL     1      14.417 -29.929  13.579  1.00  0.00    -0.550 OA
ENDBRANCH   6   7
ENDBRANCH   5   6
ENDBRANCH   4   5
ENDBRANCH   3   4
ENDBRANCH   2   3
ENDBRANCH   1   2
BRANCH   1  10
ATOM     10  C   UNL     1       7.817 -35.573  14.109  1.00  0.00     0.000 C 
BRANCH  10  11
ATOM     11  C   UNL     1       7.128 -34.848  15.274  1.00  0.00    -0.000 C 
BRANCH  11  12
ATOM     12  C   UNL     1       6.819 -33.371  14.963  1.00  0.00    -0.000 C 
BRANCH  12  13
ATOM     13  C   UNL     1       7.436 -32.357  15.944  1.00  0.00    -0.000 C 
BRANCH  13  14
ATOM     14  C   UNL     1       8.397 -32.958  16.988  1.00  0.00    -0.000 C 
BRANCH  14  15
ATOM     15  C   UNL     1       8.881 -31.942  18.045  1.00  0.00    -0.003 C 
ATOM     16  C   UNL     1       9.881 -30.934  17.480  1.00  0.00     0.004 C 
ENDBRANCH  14  15
ENDBRANCH  13  14
ENDBRANCH  12  13
ENDBRANCH  11  12
ENDBRANCH  10  11
ENDBRANCH   1  10
TORSDOF 12
ENDMDL
MODEL 2
REMARK VINA RESULT:    -2.900      2.549      5.022
REMARK INTER + INTRA:          -6.409
REMARK INTER:                  -5.384
REMARK INTRA:                  -1.025
REMARK UNBOUND:                -1.476
REMARK SMILES CCCCCCCCCCCCCC(=O)[O-]
REMARK SMILES IDX 8 1 9 2 10 3 11 4 12 5 13 6 14 7 15 8 16 9 7 10 6 11 5 12
REMARK SMILES IDX 4 13 3 14 2 15 1 16
REMARK H PARENT
REMARK Flexibility Score: inf
ROOT
ATOM      1  C   UNL     1       8.753 -34.437  12.903  1.00  0.00     0.000 C 
ENDROOT
BRANCH   1   2
ATOM      2  C   UNL     1       7.458 -35.053  13.452  1.00  0.00     0.000 C 
BRANCH   2   3
ATOM      3  C   UNL     1       7.124 -34.571  14.875  1.00  0.00     0.000 C 
BRANCH   3   4
ATOM      4  C   UNL     1       6.500 -33.162  14.958  1.00  0.00     0.000 C 
BRANCH   4   5
ATOM      5  C   UNL     1       7.220 -32.181  15.904  1.00  0.00     0.006 C 
BRANCH   5   6
ATOM      6  C   UNL     1       8.354 -32.812  16.727  1.00  0.00     0.053 C 
BRANCH   6   7
ATOM      7  C   UNL     1       8.980 -31.826  17.664  1.00  0.00     0.041 C 
ATOM      8  O   UNL     1       9.885 -31.051  17.258  1.00  0.00    -0.550 OA
ATOM      9  O   UNL     1       8.541 -31.742  18.980  1.00  0.00    -0.550 OA
ENDBRANCH   6   7
ENDBRANCH   5   6
ENDBRANCH   4   5
ENDBRANCH   3   4
ENDBRANCH   2   3
ENDBRANCH   1   2
BRANCH   1  10
ATOM     10  C   UNL     1       9.854 -34.429  13.971  1.00  0.00     0.000 C 
BRANCH  10  11
ATOM     11  C   UNL     1      11.238 -34.627  13.336  1.00  0.00    -0.000 C 
BRANCH  11  12
ATOM     12  C   UNL     1      11.962 -33.298  13.050  1.00  0.00    -0.000 C 
BRANCH  12  13
ATOM     13  C   UNL     1      11.312 -32.054  13.683  1.00  0.00    -0.000 C 
BRANCH  13  14
ATOM     14  C   UNL     1      12.260 -31.174  14.521  1.00  0.00    -0.000 C 
BRANCH  14  15
ATOM     15  C   UNL     1      13.742 -31.286  14.105  1.00  0.00    -0.003 C 
ATOM     16  C   UNL     1      14.315 -29.961  13.603  1.00  0.00     0.004 C 
ENDBRANCH  14  15
ENDBRANCH  13  14
ENDBRANCH  12  13
ENDBRANCH  11  12
ENDBRANCH  10  11
ENDBRANCH   1  10
TORSDOF 12
ENDMDL
MODEL 3
REMARK VINA RESULT:    -2.811      1.194      2.021
REMARK INTER + INTRA:          -6.258
REMARK INTER:                  -5.223
REMARK INTRA:                  -1.036
REMARK UNBOUND:                -1.476
REMARK SMILES CCCCCCCCCCCCCC(=O)[O-]
REMARK SMILES IDX 8 1 9 2 10 3 11 4 12 5 13 6 14 7 15 8 16 9 7 10 6 11 5 12
REMARK SMILES IDX 4 13 3 14 2 15 1 16
REMARK H PARENT
REMARK Flexibility Score: inf
ROOT
ATOM      1  C   UNL     1       6.467 -32.984  14.451  1.00  0.00     0.000 C 
ENDROOT
BRANCH   1   2
ATOM      2  C   UNL     1       7.091 -32.382  13.183  1.00  0.00     0.000 C 
BRANCH   2   3
ATOM      3  C   UNL     1       8.487 -32.953  12.876  1.00  0.00     0.000 C 
BRANCH   3   4
ATOM      4  C   UNL     1       9.639 -31.930  12.936  1.00  0.00     0.000 C 
BRANCH   4   5
ATOM      5  C   UNL     1      10.884 -32.390  13.722  1.00  0.00     0.006 C 
BRANCH   5   6
ATOM      6  C   UNL     1      11.688 -31.248  14.361  1.00  0.00     0.053 C 
BRANCH   6   7
ATOM      7  C   UNL     1      13.157 -31.392  14.113  1.00  0.00     0.041 C 
ATOM      8  O   UNL     1      13.962 -30.527  14.549  1.00  0.00    -0.550 OA
ATOM      9  O   UNL     1      13.642 -32.498  13.425  1.00  0.00    -0.550 OA
ENDBRANCH   6   7
ENDBRANCH   5   6
ENDBRANCH   4   5
ENDBRANCH   3   4
ENDBRANCH   2   3
ENDBRANCH   1   2
BRANCH   1  10
ATOM     10  C   UNL     1       6.675 -34.503  14.498  1.00  0.00     0.000 C 
BRANCH  10  11
ATOM     11  C   UNL     1       7.297 -34.932  15.835  1.00  0.00    -0.000 C 
BRANCH  11  12
ATOM     12  C   UNL     1       8.508 -34.069  16.237  1.00  0.00    -0.000 C 
BRANCH  12  13
ATOM     13  C   UNL     1       8.163 -32.790  17.024  1.00  0.00    -0.000 C 
BRANCH  13  14
ATOM     14  C   UNL     1       9.082 -31.585  16.750  1.00  0.00    -0.000 C 
BRANCH  14  15
ATOM     15  C   UNL     1       9.783 -31.037  18.011  1.00  0.00    -0.003 C 
ATOM     16  C   UNL     1       9.099 -31.479  19.305  1.00  0.00     0.004 C 
ENDBRANCH  14  15
ENDBRANCH  13  14
ENDBRANCH  12  13
ENDBRANCH  11  12
ENDBRANCH  10  11
ENDBRANCH   1  10
TORSDOF 12
ENDMDL
MODEL 4
REMARK VINA RESULT:    -2.663      2.650      4.646
REMARK INTER + INTRA:          -6.007
REMARK INTER:                  -4.304
REMARK INTRA:                  -1.703
REMARK UNBOUND:                -1.476
REMARK SMILES CCCCCCCCCCCCCC(=O)[O-]
REMARK SMILES IDX 8 1 9 2 10 3 11 4 12 5 13 6 14 7 15 8 16 9 7 10 6 11 5 12
REMARK SMILES IDX 4 13 3 14 2 15 1 16
REMARK H PARENT
REMARK Flexibility Score: inf
ROOT
ATOM      1  C   UNL     1       5.882 -35.138  13.996  1.00  0.00     0.000 C 
ENDROOT
BRANCH   1   2
ATOM      2  C   UNL     1       6.340 -34.001  13.071  1.00  0.00     0.000 C 
BRANCH   2   3
ATOM      3  C   UNL     1       6.429 -32.645  13.792  1.00  0.00     0.000 C 
BRANCH   3   4
ATOM      4  C   UNL     1       6.739 -32.725  15.301  1.00  0.00     0.000 C 
BRANCH   4   5
ATOM      5  C   UNL     1       7.960 -31.905  15.764  1.00  0.00     0.006 C 
BRANCH   5   6
ATOM      6  C   UNL     1       8.808 -32.589  16.847  1.00  0.00     0.053 C 
BRANCH   6   7
ATOM      7  C   UNL     1       9.427 -31.596  17.781  1.00  0.00     0.041 C 
ATOM      8  O   UNL     1      10.301 -30.791  17.363  1.00  0.00    -0.550 OA
ATOM      9  O   UNL     1       9.016 -31.538  19.107  1.00  0.00    -0.550 OA
ENDBRANCH   6   7
ENDBRANCH   5   6
ENDBRANCH   4   5
ENDBRANCH   3   4
ENDBRANCH   2   3
ENDBRANCH   1   2
BRANCH   1  10
ATOM     10  C   UNL     1       6.978 -36.201  14.145  1.00  0.00     0.000 C 
BRANCH  10  11
ATOM     11  C   UNL     1       7.839 -36.284  12.876  1.00  0.00    -0.000 C 
BRANCH  11  12
ATOM     12  C   UNL     1       9.286 -36.730  13.161  1.00  0.00    -0.000 C 
BRANCH  12  13
ATOM     13  C   UNL     1      10.361 -35.659  12.895  1.00  0.00    -0.000 C 
BRANCH  13  14
ATOM     14  C   UNL     1      10.257 -34.396  13.772  1.00  0.00    -0.000 C 
BRANCH  14  15
ATOM     15  C   UNL     1      10.120 -33.088  12.965  1.00  0.00    -0.003 C 
ATOM     16  C   UNL     1      10.784 -31.897  13.655  1.00  0.00     0.004 C 
ENDBRANCH  14  15
ENDBRANCH  13  14
ENDBRANCH  12  13
ENDBRANCH  11  12
ENDBRANCH  10  11
ENDBRANCH   1  10
TORSDOF 12
ENDMDL
MODEL 5
REMARK VINA RESULT:    -2.484      0.986      3.383
REMARK INTER + INTRA:          -5.703
REMARK INTER:                  -4.425
REMARK INTRA:                  -1.278
REMARK UNBOUND:                -1.476
REMARK SMILES CCCCCCCCCCCCCC(=O)[O-]
REMARK SMILES IDX 8 1 9 2 10 3 11 4 12 5 13 6 14 7 15 8 16 9 7 10 6 11 5 12
REMARK SMILES IDX 4 13 3 14 2 15 1 16
REMARK H PARENT
REMARK Flexibility Score: inf
ROOT
ATOM      1  C   UNL     1       8.640 -33.734  16.879  1.00  0.00     0.000 C 
ENDROOT
BRANCH   1   2
ATOM      2  C   UNL     1       8.479 -32.213  16.740  1.00  0.00     0.000 C 
BRANCH   2   3
ATOM      3  C   UNL     1       9.661 -31.553  16.009  1.00  0.00     0.000 C 
BRANCH   3   4
ATOM      4  C   UNL     1      10.135 -32.284  14.737  1.00  0.00     0.000 C 
BRANCH   4   5
ATOM      5  C   UNL     1      11.152 -31.509  13.876  1.00  0.00     0.006 C 
BRANCH   5   6
ATOM      6  C   UNL     1      12.313 -30.890  14.670  1.00  0.00     0.053 C 
BRANCH   6   7
ATOM      7  C   UNL     1      13.631 -31.106  13.993  1.00  0.00     0.041 C 
ATOM      8  O   UNL     1      13.960 -32.255  13.597  1.00  0.00    -0.550 OA
ATOM      9  O   UNL     1      14.483 -30.030  13.772  1.00  0.00    -0.550 OA
ENDBRANCH   6   7
ENDBRANCH   5   6
ENDBRANCH   4   5
ENDBRANCH   3   4
ENDBRANCH   2   3
ENDBRANCH   1   2
BRANCH   1  10
ATOM     10  C   UNL     1       7.484 -34.474  16.194  1.00  0.00     0.000 C 
BRANCH  10  11
ATOM     11  C   UNL     1       6.797 -33.577  15.153  1.00  0.00    -0.000 C 
BRANCH  11  12
ATOM     12  C   UNL     1       6.795 -34.193  13.740  1.00  0.00    -0.000 C 
BRANCH  12  13
ATOM     13  C   UNL     1       7.008 -35.717  13.695  1.00  0.00    -0.000 C 
BRANCH  13  14
ATOM     14  C   UNL     1       8.305 -36.176  13.000  1.00  0.00    -0.000 C 
BRANCH  14  15
ATOM     15  C   UNL     1       9.370 -35.065  12.875  1.00  0.00    -0.003 C 
ATOM     16  C   UNL     1      10.797 -35.602  12.978  1.00  0.00     0.004 C 
ENDBRANCH  14  15
ENDBRANCH  13  14
ENDBRANCH  12  13
ENDBRANCH  11  12
ENDBRANCH  10  11
ENDBRANCH   1  10
TORSDOF 12
ENDMDL
MODEL 6
REMARK VINA RESULT:    -2.387      2.761      4.792
REMARK INTER + INTRA:          -5.537
REMARK INTER:                  -4.463
REMARK INTRA:                  -1.074
REMARK UNBOUND:                -1.476
REMARK SMILES CCCCCCCCCCCCCC(=O)[O-]
REMARK SMILES IDX 8 1 9 2 10 3 11 4 12 5 13 6 14 7 15 8 16 9 7 10 6 11 5 12
REMARK SMILES IDX 4 13 3 14 2 15 1 16
REMARK H PARENT
REMARK Flexibility Score: inf
ROOT
ATOM      1  C   UNL     1       5.875 -33.815  14.321  1.00  0.00     0.000 C 
ENDROOT
BRANCH   1   2
ATOM      2  C   UNL     1       6.004 -35.261  14.822  1.00  0.00     0.000 C 
BRANCH   2   3
ATOM      3  C   UNL     1       7.415 -35.587  15.346  1.00  0.00     0.000 C 
BRANCH   3   4
ATOM      4  C   UNL     1       7.795 -34.898  16.673  1.00  0.00     0.000 C 
BRANCH   4   5
ATOM      5  C   UNL     1       8.733 -33.683  16.535  1.00  0.00     0.006 C 
BRANCH   5   6
ATOM      6  C   UNL     1       8.117 -32.352  16.991  1.00  0.00     0.053 C 
BRANCH   6   7
ATOM      7  C   UNL     1       8.926 -31.701  18.069  1.00  0.00     0.041 C 
ATOM      8  O   UNL     1       8.626 -31.875  19.280  1.00  0.00    -0.550 OA
ATOM      9  O   UNL     1      10.031 -30.927  17.738  1.00  0.00    -0.550 OA
ENDBRANCH   6   7
ENDBRANCH   5   6
ENDBRANCH   4   5
ENDBRANCH   3   4
ENDBRANCH   2   3
ENDBRANCH   1   2
BRANCH   1  10
ATOM     10  C   UNL     1       6.680 -33.607  13.032  1.00  0.00     0.000 C 
BRANCH  10  11
ATOM     11  C   UNL     1       7.581 -32.369  13.140  1.00  0.00    -0.000 C 
BRANCH  11  12
ATOM     12  C   UNL     1       9.067 -32.684  12.883  1.00  0.00    -0.000 C 
BRANCH  12  13
ATOM     13  C   UNL     1      10.025 -32.266  14.014  1.00  0.00    -0.000 C 
BRANCH  13  14
ATOM     14  C   UNL     1      11.372 -31.681  13.548  1.00  0.00    -0.000 C 
BRANCH  14  15
ATOM     15  C   UNL     1      12.218 -31.079  14.691  1.00  0.00    -0.003 C 
ATOM     16  C   UNL     1      13.694 -30.939  14.322  1.00  0.00     0.004 C 
ENDBRANCH  14  15
ENDBRANCH  13  14
ENDBRANCH  12  13
ENDBRANCH  11  12
ENDBRANCH  10  11
ENDBRANCH   1  10
TORSDOF 12
ENDMDL
MODEL 7
REMARK VINA RESULT:    -2.329      3.273      5.429
REMARK INTER + INTRA:          -5.438
REMARK INTER:                  -4.220
REMARK INTRA:                  -1.218
REMARK UNBOUND:                -1.476
REMARK SMILES CCCCCCCCCCCCCC(=O)[O-]
REMARK SMILES IDX 8 1 9 2 10 3 11 4 12 5 13 6 14 7 15 8 16 9 7 10 6 11 5 12
REMARK SMILES IDX 4 13 3 14 2 15 1 16
REMARK H PARENT
REMARK Flexibility Score: inf
ROOT
ATOM      1  C   UNL     1      10.718 -33.033  13.246  1.00  0.00     0.000 C 
ENDROOT
BRANCH   1   2
ATOM      2  C   UNL     1       9.261 -33.397  12.924  1.00  0.00     0.000 C 
BRANCH   2   3
ATOM      3  C   UNL     1       8.262 -32.321  13.385  1.00  0.00     0.000 C 
BRANCH   3   4
ATOM      4  C   UNL     1       6.786 -32.608  13.039  1.00  0.00     0.000 C 
BRANCH   4   5
ATOM      5  C   UNL     1       6.327 -34.060  13.279  1.00  0.00     0.006 C 
BRANCH   5   6
ATOM      6  C   UNL     1       6.231 -34.457  14.760  1.00  0.00     0.053 C 
BRANCH   6   7
ATOM      7  C   UNL     1       6.930 -35.752  15.038  1.00  0.00     0.041 C 
ATOM      8  O   UNL     1       7.486 -36.386  14.103  1.00  0.00    -0.550 OA
ATOM      9  O   UNL     1       6.995 -36.243  16.336  1.00  0.00    -0.550 OA
ENDBRANCH   6   7
ENDBRANCH   5   6
ENDBRANCH   4   5
ENDBRANCH   3   4
ENDBRANCH   2   3
ENDBRANCH   1   2
BRANCH   1  10
ATOM     10  C   UNL     1      10.858 -31.535  13.542  1.00  0.00     0.000 C 
BRANCH  10  11
ATOM     11  C   UNL     1      12.091 -31.259  14.414  1.00  0.00    -0.000 C 
BRANCH  11  12
ATOM     12  C   UNL     1      11.727 -30.773  15.831  1.00  0.00    -0.000 C 
BRANCH  12  13
ATOM     13  C   UNL     1      10.303 -31.132  16.295  1.00  0.00    -0.000 C 
BRANCH  13  14
ATOM     14  C   UNL     1       9.981 -30.768  17.757  1.00  0.00    -0.000 C 
BRANCH  14  15
ATOM     15  C   UNL     1       9.002 -31.747  18.440  1.00  0.00    -0.003 C 
ATOM     16  C   UNL     1       8.344 -32.709  17.451  1.00  0.00     0.004 C 
ENDBRANCH  14  15
ENDBRANCH  13  14
ENDBRANCH  12  13
ENDBRANCH  11  12
ENDBRANCH  10  11
ENDBRANCH   1  10
TORSDOF 12
ENDMDL
MODEL 8
REMARK VINA RESULT:    -2.197      0.864      1.629
REMARK INTER + INTRA:          -5.214
REMARK INTER:                  -4.141
REMARK INTRA:                  -1.072
REMARK UNBOUND:                -1.476
REMARK SMILES CCCCCCCCCCCCCC(=O)[O-]
REMARK SMILES IDX 8 1 9 2 10 3 11 4 12 5 13 6 14 7 15 8 16 9 7 10 6 11 5 12
REMARK SMILES IDX 4 13 3 14 2 15 1 16
REMARK H PARENT
REMARK Flexibility Score: inf
ROOT
ATOM      1  C   UNL     1       9.590 -34.955  13.227  1.00  0.00     0.000 C 
ENDROOT
BRANCH   1   2
ATOM      2  C   UNL     1       8.813 -33.675  12.884  1.00  0.00     0.000 C 
BRANCH   2   3
ATOM      3  C   UNL     1       9.384 -32.426  13.579  1.00  0.00     0.000 C 
BRANCH   3   4
ATOM      4  C   UNL     1      10.923 -32.372  13.665  1.00  0.00     0.000 C 
BRANCH   4   5
ATOM      5  C   UNL     1      11.519 -30.962  13.849  1.00  0.00     0.006 C 
BRANCH   5   6
ATOM      6  C   UNL     1      12.793 -30.920  14.708  1.00  0.00     0.053 C 
BRANCH   6   7
ATOM      7  C   UNL     1      14.032 -30.886  13.869  1.00  0.00     0.041 C 
ATOM      8  O   UNL     1      14.725 -29.836  13.803  1.00  0.00    -0.550 OA
ATOM      9  O   UNL     1      14.440 -32.024  13.184  1.00  0.00    -0.550 OA
ENDBRANCH   6   7
ENDBRANCH   5   6
ENDBRANCH   4   5
ENDBRANCH   3   4
ENDBRANCH   2   3
ENDBRANCH   1   2
BRANCH   1  10
ATOM     10  C   UNL     1       8.667 -36.180  13.210  1.00  0.00     0.000 C 
BRANCH  10  11
ATOM     11  C   UNL     1       7.262 -35.817  13.713  1.00  0.00    -0.000 C 
BRANCH  11  12
ATOM     12  C   UNL     1       7.144 -35.862  15.248  1.00  0.00    -0.000 C 
BRANCH  12  13
ATOM     13  C   UNL     1       6.990 -34.489  15.929  1.00  0.00    -0.000 C 
BRANCH  13  14
ATOM     14  C   UNL     1       8.270 -33.937  16.585  1.00  0.00    -0.000 C 
BRANCH  14  15
ATOM     15  C   UNL     1       8.263 -32.404  16.768  1.00  0.00    -0.003 C 
ATOM     16  C   UNL     1       8.793 -31.971  18.135  1.00  0.00     0.004 C 
ENDBRANCH  14  15
ENDBRANCH  13  14
ENDBRANCH  12  13
ENDBRANCH  11  12
ENDBRANCH  10  11
ENDBRANCH   1  10
TORSDOF 12
ENDMDL
MODEL 9
REMARK VINA RESULT:    -2.128      3.099      6.063
REMARK INTER + INTRA:          -5.096
REMARK INTER:                  -4.429
REMARK INTRA:                  -0.668
REMARK UNBOUND:                -1.476
REMARK SMILES CCCCCCCCCCCCCC(=O)[O-]
REMARK SMILES IDX 8 1 9 2 10 3 11 4 12 5 13 6 14 7 15 8 16 9 7 10 6 11 5 12
REMARK SMILES IDX 4 13 3 14 2 15 1 16
REMARK H PARENT
REMARK Flexibility Score: inf
ROOT
ATOM      1  C   UNL     1      10.146 -32.112  13.614  1.00  0.00     0.000 C 
ENDROOT
BRANCH   1   2
ATOM      2  C   UNL     1       9.413 -33.359  13.098  1.00  0.00     0.000 C 
BRANCH   2   3
ATOM      3  C   UNL     1       8.277 -33.813  14.032  1.00  0.00     0.000 C 
BRANCH   3   4
ATOM      4  C   UNL     1       7.224 -32.732  14.354  1.00  0.00     0.000 C 
BRANCH   4   5
ATOM      5  C   UNL     1       7.102 -32.359  15.845  1.00  0.00     0.006 C 
BRANCH   5   6
ATOM      6  C   UNL     1       8.218 -32.928  16.733  1.00  0.00     0.053 C 
BRANCH   6   7
ATOM      7  C   UNL     1       8.863 -31.866  17.569  1.00  0.00     0.041 C 
ATOM      8  O   UNL     1       8.506 -31.695  18.764  1.00  0.00    -0.550 OA
ATOM      9  O   UNL     1       9.882 -31.085  17.037  1.00  0.00    -0.550 OA
ENDBRANCH   6   7
ENDBRANCH   5   6
ENDBRANCH   4   5
ENDBRANCH   3   4
ENDBRANCH   2   3
ENDBRANCH   1   2
BRANCH   1  10
ATOM     10  C   UNL     1      11.667 -32.298  13.535  1.00  0.00     0.000 C 
BRANCH  10  11
ATOM     11  C   UNL     1      12.396 -31.209  14.336  1.00  0.00    -0.000 C 
BRANCH  11  12
ATOM     12  C   UNL     1      13.891 -31.102  13.979  1.00  0.00    -0.000 C 
BRANCH  12  13
ATOM     13  C   UNL     1      14.420 -29.664  13.820  1.00  0.00    -0.000 C 
BRANCH  13  14
ATOM     14  C   UNL     1      15.218 -29.124  15.023  1.00  0.00    -0.000 C 
BRANCH  14  15
ATOM     15  C   UNL     1      15.548 -27.620  14.926  1.00  0.00    -0.003 C 
ATOM     16  C   UNL     1      16.021 -27.033  16.256  1.00  0.00     0.004 C 
ENDBRANCH  14  15
ENDBRANCH  13  14
ENDBRANCH  12  13
ENDBRANCH  11  12
ENDBRANCH  10  11
ENDBRANCH   1  10
TORSDOF 12
ENDMDL
