MODEL 1
REMARK VINA RESULT:    -4.037      0.000      0.000
REMARK INTER + INTRA:          -4.037
REMARK INTER:                  -4.037
REMARK INTRA:                   0.000
REMARK UNBOUND:                 0.000
REMARK SMILES CC1=CC=CC(C)(C)[C@H]1C
REMARK SMILES IDX 10 1 9 2 2 3 3 4 4 5 5 6 6 7 7 8 8 9 1 10
REMARK H PARENT
REMARK Flexibility Score: inf
ROOT
ATOM      1  C   UNL     1     140.186 141.365 132.150  1.00  0.00     0.013 C 
ATOM      2  C   UNL     1     139.149 142.502 132.076  1.00  0.00     0.021 C 
ATOM      3  C   UNL     1     138.361 142.518 133.378  1.00  0.00    -0.070 C 
ATOM      4  C   UNL     1     138.794 143.260 134.412  1.00  0.00    -0.001 C 
ATOM      5  C   UNL     1     139.952 144.159 134.265  1.00  0.00    -0.004 C 
ATOM      6  C   UNL     1     140.454 144.436 133.057  1.00  0.00    -0.020 C 
ATOM      7  C   UNL     1     139.784 143.913 131.798  1.00  0.00    -0.011 C 
ATOM      8  C   UNL     1     140.818 143.864 130.650  1.00  0.00     0.016 C 
ATOM      9  C   UNL     1     138.672 144.906 131.394  1.00  0.00     0.016 C 
ATOM     10  C   UNL     1     137.153 141.642 133.546  1.00  0.00     0.040 C 
ENDROOT
TORSDOF 0
ENDMDL
MODEL 2
REMARK VINA RESULT:    -4.031      3.253      4.416
REMARK INTER + INTRA:          -4.031
REMARK INTER:                  -4.031
REMARK INTRA:                   0.000
REMARK UNBOUND:                 0.000
REMARK SMILES CC1=CC=CC(C)(C)[C@H]1C
REMARK SMILES IDX 10 1 9 2 2 3 3 4 4 5 5 6 6 7 7 8 8 9 1 10
REMARK H PARENT
REMARK Flexibility Score: inf
ROOT
ATOM      1  C   UNL     1     141.307 141.982 132.321  1.00  0.00     0.013 C 
ATOM      2  C   UNL     1     142.404 143.057 132.208  1.00  0.00     0.021 C 
ATOM      3  C   UNL     1     142.377 143.905 133.472  1.00  0.00    -0.070 C 
ATOM      4  C   UNL     1     143.123 143.550 134.531  1.00  0.00    -0.001 C 
ATOM      5  C   UNL     1     144.067 142.421 134.448  1.00  0.00    -0.004 C 
ATOM      6  C   UNL     1     144.375 141.874 133.267  1.00  0.00    -0.020 C 
ATOM      7  C   UNL     1     143.841 142.463 131.973  1.00  0.00    -0.011 C 
ATOM      8  C   UNL     1     143.843 141.375 130.876  1.00  0.00     0.016 C 
ATOM      9  C   UNL     1     144.795 143.592 131.525  1.00  0.00     0.016 C 
ATOM     10  C   UNL     1     141.454 145.086 133.574  1.00  0.00     0.040 C 
ENDROOT
TORSDOF 0
ENDMDL
MODEL 3
REMARK VINA RESULT:    -4.031      4.162      6.404
REMARK INTER + INTRA:          -4.031
REMARK INTER:                  -4.031
REMARK INTRA:                   0.000
REMARK UNBOUND:                 0.000
REMARK SMILES CC1=CC=CC(C)(C)[C@H]1C
REMARK SMILES IDX 10 1 9 2 2 3 3 4 4 5 5 6 6 7 7 8 8 9 1 10
REMARK H PARENT
REMARK Flexibility Score: inf
ROOT
ATOM      1  C   UNL     1     141.981 140.788 132.060  1.00  0.00     0.013 C 
ATOM      2  C   UNL     1     143.056 139.686 132.008  1.00  0.00     0.021 C 
ATOM      3  C   UNL     1     143.802 139.682 133.335  1.00  0.00    -0.070 C 
ATOM      4  C   UNL     1     143.362 138.916 134.347  1.00  0.00    -0.001 C 
ATOM      5  C   UNL     1     142.239 137.981 134.155  1.00  0.00    -0.004 C 
ATOM      6  C   UNL     1     141.785 137.701 132.928  1.00  0.00    -0.020 C 
ATOM      7  C   UNL     1     142.476 138.259 131.697  1.00  0.00    -0.011 C 
ATOM      8  C   UNL     1     141.479 138.286 130.517  1.00  0.00     0.016 C 
ATOM      9  C   UNL     1     143.633 137.307 131.319  1.00  0.00     0.016 C 
ATOM     10  C   UNL     1     144.975 140.595 133.550  1.00  0.00     0.040 C 
ENDROOT
TORSDOF 0
ENDMDL
MODEL 4
REMARK VINA RESULT:    -4.014      3.288      4.503
REMARK INTER + INTRA:          -4.014
REMARK INTER:                  -4.014
REMARK INTRA:                   0.000
REMARK UNBOUND:                 0.000
REMARK SMILES CC1=CC=CC(C)(C)[C@H]1C
REMARK SMILES IDX 10 1 9 2 2 3 3 4 4 5 5 6 6 7 7 8 8 9 1 10
REMARK H PARENT
REMARK Flexibility Score: inf
ROOT
ATOM      1  C   UNL     1     140.841 140.281 132.229  1.00  0.00     0.013 C 
ATOM      2  C   UNL     1     139.743 139.205 132.128  1.00  0.00     0.021 C 
ATOM      3  C   UNL     1     139.724 138.417 133.430  1.00  0.00    -0.070 C 
ATOM      4  C   UNL     1     138.944 138.823 134.446  1.00  0.00    -0.001 C 
ATOM      5  C   UNL     1     138.009 139.950 134.279  1.00  0.00    -0.004 C 
ATOM      6  C   UNL     1     137.743 140.443 133.064  1.00  0.00    -0.020 C 
ATOM      7  C   UNL     1     138.318 139.792 131.818  1.00  0.00    -0.011 C 
ATOM      8  C   UNL     1     138.358 140.828 130.672  1.00  0.00     0.016 C 
ATOM      9  C   UNL     1     137.373 138.647 131.391  1.00  0.00     0.016 C 
ATOM     10  C   UNL     1     140.637 137.239 133.618  1.00  0.00     0.040 C 
ENDROOT
TORSDOF 0
ENDMDL
MODEL 5
REMARK VINA RESULT:    -3.941      4.107      5.512
REMARK INTER + INTRA:          -3.941
REMARK INTER:                  -3.941
REMARK INTRA:                   0.000
REMARK UNBOUND:                 0.000
REMARK SMILES CC1=CC=CC(C)(C)[C@H]1C
REMARK SMILES IDX 10 1 9 2 2 3 3 4 4 5 5 6 6 7 7 8 8 9 1 10
REMARK H PARENT
REMARK Flexibility Score: inf
ROOT
ATOM      1  C   UNL     1     143.470 137.541 131.618  1.00  0.00     0.013 C 
ATOM      2  C   UNL     1     142.503 138.589 132.201  1.00  0.00     0.021 C 
ATOM      3  C   UNL     1     142.035 138.102 133.565  1.00  0.00    -0.070 C 
ATOM      4  C   UNL     1     142.728 138.431 134.667  1.00  0.00    -0.001 C 
ATOM      5  C   UNL     1     143.868 139.363 134.594  1.00  0.00    -0.004 C 
ATOM      6  C   UNL     1     144.095 140.078 133.487  1.00  0.00    -0.020 C 
ATOM      7  C   UNL     1     143.131 140.026 132.315  1.00  0.00    -0.011 C 
ATOM      8  C   UNL     1     143.873 140.435 131.023  1.00  0.00     0.016 C 
ATOM      9  C   UNL     1     142.009 141.057 132.566  1.00  0.00     0.016 C 
ATOM     10  C   UNL     1     140.853 137.182 133.677  1.00  0.00     0.040 C 
ENDROOT
TORSDOF 0
ENDMDL
MODEL 6
REMARK VINA RESULT:    -3.923      3.281      4.490
REMARK INTER + INTRA:          -3.923
REMARK INTER:                  -3.923
REMARK INTRA:                   0.000
REMARK UNBOUND:                 0.000
REMARK SMILES CC1=CC=CC(C)(C)[C@H]1C
REMARK SMILES IDX 10 1 9 2 2 3 3 4 4 5 5 6 6 7 7 8 8 9 1 10
REMARK H PARENT
REMARK Flexibility Score: inf
ROOT
ATOM      1  C   UNL     1     144.716 143.355 131.569  1.00  0.00     0.013 C 
ATOM      2  C   UNL     1     143.643 142.414 132.151  1.00  0.00     0.021 C 
ATOM      3  C   UNL     1     144.102 141.959 133.528  1.00  0.00    -0.070 C 
ATOM      4  C   UNL     1     143.768 142.675 134.615  1.00  0.00    -0.001 C 
ATOM      5  C   UNL     1     142.856 143.828 134.510  1.00  0.00    -0.004 C 
ATOM      6  C   UNL     1     142.162 144.050 133.389  1.00  0.00    -0.020 C 
ATOM      7  C   UNL     1     142.216 143.068 132.232  1.00  0.00    -0.011 C 
ATOM      8  C   UNL     1     141.839 143.796 130.923  1.00  0.00     0.016 C 
ATOM      9  C   UNL     1     141.162 141.966 132.484  1.00  0.00     0.016 C 
ATOM     10  C   UNL     1     145.000 140.764 133.673  1.00  0.00     0.040 C 
ENDROOT
TORSDOF 0
ENDMDL
MODEL 7
REMARK VINA RESULT:    -3.860      2.144      4.208
REMARK INTER + INTRA:          -3.860
REMARK INTER:                  -3.860
REMARK INTRA:                   0.000
REMARK UNBOUND:                 0.000
REMARK SMILES CC1=CC=CC(C)(C)[C@H]1C
REMARK SMILES IDX 10 1 9 2 2 3 3 4 4 5 5 6 6 7 7 8 8 9 1 10
REMARK H PARENT
REMARK Flexibility Score: inf
ROOT
ATOM      1  C   UNL     1     137.252 141.644 133.263  1.00  0.00     0.013 C 
ATOM      2  C   UNL     1     138.643 141.648 133.925  1.00  0.00     0.021 C 
ATOM      3  C   UNL     1     138.851 142.998 134.595  1.00  0.00    -0.070 C 
ATOM      4  C   UNL     1     138.472 143.177 135.872  1.00  0.00    -0.001 C 
ATOM      5  C   UNL     1     137.971 142.048 136.677  1.00  0.00    -0.004 C 
ATOM      6  C   UNL     1     138.097 140.790 136.242  1.00  0.00    -0.020 C 
ATOM      7  C   UNL     1     138.848 140.481 134.959  1.00  0.00    -0.011 C 
ATOM      8  C   UNL     1     138.368 139.123 134.399  1.00  0.00     0.016 C 
ATOM      9  C   UNL     1     140.350 140.353 135.297  1.00  0.00     0.016 C 
ATOM     10  C   UNL     1     139.397 144.159 133.813  1.00  0.00     0.040 C 
ENDROOT
TORSDOF 0
ENDMDL
MODEL 8
REMARK VINA RESULT:    -3.780      3.419      5.009
REMARK INTER + INTRA:          -3.780
REMARK INTER:                  -3.780
REMARK INTRA:                   0.000
REMARK UNBOUND:                 0.000
REMARK SMILES CC1=CC=CC(C)(C)[C@H]1C
REMARK SMILES IDX 10 1 9 2 2 3 3 4 4 5 5 6 6 7 7 8 8 9 1 10
REMARK H PARENT
REMARK Flexibility Score: inf
ROOT
ATOM      1  C   UNL     1     143.636 143.258 134.783  1.00  0.00     0.013 C 
ATOM      2  C   UNL     1     142.976 142.537 133.592  1.00  0.00     0.021 C 
ATOM      3  C   UNL     1     142.304 143.581 132.713  1.00  0.00    -0.070 C 
ATOM      4  C   UNL     1     142.993 144.158 131.714  1.00  0.00    -0.001 C 
ATOM      5  C   UNL     1     144.354 143.706 131.375  1.00  0.00    -0.004 C 
ATOM      6  C   UNL     1     144.845 142.573 131.887  1.00  0.00    -0.020 C 
ATOM      7  C   UNL     1     143.981 141.670 132.750  1.00  0.00    -0.011 C 
ATOM      8  C   UNL     1     144.888 140.801 133.650  1.00  0.00     0.016 C 
ATOM      9  C   UNL     1     143.188 140.726 131.820  1.00  0.00     0.016 C 
ATOM     10  C   UNL     1     140.903 144.036 133.009  1.00  0.00     0.040 C 
ENDROOT
TORSDOF 0
ENDMDL
MODEL 9
REMARK VINA RESULT:    -3.778      4.454      5.952
REMARK INTER + INTRA:          -3.778
REMARK INTER:                  -3.778
REMARK INTRA:                   0.000
REMARK UNBOUND:                 0.000
REMARK SMILES CC1=CC=CC(C)(C)[C@H]1C
REMARK SMILES IDX 10 1 9 2 2 3 3 4 4 5 5 6 6 7 7 8 8 9 1 10
REMARK H PARENT
REMARK Flexibility Score: inf
ROOT
ATOM      1  C   UNL     1     141.480 141.305 134.152  1.00  0.00     0.013 C 
ATOM      2  C   UNL     1     142.555 140.549 134.956  1.00  0.00     0.021 C 
ATOM      3  C   UNL     1     142.890 139.263 134.215  1.00  0.00    -0.070 C 
ATOM      4  C   UNL     1     143.870 139.256 133.295  1.00  0.00    -0.001 C 
ATOM      5  C   UNL     1     144.712 140.447 133.079  1.00  0.00    -0.004 C 
ATOM      6  C   UNL     1     144.681 141.471 133.939  1.00  0.00    -0.020 C 
ATOM      7  C   UNL     1     143.856 141.394 135.211  1.00  0.00    -0.011 C 
ATOM      8  C   UNL     1     143.529 142.824 135.696  1.00  0.00     0.016 C 
ATOM      9  C   UNL     1     144.709 140.705 136.300  1.00  0.00     0.016 C 
ATOM     10  C   UNL     1     142.075 138.021 134.441  1.00  0.00     0.040 C 
ENDROOT
TORSDOF 0
ENDMDL
