MODEL 1
REMARK VINA RESULT:    -3.366      0.000      0.000
REMARK INTER + INTRA:          -8.886
REMARK INTER:                  -7.695
REMARK INTRA:                  -1.192
REMARK UNBOUND:                -1.192
REMARK SMILES CCCCCCCCCCCCCCCCCCCCCCCC(=O)[O-]
REMARK SMILES IDX 13 1 14 2 15 3 16 4 17 5 18 6 19 7 20 8 21 9 22 10 23 11
REMARK SMILES IDX 24 12 25 13 26 14 12 15 11 16 10 17 9 18 8 19 7 20 6 21 5 22
REMARK SMILES IDX 4 23 3 24 2 25 1 26
REMARK H PARENT
REMARK Flexibility Score: inf
ROOT
ATOM      1  C   UNL     1      25.927  37.917  31.939  1.00  0.00     0.000 C 
ENDROOT
BRANCH   1   2
ATOM      2  C   UNL     1      25.486  38.136  33.398  1.00  0.00     0.000 C 
BRANCH   2   3
ATOM      3  C   UNL     1      25.977  37.023  34.341  1.00  0.00     0.000 C 
BRANCH   3   4
ATOM      4  C   UNL     1      25.395  37.138  35.763  1.00  0.00     0.000 C 
BRANCH   4   5
ATOM      5  C   UNL     1      26.423  37.029  36.904  1.00  0.00     0.000 C 
BRANCH   5   6
ATOM      6  C   UNL     1      26.747  38.348  37.629  1.00  0.00     0.000 C 
BRANCH   6   7
ATOM      7  C   UNL     1      28.207  38.454  38.120  1.00  0.00     0.000 C 
BRANCH   7   8
ATOM      8  C   UNL     1      29.068  37.252  37.690  1.00  0.00     0.000 C 
BRANCH   8   9
ATOM      9  C   UNL     1      30.570  37.572  37.676  1.00  0.00     0.000 C 
BRANCH   9  10
ATOM     10  C   UNL     1      30.954  38.572  36.575  1.00  0.00     0.006 C 
BRANCH  10  11
ATOM     11  C   UNL     1      31.841  37.905  35.519  1.00  0.00     0.053 C 
BRANCH  11  12
ATOM     12  C   UNL     1      32.444  38.927  34.606  1.00  0.00     0.041 C 
ATOM     13  O   UNL     1      32.980  39.963  35.080  1.00  0.00    -0.550 OA
ATOM     14  O   UNL     1      32.423  38.730  33.230  1.00  0.00    -0.550 OA
ENDBRANCH  11  12
ENDBRANCH  10  11
ENDBRANCH   9  10
ENDBRANCH   8   9
ENDBRANCH   7   8
ENDBRANCH   6   7
ENDBRANCH   5   6
ENDBRANCH   4   5
ENDBRANCH   3   4
ENDBRANCH   2   3
ENDBRANCH   1   2
BRANCH   1  15
ATOM     15  C   UNL     1      25.122  38.700  30.880  1.00  0.00     0.000 C 
BRANCH  15  16
ATOM     16  C   UNL     1      25.149  38.101  29.461  1.00  0.00     0.000 C 
BRANCH  16  17
ATOM     17  C   UNL     1      24.875  39.113  28.333  1.00  0.00     0.000 C 
BRANCH  17  18
ATOM     18  C   UNL     1      25.958  39.118  27.229  1.00  0.00    -0.000 C 
BRANCH  18  19
ATOM     19  C   UNL     1      25.388  39.099  25.801  1.00  0.00    -0.000 C 
BRANCH  19  20
ATOM     20  C   UNL     1      25.826  40.325  24.979  1.00  0.00    -0.000 C 
BRANCH  20  21
ATOM     21  C   UNL     1      25.832  41.629  25.797  1.00  0.00    -0.000 C 
BRANCH  21  22
ATOM     22  C   UNL     1      26.837  42.698  25.325  1.00  0.00    -0.000 C 
BRANCH  22  23
ATOM     23  C   UNL     1      27.798  43.148  26.437  1.00  0.00    -0.000 C 
BRANCH  23  24
ATOM     24  C   UNL     1      28.877  42.099  26.748  1.00  0.00    -0.000 C 
BRANCH  24  25
ATOM     25  C   UNL     1      30.302  42.623  26.512  1.00  0.00    -0.003 C 
ATOM     26  C   UNL     1      30.280  44.060  25.998  1.00  0.00     0.004 C 
ENDBRANCH  24  25
ENDBRANCH  23  24
ENDBRANCH  22  23
ENDBRANCH  21  22
ENDBRANCH  20  21
ENDBRANCH  19  20
ENDBRANCH  18  19
ENDBRANCH  17  18
ENDBRANCH  16  17
ENDBRANCH  15  16
ENDBRANCH   1  15
TORSDOF 22
ENDMDL
MODEL 2
REMARK VINA RESULT:    -3.328      2.578      9.847
REMARK INTER + INTRA:          -8.799
REMARK INTER:                  -7.634
REMARK INTRA:                  -1.165
REMARK UNBOUND:                -1.192
REMARK SMILES CCCCCCCCCCCCCCCCCCCCCCCC(=O)[O-]
REMARK SMILES IDX 13 1 14 2 15 3 16 4 17 5 18 6 19 7 20 8 21 9 22 10 23 11
REMARK SMILES IDX 24 12 25 13 26 14 12 15 11 16 10 17 9 18 8 19 7 20 6 21 5 22
REMARK SMILES IDX 4 23 3 24 2 25 1 26
REMARK H PARENT
REMARK Flexibility Score: inf
ROOT
ATOM      1  C   UNL     1      25.229  38.438  33.658  1.00  0.00     0.000 C 
ENDROOT
BRANCH   1   2
ATOM      2  C   UNL     1      24.902  38.373  32.154  1.00  0.00     0.000 C 
BRANCH   2   3
ATOM      3  C   UNL     1      26.095  37.899  31.306  1.00  0.00     0.000 C 
BRANCH   3   4
ATOM      4  C   UNL     1      25.845  38.025  29.791  1.00  0.00     0.000 C 
BRANCH   4   5
ATOM      5  C   UNL     1      25.135  39.318  29.348  1.00  0.00     0.000 C 
BRANCH   5   6
ATOM      6  C   UNL     1      25.075  39.551  27.827  1.00  0.00     0.000 C 
BRANCH   6   7
ATOM      7  C   UNL     1      24.876  41.027  27.424  1.00  0.00     0.000 C 
BRANCH   7   8
ATOM      8  C   UNL     1      25.722  41.429  26.202  1.00  0.00     0.000 C 
BRANCH   8   9
ATOM      9  C   UNL     1      27.197  41.021  26.339  1.00  0.00     0.000 C 
BRANCH   9  10
ATOM     10  C   UNL     1      28.051  42.100  27.021  1.00  0.00     0.006 C 
BRANCH  10  11
ATOM     11  C   UNL     1      28.621  43.077  25.988  1.00  0.00     0.053 C 
BRANCH  11  12
ATOM     12  C   UNL     1      30.065  43.363  26.264  1.00  0.00     0.041 C 
ATOM     13  O   UNL     1      30.579  44.451  25.893  1.00  0.00    -0.550 OA
ATOM     14  O   UNL     1      30.842  42.429  26.940  1.00  0.00    -0.550 OA
ENDBRANCH  11  12
ENDBRANCH  10  11
ENDBRANCH   9  10
ENDBRANCH   8   9
ENDBRANCH   7   8
ENDBRANCH   6   7
ENDBRANCH   5   6
ENDBRANCH   4   5
ENDBRANCH   3   4
ENDBRANCH   2   3
ENDBRANCH   1   2
BRANCH   1  15
ATOM     15  C   UNL     1      24.902  37.162  34.462  1.00  0.00     0.000 C 
BRANCH  15  16
ATOM     16  C   UNL     1      25.733  36.965  35.744  1.00  0.00     0.000 C 
BRANCH  16  17
ATOM     17  C   UNL     1      25.726  38.169  36.704  1.00  0.00     0.000 C 
BRANCH  17  18
ATOM     18  C   UNL     1      25.840  37.774  38.195  1.00  0.00    -0.000 C 
BRANCH  18  19
ATOM     19  C   UNL     1      27.244  37.299  38.605  1.00  0.00    -0.000 C 
BRANCH  19  20
ATOM     20  C   UNL     1      28.339  38.314  38.231  1.00  0.00    -0.000 C 
BRANCH  20  21
ATOM     21  C   UNL     1      29.554  37.664  37.545  1.00  0.00    -0.000 C 
BRANCH  21  22
ATOM     22  C   UNL     1      30.880  38.438  37.685  1.00  0.00    -0.000 C 
BRANCH  22  23
ATOM     23  C   UNL     1      31.336  39.087  36.368  1.00  0.00    -0.000 C 
BRANCH  23  24
ATOM     24  C   UNL     1      31.450  38.076  35.217  1.00  0.00    -0.000 C 
BRANCH  24  25
ATOM     25  C   UNL     1      32.447  38.515  34.134  1.00  0.00    -0.003 C 
ATOM     26  C   UNL     1      32.431  37.552  32.950  1.00  0.00     0.004 C 
ENDBRANCH  24  25
ENDBRANCH  23  24
ENDBRANCH  22  23
ENDBRANCH  21  22
ENDBRANCH  20  21
ENDBRANCH  19  20
ENDBRANCH  18  19
ENDBRANCH  17  18
ENDBRANCH  16  17
ENDBRANCH  15  16
ENDBRANCH   1  15
TORSDOF 22
ENDMDL
MODEL 3
REMARK VINA RESULT:    -3.147      8.466     12.364
REMARK INTER + INTRA:          -8.385
REMARK INTER:                  -7.228
REMARK INTRA:                  -1.158
REMARK UNBOUND:                -1.192
REMARK SMILES CCCCCCCCCCCCCCCCCCCCCCCC(=O)[O-]
REMARK SMILES IDX 13 1 14 2 15 3 16 4 17 5 18 6 19 7 20 8 21 9 22 10 23 11
REMARK SMILES IDX 24 12 25 13 26 14 12 15 11 16 10 17 9 18 8 19 7 20 6 21 5 22
REMARK SMILES IDX 4 23 3 24 2 25 1 26
REMARK H PARENT
REMARK Flexibility Score: inf
ROOT
ATOM      1  C   UNL     1      26.811  42.727  41.678  1.00  0.00     0.000 C 
ENDROOT
BRANCH   1   2
ATOM      2  C   UNL     1      27.151  44.162  42.123  1.00  0.00     0.000 C 
BRANCH   2   3
ATOM      3  C   UNL     1      28.594  44.566  41.772  1.00  0.00     0.000 C 
BRANCH   3   4
ATOM      4  C   UNL     1      28.808  46.092  41.773  1.00  0.00     0.000 C 
BRANCH   4   5
ATOM      5  C   UNL     1      30.015  46.587  40.954  1.00  0.00     0.000 C 
BRANCH   5   6
ATOM      6  C   UNL     1      30.378  48.072  41.143  1.00  0.00     0.000 C 
BRANCH   6   7
ATOM      7  C   UNL     1      29.376  48.858  42.015  1.00  0.00     0.000 C 
BRANCH   7   8
ATOM      8  C   UNL     1      28.839  50.119  41.314  1.00  0.00     0.000 C 
BRANCH   8   9
ATOM      9  C   UNL     1      29.116  50.124  39.804  1.00  0.00     0.000 C 
BRANCH   9  10
ATOM     10  C   UNL     1      30.159  51.174  39.393  1.00  0.00     0.006 C 
BRANCH  10  11
ATOM     11  C   UNL     1      29.563  52.175  38.398  1.00  0.00     0.053 C 
BRANCH  11  12
ATOM     12  C   UNL     1      28.348  52.836  38.972  1.00  0.00     0.041 C 
ATOM     13  O   UNL     1      27.217  52.646  38.452  1.00  0.00    -0.550 OA
ATOM     14  O   UNL     1      28.463  53.657  40.088  1.00  0.00    -0.550 OA
ENDBRANCH  11  12
ENDBRANCH  10  11
ENDBRANCH   9  10
ENDBRANCH   8   9
ENDBRANCH   7   8
ENDBRANCH   6   7
ENDBRANCH   5   6
ENDBRANCH   4   5
ENDBRANCH   3   4
ENDBRANCH   2   3
ENDBRANCH   1   2
BRANCH   1  15
ATOM     15  C   UNL     1      26.695  42.517  40.154  1.00  0.00     0.000 C 
BRANCH  15  16
ATOM     16  C   UNL     1      25.601  41.527  39.710  1.00  0.00     0.000 C 
BRANCH  16  17
ATOM     17  C   UNL     1      26.126  40.151  39.259  1.00  0.00     0.000 C 
BRANCH  17  18
ATOM     18  C   UNL     1      27.669  40.065  39.200  1.00  0.00    -0.000 C 
BRANCH  18  19
ATOM     19  C   UNL     1      28.244  38.789  39.835  1.00  0.00    -0.000 C 
BRANCH  19  20
ATOM     20  C   UNL     1      28.833  37.826  38.788  1.00  0.00    -0.000 C 
BRANCH  20  21
ATOM     21  C   UNL     1      30.327  38.075  38.512  1.00  0.00    -0.000 C 
BRANCH  21  22
ATOM     22  C   UNL     1      30.761  37.907  37.043  1.00  0.00    -0.000 C 
BRANCH  22  23
ATOM     23  C   UNL     1      31.361  39.190  36.445  1.00  0.00    -0.000 C 
BRANCH  23  24
ATOM     24  C   UNL     1      32.733  38.956  35.794  1.00  0.00    -0.000 C 
BRANCH  24  25
ATOM     25  C   UNL     1      32.715  39.171  34.273  1.00  0.00    -0.003 C 
ATOM     26  C   UNL     1      31.988  38.030  33.566  1.00  0.00     0.004 C 
ENDBRANCH  24  25
ENDBRANCH  23  24
ENDBRANCH  22  23
ENDBRANCH  21  22
ENDBRANCH  20  21
ENDBRANCH  19  20
ENDBRANCH  18  19
ENDBRANCH  17  18
ENDBRANCH  16  17
ENDBRANCH  15  16
ENDBRANCH   1  15
TORSDOF 22
ENDMDL
MODEL 4
REMARK VINA RESULT:    -2.939      2.603     10.043
REMARK INTER + INTRA:          -7.911
REMARK INTER:                  -7.127
REMARK INTRA:                  -0.785
REMARK UNBOUND:                -1.192
REMARK SMILES CCCCCCCCCCCCCCCCCCCCCCCC(=O)[O-]
REMARK SMILES IDX 13 1 14 2 15 3 16 4 17 5 18 6 19 7 20 8 21 9 22 10 23 11
REMARK SMILES IDX 24 12 25 13 26 14 12 15 11 16 10 17 9 18 8 19 7 20 6 21 5 22
REMARK SMILES IDX 4 23 3 24 2 25 1 26
REMARK H PARENT
REMARK Flexibility Score: inf
ROOT
ATOM      1  C   UNL     1      26.994  38.256  31.469  1.00  0.00     0.000 C 
ENDROOT
BRANCH   1   2
ATOM      2  C   UNL     1      25.899  38.304  30.387  1.00  0.00     0.000 C 
BRANCH   2   3
ATOM      3  C   UNL     1      26.077  37.216  29.314  1.00  0.00     0.000 C 
BRANCH   3   4
ATOM      4  C   UNL     1      25.251  37.486  28.041  1.00  0.00     0.000 C 
BRANCH   4   5
ATOM      5  C   UNL     1      26.056  37.508  26.728  1.00  0.00     0.000 C 
BRANCH   5   6
ATOM      6  C   UNL     1      25.643  38.595  25.719  1.00  0.00     0.000 C 
BRANCH   6   7
ATOM      7  C   UNL     1      26.429  39.916  25.861  1.00  0.00     0.000 C 
BRANCH   7   8
ATOM      8  C   UNL     1      25.788  41.077  25.078  1.00  0.00     0.000 C 
BRANCH   8   9
ATOM      9  C   UNL     1      26.597  42.379  25.179  1.00  0.00     0.000 C 
BRANCH   9  10
ATOM     10  C   UNL     1      26.615  42.960  26.601  1.00  0.00     0.006 C 
BRANCH  10  11
ATOM     11  C   UNL     1      27.869  42.506  27.357  1.00  0.00     0.053 C 
BRANCH  11  12
ATOM     12  C   UNL     1      29.071  42.539  26.465  1.00  0.00     0.041 C 
ATOM     13  O   UNL     1      29.835  41.541  26.394  1.00  0.00    -0.550 OA
ATOM     14  O   UNL     1      29.342  43.670  25.703  1.00  0.00    -0.550 OA
ENDBRANCH  11  12
ENDBRANCH  10  11
ENDBRANCH   9  10
ENDBRANCH   8   9
ENDBRANCH   7   8
ENDBRANCH   6   7
ENDBRANCH   5   6
ENDBRANCH   4   5
ENDBRANCH   3   4
ENDBRANCH   2   3
ENDBRANCH   1   2
BRANCH   1  15
ATOM     15  C   UNL     1      26.690  37.345  32.678  1.00  0.00     0.000 C 
BRANCH  15  16
ATOM     16  C   UNL     1      25.699  37.926  33.704  1.00  0.00     0.000 C 
BRANCH  16  17
ATOM     17  C   UNL     1      24.997  36.875  34.584  1.00  0.00     0.000 C 
BRANCH  17  18
ATOM     18  C   UNL     1      25.418  36.931  36.071  1.00  0.00    -0.000 C 
BRANCH  18  19
ATOM     19  C   UNL     1      26.939  36.875  36.288  1.00  0.00    -0.000 C 
BRANCH  19  20
ATOM     20  C   UNL     1      27.362  37.478  37.640  1.00  0.00    -0.000 C 
BRANCH  20  21
ATOM     21  C   UNL     1      28.712  38.215  37.577  1.00  0.00    -0.000 C 
BRANCH  21  22
ATOM     22  C   UNL     1      29.903  37.366  37.093  1.00  0.00    -0.000 C 
BRANCH  22  23
ATOM     23  C   UNL     1      31.257  38.066  37.291  1.00  0.00    -0.000 C 
BRANCH  23  24
ATOM     24  C   UNL     1      31.562  39.090  36.187  1.00  0.00    -0.000 C 
BRANCH  24  25
ATOM     25  C   UNL     1      32.749  38.677  35.303  1.00  0.00    -0.003 C 
ATOM     26  C   UNL     1      32.295  38.390  33.874  1.00  0.00     0.004 C 
ENDBRANCH  24  25
ENDBRANCH  23  24
ENDBRANCH  22  23
ENDBRANCH  21  22
ENDBRANCH  20  21
ENDBRANCH  19  20
ENDBRANCH  18  19
ENDBRANCH  17  18
ENDBRANCH  16  17
ENDBRANCH  15  16
ENDBRANCH   1  15
TORSDOF 22
ENDMDL
MODEL 5
REMARK VINA RESULT:    -2.783      8.503     11.632
REMARK INTER + INTRA:          -7.553
REMARK INTER:                  -6.465
REMARK INTRA:                  -1.088
REMARK UNBOUND:                -1.192
REMARK SMILES CCCCCCCCCCCCCCCCCCCCCCCC(=O)[O-]
REMARK SMILES IDX 13 1 14 2 15 3 16 4 17 5 18 6 19 7 20 8 21 9 22 10 23 11
REMARK SMILES IDX 24 12 25 13 26 14 12 15 11 16 10 17 9 18 8 19 7 20 6 21 5 22
REMARK SMILES IDX 4 23 3 24 2 25 1 26
REMARK H PARENT
REMARK Flexibility Score: inf
ROOT
ATOM      1  C   UNL     1      27.038  41.065  39.418  1.00  0.00     0.000 C 
ENDROOT
BRANCH   1   2
ATOM      2  C   UNL     1      26.626  42.426  40.009  1.00  0.00     0.000 C 
BRANCH   2   3
ATOM      3  C   UNL     1      26.746  42.469  41.542  1.00  0.00     0.000 C 
BRANCH   3   4
ATOM      4  C   UNL     1      26.988  43.890  42.087  1.00  0.00     0.000 C 
BRANCH   4   5
ATOM      5  C   UNL     1      28.453  44.365  42.057  1.00  0.00     0.000 C 
BRANCH   5   6
ATOM      6  C   UNL     1      28.652  45.884  41.904  1.00  0.00     0.000 C 
BRANCH   6   7
ATOM      7  C   UNL     1      29.742  46.276  40.884  1.00  0.00     0.000 C 
BRANCH   7   8
ATOM      8  C   UNL     1      30.593  47.470  41.351  1.00  0.00     0.000 C 
BRANCH   8   9
ATOM      9  C   UNL     1      29.849  48.809  41.242  1.00  0.00     0.000 C 
BRANCH   9  10
ATOM     10  C   UNL     1      30.724  49.931  40.663  1.00  0.00     0.006 C 
BRANCH  10  11
ATOM     11  C   UNL     1      30.140  50.453  39.346  1.00  0.00     0.053 C 
BRANCH  11  12
ATOM     12  C   UNL     1      29.388  51.729  39.564  1.00  0.00     0.041 C 
ATOM     13  O   UNL     1      28.517  52.102  38.735  1.00  0.00    -0.550 OA
ATOM     14  O   UNL     1      29.642  52.502  40.691  1.00  0.00    -0.550 OA
ENDBRANCH  11  12
ENDBRANCH  10  11
ENDBRANCH   9  10
ENDBRANCH   8   9
ENDBRANCH   7   8
ENDBRANCH   6   7
ENDBRANCH   5   6
ENDBRANCH   4   5
ENDBRANCH   3   4
ENDBRANCH   2   3
ENDBRANCH   1   2
BRANCH   1  15
ATOM     15  C   UNL     1      26.540  39.828  40.196  1.00  0.00     0.000 C 
BRANCH  15  16
ATOM     16  C   UNL     1      25.147  39.312  39.786  1.00  0.00     0.000 C 
BRANCH  16  17
ATOM     17  C   UNL     1      25.162  37.999  38.981  1.00  0.00     0.000 C 
BRANCH  17  18
ATOM     18  C   UNL     1      26.263  37.010  39.429  1.00  0.00    -0.000 C 
BRANCH  18  19
ATOM     19  C   UNL     1      27.590  37.173  38.668  1.00  0.00    -0.000 C 
BRANCH  19  20
ATOM     20  C   UNL     1      28.816  36.953  39.573  1.00  0.00    -0.000 C 
BRANCH  20  21
ATOM     21  C   UNL     1      30.119  37.506  38.968  1.00  0.00    -0.000 C 
BRANCH  21  22
ATOM     22  C   UNL     1      30.107  37.693  37.439  1.00  0.00    -0.000 C 
BRANCH  22  23
ATOM     23  C   UNL     1      30.966  38.880  36.974  1.00  0.00    -0.000 C 
BRANCH  23  24
ATOM     24  C   UNL     1      32.416  38.795  37.476  1.00  0.00    -0.000 C 
BRANCH  24  25
ATOM     25  C   UNL     1      33.432  39.333  36.457  1.00  0.00    -0.003 C 
ATOM     26  C   UNL     1      32.743  39.731  35.154  1.00  0.00     0.004 C 
ENDBRANCH  24  25
ENDBRANCH  23  24
ENDBRANCH  22  23
ENDBRANCH  21  22
ENDBRANCH  20  21
ENDBRANCH  19  20
ENDBRANCH  18  19
ENDBRANCH  17  18
ENDBRANCH  16  17
ENDBRANCH  15  16
ENDBRANCH   1  15
TORSDOF 22
ENDMDL
MODEL 6
REMARK VINA RESULT:    -2.609      3.598     10.689
REMARK INTER + INTRA:          -7.155
REMARK INTER:                  -5.855
REMARK INTRA:                  -1.300
REMARK UNBOUND:                -1.192
REMARK SMILES CCCCCCCCCCCCCCCCCCCCCCCC(=O)[O-]
REMARK SMILES IDX 13 1 14 2 15 3 16 4 17 5 18 6 19 7 20 8 21 9 22 10 23 11
REMARK SMILES IDX 24 12 25 13 26 14 12 15 11 16 10 17 9 18 8 19 7 20 6 21 5 22
REMARK SMILES IDX 4 23 3 24 2 25 1 26
REMARK H PARENT
REMARK Flexibility Score: inf
ROOT
ATOM      1  C   UNL     1      24.928  38.443  34.327  1.00  0.00     0.000 C 
ENDROOT
BRANCH   1   2
ATOM      2  C   UNL     1      24.898  37.596  33.041  1.00  0.00     0.000 C 
BRANCH   2   3
ATOM      3  C   UNL     1      26.295  37.402  32.425  1.00  0.00     0.000 C 
BRANCH   3   4
ATOM      4  C   UNL     1      26.424  38.017  31.019  1.00  0.00     0.000 C 
BRANCH   4   5
ATOM      5  C   UNL     1      25.260  37.709  30.057  1.00  0.00     0.000 C 
BRANCH   5   6
ATOM      6  C   UNL     1      25.673  37.247  28.648  1.00  0.00     0.000 C 
BRANCH   6   7
ATOM      7  C   UNL     1      24.895  37.937  27.507  1.00  0.00     0.000 C 
BRANCH   7   8
ATOM      8  C   UNL     1      25.619  39.180  26.959  1.00  0.00     0.000 C 
BRANCH   8   9
ATOM      9  C   UNL     1      25.405  40.426  27.832  1.00  0.00     0.000 C 
BRANCH   9  10
ATOM     10  C   UNL     1      26.410  41.546  27.525  1.00  0.00     0.006 C 
BRANCH  10  11
ATOM     11  C   UNL     1      26.984  41.392  26.113  1.00  0.00     0.053 C 
BRANCH  11  12
ATOM     12  C   UNL     1      26.435  42.441  25.196  1.00  0.00     0.041 C 
ATOM     13  O   UNL     1      26.000  42.125  24.058  1.00  0.00    -0.550 OA
ATOM     14  O   UNL     1      26.396  43.770  25.604  1.00  0.00    -0.550 OA
ENDBRANCH  11  12
ENDBRANCH  10  11
ENDBRANCH   9  10
ENDBRANCH   8   9
ENDBRANCH   7   8
ENDBRANCH   6   7
ENDBRANCH   5   6
ENDBRANCH   4   5
ENDBRANCH   3   4
ENDBRANCH   2   3
ENDBRANCH   1   2
BRANCH   1  15
ATOM     15  C   UNL     1      25.031  37.644  35.643  1.00  0.00     0.000 C 
BRANCH  15  16
ATOM     16  C   UNL     1      26.045  38.192  36.665  1.00  0.00     0.000 C 
BRANCH  16  17
ATOM     17  C   UNL     1      25.738  37.832  38.130  1.00  0.00     0.000 C 
BRANCH  17  18
ATOM     18  C   UNL     1      26.225  38.892  39.145  1.00  0.00    -0.000 C 
BRANCH  18  19
ATOM     19  C   UNL     1      27.480  38.470  39.928  1.00  0.00    -0.000 C 
BRANCH  19  20
ATOM     20  C   UNL     1      27.921  37.032  39.599  1.00  0.00    -0.000 C 
BRANCH  20  21
ATOM     21  C   UNL     1      29.447  36.887  39.457  1.00  0.00    -0.000 C 
BRANCH  21  22
ATOM     22  C   UNL     1      30.129  37.946  38.570  1.00  0.00    -0.000 C 
BRANCH  22  23
ATOM     23  C   UNL     1      31.635  38.078  38.846  1.00  0.00    -0.000 C 
BRANCH  23  24
ATOM     24  C   UNL     1      32.463  38.223  37.559  1.00  0.00    -0.000 C 
BRANCH  24  25
ATOM     25  C   UNL     1      31.667  38.855  36.407  1.00  0.00    -0.003 C 
ATOM     26  C   UNL     1      32.580  39.663  35.488  1.00  0.00     0.004 C 
ENDBRANCH  24  25
ENDBRANCH  23  24
ENDBRANCH  22  23
ENDBRANCH  21  22
ENDBRANCH  20  21
ENDBRANCH  19  20
ENDBRANCH  18  19
ENDBRANCH  17  18
ENDBRANCH  16  17
ENDBRANCH  15  16
ENDBRANCH   1  15
TORSDOF 22
ENDMDL
MODEL 7
REMARK VINA RESULT:    -2.533      3.548     10.804
REMARK INTER + INTRA:          -6.982
REMARK INTER:                  -5.575
REMARK INTRA:                  -1.407
REMARK UNBOUND:                -1.192
REMARK SMILES CCCCCCCCCCCCCCCCCCCCCCCC(=O)[O-]
REMARK SMILES IDX 13 1 14 2 15 3 16 4 17 5 18 6 19 7 20 8 21 9 22 10 23 11
REMARK SMILES IDX 24 12 25 13 26 14 12 15 11 16 10 17 9 18 8 19 7 20 6 21 5 22
REMARK SMILES IDX 4 23 3 24 2 25 1 26
REMARK H PARENT
REMARK Flexibility Score: inf
ROOT
ATOM      1  C   UNL     1      31.843  38.161  34.414  1.00  0.00     0.000 C 
ENDROOT
BRANCH   1   2
ATOM      2  C   UNL     1      31.922  37.929  32.894  1.00  0.00     0.000 C 
BRANCH   2   3
ATOM      3  C   UNL     1      30.914  36.876  32.401  1.00  0.00     0.000 C 
BRANCH   3   4
ATOM      4  C   UNL     1      29.485  37.119  32.923  1.00  0.00     0.000 C 
BRANCH   4   5
ATOM      5  C   UNL     1      28.361  36.881  31.898  1.00  0.00     0.000 C 
BRANCH   5   6
ATOM      6  C   UNL     1      26.972  37.405  32.307  1.00  0.00     0.000 C 
BRANCH   6   7
ATOM      7  C   UNL     1      26.277  38.257  31.225  1.00  0.00     0.000 C 
BRANCH   7   8
ATOM      8  C   UNL     1      25.951  37.454  29.953  1.00  0.00     0.000 C 
BRANCH   8   9
ATOM      9  C   UNL     1      24.967  38.183  29.025  1.00  0.00     0.000 C 
BRANCH   9  10
ATOM     10  C   UNL     1      25.547  39.481  28.445  1.00  0.00     0.006 C 
BRANCH  10  11
ATOM     11  C   UNL     1      26.110  39.246  27.040  1.00  0.00     0.053 C 
BRANCH  11  12
ATOM     12  C   UNL     1      26.061  40.503  26.228  1.00  0.00     0.041 C 
ATOM     13  O   UNL     1      25.267  40.600  25.256  1.00  0.00    -0.550 OA
ATOM     14  O   UNL     1      26.887  41.573  26.551  1.00  0.00    -0.550 OA
ENDBRANCH  11  12
ENDBRANCH  10  11
ENDBRANCH   9  10
ENDBRANCH   8   9
ENDBRANCH   7   8
ENDBRANCH   6   7
ENDBRANCH   5   6
ENDBRANCH   4   5
ENDBRANCH   3   4
ENDBRANCH   2   3
ENDBRANCH   1   2
BRANCH   1  15
ATOM     15  C   UNL     1      32.411  39.509  34.907  1.00  0.00     0.000 C 
BRANCH  15  16
ATOM     16  C   UNL     1      33.120  39.460  36.274  1.00  0.00     0.000 C 
BRANCH  16  17
ATOM     17  C   UNL     1      33.559  38.053  36.719  1.00  0.00     0.000 C 
BRANCH  17  18
ATOM     18  C   UNL     1      33.113  37.689  38.155  1.00  0.00    -0.000 C 
BRANCH  18  19
ATOM     19  C   UNL     1      31.803  36.885  38.212  1.00  0.00    -0.000 C 
BRANCH  19  20
ATOM     20  C   UNL     1      30.963  37.221  39.457  1.00  0.00    -0.000 C 
BRANCH  20  21
ATOM     21  C   UNL     1      29.983  38.386  39.227  1.00  0.00    -0.000 C 
BRANCH  21  22
ATOM     22  C   UNL     1      29.092  38.260  37.977  1.00  0.00    -0.000 C 
BRANCH  22  23
ATOM     23  C   UNL     1      27.715  38.921  38.154  1.00  0.00    -0.000 C 
BRANCH  23  24
ATOM     24  C   UNL     1      27.619  39.754  39.442  1.00  0.00    -0.000 C 
BRANCH  24  25
ATOM     25  C   UNL     1      26.352  40.621  39.497  1.00  0.00    -0.003 C 
ATOM     26  C   UNL     1      26.701  42.084  39.762  1.00  0.00     0.004 C 
ENDBRANCH  24  25
ENDBRANCH  23  24
ENDBRANCH  22  23
ENDBRANCH  21  22
ENDBRANCH  20  21
ENDBRANCH  19  20
ENDBRANCH  18  19
ENDBRANCH  17  18
ENDBRANCH  16  17
ENDBRANCH  15  16
ENDBRANCH   1  15
TORSDOF 22
ENDMDL
MODEL 8
REMARK VINA RESULT:    -2.504      3.152     10.466
REMARK INTER + INTRA:          -6.916
REMARK INTER:                  -5.877
REMARK INTRA:                  -1.038
REMARK UNBOUND:                -1.192
REMARK SMILES CCCCCCCCCCCCCCCCCCCCCCCC(=O)[O-]
REMARK SMILES IDX 13 1 14 2 15 3 16 4 17 5 18 6 19 7 20 8 21 9 22 10 23 11
REMARK SMILES IDX 24 12 25 13 26 14 12 15 11 16 10 17 9 18 8 19 7 20 6 21 5 22
REMARK SMILES IDX 4 23 3 24 2 25 1 26
REMARK H PARENT
REMARK Flexibility Score: inf
ROOT
ATOM      1  C   UNL     1      27.105  38.398  31.537  1.00  0.00     0.000 C 
ENDROOT
BRANCH   1   2
ATOM      2  C   UNL     1      26.151  38.309  30.331  1.00  0.00     0.000 C 
BRANCH   2   3
ATOM      3  C   UNL     1      26.556  37.210  29.333  1.00  0.00     0.000 C 
BRANCH   3   4
ATOM      4  C   UNL     1      25.884  37.371  27.956  1.00  0.00     0.000 C 
BRANCH   4   5
ATOM      5  C   UNL     1      26.850  37.453  26.759  1.00  0.00     0.000 C 
BRANCH   5   6
ATOM      6  C   UNL     1      26.281  38.127  25.497  1.00  0.00     0.000 C 
BRANCH   6   7
ATOM      7  C   UNL     1      26.562  39.642  25.412  1.00  0.00     0.000 C 
BRANCH   7   8
ATOM      8  C   UNL     1      25.940  40.429  26.580  1.00  0.00     0.000 C 
BRANCH   8   9
ATOM      9  C   UNL     1      26.164  41.944  26.461  1.00  0.00     0.000 C 
BRANCH   9  10
ATOM     10  C   UNL     1      27.320  42.445  27.339  1.00  0.00     0.006 C 
BRANCH  10  11
ATOM     11  C   UNL     1      28.371  43.172  26.493  1.00  0.00     0.053 C 
BRANCH  11  12
ATOM     12  C   UNL     1      29.746  42.663  26.798  1.00  0.00     0.041 C 
ATOM     13  O   UNL     1      30.646  42.702  25.919  1.00  0.00    -0.550 OA
ATOM     14  O   UNL     1      30.036  42.155  28.060  1.00  0.00    -0.550 OA
ENDBRANCH  11  12
ENDBRANCH  10  11
ENDBRANCH   9  10
ENDBRANCH   8   9
ENDBRANCH   7   8
ENDBRANCH   6   7
ENDBRANCH   5   6
ENDBRANCH   4   5
ENDBRANCH   3   4
ENDBRANCH   2   3
ENDBRANCH   1   2
BRANCH   1  15
ATOM     15  C   UNL     1      26.753  37.480  32.728  1.00  0.00     0.000 C 
BRANCH  15  16
ATOM     16  C   UNL     1      25.580  37.962  33.602  1.00  0.00     0.000 C 
BRANCH  16  17
ATOM     17  C   UNL     1      24.963  36.875  34.503  1.00  0.00     0.000 C 
BRANCH  17  18
ATOM     18  C   UNL     1      24.878  37.281  35.993  1.00  0.00    -0.000 C 
BRANCH  18  19
ATOM     19  C   UNL     1      26.224  37.721  36.594  1.00  0.00    -0.000 C 
BRANCH  19  20
ATOM     20  C   UNL     1      26.190  37.773  38.132  1.00  0.00    -0.000 C 
BRANCH  20  21
ATOM     21  C   UNL     1      25.414  38.986  38.678  1.00  0.00    -0.000 C 
BRANCH  21  22
ATOM     22  C   UNL     1      25.286  40.175  37.706  1.00  0.00    -0.000 C 
BRANCH  22  23
ATOM     23  C   UNL     1      25.240  41.533  38.425  1.00  0.00    -0.000 C 
BRANCH  23  24
ATOM     24  C   UNL     1      25.158  41.392  39.954  1.00  0.00    -0.000 C 
BRANCH  24  25
ATOM     25  C   UNL     1      26.410  41.922  40.669  1.00  0.00    -0.003 C 
ATOM     26  C   UNL     1      27.589  40.969  40.487  1.00  0.00     0.004 C 
ENDBRANCH  24  25
ENDBRANCH  23  24
ENDBRANCH  22  23
ENDBRANCH  21  22
ENDBRANCH  20  21
ENDBRANCH  19  20
ENDBRANCH  18  19
ENDBRANCH  17  18
ENDBRANCH  16  17
ENDBRANCH  15  16
ENDBRANCH   1  15
TORSDOF 22
ENDMDL
MODEL 9
REMARK VINA RESULT:    -2.434      8.724     12.078
REMARK INTER + INTRA:          -6.756
REMARK INTER:                  -6.123
REMARK INTRA:                  -0.633
REMARK UNBOUND:                -1.192
REMARK SMILES CCCCCCCCCCCCCCCCCCCCCCCC(=O)[O-]
REMARK SMILES IDX 13 1 14 2 15 3 16 4 17 5 18 6 19 7 20 8 21 9 22 10 23 11
REMARK SMILES IDX 24 12 25 13 26 14 12 15 11 16 10 17 9 18 8 19 7 20 6 21 5 22
REMARK SMILES IDX 4 23 3 24 2 25 1 26
REMARK H PARENT
REMARK Flexibility Score: inf
ROOT
ATOM      1  C   UNL     1      27.714  44.868  41.990  1.00  0.00     0.000 C 
ENDROOT
BRANCH   1   2
ATOM      2  C   UNL     1      27.680  43.499  41.285  1.00  0.00     0.000 C 
BRANCH   2   3
ATOM      3  C   UNL     1      26.261  42.911  41.198  1.00  0.00     0.000 C 
BRANCH   3   4
ATOM      4  C   UNL     1      26.187  41.646  40.321  1.00  0.00     0.000 C 
BRANCH   4   5
ATOM      5  C   UNL     1      26.225  40.311  41.089  1.00  0.00     0.000 C 
BRANCH   5   6
ATOM      6  C   UNL     1      25.874  39.062  40.259  1.00  0.00     0.000 C 
BRANCH   6   7
ATOM      7  C   UNL     1      26.552  37.767  40.756  1.00  0.00     0.000 C 
BRANCH   7   8
ATOM      8  C   UNL     1      27.467  37.130  39.694  1.00  0.00     0.000 C 
BRANCH   8   9
ATOM      9  C   UNL     1      28.818  37.848  39.565  1.00  0.00     0.000 C 
BRANCH   9  10
ATOM     10  C   UNL     1      29.525  37.552  38.234  1.00  0.00     0.006 C 
BRANCH  10  11
ATOM     11  C   UNL     1      29.996  38.849  37.567  1.00  0.00     0.053 C 
BRANCH  11  12
ATOM     12  C   UNL     1      31.433  38.747  37.159  1.00  0.00     0.041 C 
ATOM     13  O   UNL     1      31.833  39.302  36.103  1.00  0.00    -0.550 OA
ATOM     14  O   UNL     1      32.334  38.045  37.952  1.00  0.00    -0.550 OA
ENDBRANCH  11  12
ENDBRANCH  10  11
ENDBRANCH   9  10
ENDBRANCH   8   9
ENDBRANCH   7   8
ENDBRANCH   6   7
ENDBRANCH   5   6
ENDBRANCH   4   5
ENDBRANCH   3   4
ENDBRANCH   2   3
ENDBRANCH   1   2
BRANCH   1  15
ATOM     15  C   UNL     1      29.112  45.508  42.125  1.00  0.00     0.000 C 
BRANCH  15  16
ATOM     16  C   UNL     1      29.723  46.032  40.812  1.00  0.00     0.000 C 
BRANCH  16  17
ATOM     17  C   UNL     1      30.962  46.929  40.994  1.00  0.00     0.000 C 
BRANCH  17  18
ATOM     18  C   UNL     1      30.769  48.047  42.045  1.00  0.00    -0.000 C 
BRANCH  18  19
ATOM     19  C   UNL     1      29.851  49.188  41.576  1.00  0.00    -0.000 C 
BRANCH  19  20
ATOM     20  C   UNL     1      29.066  48.823  40.303  1.00  0.00    -0.000 C 
BRANCH  20  21
ATOM     21  C   UNL     1      28.478  50.051  39.584  1.00  0.00    -0.000 C 
BRANCH  21  22
ATOM     22  C   UNL     1      27.714  51.039  40.487  1.00  0.00    -0.000 C 
BRANCH  22  23
ATOM     23  C   UNL     1      27.171  52.255  39.719  1.00  0.00    -0.000 C 
BRANCH  23  24
ATOM     24  C   UNL     1      27.998  52.583  38.467  1.00  0.00    -0.000 C 
BRANCH  24  25
ATOM     25  C   UNL     1      29.144  53.567  38.751  1.00  0.00    -0.003 C 
ATOM     26  C   UNL     1      28.607  54.897  39.273  1.00  0.00     0.004 C 
ENDBRANCH  24  25
ENDBRANCH  23  24
ENDBRANCH  22  23
ENDBRANCH  21  22
ENDBRANCH  20  21
ENDBRANCH  19  20
ENDBRANCH  18  19
ENDBRANCH  17  18
ENDBRANCH  16  17
ENDBRANCH  15  16
ENDBRANCH   1  15
TORSDOF 22
ENDMDL
