MODEL 1
REMARK VINA RESULT:    -2.747      0.000      0.000
REMARK INTER + INTRA:          -5.982
REMARK INTER:                  -4.514
REMARK INTRA:                  -1.468
REMARK UNBOUND:                -1.468
REMARK SMILES CCCCCCCCCCCCCC
REMARK SMILES IDX 7 1 6 2 5 3 4 4 3 5 2 6 1 7 8 8 9 9 10 10 11 11 12 12 13 13
REMARK SMILES IDX 14 14
REMARK H PARENT
REMARK Flexibility Score: inf
ROOT
ATOM      1  C   UNL     1      42.831 -30.478   9.996  1.00  0.00    -0.000 C 
ENDROOT
BRANCH   1   2
ATOM      2  C   UNL     1      42.623 -31.961  10.368  1.00  0.00    -0.000 C 
BRANCH   2   3
ATOM      3  C   UNL     1      41.829 -32.200  11.665  1.00  0.00    -0.000 C 
BRANCH   3   4
ATOM      4  C   UNL     1      40.595 -31.292  11.785  1.00  0.00    -0.000 C 
BRANCH   4   5
ATOM      5  C   UNL     1      39.349 -31.983  11.212  1.00  0.00    -0.000 C 
BRANCH   5   6
ATOM      6  C   UNL     1      38.629 -31.124  10.161  1.00  0.00    -0.003 C 
ATOM      7  C   UNL     1      39.224 -29.722  10.035  1.00  0.00     0.004 C 
ENDBRANCH   5   6
ENDBRANCH   4   5
ENDBRANCH   3   4
ENDBRANCH   2   3
ENDBRANCH   1   2
BRANCH   1   8
ATOM      8  C   UNL     1      44.259 -29.940  10.219  1.00  0.00    -0.000 C 
BRANCH   8   9
ATOM      9  C   UNL     1      45.239 -30.937  10.863  1.00  0.00    -0.000 C 
BRANCH   9  10
ATOM     10  C   UNL     1      45.338 -30.774  12.389  1.00  0.00    -0.000 C 
BRANCH  10  11
ATOM     11  C   UNL     1      45.380 -32.125  13.125  1.00  0.00    -0.000 C 
BRANCH  11  12
ATOM     12  C   UNL     1      45.676 -33.302  12.179  1.00  0.00    -0.000 C 
BRANCH  12  13
ATOM     13  C   UNL     1      45.393 -34.664  12.830  1.00  0.00    -0.003 C 
ATOM     14  C   UNL     1      43.899 -34.944  12.999  1.00  0.00     0.004 C 
ENDBRANCH  12  13
ENDBRANCH  11  12
ENDBRANCH  10  11
ENDBRANCH   9  10
ENDBRANCH   8   9
ENDBRANCH   1   8
TORSDOF 11
ENDMDL
MODEL 2
REMARK VINA RESULT:    -2.723      1.022      5.427
REMARK INTER + INTRA:          -5.942
REMARK INTER:                  -4.377
REMARK INTRA:                  -1.565
REMARK UNBOUND:                -1.468
REMARK SMILES CCCCCCCCCCCCCC
REMARK SMILES IDX 7 1 6 2 5 3 4 4 3 5 2 6 1 7 8 8 9 9 10 10 11 11 12 12 13 13
REMARK SMILES IDX 14 14
REMARK H PARENT
REMARK Flexibility Score: inf
ROOT
ATOM      1  C   UNL     1      43.896 -34.190  11.753  1.00  0.00    -0.000 C 
ENDROOT
BRANCH   1   2
ATOM      2  C   UNL     1      45.349 -33.676  11.819  1.00  0.00    -0.000 C 
BRANCH   2   3
ATOM      3  C   UNL     1      45.647 -32.716  12.985  1.00  0.00    -0.000 C 
BRANCH   3   4
ATOM      4  C   UNL     1      45.488 -31.238  12.597  1.00  0.00    -0.000 C 
BRANCH   4   5
ATOM      5  C   UNL     1      45.673 -31.046  11.084  1.00  0.00    -0.000 C 
BRANCH   5   6
ATOM      6  C   UNL     1      44.974 -29.783  10.560  1.00  0.00    -0.003 C 
ATOM      7  C   UNL     1      44.656 -29.859   9.068  1.00  0.00     0.004 C 
ENDBRANCH   5   6
ENDBRANCH   4   5
ENDBRANCH   3   4
ENDBRANCH   2   3
ENDBRANCH   1   2
BRANCH   1   8
ATOM      8  C   UNL     1      43.051 -33.930  13.016  1.00  0.00    -0.000 C 
BRANCH   8   9
ATOM      9  C   UNL     1      42.012 -32.803  12.886  1.00  0.00    -0.000 C 
BRANCH   9  10
ATOM     10  C   UNL     1      41.990 -32.172  11.483  1.00  0.00    -0.000 C 
BRANCH  10  11
ATOM     11  C   UNL     1      41.504 -30.712  11.500  1.00  0.00    -0.000 C 
BRANCH  11  12
ATOM     12  C   UNL     1      41.112 -30.205  10.101  1.00  0.00    -0.000 C 
BRANCH  12  13
ATOM     13  C   UNL     1      39.626 -29.824  10.008  1.00  0.00    -0.003 C 
ATOM     14  C   UNL     1      38.698 -31.037  10.060  1.00  0.00     0.004 C 
ENDBRANCH  12  13
ENDBRANCH  11  12
ENDBRANCH  10  11
ENDBRANCH   9  10
ENDBRANCH   8   9
ENDBRANCH   1   8
TORSDOF 11
ENDMDL
MODEL 3
REMARK VINA RESULT:    -2.717      0.714      5.710
REMARK INTER + INTRA:          -5.932
REMARK INTER:                  -4.278
REMARK INTRA:                  -1.655
REMARK UNBOUND:                -1.468
REMARK SMILES CCCCCCCCCCCCCC
REMARK SMILES IDX 7 1 6 2 5 3 4 4 3 5 2 6 1 7 8 8 9 9 10 10 11 11 12 12 13 13
REMARK SMILES IDX 14 14
REMARK H PARENT
REMARK Flexibility Score: inf
ROOT
ATOM      1  C   UNL     1      42.775 -30.596  10.045  1.00  0.00    -0.000 C 
ENDROOT
BRANCH   1   2
ATOM      2  C   UNL     1      44.273 -30.335  10.301  1.00  0.00    -0.000 C 
BRANCH   2   3
ATOM      3  C   UNL     1      45.073 -31.560  10.780  1.00  0.00    -0.000 C 
BRANCH   3   4
ATOM      4  C   UNL     1      45.502 -31.454  12.252  1.00  0.00    -0.000 C 
BRANCH   4   5
ATOM      5  C   UNL     1      45.477 -32.832  12.931  1.00  0.00    -0.000 C 
BRANCH   5   6
ATOM      6  C   UNL     1      45.050 -33.953  11.973  1.00  0.00    -0.003 C 
ATOM      7  C   UNL     1      43.859 -34.757  12.495  1.00  0.00     0.004 C 
ENDBRANCH   5   6
ENDBRANCH   4   5
ENDBRANCH   3   4
ENDBRANCH   2   3
ENDBRANCH   1   2
BRANCH   1   8
ATOM      8  C   UNL     1      42.283 -32.010  10.414  1.00  0.00    -0.000 C 
BRANCH   8   9
ATOM      9  C   UNL     1      41.423 -32.090  11.688  1.00  0.00    -0.000 C 
BRANCH   9  10
ATOM     10  C   UNL     1      41.115 -30.707  12.286  1.00  0.00    -0.000 C 
BRANCH  10  11
ATOM     11  C   UNL     1      39.637 -30.310  12.122  1.00  0.00    -0.000 C 
BRANCH  11  12
ATOM     12  C   UNL     1      38.836 -31.343  11.312  1.00  0.00    -0.000 C 
BRANCH  12  13
ATOM     13  C   UNL     1      38.489 -30.843   9.901  1.00  0.00    -0.003 C 
ATOM     14  C   UNL     1      38.962 -29.413   9.644  1.00  0.00     0.004 C 
ENDBRANCH  12  13
ENDBRANCH  11  12
ENDBRANCH  10  11
ENDBRANCH   9  10
ENDBRANCH   8   9
ENDBRANCH   1   8
TORSDOF 11
ENDMDL
MODEL 4
REMARK VINA RESULT:    -2.683      1.215      5.519
REMARK INTER + INTRA:          -5.876
REMARK INTER:                  -4.079
REMARK INTRA:                  -1.797
REMARK UNBOUND:                -1.468
REMARK SMILES CCCCCCCCCCCCCC
REMARK SMILES IDX 7 1 6 2 5 3 4 4 3 5 2 6 1 7 8 8 9 9 10 10 11 11 12 12 13 13
REMARK SMILES IDX 14 14
REMARK H PARENT
REMARK Flexibility Score: inf
ROOT
ATOM      1  C   UNL     1      41.975 -32.647  12.444  1.00  0.00    -0.000 C 
ENDROOT
BRANCH   1   2
ATOM      2  C   UNL     1      42.983 -33.737  12.866  1.00  0.00    -0.000 C 
BRANCH   2   3
ATOM      3  C   UNL     1      44.033 -34.098  11.799  1.00  0.00    -0.000 C 
BRANCH   3   4
ATOM      4  C   UNL     1      45.475 -33.887  12.286  1.00  0.00    -0.000 C 
BRANCH   4   5
ATOM      5  C   UNL     1      45.667 -32.462  12.827  1.00  0.00    -0.000 C 
BRANCH   5   6
ATOM      6  C   UNL     1      45.656 -31.402  11.715  1.00  0.00    -0.003 C 
ATOM      7  C   UNL     1      45.951 -29.996  12.235  1.00  0.00     0.004 C 
ENDBRANCH   5   6
ENDBRANCH   4   5
ENDBRANCH   3   4
ENDBRANCH   2   3
ENDBRANCH   1   2
BRANCH   1   8
ATOM      8  C   UNL     1      42.170 -31.276  13.123  1.00  0.00    -0.000 C 
BRANCH   8   9
ATOM      9  C   UNL     1      42.203 -30.072  12.165  1.00  0.00    -0.000 C 
BRANCH   9  10
ATOM     10  C   UNL     1      42.292 -30.490  10.687  1.00  0.00    -0.000 C 
BRANCH  10  11
ATOM     11  C   UNL     1      41.374 -29.652   9.781  1.00  0.00    -0.000 C 
BRANCH  11  12
ATOM     12  C   UNL     1      39.904 -29.692  10.233  1.00  0.00    -0.000 C 
BRANCH  12  13
ATOM     13  C   UNL     1      39.300 -31.102  10.145  1.00  0.00    -0.003 C 
ATOM     14  C   UNL     1      38.586 -31.525  11.429  1.00  0.00     0.004 C 
ENDBRANCH  12  13
ENDBRANCH  11  12
ENDBRANCH  10  11
ENDBRANCH   9  10
ENDBRANCH   8   9
ENDBRANCH   1   8
TORSDOF 11
ENDMDL
MODEL 5
REMARK VINA RESULT:    -2.648      1.141      2.942
REMARK INTER + INTRA:          -5.820
REMARK INTER:                  -4.034
REMARK INTRA:                  -1.785
REMARK UNBOUND:                -1.468
REMARK SMILES CCCCCCCCCCCCCC
REMARK SMILES IDX 7 1 6 2 5 3 4 4 3 5 2 6 1 7 8 8 9 9 10 10 11 11 12 12 13 13
REMARK SMILES IDX 14 14
REMARK H PARENT
REMARK Flexibility Score: inf
ROOT
ATOM      1  C   UNL     1      42.184 -31.986  10.355  1.00  0.00    -0.000 C 
ENDROOT
BRANCH   1   2
ATOM      2  C   UNL     1      42.373 -30.480  10.080  1.00  0.00    -0.000 C 
BRANCH   2   3
ATOM      3  C   UNL     1      42.045 -29.556  11.267  1.00  0.00    -0.000 C 
BRANCH   3   4
ATOM      4  C   UNL     1      40.628 -28.967  11.190  1.00  0.00    -0.000 C 
BRANCH   4   5
ATOM      5  C   UNL     1      40.101 -28.995   9.747  1.00  0.00    -0.000 C 
BRANCH   5   6
ATOM      6  C   UNL     1      38.663 -29.526   9.655  1.00  0.00    -0.003 C 
ATOM      7  C   UNL     1      38.584 -31.046   9.794  1.00  0.00     0.004 C 
ENDBRANCH   5   6
ENDBRANCH   4   5
ENDBRANCH   3   4
ENDBRANCH   2   3
ENDBRANCH   1   2
BRANCH   1   8
ATOM      8  C   UNL     1      41.804 -32.344  11.806  1.00  0.00    -0.000 C 
BRANCH   8   9
ATOM      9  C   UNL     1      42.852 -33.173  12.570  1.00  0.00    -0.000 C 
BRANCH   9  10
ATOM     10  C   UNL     1      43.917 -33.785  11.644  1.00  0.00    -0.000 C 
BRANCH  10  11
ATOM     11  C   UNL     1      45.312 -33.176  11.868  1.00  0.00    -0.000 C 
BRANCH  11  12
ATOM     12  C   UNL     1      45.332 -32.155  13.018  1.00  0.00    -0.000 C 
BRANCH  12  13
ATOM     13  C   UNL     1      45.577 -30.720  12.526  1.00  0.00    -0.003 C 
ATOM     14  C   UNL     1      45.907 -30.651  11.035  1.00  0.00     0.004 C 
ENDBRANCH  12  13
ENDBRANCH  11  12
ENDBRANCH  10  11
ENDBRANCH   9  10
ENDBRANCH   8   9
ENDBRANCH   1   8
TORSDOF 11
ENDMDL
MODEL 6
REMARK VINA RESULT:    -2.553      1.621      2.534
REMARK INTER + INTRA:          -5.663
REMARK INTER:                  -4.702
REMARK INTRA:                  -0.961
REMARK UNBOUND:                -1.468
REMARK SMILES CCCCCCCCCCCCCC
REMARK SMILES IDX 7 1 6 2 5 3 4 4 3 5 2 6 1 7 8 8 9 9 10 10 11 11 12 12 13 13
REMARK SMILES IDX 14 14
REMARK H PARENT
REMARK Flexibility Score: inf
ROOT
ATOM      1  C   UNL     1      41.409 -31.808  10.097  1.00  0.00    -0.000 C 
ENDROOT
BRANCH   1   2
ATOM      2  C   UNL     1      39.947 -32.029  10.535  1.00  0.00    -0.000 C 
BRANCH   2   3
ATOM      3  C   UNL     1      39.294 -30.831  11.249  1.00  0.00    -0.000 C 
BRANCH   3   4
ATOM      4  C   UNL     1      37.866 -30.548  10.756  1.00  0.00    -0.000 C 
BRANCH   4   5
ATOM      5  C   UNL     1      37.796 -30.598   9.222  1.00  0.00    -0.000 C 
BRANCH   5   6
ATOM      6  C   UNL     1      36.367 -30.413   8.692  1.00  0.00    -0.003 C 
ATOM      7  C   UNL     1      36.295 -30.432   7.165  1.00  0.00     0.004 C 
ENDBRANCH   5   6
ENDBRANCH   4   5
ENDBRANCH   3   4
ENDBRANCH   2   3
ENDBRANCH   1   2
BRANCH   1   8
ATOM      8  C   UNL     1      41.971 -30.399  10.376  1.00  0.00    -0.000 C 
BRANCH   8   9
ATOM      9  C   UNL     1      43.343 -30.106   9.744  1.00  0.00    -0.000 C 
BRANCH   9  10
ATOM     10  C   UNL     1      44.365 -31.230   9.991  1.00  0.00    -0.000 C 
BRANCH  10  11
ATOM     11  C   UNL     1      45.018 -31.137  11.381  1.00  0.00    -0.000 C 
BRANCH  11  12
ATOM     12  C   UNL     1      45.300 -32.520  11.993  1.00  0.00    -0.000 C 
BRANCH  12  13
ATOM     13  C   UNL     1      44.593 -33.654  11.234  1.00  0.00    -0.003 C 
ATOM     14  C   UNL     1      43.720 -34.522  12.140  1.00  0.00     0.004 C 
ENDBRANCH  12  13
ENDBRANCH  11  12
ENDBRANCH  10  11
ENDBRANCH   9  10
ENDBRANCH   8   9
ENDBRANCH   1   8
TORSDOF 11
ENDMDL
MODEL 7
REMARK VINA RESULT:    -2.543      1.316      3.174
REMARK INTER + INTRA:          -5.647
REMARK INTER:                  -3.753
REMARK INTRA:                  -1.894
REMARK UNBOUND:                -1.468
REMARK SMILES CCCCCCCCCCCCCC
REMARK SMILES IDX 7 1 6 2 5 3 4 4 3 5 2 6 1 7 8 8 9 9 10 10 11 11 12 12 13 13
REMARK SMILES IDX 14 14
REMARK H PARENT
REMARK Flexibility Score: inf
ROOT
ATOM      1  C   UNL     1      42.820 -32.625  11.521  1.00  0.00    -0.000 C 
ENDROOT
BRANCH   1   2
ATOM      2  C   UNL     1      42.310 -31.894  10.262  1.00  0.00    -0.000 C 
BRANCH   2   3
ATOM      3  C   UNL     1      41.788 -30.466  10.507  1.00  0.00    -0.000 C 
BRANCH   3   4
ATOM      4  C   UNL     1      41.704 -30.109  11.999  1.00  0.00    -0.000 C 
BRANCH   4   5
ATOM      5  C   UNL     1      40.246 -29.887  12.429  1.00  0.00    -0.000 C 
BRANCH   5   6
ATOM      6  C   UNL     1      39.244 -30.574  11.490  1.00  0.00    -0.003 C 
ATOM      7  C   UNL     1      38.690 -31.876  12.066  1.00  0.00     0.004 C 
ENDBRANCH   5   6
ENDBRANCH   4   5
ENDBRANCH   3   4
ENDBRANCH   2   3
ENDBRANCH   1   2
BRANCH   1   8
ATOM      8  C   UNL     1      44.128 -33.419  11.333  1.00  0.00    -0.000 C 
BRANCH   8   9
ATOM      9  C   UNL     1      45.371 -32.796  11.994  1.00  0.00    -0.000 C 
BRANCH   9  10
ATOM     10  C   UNL     1      45.022 -31.638  12.945  1.00  0.00    -0.000 C 
BRANCH  10  11
ATOM     11  C   UNL     1      45.482 -30.273  12.406  1.00  0.00    -0.000 C 
BRANCH  11  12
ATOM     12  C   UNL     1      46.124 -30.376  11.011  1.00  0.00    -0.000 C 
BRANCH  12  13
ATOM     13  C   UNL     1      45.280 -29.696   9.923  1.00  0.00    -0.003 C 
ATOM     14  C   UNL     1      45.363 -30.409   8.573  1.00  0.00     0.004 C 
ENDBRANCH  12  13
ENDBRANCH  11  12
ENDBRANCH  10  11
ENDBRANCH   9  10
ENDBRANCH   8   9
ENDBRANCH   1   8
TORSDOF 11
ENDMDL
MODEL 8
REMARK VINA RESULT:    -2.508      1.880      3.327
REMARK INTER + INTRA:          -5.590
REMARK INTER:                  -4.790
REMARK INTRA:                  -0.800
REMARK UNBOUND:                -1.468
REMARK SMILES CCCCCCCCCCCCCC
REMARK SMILES IDX 7 1 6 2 5 3 4 4 3 5 2 6 1 7 8 8 9 9 10 10 11 11 12 12 13 13
REMARK SMILES IDX 14 14
REMARK H PARENT
REMARK Flexibility Score: inf
ROOT
ATOM      1  C   UNL     1      39.731 -32.203  11.060  1.00  0.00    -0.000 C 
ENDROOT
BRANCH   1   2
ATOM      2  C   UNL     1      38.646 -31.424  11.831  1.00  0.00    -0.000 C 
BRANCH   2   3
ATOM      3  C   UNL     1      37.672 -30.621  10.949  1.00  0.00    -0.000 C 
BRANCH   3   4
ATOM      4  C   UNL     1      38.034 -30.677   9.457  1.00  0.00    -0.000 C 
BRANCH   4   5
ATOM      5  C   UNL     1      37.083 -29.800   8.629  1.00  0.00    -0.000 C 
BRANCH   5   6
ATOM      6  C   UNL     1      35.962 -30.612   7.963  1.00  0.00    -0.003 C 
ATOM      7  C   UNL     1      34.642 -30.537   8.729  1.00  0.00     0.004 C 
ENDBRANCH   5   6
ENDBRANCH   4   5
ENDBRANCH   3   4
ENDBRANCH   2   3
ENDBRANCH   1   2
BRANCH   1   8
ATOM      8  C   UNL     1      41.183 -31.786  11.372  1.00  0.00    -0.000 C 
BRANCH   8   9
ATOM      9  C   UNL     1      42.070 -31.536  10.139  1.00  0.00    -0.000 C 
BRANCH   9  10
ATOM     10  C   UNL     1      43.553 -31.348  10.501  1.00  0.00    -0.000 C 
BRANCH  10  11
ATOM     11  C   UNL     1      43.893 -31.895  11.899  1.00  0.00    -0.000 C 
BRANCH  11  12
ATOM     12  C   UNL     1      45.281 -32.558  11.951  1.00  0.00    -0.000 C 
BRANCH  12  13
ATOM     13  C   UNL     1      45.197 -34.086  12.088  1.00  0.00    -0.003 C 
ATOM     14  C   UNL     1      43.777 -34.583  12.354  1.00  0.00     0.004 C 
ENDBRANCH  12  13
ENDBRANCH  11  12
ENDBRANCH  10  11
ENDBRANCH   9  10
ENDBRANCH   8   9
ENDBRANCH   1   8
TORSDOF 11
ENDMDL
MODEL 9
REMARK VINA RESULT:    -2.504      1.724      6.983
REMARK INTER + INTRA:          -5.582
REMARK INTER:                  -4.744
REMARK INTRA:                  -0.838
REMARK UNBOUND:                -1.468
REMARK SMILES CCCCCCCCCCCCCC
REMARK SMILES IDX 7 1 6 2 5 3 4 4 3 5 2 6 1 7 8 8 9 9 10 10 11 11 12 12 13 13
REMARK SMILES IDX 14 14
REMARK H PARENT
REMARK Flexibility Score: inf
ROOT
ATOM      1  C   UNL     1      42.053 -31.061  10.124  1.00  0.00    -0.000 C 
ENDROOT
BRANCH   1   2
ATOM      2  C   UNL     1      43.291 -30.494  10.850  1.00  0.00    -0.000 C 
BRANCH   2   3
ATOM      3  C   UNL     1      44.645 -30.958  10.283  1.00  0.00    -0.000 C 
BRANCH   3   4
ATOM      4  C   UNL     1      45.706 -31.172  11.373  1.00  0.00    -0.000 C 
BRANCH   4   5
ATOM      5  C   UNL     1      45.191 -32.130  12.459  1.00  0.00    -0.000 C 
BRANCH   5   6
ATOM      6  C   UNL     1      45.265 -33.602  12.030  1.00  0.00    -0.003 C 
ATOM      7  C   UNL     1      43.888 -34.254  11.910  1.00  0.00     0.004 C 
ENDBRANCH   5   6
ENDBRANCH   4   5
ENDBRANCH   3   4
ENDBRANCH   2   3
ENDBRANCH   1   2
BRANCH   1   8
ATOM      8  C   UNL     1      41.090 -31.876  11.011  1.00  0.00    -0.000 C 
BRANCH   8   9
ATOM      9  C   UNL     1      39.695 -32.117  10.408  1.00  0.00    -0.000 C 
BRANCH   9  10
ATOM     10  C   UNL     1      38.736 -30.936  10.635  1.00  0.00    -0.000 C 
BRANCH  10  11
ATOM     11  C   UNL     1      38.031 -30.491   9.341  1.00  0.00    -0.000 C 
BRANCH  11  12
ATOM     12  C   UNL     1      36.599 -29.990   9.592  1.00  0.00    -0.000 C 
BRANCH  12  13
ATOM     13  C   UNL     1      35.644 -30.333   8.438  1.00  0.00    -0.003 C 
ATOM     14  C   UNL     1      36.379 -30.732   7.158  1.00  0.00     0.004 C 
ENDBRANCH  12  13
ENDBRANCH  11  12
ENDBRANCH  10  11
ENDBRANCH   9  10
ENDBRANCH   8   9
ENDBRANCH   1   8
TORSDOF 11
ENDMDL
