MODEL 1
REMARK VINA RESULT:    -4.842      0.000      0.000
REMARK INTER + INTRA:          -7.197
REMARK INTER:                  -6.823
REMARK INTRA:                  -0.374
REMARK UNBOUND:                -0.374
REMARK SMILES CCCCCCCCC(=O)[O-]
REMARK SMILES IDX 6 1 7 2 8 3 9 4 10 5 11 6 5 7 4 8 3 9 2 10 1 11
REMARK H PARENT
REMARK Flexibility Score: inf
ROOT
ATOM      1  C   UNL     1    -143.618 101.556  35.067  1.00  0.00     0.000 C 
ENDROOT
BRANCH   1   2
ATOM      2  C   UNL     1    -143.725 100.144  34.480  1.00  0.00     0.006 C 
BRANCH   2   3
ATOM      3  C   UNL     1    -142.505  99.298  34.856  1.00  0.00     0.053 C 
BRANCH   3   4
ATOM      4  C   UNL     1    -141.558  99.201  33.701  1.00  0.00     0.041 C 
ATOM      5  O   UNL     1    -141.994  99.234  32.521  1.00  0.00    -0.550 OA
ATOM      6  O   UNL     1    -140.200  99.024  33.930  1.00  0.00    -0.550 OA
ENDBRANCH   3   4
ENDBRANCH   2   3
ENDBRANCH   1   2
BRANCH   1   7
ATOM      7  C   UNL     1    -143.354 102.592  33.969  1.00  0.00     0.000 C 
BRANCH   7   8
ATOM      8  C   UNL     1    -142.177 103.501  34.340  1.00  0.00    -0.000 C 
BRANCH   8   9
ATOM      9  C   UNL     1    -142.468 104.960  33.966  1.00  0.00    -0.000 C 
BRANCH   9  10
ATOM     10  C   UNL     1    -141.894 105.922  35.013  1.00  0.00    -0.003 C 
ATOM     11  C   UNL     1    -142.434 105.610  36.404  1.00  0.00     0.004 C 
ENDBRANCH   9  10
ENDBRANCH   8   9
ENDBRANCH   7   8
ENDBRANCH   1   7
TORSDOF 7
ENDMDL
MODEL 2
REMARK VINA RESULT:    -4.673      1.254      1.484
REMARK INTER + INTRA:          -6.959
REMARK INTER:                  -6.585
REMARK INTRA:                  -0.375
REMARK UNBOUND:                -0.374
REMARK SMILES CCCCCCCCC(=O)[O-]
REMARK SMILES IDX 6 1 7 2 8 3 9 4 10 5 11 6 5 7 4 8 3 9 2 10 1 11
REMARK H PARENT
REMARK Flexibility Score: inf
ROOT
ATOM      1  C   UNL     1    -143.861 101.802  33.283  1.00  0.00     0.000 C 
ENDROOT
BRANCH   1   2
ATOM      2  C   UNL     1    -142.758 100.956  32.639  1.00  0.00     0.006 C 
BRANCH   2   3
ATOM      3  C   UNL     1    -142.872  99.488  33.060  1.00  0.00     0.053 C 
BRANCH   3   4
ATOM      4  C   UNL     1    -141.967  99.203  34.217  1.00  0.00     0.041 C 
ATOM      5  O   UNL     1    -140.730  99.062  34.033  1.00  0.00    -0.550 OA
ATOM      6  O   UNL     1    -142.498  99.042  35.491  1.00  0.00    -0.550 OA
ENDBRANCH   3   4
ENDBRANCH   2   3
ENDBRANCH   1   2
BRANCH   1   7
ATOM      7  C   UNL     1    -143.347 102.513  34.541  1.00  0.00     0.000 C 
BRANCH   7   8
ATOM      8  C   UNL     1    -142.149 103.412  34.215  1.00  0.00    -0.000 C 
BRANCH   8   9
ATOM      9  C   UNL     1    -142.572 104.884  34.129  1.00  0.00    -0.000 C 
BRANCH   9  10
ATOM     10  C   UNL     1    -141.806 105.737  35.147  1.00  0.00    -0.003 C 
ATOM     11  C   UNL     1    -142.486 105.711  36.512  1.00  0.00     0.004 C 
ENDBRANCH   9  10
ENDBRANCH   8   9
ENDBRANCH   7   8
ENDBRANCH   1   7
TORSDOF 7
ENDMDL
MODEL 3
REMARK VINA RESULT:    -4.455      3.380      5.557
REMARK INTER + INTRA:          -6.651
REMARK INTER:                  -6.318
REMARK INTRA:                  -0.333
REMARK UNBOUND:                -0.374
REMARK SMILES CCCCCCCCC(=O)[O-]
REMARK SMILES IDX 6 1 7 2 8 3 9 4 10 5 11 6 5 7 4 8 3 9 2 10 1 11
REMARK H PARENT
REMARK Flexibility Score: inf
ROOT
ATOM      1  C   UNL     1    -143.252 103.146  32.589  1.00  0.00     0.000 C 
ENDROOT
BRANCH   1   2
ATOM      2  C   UNL     1    -142.892 104.459  33.292  1.00  0.00     0.006 C 
BRANCH   2   3
ATOM      3  C   UNL     1    -142.216 104.194  34.640  1.00  0.00     0.053 C 
BRANCH   3   4
ATOM      4  C   UNL     1    -142.107 105.459  35.431  1.00  0.00     0.041 C 
ATOM      5  O   UNL     1    -141.586 106.483  34.918  1.00  0.00    -0.550 OA
ATOM      6  O   UNL     1    -142.537 105.492  36.752  1.00  0.00    -0.550 OA
ENDBRANCH   3   4
ENDBRANCH   2   3
ENDBRANCH   1   2
BRANCH   1   7
ATOM      7  C   UNL     1    -143.483 102.022  33.605  1.00  0.00     0.000 C 
BRANCH   7   8
ATOM      8  C   UNL     1    -143.018 100.672  33.048  1.00  0.00    -0.000 C 
BRANCH   8   9
ATOM      9  C   UNL     1    -142.294  99.851  34.122  1.00  0.00    -0.000 C 
BRANCH   9  10
ATOM     10  C   UNL     1    -143.262  98.901  34.835  1.00  0.00    -0.003 C 
ATOM     11  C   UNL     1    -143.347  99.215  36.325  1.00  0.00     0.004 C 
ENDBRANCH   9  10
ENDBRANCH   8   9
ENDBRANCH   7   8
ENDBRANCH   1   7
TORSDOF 7
ENDMDL
MODEL 4
REMARK VINA RESULT:    -4.425     19.297     21.201
REMARK INTER + INTRA:          -6.610
REMARK INTER:                  -6.239
REMARK INTRA:                  -0.371
REMARK UNBOUND:                -0.374
REMARK SMILES CCCCCCCCC(=O)[O-]
REMARK SMILES IDX 6 1 7 2 8 3 9 4 10 5 11 6 5 7 4 8 3 9 2 10 1 11
REMARK H PARENT
REMARK Flexibility Score: inf
ROOT
ATOM      1  C   UNL     1    -130.079 116.409  42.591  1.00  0.00     0.000 C 
ENDROOT
BRANCH   1   2
ATOM      2  C   UNL     1    -129.388 115.117  42.140  1.00  0.00     0.006 C 
BRANCH   2   3
ATOM      3  C   UNL     1    -130.132 113.885  42.662  1.00  0.00     0.053 C 
BRANCH   3   4
ATOM      4  C   UNL     1    -129.454 113.339  43.880  1.00  0.00     0.041 C 
ATOM      5  O   UNL     1    -128.673 112.358  43.782  1.00  0.00    -0.550 OA
ATOM      6  O   UNL     1    -129.725 113.884  45.128  1.00  0.00    -0.550 OA
ENDBRANCH   3   4
ENDBRANCH   2   3
ENDBRANCH   1   2
BRANCH   1   7
ATOM      7  C   UNL     1    -129.092 117.583  42.614  1.00  0.00     0.000 C 
BRANCH   7   8
ATOM      8  C   UNL     1    -128.993 118.192  44.017  1.00  0.00    -0.000 C 
BRANCH   8   9
ATOM      9  C   UNL     1    -129.366 117.164  45.092  1.00  0.00    -0.000 C 
BRANCH   9  10
ATOM     10  C   UNL     1    -130.497 117.687  45.985  1.00  0.00    -0.003 C 
ATOM     11  C   UNL     1    -130.914 116.643  47.016  1.00  0.00     0.004 C 
ENDBRANCH   9  10
ENDBRANCH   8   9
ENDBRANCH   7   8
ENDBRANCH   1   7
TORSDOF 7
ENDMDL
MODEL 5
REMARK VINA RESULT:    -4.395     19.031     21.122
REMARK INTER + INTRA:          -6.567
REMARK INTER:                  -6.218
REMARK INTRA:                  -0.350
REMARK UNBOUND:                -0.374
REMARK SMILES CCCCCCCCC(=O)[O-]
REMARK SMILES IDX 6 1 7 2 8 3 9 4 10 5 11 6 5 7 4 8 3 9 2 10 1 11
REMARK H PARENT
REMARK Flexibility Score: inf
ROOT
ATOM      1  C   UNL     1    -129.291 115.034  45.546  1.00  0.00     0.000 C 
ENDROOT
BRANCH   1   2
ATOM      2  C   UNL     1    -129.913 113.792  44.898  1.00  0.00     0.006 C 
BRANCH   2   3
ATOM      3  C   UNL     1    -129.074 113.312  43.711  1.00  0.00     0.053 C 
BRANCH   3   4
ATOM      4  C   UNL     1    -129.725 113.693  42.419  1.00  0.00     0.041 C 
ATOM      5  O   UNL     1    -130.023 114.894  42.191  1.00  0.00    -0.550 OA
ATOM      6  O   UNL     1    -130.049 112.713  41.489  1.00  0.00    -0.550 OA
ENDBRANCH   3   4
ENDBRANCH   2   3
ENDBRANCH   1   2
BRANCH   1   7
ATOM      7  C   UNL     1    -130.362 115.898  46.223  1.00  0.00     0.000 C 
BRANCH   7   8
ATOM      8  C   UNL     1    -130.239 117.364  45.794  1.00  0.00    -0.000 C 
BRANCH   8   9
ATOM      9  C   UNL     1    -129.789 117.475  44.332  1.00  0.00    -0.000 C 
BRANCH   9  10
ATOM     10  C   UNL     1    -128.862 118.679  44.131  1.00  0.00    -0.003 C 
ATOM     11  C   UNL     1    -128.239 118.669  42.739  1.00  0.00     0.004 C 
ENDBRANCH   9  10
ENDBRANCH   8   9
ENDBRANCH   7   8
ENDBRANCH   1   7
TORSDOF 7
ENDMDL
MODEL 6
REMARK VINA RESULT:    -4.364     18.977     21.204
REMARK INTER + INTRA:          -6.524
REMARK INTER:                  -6.281
REMARK INTRA:                  -0.243
REMARK UNBOUND:                -0.374
REMARK SMILES CCCCCCCCC(=O)[O-]
REMARK SMILES IDX 6 1 7 2 8 3 9 4 10 5 11 6 5 7 4 8 3 9 2 10 1 11
REMARK H PARENT
REMARK Flexibility Score: inf
ROOT
ATOM      1  C   UNL     1    -129.605 116.940  43.262  1.00  0.00     0.000 C 
ENDROOT
BRANCH   1   2
ATOM      2  C   UNL     1    -129.710 115.582  42.560  1.00  0.00     0.006 C 
BRANCH   2   3
ATOM      3  C   UNL     1    -129.745 114.437  43.577  1.00  0.00     0.053 C 
BRANCH   3   4
ATOM      4  C   UNL     1    -129.706 113.114  42.879  1.00  0.00     0.041 C 
ATOM      5  O   UNL     1    -129.339 112.082  43.499  1.00  0.00    -0.550 OA
ATOM      6  O   UNL     1    -130.029 113.030  41.531  1.00  0.00    -0.550 OA
ENDBRANCH   3   4
ENDBRANCH   2   3
ENDBRANCH   1   2
BRANCH   1   7
ATOM      7  C   UNL     1    -129.501 116.767  44.783  1.00  0.00     0.000 C 
BRANCH   7   8
ATOM      8  C   UNL     1    -130.058 117.993  45.515  1.00  0.00    -0.000 C 
BRANCH   8   9
ATOM      9  C   UNL     1    -130.973 117.574  46.672  1.00  0.00    -0.000 C 
BRANCH   9  10
ATOM     10  C   UNL     1    -131.507 118.799  47.424  1.00  0.00    -0.003 C 
ATOM     11  C   UNL     1    -133.028 118.875  47.347  1.00  0.00     0.004 C 
ENDBRANCH   9  10
ENDBRANCH   8   9
ENDBRANCH   7   8
ENDBRANCH   1   7
TORSDOF 7
ENDMDL
MODEL 7
REMARK VINA RESULT:    -4.334     13.879     15.321
REMARK INTER + INTRA:          -6.481
REMARK INTER:                  -6.068
REMARK INTRA:                  -0.413
REMARK UNBOUND:                -0.374
REMARK SMILES CCCCCCCCC(=O)[O-]
REMARK SMILES IDX 6 1 7 2 8 3 9 4 10 5 11 6 5 7 4 8 3 9 2 10 1 11
REMARK H PARENT
REMARK Flexibility Score: inf
ROOT
ATOM      1  C   UNL     1    -131.184 108.168  38.888  1.00  0.00     0.000 C 
ENDROOT
BRANCH   1   2
ATOM      2  C   UNL     1    -129.785 107.543  38.855  1.00  0.00     0.006 C 
BRANCH   2   3
ATOM      3  C   UNL     1    -129.866 106.014  38.822  1.00  0.00     0.053 C 
BRANCH   3   4
ATOM      4  C   UNL     1    -129.348 105.433  40.100  1.00  0.00     0.041 C 
ATOM      5  O   UNL     1    -129.260 104.186  40.239  1.00  0.00    -0.550 OA
ATOM      6  O   UNL     1    -129.008 106.270  41.156  1.00  0.00    -0.550 OA
ENDBRANCH   3   4
ENDBRANCH   2   3
ENDBRANCH   1   2
BRANCH   1   7
ATOM      7  C   UNL     1    -131.158 109.543  39.566  1.00  0.00     0.000 C 
BRANCH   7   8
ATOM      8  C   UNL     1    -129.728 109.941  39.950  1.00  0.00    -0.000 C 
BRANCH   8   9
ATOM      9  C   UNL     1    -129.398 111.354  39.453  1.00  0.00    -0.000 C 
BRANCH   9  10
ATOM     10  C   UNL     1    -128.333 111.316  38.351  1.00  0.00    -0.003 C 
ATOM     11  C   UNL     1    -128.229 112.659  37.637  1.00  0.00     0.004 C 
ENDBRANCH   9  10
ENDBRANCH   8   9
ENDBRANCH   7   8
ENDBRANCH   1   7
TORSDOF 7
ENDMDL
MODEL 8
REMARK VINA RESULT:    -4.333      3.326      5.647
REMARK INTER + INTRA:          -6.480
REMARK INTER:                  -6.098
REMARK INTRA:                  -0.382
REMARK UNBOUND:                -0.374
REMARK SMILES CCCCCCCCC(=O)[O-]
REMARK SMILES IDX 6 1 7 2 8 3 9 4 10 5 11 6 5 7 4 8 3 9 2 10 1 11
REMARK H PARENT
REMARK Flexibility Score: inf
ROOT
ATOM      1  C   UNL     1    -143.594 102.448  34.196  1.00  0.00     0.000 C 
ENDROOT
BRANCH   1   2
ATOM      2  C   UNL     1    -142.318 103.294  34.255  1.00  0.00     0.006 C 
BRANCH   2   3
ATOM      3  C   UNL     1    -142.630 104.777  34.029  1.00  0.00     0.053 C 
BRANCH   3   4
ATOM      4  C   UNL     1    -142.156 105.595  35.189  1.00  0.00     0.041 C 
ATOM      5  O   UNL     1    -142.458 105.263  36.364  1.00  0.00    -0.550 OA
ATOM      6  O   UNL     1    -141.421 106.753  34.967  1.00  0.00    -0.550 OA
ENDBRANCH   3   4
ENDBRANCH   2   3
ENDBRANCH   1   2
BRANCH   1   7
ATOM      7  C   UNL     1    -143.584 101.358  35.274  1.00  0.00     0.000 C 
BRANCH   7   8
ATOM      8  C   UNL     1    -143.479  99.963  34.648  1.00  0.00    -0.000 C 
BRANCH   8   9
ATOM      9  C   UNL     1    -142.080  99.723  34.069  1.00  0.00    -0.000 C 
BRANCH   9  10
ATOM     10  C   UNL     1    -142.162  99.156  32.647  1.00  0.00    -0.003 C 
ATOM     11  C   UNL     1    -142.991 100.060  31.740  1.00  0.00     0.004 C 
ENDBRANCH   9  10
ENDBRANCH   8   9
ENDBRANCH   7   8
ENDBRANCH   1   7
TORSDOF 7
ENDMDL
MODEL 9
REMARK VINA RESULT:    -4.327     19.896     21.912
REMARK INTER + INTRA:          -6.472
REMARK INTER:                  -6.053
REMARK INTRA:                  -0.418
REMARK UNBOUND:                -0.374
REMARK SMILES CCCCCCCCC(=O)[O-]
REMARK SMILES IDX 6 1 7 2 8 3 9 4 10 5 11 6 5 7 4 8 3 9 2 10 1 11
REMARK H PARENT
REMARK Flexibility Score: inf
ROOT
ATOM      1  C   UNL     1    -129.186 117.590  43.202  1.00  0.00     0.000 C 
ENDROOT
BRANCH   1   2
ATOM      2  C   UNL     1    -129.391 117.947  44.678  1.00  0.00     0.006 C 
BRANCH   2   3
ATOM      3  C   UNL     1    -129.949 116.754  45.460  1.00  0.00     0.053 C 
BRANCH   3   4
ATOM      4  C   UNL     1    -130.789 117.224  46.605  1.00  0.00     0.041 C 
ATOM      5  O   UNL     1    -130.790 118.439  46.933  1.00  0.00    -0.550 OA
ATOM      6  O   UNL     1    -131.533 116.311  47.342  1.00  0.00    -0.550 OA
ENDBRANCH   3   4
ENDBRANCH   2   3
ENDBRANCH   1   2
BRANCH   1   7
ATOM      7  C   UNL     1    -130.156 116.487  42.761  1.00  0.00     0.000 C 
BRANCH   7   8
ATOM      8  C   UNL     1    -129.400 115.291  42.173  1.00  0.00    -0.000 C 
BRANCH   8   9
ATOM      9  C   UNL     1    -130.188 113.990  42.369  1.00  0.00    -0.000 C 
BRANCH   9  10
ATOM     10  C   UNL     1    -129.391 112.984  43.208  1.00  0.00    -0.003 C 
ATOM     11  C   UNL     1    -129.328 113.412  44.670  1.00  0.00     0.004 C 
ENDBRANCH   9  10
ENDBRANCH   8   9
ENDBRANCH   7   8
ENDBRANCH   1   7
TORSDOF 7
ENDMDL
