MODEL 1
REMARK VINA RESULT:    -4.947      0.000      0.000
REMARK INTER + INTRA:         -14.848
REMARK INTER:                 -10.732
REMARK INTRA:                  -4.116
REMARK UNBOUND:                -4.116
REMARK SMILES CCCCCCCCCCCCCCCCCCCCCC(=O)[O-]
REMARK SMILES IDX 12 1 11 2 10 3 9 4 8 5 7 6 6 7 5 8 4 9 3 10 2 11 1 12 13 13
REMARK SMILES IDX 14 14 15 15 16 16 17 17 18 18 19 19 20 20 21 21 22 22 23 23
REMARK SMILES IDX 24 24
REMARK H PARENT
REMARK Flexibility Score: inf
ROOT
ATOM      1  C   UNL     1      17.136  -3.224  20.791  1.00  0.00     0.000 C 
ENDROOT
BRANCH   1   2
ATOM      2  C   UNL     1      18.573  -2.785  21.144  1.00  0.00     0.000 C 
BRANCH   2   3
ATOM      3  C   UNL     1      19.438  -3.956  21.644  1.00  0.00     0.000 C 
BRANCH   3   4
ATOM      4  C   UNL     1      20.630  -3.487  22.491  1.00  0.00    -0.000 C 
BRANCH   4   5
ATOM      5  C   UNL     1      21.913  -3.321  21.661  1.00  0.00    -0.000 C 
BRANCH   5   6
ATOM      6  C   UNL     1      22.415  -1.867  21.624  1.00  0.00    -0.000 C 
BRANCH   6   7
ATOM      7  C   UNL     1      22.116  -1.079  22.918  1.00  0.00    -0.000 C 
BRANCH   7   8
ATOM      8  C   UNL     1      21.412   0.261  22.636  1.00  0.00    -0.000 C 
BRANCH   8   9
ATOM      9  C   UNL     1      21.072   0.457  21.147  1.00  0.00    -0.000 C 
BRANCH   9  10
ATOM     10  C   UNL     1      19.581   0.695  20.847  1.00  0.00    -0.000 C 
BRANCH  10  11
ATOM     11  C   UNL     1      18.696   0.607  22.099  1.00  0.00    -0.003 C 
ATOM     12  C   UNL     1      17.216   0.601  21.727  1.00  0.00     0.004 C 
ENDBRANCH  10  11
ENDBRANCH   9  10
ENDBRANCH   8   9
ENDBRANCH   7   8
ENDBRANCH   6   7
ENDBRANCH   5   6
ENDBRANCH   4   5
ENDBRANCH   3   4
ENDBRANCH   2   3
ENDBRANCH   1   2
BRANCH   1  13
ATOM     13  C   UNL     1      17.028  -3.969  19.447  1.00  0.00     0.000 C 
BRANCH  13  14
ATOM     14  C   UNL     1      16.446  -3.139  18.290  1.00  0.00     0.000 C 
BRANCH  14  15
ATOM     15  C   UNL     1      16.234  -1.665  18.666  1.00  0.00     0.000 C 
BRANCH  15  16
ATOM     16  C   UNL     1      17.234  -0.762  17.934  1.00  0.00     0.000 C 
BRANCH  16  17
ATOM     17  C   UNL     1      18.390  -1.586  17.347  1.00  0.00     0.000 C 
BRANCH  17  18
ATOM     18  C   UNL     1      19.768  -1.157  17.882  1.00  0.00     0.000 C 
BRANCH  18  19
ATOM     19  C   UNL     1      20.657  -2.310  18.379  1.00  0.00     0.000 C 
BRANCH  19  20
ATOM     20  C   UNL     1      20.170  -3.692  17.906  1.00  0.00     0.006 C 
BRANCH  20  21
ATOM     21  C   UNL     1      21.161  -4.810  18.256  1.00  0.00     0.053 C 
BRANCH  21  22
ATOM     22  C   UNL     1      21.795  -5.395  17.030  1.00  0.00     0.041 C 
ATOM     23  O   UNL     1      21.266  -6.379  16.449  1.00  0.00    -0.550 OA
ATOM     24  O   UNL     1      22.982  -4.862  16.540  1.00  0.00    -0.550 OA
ENDBRANCH  21  22
ENDBRANCH  20  21
ENDBRANCH  19  20
ENDBRANCH  18  19
ENDBRANCH  17  18
ENDBRANCH  16  17
ENDBRANCH  15  16
ENDBRANCH  14  15
ENDBRANCH  13  14
ENDBRANCH   1  13
TORSDOF 20
ENDMDL
MODEL 2
REMARK VINA RESULT:    -4.947      1.175      5.508
REMARK INTER + INTRA:         -14.848
REMARK INTER:                 -11.369
REMARK INTRA:                  -3.479
REMARK UNBOUND:                -4.116
REMARK SMILES CCCCCCCCCCCCCCCCCCCCCC(=O)[O-]
REMARK SMILES IDX 12 1 11 2 10 3 9 4 8 5 7 6 6 7 5 8 4 9 3 10 2 11 1 12 13 13
REMARK SMILES IDX 14 14 15 15 16 16 17 17 18 18 19 19 20 20 21 21 22 22 23 23
REMARK SMILES IDX 24 24
REMARK H PARENT
REMARK Flexibility Score: inf
ROOT
ATOM      1  C   UNL     1      18.983  -0.650  20.121  1.00  0.00     0.000 C 
ENDROOT
BRANCH   1   2
ATOM      2  C   UNL     1      19.201  -0.737  18.596  1.00  0.00     0.000 C 
BRANCH   2   3
ATOM      3  C   UNL     1      17.887  -0.593  17.808  1.00  0.00     0.000 C 
BRANCH   3   4
ATOM      4  C   UNL     1      16.652  -0.588  18.721  1.00  0.00    -0.000 C 
BRANCH   4   5
ATOM      5  C   UNL     1      15.464  -1.348  18.108  1.00  0.00    -0.000 C 
BRANCH   5   6
ATOM      6  C   UNL     1      15.505  -2.857  18.406  1.00  0.00    -0.000 C 
BRANCH   6   7
ATOM      7  C   UNL     1      15.687  -3.729  17.146  1.00  0.00    -0.000 C 
BRANCH   7   8
ATOM      8  C   UNL     1      17.005  -4.524  17.172  1.00  0.00    -0.000 C 
BRANCH   8   9
ATOM      9  C   UNL     1      17.934  -4.108  18.327  1.00  0.00    -0.000 C 
BRANCH   9  10
ATOM     10  C   UNL     1      18.196  -5.203  19.377  1.00  0.00    -0.000 C 
BRANCH  10  11
ATOM     11  C   UNL     1      18.486  -4.635  20.775  1.00  0.00    -0.003 C 
ATOM     12  C   UNL     1      17.614  -3.416  21.065  1.00  0.00     0.004 C 
ENDBRANCH  10  11
ENDBRANCH   9  10
ENDBRANCH   8   9
ENDBRANCH   7   8
ENDBRANCH   6   7
ENDBRANCH   5   6
ENDBRANCH   4   5
ENDBRANCH   3   4
ENDBRANCH   2   3
ENDBRANCH   1   2
BRANCH   1  13
ATOM     13  C   UNL     1      19.588   0.613  20.763  1.00  0.00     0.000 C 
BRANCH  13  14
ATOM     14  C   UNL     1      20.715   0.350  21.775  1.00  0.00     0.000 C 
BRANCH  14  15
ATOM     15  C   UNL     1      20.215  -0.332  23.058  1.00  0.00     0.000 C 
BRANCH  15  16
ATOM     16  C   UNL     1      21.217  -1.384  23.548  1.00  0.00     0.000 C 
BRANCH  16  17
ATOM     17  C   UNL     1      20.899  -2.764  22.954  1.00  0.00     0.000 C 
BRANCH  17  18
ATOM     18  C   UNL     1      21.983  -3.267  21.984  1.00  0.00     0.000 C 
BRANCH  18  19
ATOM     19  C   UNL     1      21.761  -2.883  20.510  1.00  0.00     0.000 C 
BRANCH  19  20
ATOM     20  C   UNL     1      21.589  -4.105  19.590  1.00  0.00     0.006 C 
BRANCH  20  21
ATOM     21  C   UNL     1      21.500  -3.712  18.110  1.00  0.00     0.053 C 
BRANCH  21  22
ATOM     22  C   UNL     1      21.839  -4.860  17.208  1.00  0.00     0.041 C 
ATOM     23  O   UNL     1      22.913  -4.855  16.549  1.00  0.00    -0.550 OA
ATOM     24  O   UNL     1      20.959  -5.929  17.082  1.00  0.00    -0.550 OA
ENDBRANCH  21  22
ENDBRANCH  20  21
ENDBRANCH  19  20
ENDBRANCH  18  19
ENDBRANCH  17  18
ENDBRANCH  16  17
ENDBRANCH  15  16
ENDBRANCH  14  15
ENDBRANCH  13  14
ENDBRANCH   1  13
TORSDOF 20
ENDMDL
MODEL 3
REMARK VINA RESULT:    -4.934      1.167      4.398
REMARK INTER + INTRA:         -14.819
REMARK INTER:                 -11.444
REMARK INTRA:                  -3.375
REMARK UNBOUND:                -4.116
REMARK SMILES CCCCCCCCCCCCCCCCCCCCCC(=O)[O-]
REMARK SMILES IDX 12 1 11 2 10 3 9 4 8 5 7 6 6 7 5 8 4 9 3 10 2 11 1 12 13 13
REMARK SMILES IDX 14 14 15 15 16 16 17 17 18 18 19 19 20 20 21 21 22 22 23 23
REMARK SMILES IDX 24 24
REMARK H PARENT
REMARK Flexibility Score: inf
ROOT
ATOM      1  C   UNL     1      21.472   0.567  20.861  1.00  0.00     0.000 C 
ENDROOT
BRANCH   1   2
ATOM      2  C   UNL     1      22.738  -0.094  21.444  1.00  0.00     0.000 C 
BRANCH   2   3
ATOM      3  C   UNL     1      22.407  -1.244  22.412  1.00  0.00     0.000 C 
BRANCH   3   4
ATOM      4  C   UNL     1      22.127  -2.566  21.681  1.00  0.00    -0.000 C 
BRANCH   4   5
ATOM      5  C   UNL     1      21.016  -3.387  22.355  1.00  0.00    -0.000 C 
BRANCH   5   6
ATOM      6  C   UNL     1      19.613  -3.034  21.832  1.00  0.00    -0.000 C 
BRANCH   6   7
ATOM      7  C   UNL     1      18.985  -4.140  20.957  1.00  0.00    -0.000 C 
BRANCH   7   8
ATOM      8  C   UNL     1      17.545  -3.802  20.533  1.00  0.00    -0.000 C 
BRANCH   8   9
ATOM      9  C   UNL     1      17.138  -4.471  19.206  1.00  0.00    -0.000 C 
BRANCH   9  10
ATOM     10  C   UNL     1      16.016  -3.753  18.434  1.00  0.00    -0.000 C 
BRANCH  10  11
ATOM     11  C   UNL     1      15.618  -4.481  17.142  1.00  0.00    -0.003 C 
ATOM     12  C   UNL     1      14.575  -5.561  17.418  1.00  0.00     0.004 C 
ENDBRANCH  10  11
ENDBRANCH   9  10
ENDBRANCH   8   9
ENDBRANCH   7   8
ENDBRANCH   6   7
ENDBRANCH   5   6
ENDBRANCH   4   5
ENDBRANCH   3   4
ENDBRANCH   2   3
ENDBRANCH   1   2
BRANCH   1  13
ATOM     13  C   UNL     1      20.447   0.994  21.929  1.00  0.00     0.000 C 
BRANCH  13  14
ATOM     14  C   UNL     1      19.070   0.319  21.813  1.00  0.00     0.000 C 
BRANCH  14  15
ATOM     15  C   UNL     1      18.305   0.745  20.551  1.00  0.00     0.000 C 
BRANCH  15  16
ATOM     16  C   UNL     1      17.768  -0.477  19.796  1.00  0.00     0.000 C 
BRANCH  16  17
ATOM     17  C   UNL     1      17.604  -0.169  18.300  1.00  0.00     0.000 C 
BRANCH  17  18
ATOM     18  C   UNL     1      18.384  -1.139  17.396  1.00  0.00     0.000 C 
BRANCH  18  19
ATOM     19  C   UNL     1      19.624  -1.777  18.047  1.00  0.00     0.000 C 
BRANCH  19  20
ATOM     20  C   UNL     1      19.953  -3.169  17.478  1.00  0.00     0.006 C 
BRANCH  20  21
ATOM     21  C   UNL     1      21.229  -3.762  18.090  1.00  0.00     0.053 C 
BRANCH  21  22
ATOM     22  C   UNL     1      21.744  -4.920  17.288  1.00  0.00     0.041 C 
ATOM     23  O   UNL     1      22.841  -4.831  16.675  1.00  0.00    -0.550 OA
ATOM     24  O   UNL     1      21.001  -6.091  17.204  1.00  0.00    -0.550 OA
ENDBRANCH  21  22
ENDBRANCH  20  21
ENDBRANCH  19  20
ENDBRANCH  18  19
ENDBRANCH  17  18
ENDBRANCH  16  17
ENDBRANCH  15  16
ENDBRANCH  14  15
ENDBRANCH  13  14
ENDBRANCH   1  13
TORSDOF 20
ENDMDL
MODEL 4
REMARK VINA RESULT:    -4.929      1.186      5.445
REMARK INTER + INTRA:         -14.809
REMARK INTER:                 -11.131
REMARK INTRA:                  -3.677
REMARK UNBOUND:                -4.116
REMARK SMILES CCCCCCCCCCCCCCCCCCCCCC(=O)[O-]
REMARK SMILES IDX 12 1 11 2 10 3 9 4 8 5 7 6 6 7 5 8 4 9 3 10 2 11 1 12 13 13
REMARK SMILES IDX 14 14 15 15 16 16 17 17 18 18 19 19 20 20 21 21 22 22 23 23
REMARK SMILES IDX 24 24
REMARK H PARENT
REMARK Flexibility Score: inf
ROOT
ATOM      1  C   UNL     1      21.624   0.045  20.262  1.00  0.00     0.000 C 
ENDROOT
BRANCH   1   2
ATOM      2  C   UNL     1      20.125  -0.261  20.064  1.00  0.00     0.000 C 
BRANCH   2   3
ATOM      3  C   UNL     1      19.228   0.573  20.996  1.00  0.00     0.000 C 
BRANCH   3   4
ATOM      4  C   UNL     1      18.456  -0.297  22.000  1.00  0.00    -0.000 C 
BRANCH   4   5
ATOM      5  C   UNL     1      16.935  -0.234  21.785  1.00  0.00    -0.000 C 
BRANCH   5   6
ATOM      6  C   UNL     1      16.539  -0.325  20.301  1.00  0.00    -0.000 C 
BRANCH   6   7
ATOM      7  C   UNL     1      15.316  -1.231  20.044  1.00  0.00    -0.000 C 
BRANCH   7   8
ATOM      8  C   UNL     1      15.480  -2.089  18.777  1.00  0.00    -0.000 C 
BRANCH   8   9
ATOM      9  C   UNL     1      16.802  -2.878  18.755  1.00  0.00    -0.000 C 
BRANCH   9  10
ATOM     10  C   UNL     1      17.352  -3.186  17.350  1.00  0.00    -0.000 C 
BRANCH  10  11
ATOM     11  C   UNL     1      18.649  -2.426  17.035  1.00  0.00    -0.003 C 
ATOM     12  C   UNL     1      18.425  -0.916  17.069  1.00  0.00     0.004 C 
ENDBRANCH  10  11
ENDBRANCH   9  10
ENDBRANCH   8   9
ENDBRANCH   7   8
ENDBRANCH   6   7
ENDBRANCH   5   6
ENDBRANCH   4   5
ENDBRANCH   3   4
ENDBRANCH   2   3
ENDBRANCH   1   2
BRANCH   1  13
ATOM     13  C   UNL     1      21.912   1.009  21.430  1.00  0.00     0.000 C 
BRANCH  13  14
ATOM     14  C   UNL     1      22.726   0.403  22.585  1.00  0.00     0.000 C 
BRANCH  14  15
ATOM     15  C   UNL     1      22.605  -1.127  22.658  1.00  0.00     0.000 C 
BRANCH  15  16
ATOM     16  C   UNL     1      21.487  -1.544  23.620  1.00  0.00     0.000 C 
BRANCH  16  17
ATOM     17  C   UNL     1      20.939  -2.932  23.256  1.00  0.00     0.000 C 
BRANCH  17  18
ATOM     18  C   UNL     1      21.075  -3.259  21.758  1.00  0.00     0.000 C 
BRANCH  18  19
ATOM     19  C   UNL     1      19.760  -3.643  21.057  1.00  0.00     0.000 C 
BRANCH  19  20
ATOM     20  C   UNL     1      19.982  -4.428  19.752  1.00  0.00     0.006 C 
BRANCH  20  21
ATOM     21  C   UNL     1      21.305  -4.060  19.069  1.00  0.00     0.053 C 
BRANCH  21  22
ATOM     22  C   UNL     1      21.494  -4.809  17.784  1.00  0.00     0.041 C 
ATOM     23  O   UNL     1      22.450  -4.521  17.015  1.00  0.00    -0.550 OA
ATOM     24  O   UNL     1      20.603  -5.814  17.428  1.00  0.00    -0.550 OA
ENDBRANCH  21  22
ENDBRANCH  20  21
ENDBRANCH  19  20
ENDBRANCH  18  19
ENDBRANCH  17  18
ENDBRANCH  16  17
ENDBRANCH  15  16
ENDBRANCH  14  15
ENDBRANCH  13  14
ENDBRANCH   1  13
TORSDOF 20
ENDMDL
MODEL 5
REMARK VINA RESULT:    -4.897      1.296      5.476
REMARK INTER + INTRA:         -14.740
REMARK INTER:                 -11.129
REMARK INTRA:                  -3.610
REMARK UNBOUND:                -4.116
REMARK SMILES CCCCCCCCCCCCCCCCCCCCCC(=O)[O-]
REMARK SMILES IDX 12 1 11 2 10 3 9 4 8 5 7 6 6 7 5 8 4 9 3 10 2 11 1 12 13 13
REMARK SMILES IDX 14 14 15 15 16 16 17 17 18 18 19 19 20 20 21 21 22 22 23 23
REMARK SMILES IDX 24 24
REMARK H PARENT
REMARK Flexibility Score: inf
ROOT
ATOM      1  C   UNL     1      19.054   0.331  21.492  1.00  0.00     0.000 C 
ENDROOT
BRANCH   1   2
ATOM      2  C   UNL     1      17.879  -0.563  21.944  1.00  0.00     0.000 C 
BRANCH   2   3
ATOM      3  C   UNL     1      16.545  -0.145  21.302  1.00  0.00     0.000 C 
BRANCH   3   4
ATOM      4  C   UNL     1      16.028  -1.183  20.293  1.00  0.00    -0.000 C 
BRANCH   4   5
ATOM      5  C   UNL     1      15.660  -0.555  18.939  1.00  0.00    -0.000 C 
BRANCH   5   6
ATOM      6  C   UNL     1      16.883  -0.343  18.029  1.00  0.00    -0.000 C 
BRANCH   6   7
ATOM      7  C   UNL     1      18.049  -1.309  18.329  1.00  0.00    -0.000 C 
BRANCH   7   8
ATOM      8  C   UNL     1      18.415  -2.177  17.112  1.00  0.00    -0.000 C 
BRANCH   8   9
ATOM      9  C   UNL     1      17.600  -3.482  17.040  1.00  0.00    -0.000 C 
BRANCH   9  10
ATOM     10  C   UNL     1      17.250  -4.106  18.403  1.00  0.00    -0.000 C 
BRANCH  10  11
ATOM     11  C   UNL     1      15.753  -4.418  18.551  1.00  0.00    -0.003 C 
ATOM     12  C   UNL     1      15.253  -5.279  17.394  1.00  0.00     0.004 C 
ENDBRANCH  10  11
ENDBRANCH   9  10
ENDBRANCH   8   9
ENDBRANCH   7   8
ENDBRANCH   6   7
ENDBRANCH   5   6
ENDBRANCH   4   5
ENDBRANCH   3   4
ENDBRANCH   2   3
ENDBRANCH   1   2
BRANCH   1  13
ATOM     13  C   UNL     1      20.150   0.502  22.560  1.00  0.00     0.000 C 
BRANCH  13  14
ATOM     14  C   UNL     1      21.557   0.062  22.121  1.00  0.00     0.000 C 
BRANCH  14  15
ATOM     15  C   UNL     1      22.148  -1.028  23.029  1.00  0.00     0.000 C 
BRANCH  15  16
ATOM     16  C   UNL     1      21.047  -1.947  23.572  1.00  0.00     0.000 C 
BRANCH  16  17
ATOM     17  C   UNL     1      21.151  -3.350  22.958  1.00  0.00     0.000 C 
BRANCH  17  18
ATOM     18  C   UNL     1      19.983  -3.683  22.013  1.00  0.00     0.000 C 
BRANCH  18  19
ATOM     19  C   UNL     1      20.142  -3.158  20.575  1.00  0.00     0.000 C 
BRANCH  19  20
ATOM     20  C   UNL     1      21.461  -3.601  19.917  1.00  0.00     0.006 C 
BRANCH  20  21
ATOM     21  C   UNL     1      21.429  -3.452  18.390  1.00  0.00     0.053 C 
BRANCH  21  22
ATOM     22  C   UNL     1      21.388  -4.784  17.703  1.00  0.00     0.041 C 
ATOM     23  O   UNL     1      20.426  -5.572  17.902  1.00  0.00    -0.550 OA
ATOM     24  O   UNL     1      22.424  -5.161  16.856  1.00  0.00    -0.550 OA
ENDBRANCH  21  22
ENDBRANCH  20  21
ENDBRANCH  19  20
ENDBRANCH  18  19
ENDBRANCH  17  18
ENDBRANCH  16  17
ENDBRANCH  15  16
ENDBRANCH  14  15
ENDBRANCH  13  14
ENDBRANCH   1  13
TORSDOF 20
ENDMDL
MODEL 6
REMARK VINA RESULT:    -4.863      1.197      4.898
REMARK INTER + INTRA:         -14.664
REMARK INTER:                 -11.114
REMARK INTRA:                  -3.550
REMARK UNBOUND:                -4.116
REMARK SMILES CCCCCCCCCCCCCCCCCCCCCC(=O)[O-]
REMARK SMILES IDX 12 1 11 2 10 3 9 4 8 5 7 6 6 7 5 8 4 9 3 10 2 11 1 12 13 13
REMARK SMILES IDX 14 14 15 15 16 16 17 17 18 18 19 19 20 20 21 21 22 22 23 23
REMARK SMILES IDX 24 24
REMARK H PARENT
REMARK Flexibility Score: inf
ROOT
ATOM      1  C   UNL     1      23.219  -0.094  22.106  1.00  0.00     0.000 C 
ENDROOT
BRANCH   1   2
ATOM      2  C   UNL     1      22.541   0.430  20.824  1.00  0.00     0.000 C 
BRANCH   2   3
ATOM      3  C   UNL     1      21.048   0.739  21.035  1.00  0.00     0.000 C 
BRANCH   3   4
ATOM      4  C   UNL     1      20.675   0.848  22.521  1.00  0.00    -0.000 C 
BRANCH   4   5
ATOM      5  C   UNL     1      19.158   0.766  22.755  1.00  0.00    -0.000 C 
BRANCH   5   6
ATOM      6  C   UNL     1      18.374   0.432  21.474  1.00  0.00    -0.000 C 
BRANCH   6   7
ATOM      7  C   UNL     1      16.957  -0.118  21.744  1.00  0.00    -0.000 C 
BRANCH   7   8
ATOM      8  C   UNL     1      16.325  -0.744  20.488  1.00  0.00    -0.000 C 
BRANCH   8   9
ATOM      9  C   UNL     1      17.144  -0.483  19.211  1.00  0.00    -0.000 C 
BRANCH   9  10
ATOM     10  C   UNL     1      17.015  -1.565  18.123  1.00  0.00    -0.000 C 
BRANCH  10  11
ATOM     11  C   UNL     1      15.936  -2.610  18.443  1.00  0.00    -0.003 C 
ATOM     12  C   UNL     1      15.723  -3.560  17.267  1.00  0.00     0.004 C 
ENDBRANCH  10  11
ENDBRANCH   9  10
ENDBRANCH   8   9
ENDBRANCH   7   8
ENDBRANCH   6   7
ENDBRANCH   5   6
ENDBRANCH   4   5
ENDBRANCH   3   4
ENDBRANCH   2   3
ENDBRANCH   1   2
BRANCH   1  13
ATOM     13  C   UNL     1      23.638  -1.574  22.027  1.00  0.00     0.000 C 
BRANCH  13  14
ATOM     14  C   UNL     1      22.489  -2.559  21.751  1.00  0.00     0.000 C 
BRANCH  14  15
ATOM     15  C   UNL     1      21.459  -2.602  22.889  1.00  0.00     0.000 C 
BRANCH  15  16
ATOM     16  C   UNL     1      20.299  -3.545  22.544  1.00  0.00     0.000 C 
BRANCH  16  17
ATOM     17  C   UNL     1      19.465  -2.987  21.382  1.00  0.00     0.000 C 
BRANCH  17  18
ATOM     18  C   UNL     1      18.442  -3.999  20.834  1.00  0.00     0.000 C 
BRANCH  18  19
ATOM     19  C   UNL     1      18.907  -4.783  19.594  1.00  0.00     0.000 C 
BRANCH  19  20
ATOM     20  C   UNL     1      19.806  -3.954  18.660  1.00  0.00     0.006 C 
BRANCH  20  21
ATOM     21  C   UNL     1      21.254  -4.461  18.643  1.00  0.00     0.053 C 
BRANCH  21  22
ATOM     22  C   UNL     1      21.563  -5.215  17.384  1.00  0.00     0.041 C 
ATOM     23  O   UNL     1      20.807  -6.147  17.000  1.00  0.00    -0.550 OA
ATOM     24  O   UNL     1      22.698  -4.900  16.646  1.00  0.00    -0.550 OA
ENDBRANCH  21  22
ENDBRANCH  20  21
ENDBRANCH  19  20
ENDBRANCH  18  19
ENDBRANCH  17  18
ENDBRANCH  16  17
ENDBRANCH  15  16
ENDBRANCH  14  15
ENDBRANCH  13  14
ENDBRANCH   1  13
TORSDOF 20
ENDMDL
MODEL 7
REMARK VINA RESULT:    -4.827      1.889      4.016
REMARK INTER + INTRA:         -14.587
REMARK INTER:                 -10.561
REMARK INTRA:                  -4.026
REMARK UNBOUND:                -4.116
REMARK SMILES CCCCCCCCCCCCCCCCCCCCCC(=O)[O-]
REMARK SMILES IDX 12 1 11 2 10 3 9 4 8 5 7 6 6 7 5 8 4 9 3 10 2 11 1 12 13 13
REMARK SMILES IDX 14 14 15 15 16 16 17 17 18 18 19 19 20 20 21 21 22 22 23 23
REMARK SMILES IDX 24 24
REMARK H PARENT
REMARK Flexibility Score: inf
ROOT
ATOM      1  C   UNL     1      18.402  -0.965  21.593  1.00  0.00     0.000 C 
ENDROOT
BRANCH   1   2
ATOM      2  C   UNL     1      19.568  -0.461  20.716  1.00  0.00     0.000 C 
BRANCH   2   3
ATOM      3  C   UNL     1      20.094   0.911  21.173  1.00  0.00     0.000 C 
BRANCH   3   4
ATOM      4  C   UNL     1      20.620   0.889  22.616  1.00  0.00    -0.000 C 
BRANCH   4   5
ATOM      5  C   UNL     1      22.134   0.628  22.687  1.00  0.00    -0.000 C 
BRANCH   5   6
ATOM      6  C   UNL     1      22.472  -0.842  22.992  1.00  0.00    -0.000 C 
BRANCH   6   7
ATOM      7  C   UNL     1      21.349  -1.589  23.743  1.00  0.00    -0.000 C 
BRANCH   7   8
ATOM      8  C   UNL     1      21.060  -2.973  23.135  1.00  0.00    -0.000 C 
BRANCH   8   9
ATOM      9  C   UNL     1      21.812  -3.216  21.814  1.00  0.00    -0.000 C 
BRANCH   9  10
ATOM     10  C   UNL     1      20.963  -3.828  20.685  1.00  0.00    -0.000 C 
BRANCH  10  11
ATOM     11  C   UNL     1      21.577  -3.619  19.293  1.00  0.00    -0.003 C 
ATOM     12  C   UNL     1      21.393  -4.857  18.419  1.00  0.00     0.004 C 
ENDBRANCH  10  11
ENDBRANCH   9  10
ENDBRANCH   8   9
ENDBRANCH   7   8
ENDBRANCH   6   7
ENDBRANCH   5   6
ENDBRANCH   4   5
ENDBRANCH   3   4
ENDBRANCH   2   3
ENDBRANCH   1   2
BRANCH   1  13
ATOM     13  C   UNL     1      17.765  -2.273  21.087  1.00  0.00     0.000 C 
BRANCH  13  14
ATOM     14  C   UNL     1      16.257  -2.188  20.796  1.00  0.00     0.000 C 
BRANCH  14  15
ATOM     15  C   UNL     1      15.766  -0.743  20.624  1.00  0.00     0.000 C 
BRANCH  15  16
ATOM     16  C   UNL     1      15.500  -0.425  19.148  1.00  0.00     0.000 C 
BRANCH  16  17
ATOM     17  C   UNL     1      16.698   0.300  18.519  1.00  0.00     0.000 C 
BRANCH  17  18
ATOM     18  C   UNL     1      17.273  -0.436  17.294  1.00  0.00     0.000 C 
BRANCH  18  19
ATOM     19  C   UNL     1      18.632  -1.119  17.527  1.00  0.00     0.000 C 
BRANCH  19  20
ATOM     20  C   UNL     1      18.564  -2.651  17.399  1.00  0.00     0.006 C 
BRANCH  20  21
ATOM     21  C   UNL     1      17.121  -3.166  17.326  1.00  0.00     0.053 C 
BRANCH  21  22
ATOM     22  C   UNL     1      16.931  -4.406  18.148  1.00  0.00     0.041 C 
ATOM     23  O   UNL     1      17.883  -4.866  18.833  1.00  0.00    -0.550 OA
ATOM     24  O   UNL     1      15.706  -5.062  18.143  1.00  0.00    -0.550 OA
ENDBRANCH  21  22
ENDBRANCH  20  21
ENDBRANCH  19  20
ENDBRANCH  18  19
ENDBRANCH  17  18
ENDBRANCH  16  17
ENDBRANCH  15  16
ENDBRANCH  14  15
ENDBRANCH  13  14
ENDBRANCH   1  13
TORSDOF 20
ENDMDL
MODEL 8
REMARK VINA RESULT:    -4.809      1.277      5.277
REMARK INTER + INTRA:         -14.548
REMARK INTER:                 -10.876
REMARK INTRA:                  -3.672
REMARK UNBOUND:                -4.116
REMARK SMILES CCCCCCCCCCCCCCCCCCCCCC(=O)[O-]
REMARK SMILES IDX 12 1 11 2 10 3 9 4 8 5 7 6 6 7 5 8 4 9 3 10 2 11 1 12 13 13
REMARK SMILES IDX 14 14 15 15 16 16 17 17 18 18 19 19 20 20 21 21 22 22 23 23
REMARK SMILES IDX 24 24
REMARK H PARENT
REMARK Flexibility Score: inf
ROOT
ATOM      1  C   UNL     1      21.696   0.276  20.972  1.00  0.00     0.000 C 
ENDROOT
BRANCH   1   2
ATOM      2  C   UNL     1      20.898   0.730  22.212  1.00  0.00     0.000 C 
BRANCH   2   3
ATOM      3  C   UNL     1      19.381   0.758  21.955  1.00  0.00     0.000 C 
BRANCH   3   4
ATOM      4  C   UNL     1      19.030   0.505  20.481  1.00  0.00    -0.000 C 
BRANCH   4   5
ATOM      5  C   UNL     1      17.515   0.405  20.245  1.00  0.00    -0.000 C 
BRANCH   5   6
ATOM      6  C   UNL     1      16.798  -0.428  21.322  1.00  0.00    -0.000 C 
BRANCH   6   7
ATOM      7  C   UNL     1      16.177  -1.733  20.780  1.00  0.00    -0.000 C 
BRANCH   7   8
ATOM      8  C   UNL     1      15.905  -1.665  19.267  1.00  0.00    -0.000 C 
BRANCH   8   9
ATOM      9  C   UNL     1      15.482  -3.021  18.672  1.00  0.00    -0.000 C 
BRANCH   9  10
ATOM     10  C   UNL     1      16.063  -3.331  17.281  1.00  0.00    -0.000 C 
BRANCH  10  11
ATOM     11  C   UNL     1      16.338  -4.826  17.065  1.00  0.00    -0.003 C 
ATOM     12  C   UNL     1      15.037  -5.622  17.004  1.00  0.00     0.004 C 
ENDBRANCH  10  11
ENDBRANCH   9  10
ENDBRANCH   8   9
ENDBRANCH   7   8
ENDBRANCH   6   7
ENDBRANCH   5   6
ENDBRANCH   4   5
ENDBRANCH   3   4
ENDBRANCH   2   3
ENDBRANCH   1   2
BRANCH   1  13
ATOM     13  C   UNL     1      21.853  -1.253  20.861  1.00  0.00     0.000 C 
BRANCH  13  14
ATOM     14  C   UNL     1      22.084  -1.979  22.196  1.00  0.00     0.000 C 
BRANCH  14  15
ATOM     15  C   UNL     1      21.128  -3.164  22.401  1.00  0.00     0.000 C 
BRANCH  15  16
ATOM     16  C   UNL     1      19.745  -2.861  21.813  1.00  0.00     0.000 C 
BRANCH  16  17
ATOM     17  C   UNL     1      19.049  -4.152  21.357  1.00  0.00     0.000 C 
BRANCH  17  18
ATOM     18  C   UNL     1      18.820  -4.208  19.835  1.00  0.00     0.000 C 
BRANCH  18  19
ATOM     19  C   UNL     1      19.274  -2.954  19.066  1.00  0.00     0.000 C 
BRANCH  19  20
ATOM     20  C   UNL     1      19.847  -3.278  17.674  1.00  0.00     0.006 C 
BRANCH  20  21
ATOM     21  C   UNL     1      21.340  -3.625  17.726  1.00  0.00     0.053 C 
BRANCH  21  22
ATOM     22  C   UNL     1      21.612  -4.995  17.180  1.00  0.00     0.041 C 
ATOM     23  O   UNL     1      22.699  -5.241  16.593  1.00  0.00    -0.550 OA
ATOM     24  O   UNL     1      20.655  -5.995  17.303  1.00  0.00    -0.550 OA
ENDBRANCH  21  22
ENDBRANCH  20  21
ENDBRANCH  19  20
ENDBRANCH  18  19
ENDBRANCH  17  18
ENDBRANCH  16  17
ENDBRANCH  15  16
ENDBRANCH  14  15
ENDBRANCH  13  14
ENDBRANCH   1  13
TORSDOF 20
ENDMDL
MODEL 9
REMARK VINA RESULT:    -4.799      2.418      4.554
REMARK INTER + INTRA:         -14.525
REMARK INTER:                 -11.147
REMARK INTRA:                  -3.378
REMARK UNBOUND:                -4.116
REMARK SMILES CCCCCCCCCCCCCCCCCCCCCC(=O)[O-]
REMARK SMILES IDX 12 1 11 2 10 3 9 4 8 5 7 6 6 7 5 8 4 9 3 10 2 11 1 12 13 13
REMARK SMILES IDX 14 14 15 15 16 16 17 17 18 18 19 19 20 20 21 21 22 22 23 23
REMARK SMILES IDX 24 24
REMARK H PARENT
REMARK Flexibility Score: inf
ROOT
ATOM      1  C   UNL     1      19.718   0.717  21.307  1.00  0.00     0.000 C 
ENDROOT
BRANCH   1   2
ATOM      2  C   UNL     1      20.848   0.044  20.501  1.00  0.00     0.000 C 
BRANCH   2   3
ATOM      3  C   UNL     1      22.226   0.223  21.162  1.00  0.00     0.000 C 
BRANCH   3   4
ATOM      4  C   UNL     1      22.680  -1.032  21.924  1.00  0.00    -0.000 C 
BRANCH   4   5
ATOM      5  C   UNL     1      22.154  -1.067  23.367  1.00  0.00    -0.000 C 
BRANCH   5   6
ATOM      6  C   UNL     1      21.145  -2.204  23.606  1.00  0.00    -0.000 C 
BRANCH   6   7
ATOM      7  C   UNL     1      21.275  -3.365  22.597  1.00  0.00    -0.000 C 
BRANCH   7   8
ATOM      8  C   UNL     1      19.935  -3.699  21.917  1.00  0.00    -0.000 C 
BRANCH   8   9
ATOM      9  C   UNL     1      19.966  -3.481  20.393  1.00  0.00    -0.000 C 
BRANCH   9  10
ATOM     10  C   UNL     1      21.336  -3.711  19.730  1.00  0.00    -0.000 C 
BRANCH  10  11
ATOM     11  C   UNL     1      21.333  -4.886  18.741  1.00  0.00    -0.003 C 
ATOM     12  C   UNL     1      21.666  -4.415  17.327  1.00  0.00     0.004 C 
ENDBRANCH  10  11
ENDBRANCH   9  10
ENDBRANCH   8   9
ENDBRANCH   7   8
ENDBRANCH   6   7
ENDBRANCH   5   6
ENDBRANCH   4   5
ENDBRANCH   3   4
ENDBRANCH   2   3
ENDBRANCH   1   2
BRANCH   1  13
ATOM     13  C   UNL     1      18.719  -0.280  21.926  1.00  0.00     0.000 C 
BRANCH  13  14
ATOM     14  C   UNL     1      17.308  -0.246  21.317  1.00  0.00     0.000 C 
BRANCH  14  15
ATOM     15  C   UNL     1      17.238   0.584  20.026  1.00  0.00     0.000 C 
BRANCH  15  16
ATOM     16  C   UNL     1      16.484  -0.172  18.926  1.00  0.00     0.000 C 
BRANCH  16  17
ATOM     17  C   UNL     1      17.320  -0.247  17.640  1.00  0.00     0.000 C 
BRANCH  17  18
ATOM     18  C   UNL     1      18.602  -1.084  17.802  1.00  0.00     0.000 C 
BRANCH  18  19
ATOM     19  C   UNL     1      18.509  -2.523  17.266  1.00  0.00     0.000 C 
BRANCH  19  20
ATOM     20  C   UNL     1      17.085  -3.103  17.347  1.00  0.00     0.006 C 
BRANCH  20  21
ATOM     21  C   UNL     1      17.056  -4.614  17.083  1.00  0.00     0.053 C 
BRANCH  21  22
ATOM     22  C   UNL     1      15.714  -5.206  17.391  1.00  0.00     0.041 C 
ATOM     23  O   UNL     1      15.111  -4.897  18.453  1.00  0.00    -0.550 OA
ATOM     24  O   UNL     1      15.137  -6.115  16.511  1.00  0.00    -0.550 OA
ENDBRANCH  21  22
ENDBRANCH  20  21
ENDBRANCH  19  20
ENDBRANCH  18  19
ENDBRANCH  17  18
ENDBRANCH  16  17
ENDBRANCH  15  16
ENDBRANCH  14  15
ENDBRANCH  13  14
ENDBRANCH   1  13
TORSDOF 20
ENDMDL
