MODEL 1
REMARK VINA RESULT:    -5.174      0.000      0.000
REMARK INTER + INTRA:          -5.608
REMARK INTER:                  -5.476
REMARK INTRA:                  -0.132
REMARK UNBOUND:                -0.132
REMARK SMILES C=C(C)[C@@H]1CC[C@]2(C)CCCC(=C)[C@H]2C1
REMARK SMILES IDX 4 1 5 2 6 3 7 4 9 5 10 6 11 7 12 8 13 9 14 10 15 11 8 12
REMARK SMILES IDX 2 13 3 14 1 15
REMARK H PARENT
REMARK Flexibility Score: inf
ROOT
ATOM      1  C   UNL     1      14.840  16.298  36.379  1.00  0.00     0.015 C 
ATOM      2  C   UNL     1      14.438  17.726  36.828  1.00  0.00     0.008 C 
ATOM      3  C   UNL     1      13.790  17.761  38.224  1.00  0.00     0.008 C 
ATOM      4  C   UNL     1      12.567  16.814  38.351  1.00  0.00    -0.026 C 
ATOM      5  C   UNL     1      12.107  16.795  39.842  1.00  0.00     0.008 C 
ATOM      6  C   UNL     1      10.997  15.759  40.125  1.00  0.00     0.005 C 
ATOM      7  C   UNL     1      11.376  14.351  39.644  1.00  0.00     0.031 C 
ATOM      8  C   UNL     1      11.882  14.394  38.221  1.00  0.00    -0.074 C 
ATOM      9  C   UNL     1      11.318  13.619  37.276  1.00  0.00     0.008 C 
ATOM     10  C   UNL     1      13.013  15.378  37.954  1.00  0.00     0.021 C 
ATOM     11  C   UNL     1      13.645  15.320  36.539  1.00  0.00     0.016 C 
ATOM     12  C   UNL     1      11.398  17.335  37.465  1.00  0.00     0.012 C 
ENDROOT
BRANCH   1  13
ATOM     13  C   UNL     1      16.175  15.856  36.999  1.00  0.00    -0.077 C 
ATOM     14  C   UNL     1      16.694  14.470  36.692  1.00  0.00     0.039 C 
ATOM     15  C   UNL     1      16.877  16.589  37.884  1.00  0.00     0.008 C 
ENDBRANCH   1  13
TORSDOF 1
ENDMDL
MODEL 2
REMARK VINA RESULT:    -4.910     13.778     15.421
REMARK INTER + INTRA:          -5.329
REMARK INTER:                  -5.241
REMARK INTRA:                  -0.087
REMARK UNBOUND:                -0.132
REMARK SMILES C=C(C)[C@@H]1CC[C@]2(C)CCCC(=C)[C@H]2C1
REMARK SMILES IDX 4 1 5 2 6 3 7 4 9 5 10 6 11 7 12 8 13 9 14 10 15 11 8 12
REMARK SMILES IDX 2 13 3 14 1 15
REMARK H PARENT
REMARK Flexibility Score: inf
ROOT
ATOM      1  C   UNL     1       6.702  19.774  24.007  1.00  0.00     0.015 C 
ATOM      2  C   UNL     1       6.949  21.219  23.506  1.00  0.00     0.008 C 
ATOM      3  C   UNL     1       8.432  21.516  23.223  1.00  0.00     0.008 C 
ATOM      4  C   UNL     1       9.353  21.225  24.438  1.00  0.00    -0.026 C 
ATOM      5  C   UNL     1      10.838  21.387  23.985  1.00  0.00     0.008 C 
ATOM      6  C   UNL     1      11.855  20.962  25.066  1.00  0.00     0.005 C 
ATOM      7  C   UNL     1      11.589  19.545  25.594  1.00  0.00     0.031 C 
ATOM      8  C   UNL     1      10.134  19.382  25.967  1.00  0.00    -0.074 C 
ATOM      9  C   UNL     1       9.791  18.967  27.201  1.00  0.00     0.008 C 
ATOM     10  C   UNL     1       9.131  19.751  24.882  1.00  0.00     0.021 C 
ATOM     11  C   UNL     1       7.644  19.441  25.196  1.00  0.00     0.016 C 
ATOM     12  C   UNL     1       9.058  22.237  25.583  1.00  0.00     0.012 C 
ENDROOT
BRANCH   1  13
ATOM     13  C   UNL     1       6.674  18.761  22.851  1.00  0.00    -0.077 C 
ATOM     14  C   UNL     1       5.353  18.461  22.181  1.00  0.00     0.039 C 
ATOM     15  C   UNL     1       7.740  18.041  22.453  1.00  0.00     0.008 C 
ENDBRANCH   1  13
TORSDOF 1
ENDMDL
MODEL 3
REMARK VINA RESULT:    -4.740     13.375     14.678
REMARK INTER + INTRA:          -5.149
REMARK INTER:                  -5.084
REMARK INTRA:                  -0.065
REMARK UNBOUND:                -0.132
REMARK SMILES C=C(C)[C@@H]1CC[C@]2(C)CCCC(=C)[C@H]2C1
REMARK SMILES IDX 4 1 5 2 6 3 7 4 9 5 10 6 11 7 12 8 13 9 14 10 15 11 8 12
REMARK SMILES IDX 2 13 3 14 1 15
REMARK H PARENT
REMARK Flexibility Score: inf
ROOT
ATOM      1  C   UNL     1      10.760  20.096  25.647  1.00  0.00     0.015 C 
ATOM      2  C   UNL     1      10.291  21.562  25.828  1.00  0.00     0.008 C 
ATOM      3  C   UNL     1       8.760  21.715  25.792  1.00  0.00     0.008 C 
ATOM      4  C   UNL     1       8.119  21.120  24.509  1.00  0.00    -0.026 C 
ATOM      5  C   UNL     1       6.567  21.169  24.662  1.00  0.00     0.008 C 
ATOM      6  C   UNL     1       5.818  20.452  23.517  1.00  0.00     0.005 C 
ATOM      7  C   UNL     1       6.309  19.013  23.308  1.00  0.00     0.031 C 
ATOM      8  C   UNL     1       7.817  18.973  23.228  1.00  0.00    -0.074 C 
ATOM      9  C   UNL     1       8.427  18.409  22.169  1.00  0.00     0.008 C 
ATOM     10  C   UNL     1       8.556  19.633  24.385  1.00  0.00     0.021 C 
ATOM     11  C   UNL     1      10.098  19.462  24.394  1.00  0.00     0.016 C 
ATOM     12  C   UNL     1       8.534  21.963  23.268  1.00  0.00     0.012 C 
ENDROOT
BRANCH   1  13
ATOM     13  C   UNL     1      10.659  19.294  26.955  1.00  0.00    -0.077 C 
ATOM     14  C   UNL     1      11.883  19.183  27.834  1.00  0.00     0.039 C 
ATOM     15  C   UNL     1       9.571  18.595  27.329  1.00  0.00     0.008 C 
ENDBRANCH   1  13
TORSDOF 1
ENDMDL
MODEL 4
REMARK VINA RESULT:    -4.717      1.729      4.568
REMARK INTER + INTRA:          -5.124
REMARK INTER:                  -4.831
REMARK INTRA:                  -0.293
REMARK UNBOUND:                -0.132
REMARK SMILES C=C(C)[C@@H]1CC[C@]2(C)CCCC(=C)[C@H]2C1
REMARK SMILES IDX 4 1 5 2 6 3 7 4 9 5 10 6 11 7 12 8 13 9 14 10 15 11 8 12
REMARK SMILES IDX 2 13 3 14 1 15
REMARK H PARENT
REMARK Flexibility Score: inf
ROOT
ATOM      1  C   UNL     1      12.259  15.284  38.905  1.00  0.00     0.015 C 
ATOM      2  C   UNL     1      11.784  16.584  39.602  1.00  0.00     0.008 C 
ATOM      3  C   UNL     1      11.160  17.599  38.628  1.00  0.00     0.008 C 
ATOM      4  C   UNL     1      12.095  17.959  37.443  1.00  0.00    -0.026 C 
ATOM      5  C   UNL     1      11.300  18.845  36.434  1.00  0.00     0.008 C 
ATOM      6  C   UNL     1      12.076  19.131  35.130  1.00  0.00     0.005 C 
ATOM      7  C   UNL     1      12.583  17.847  34.458  1.00  0.00     0.031 C 
ATOM      8  C   UNL     1      13.294  16.969  35.461  1.00  0.00    -0.074 C 
ATOM      9  C   UNL     1      14.552  16.551  35.227  1.00  0.00     0.008 C 
ATOM     10  C   UNL     1      12.508  16.642  36.724  1.00  0.00     0.021 C 
ATOM     11  C   UNL     1      13.162  15.618  37.687  1.00  0.00     0.016 C 
ATOM     12  C   UNL     1      13.326  18.759  37.961  1.00  0.00     0.012 C 
ENDROOT
BRANCH   1  13
ATOM     13  C   UNL     1      11.097  14.310  38.651  1.00  0.00    -0.077 C 
ATOM     14  C   UNL     1      10.053  14.130  39.727  1.00  0.00     0.039 C 
ATOM     15  C   UNL     1      10.997  13.524  37.563  1.00  0.00     0.008 C 
ENDBRANCH   1  13
TORSDOF 1
ENDMDL
MODEL 5
REMARK VINA RESULT:    -4.652     12.687     14.524
REMARK INTER + INTRA:          -5.056
REMARK INTER:                  -4.750
REMARK INTRA:                  -0.306
REMARK UNBOUND:                -0.132
REMARK SMILES C=C(C)[C@@H]1CC[C@]2(C)CCCC(=C)[C@H]2C1
REMARK SMILES IDX 4 1 5 2 6 3 7 4 9 5 10 6 11 7 12 8 13 9 14 10 15 11 8 12
REMARK SMILES IDX 2 13 3 14 1 15
REMARK H PARENT
REMARK Flexibility Score: inf
ROOT
ATOM      1  C   UNL     1       7.673  19.562  24.962  1.00  0.00     0.015 C 
ATOM      2  C   UNL     1       7.796  19.520  26.506  1.00  0.00     0.008 C 
ATOM      3  C   UNL     1       9.010  20.302  27.037  1.00  0.00     0.008 C 
ATOM      4  C   UNL     1      10.351  19.851  26.399  1.00  0.00    -0.026 C 
ATOM      5  C   UNL     1      11.477  20.823  26.871  1.00  0.00     0.008 C 
ATOM      6  C   UNL     1      12.831  20.574  26.170  1.00  0.00     0.005 C 
ATOM      7  C   UNL     1      12.706  20.574  24.640  1.00  0.00     0.031 C 
ATOM      8  C   UNL     1      11.570  19.681  24.201  1.00  0.00    -0.074 C 
ATOM      9  C   UNL     1      11.786  18.693  23.312  1.00  0.00     0.008 C 
ATOM     10  C   UNL     1      10.222  19.961  24.852  1.00  0.00     0.021 C 
ATOM     11  C   UNL     1       9.017  19.157  24.297  1.00  0.00     0.016 C 
ATOM     12  C   UNL     1      10.700  18.406  26.861  1.00  0.00     0.012 C 
ENDROOT
BRANCH   1  13
ATOM     13  C   UNL     1       7.033  20.870  24.470  1.00  0.00    -0.077 C 
ATOM     14  C   UNL     1       5.969  21.522  25.322  1.00  0.00     0.039 C 
ATOM     15  C   UNL     1       7.287  21.431  23.273  1.00  0.00     0.008 C 
ENDBRANCH   1  13
TORSDOF 1
ENDMDL
MODEL 6
REMARK VINA RESULT:    -4.549     16.533     18.043
REMARK INTER + INTRA:          -4.946
REMARK INTER:                  -4.865
REMARK INTRA:                  -0.082
REMARK UNBOUND:                -0.132
REMARK SMILES C=C(C)[C@@H]1CC[C@]2(C)CCCC(=C)[C@H]2C1
REMARK SMILES IDX 4 1 5 2 6 3 7 4 9 5 10 6 11 7 12 8 13 9 14 10 15 11 8 12
REMARK SMILES IDX 2 13 3 14 1 15
REMARK H PARENT
REMARK Flexibility Score: inf
ROOT
ATOM      1  C   UNL     1       6.355  20.158  22.337  1.00  0.00     0.015 C 
ATOM      2  C   UNL     1       6.476  21.542  23.024  1.00  0.00     0.008 C 
ATOM      3  C   UNL     1       5.350  21.815  24.036  1.00  0.00     0.008 C 
ATOM      4  C   UNL     1       3.932  21.663  23.425  1.00  0.00    -0.026 C 
ATOM      5  C   UNL     1       2.881  21.783  24.573  1.00  0.00     0.008 C 
ATOM      6  C   UNL     1       1.438  21.484  24.113  1.00  0.00     0.005 C 
ATOM      7  C   UNL     1       1.321  20.131  23.396  1.00  0.00     0.031 C 
ATOM      8  C   UNL     1       2.386  20.001  22.332  1.00  0.00    -0.074 C 
ATOM      9  C   UNL     1       2.046  19.720  21.060  1.00  0.00     0.008 C 
ATOM     10  C   UNL     1       3.816  20.244  22.798  1.00  0.00     0.021 C 
ATOM     11  C   UNL     1       4.929  19.961  21.755  1.00  0.00     0.016 C 
ATOM     12  C   UNL     1       3.678  22.791  22.384  1.00  0.00     0.012 C 
ENDROOT
BRANCH   1  13
ATOM     13  C   UNL     1       6.894  19.026  23.226  1.00  0.00    -0.077 C 
ATOM     14  C   UNL     1       7.461  19.375  24.582  1.00  0.00     0.039 C 
ATOM     15  C   UNL     1       6.986  17.740  22.837  1.00  0.00     0.008 C 
ENDBRANCH   1  13
TORSDOF 1
ENDMDL
MODEL 7
REMARK VINA RESULT:    -4.517     13.173     14.474
REMARK INTER + INTRA:          -4.912
REMARK INTER:                  -4.607
REMARK INTRA:                  -0.305
REMARK UNBOUND:                -0.132
REMARK SMILES C=C(C)[C@@H]1CC[C@]2(C)CCCC(=C)[C@H]2C1
REMARK SMILES IDX 4 1 5 2 6 3 7 4 9 5 10 6 11 7 12 8 13 9 14 10 15 11 8 12
REMARK SMILES IDX 2 13 3 14 1 15
REMARK H PARENT
REMARK Flexibility Score: inf
ROOT
ATOM      1  C   UNL     1      11.441  19.178  24.687  1.00  0.00     0.015 C 
ATOM      2  C   UNL     1      11.049  19.299  23.193  1.00  0.00     0.008 C 
ATOM      3  C   UNL     1       9.902  20.295  22.947  1.00  0.00     0.008 C 
ATOM      4  C   UNL     1       8.636  19.986  23.791  1.00  0.00    -0.026 C 
ATOM      5  C   UNL     1       7.615  21.150  23.599  1.00  0.00     0.008 C 
ATOM      6  C   UNL     1       6.381  21.037  24.520  1.00  0.00     0.005 C 
ATOM      7  C   UNL     1       6.765  20.876  25.997  1.00  0.00     0.031 C 
ATOM      8  C   UNL     1       7.803  19.790  26.160  1.00  0.00    -0.074 C 
ATOM      9  C   UNL     1       7.588  18.765  27.006  1.00  0.00     0.008 C 
ATOM     10  C   UNL     1       9.046  19.931  25.291  1.00  0.00     0.021 C 
ATOM     11  C   UNL     1      10.184  18.912  25.560  1.00  0.00     0.016 C 
ATOM     12  C   UNL     1       7.987  18.657  23.307  1.00  0.00     0.012 C 
ENDROOT
BRANCH   1  13
ATOM     13  C   UNL     1      12.357  20.328  25.137  1.00  0.00    -0.077 C 
ATOM     14  C   UNL     1      13.379  20.864  24.163  1.00  0.00     0.039 C 
ATOM     15  C   UNL     1      12.378  20.832  26.385  1.00  0.00     0.008 C 
ENDBRANCH   1  13
TORSDOF 1
ENDMDL
MODEL 8
REMARK VINA RESULT:    -4.507     12.814     14.407
REMARK INTER + INTRA:          -4.902
REMARK INTER:                  -4.633
REMARK INTRA:                  -0.269
REMARK UNBOUND:                -0.132
REMARK SMILES C=C(C)[C@@H]1CC[C@]2(C)CCCC(=C)[C@H]2C1
REMARK SMILES IDX 4 1 5 2 6 3 7 4 9 5 10 6 11 7 12 8 13 9 14 10 15 11 8 12
REMARK SMILES IDX 2 13 3 14 1 15
REMARK H PARENT
REMARK Flexibility Score: inf
ROOT
ATOM      1  C   UNL     1       9.376  20.212  23.206  1.00  0.00     0.015 C 
ATOM      2  C   UNL     1      10.724  19.463  23.051  1.00  0.00     0.008 C 
ATOM      3  C   UNL     1      11.260  18.901  24.379  1.00  0.00     0.008 C 
ATOM      4  C   UNL     1      11.391  19.979  25.488  1.00  0.00    -0.026 C 
ATOM      5  C   UNL     1      11.766  19.272  26.827  1.00  0.00     0.008 C 
ATOM      6  C   UNL     1      11.763  20.224  28.042  1.00  0.00     0.005 C 
ATOM      7  C   UNL     1      10.444  20.998  28.176  1.00  0.00     0.031 C 
ATOM      8  C   UNL     1      10.059  21.623  26.855  1.00  0.00    -0.074 C 
ATOM      9  C   UNL     1       9.816  22.944  26.774  1.00  0.00     0.008 C 
ATOM     10  C   UNL     1      10.010  20.672  25.666  1.00  0.00     0.021 C 
ATOM     11  C   UNL     1       9.466  21.268  24.341  1.00  0.00     0.016 C 
ATOM     12  C   UNL     1      12.514  20.990  25.115  1.00  0.00     0.012 C 
ENDROOT
BRANCH   1  13
ATOM     13  C   UNL     1       8.184  19.243  23.265  1.00  0.00    -0.077 C 
ATOM     14  C   UNL     1       8.101  18.131  22.246  1.00  0.00     0.039 C 
ATOM     15  C   UNL     1       7.145  19.376  24.111  1.00  0.00     0.008 C 
ENDBRANCH   1  13
TORSDOF 1
ENDMDL
MODEL 9
REMARK VINA RESULT:    -4.380      2.004      3.535
REMARK INTER + INTRA:          -4.768
REMARK INTER:                  -4.744
REMARK INTRA:                  -0.024
REMARK UNBOUND:                -0.132
REMARK SMILES C=C(C)[C@@H]1CC[C@]2(C)CCCC(=C)[C@H]2C1
REMARK SMILES IDX 4 1 5 2 6 3 7 4 9 5 10 6 11 7 12 8 13 9 14 10 15 11 8 12
REMARK SMILES IDX 2 13 3 14 1 15
REMARK H PARENT
REMARK Flexibility Score: inf
ROOT
ATOM      1  C   UNL     1      15.165  15.764  36.204  1.00  0.00     0.015 C 
ATOM      2  C   UNL     1      15.846  16.560  37.345  1.00  0.00     0.008 C 
ATOM      3  C   UNL     1      14.850  17.369  38.195  1.00  0.00     0.008 C 
ATOM      4  C   UNL     1      13.966  18.326  37.352  1.00  0.00    -0.026 C 
ATOM      5  C   UNL     1      12.883  18.953  38.284  1.00  0.00     0.008 C 
ATOM      6  C   UNL     1      11.839  19.798  37.524  1.00  0.00     0.005 C 
ATOM      7  C   UNL     1      11.191  19.026  36.366  1.00  0.00     0.031 C 
ATOM      8  C   UNL     1      12.249  18.369  35.510  1.00  0.00    -0.074 C 
ATOM      9  C   UNL     1      12.289  18.599  34.184  1.00  0.00     0.008 C 
ATOM     10  C   UNL     1      13.247  17.492  36.253  1.00  0.00     0.021 C 
ATOM     11  C   UNL     1      14.239  16.690  35.370  1.00  0.00     0.016 C 
ATOM     12  C   UNL     1      14.840  19.465  36.751  1.00  0.00     0.012 C 
ENDROOT
BRANCH   1  13
ATOM     13  C   UNL     1      14.546  14.450  36.708  1.00  0.00    -0.077 C 
ATOM     14  C   UNL     1      15.250  13.150  36.398  1.00  0.00     0.039 C 
ATOM     15  C   UNL     1      13.355  14.368  37.331  1.00  0.00     0.008 C 
ENDBRANCH   1  13
TORSDOF 1
ENDMDL
