MODEL 1
REMARK VINA RESULT:    -4.958      0.000      0.000
REMARK INTER + INTRA:          -9.065
REMARK INTER:                  -7.566
REMARK INTRA:                  -1.499
REMARK UNBOUND:                -1.499
REMARK SMILES CC(=O)CCC=C(C)CCC=C(C)CCC=C(C)C
REMARK SMILES IDX 10 1 11 2 12 3 13 4 14 5 15 6 16 7 18 8 17 9 19 10 9 11 7 12
REMARK SMILES IDX 6 13 8 14 5 15 4 16 2 17 3 18 1 19
REMARK H PARENT
REMARK Flexibility Score: inf
ROOT
ATOM      1  C   UNL     1       3.174  29.066  54.250  1.00  0.00     0.032 C 
ENDROOT
BRANCH   1   2
ATOM      2  C   UNL     1       4.448  28.938  53.451  1.00  0.00    -0.028 C 
ATOM      3  C   UNL     1       4.792  29.743  52.420  1.00  0.00    -0.077 C 
ATOM      4  C   UNL     1       3.875  30.833  51.915  1.00  0.00     0.039 C 
BRANCH   3   5
ATOM      5  C   UNL     1       6.124  29.530  51.735  1.00  0.00     0.034 C 
BRANCH   5   6
ATOM      6  C   UNL     1       5.927  29.019  50.304  1.00  0.00     0.032 C 
BRANCH   6   7
ATOM      7  C   UNL     1       5.599  27.547  50.302  1.00  0.00    -0.028 C 
ATOM      8  C   UNL     1       4.318  25.516  49.705  1.00  0.00     0.039 C 
ATOM      9  C   UNL     1       4.519  27.009  49.692  1.00  0.00    -0.080 C 
ATOM     10  C   UNL     1       3.502  27.856  48.966  1.00  0.00     0.039 C 
ENDBRANCH   6   7
ENDBRANCH   5   6
ENDBRANCH   3   5
ENDBRANCH   1   2
BRANCH   1  11
ATOM     11  C   UNL     1       3.000  27.906  55.242  1.00  0.00     0.034 C 
BRANCH  11  12
ATOM     12  C   UNL     1       3.036  28.385  56.683  1.00  0.00    -0.077 C 
ATOM     13  C   UNL     1       1.924  28.524  57.441  1.00  0.00    -0.028 C 
ATOM     14  C   UNL     1       4.371  28.686  57.314  1.00  0.00     0.039 C 
BRANCH  13  15
ATOM     15  C   UNL     1       0.510  28.321  56.948  1.00  0.00     0.035 C 
BRANCH  15  16
ATOM     16  C   UNL     1      -0.137  29.644  56.520  1.00  0.00     0.079 C 
BRANCH  16  17
ATOM     17  C   UNL     1      -0.320  29.714  55.026  1.00  0.00     0.130 C 
ATOM     18  O   UNL     1      -0.878  28.798  54.442  1.00  0.00    -0.300 OA
ATOM     19  C   UNL     1       0.203  30.877  54.238  1.00  0.00     0.087 C 
ENDBRANCH  16  17
ENDBRANCH  15  16
ENDBRANCH  13  15
ENDBRANCH  11  12
ENDBRANCH   1  11
TORSDOF 9
ENDMDL
MODEL 2
REMARK VINA RESULT:    -4.814      2.319      7.068
REMARK INTER + INTRA:          -8.846
REMARK INTER:                  -7.467
REMARK INTRA:                  -1.379
REMARK UNBOUND:                -1.499
REMARK SMILES CC(=O)CCC=C(C)CCC=C(C)CCC=C(C)C
REMARK SMILES IDX 10 1 11 2 12 3 13 4 14 5 15 6 16 7 18 8 17 9 19 10 9 11 7 12
REMARK SMILES IDX 6 13 8 14 5 15 4 16 2 17 3 18 1 19
REMARK H PARENT
REMARK Flexibility Score: inf
ROOT
ATOM      1  C   UNL     1       4.345  28.655  50.888  1.00  0.00     0.032 C 
ENDROOT
BRANCH   1   2
ATOM      2  C   UNL     1       4.539  28.490  52.377  1.00  0.00    -0.028 C 
ATOM      3  C   UNL     1       4.301  29.456  53.294  1.00  0.00    -0.077 C 
ATOM      4  C   UNL     1       3.872  30.849  52.896  1.00  0.00     0.039 C 
BRANCH   3   5
ATOM      5  C   UNL     1       4.495  29.138  54.760  1.00  0.00     0.034 C 
BRANCH   5   6
ATOM      6  C   UNL     1       3.504  28.064  55.221  1.00  0.00     0.032 C 
BRANCH   6   7
ATOM      7  C   UNL     1       2.085  28.484  54.929  1.00  0.00    -0.028 C 
ATOM      8  C   UNL     1      -0.176  29.337  55.461  1.00  0.00     0.039 C 
ATOM      9  C   UNL     1       1.201  28.885  55.871  1.00  0.00    -0.080 C 
ATOM     10  C   UNL     1       1.553  28.920  57.338  1.00  0.00     0.039 C 
ENDBRANCH   6   7
ENDBRANCH   5   6
ENDBRANCH   3   5
ENDBRANCH   1   2
BRANCH   1  11
ATOM     11  C   UNL     1       5.373  27.847  50.083  1.00  0.00     0.034 C 
BRANCH  11  12
ATOM     12  C   UNL     1       4.709  26.789  49.218  1.00  0.00    -0.077 C 
ATOM     13  C   UNL     1       4.522  26.938  47.887  1.00  0.00    -0.028 C 
ATOM     14  C   UNL     1       4.269  25.499  49.861  1.00  0.00     0.039 C 
BRANCH  13  15
ATOM     15  C   UNL     1       4.850  28.186  47.101  1.00  0.00     0.035 C 
BRANCH  15  16
ATOM     16  C   UNL     1       3.588  28.848  46.534  1.00  0.00     0.079 C 
BRANCH  16  17
ATOM     17  C   UNL     1       2.863  29.649  47.585  1.00  0.00     0.130 C 
ATOM     18  O   UNL     1       3.343  30.700  47.983  1.00  0.00    -0.300 OA
ATOM     19  C   UNL     1       1.575  29.161  48.176  1.00  0.00     0.087 C 
ENDBRANCH  16  17
ENDBRANCH  15  16
ENDBRANCH  13  15
ENDBRANCH  11  12
ENDBRANCH   1  11
TORSDOF 9
ENDMDL
MODEL 3
REMARK VINA RESULT:    -4.605     13.646     16.206
REMARK INTER + INTRA:          -8.527
REMARK INTER:                  -6.336
REMARK INTRA:                  -2.191
REMARK UNBOUND:                -1.499
REMARK SMILES CC(=O)CCC=C(C)CCC=C(C)CCC=C(C)C
REMARK SMILES IDX 10 1 11 2 12 3 13 4 14 5 15 6 16 7 18 8 17 9 19 10 9 11 7 12
REMARK SMILES IDX 6 13 8 14 5 15 4 16 2 17 3 18 1 19
REMARK H PARENT
REMARK Flexibility Score: inf
ROOT
ATOM      1  C   UNL     1      -3.991  34.084  41.452  1.00  0.00     0.032 C 
ENDROOT
BRANCH   1   2
ATOM      2  C   UNL     1      -5.107  34.077  42.469  1.00  0.00    -0.028 C 
ATOM      3  C   UNL     1      -4.942  34.311  43.791  1.00  0.00    -0.077 C 
ATOM      4  C   UNL     1      -3.577  34.541  44.398  1.00  0.00     0.039 C 
BRANCH   3   5
ATOM      5  C   UNL     1      -6.157  34.318  44.692  1.00  0.00     0.034 C 
BRANCH   5   6
ATOM      6  C   UNL     1      -7.430  34.602  43.888  1.00  0.00     0.032 C 
BRANCH   6   7
ATOM      7  C   UNL     1      -8.452  33.513  44.103  1.00  0.00    -0.028 C 
ATOM      8  C   UNL     1      -9.956  31.662  43.444  1.00  0.00     0.039 C 
ATOM      9  C   UNL     1      -8.983  32.763  43.111  1.00  0.00    -0.080 C 
ATOM     10  C   UNL     1      -8.616  32.972  41.662  1.00  0.00     0.039 C 
ENDBRANCH   6   7
ENDBRANCH   5   6
ENDBRANCH   3   5
ENDBRANCH   1   2
BRANCH   1  11
ATOM     11  C   UNL     1      -3.904  35.424  40.706  1.00  0.00     0.034 C 
BRANCH  11  12
ATOM     12  C   UNL     1      -2.906  36.368  41.356  1.00  0.00    -0.077 C 
ATOM     13  C   UNL     1      -3.276  37.496  42.005  1.00  0.00    -0.028 C 
ATOM     14  C   UNL     1      -1.441  36.021  41.307  1.00  0.00     0.039 C 
BRANCH  13  15
ATOM     15  C   UNL     1      -4.690  38.019  42.096  1.00  0.00     0.035 C 
BRANCH  15  16
ATOM     16  C   UNL     1      -5.239  37.927  43.525  1.00  0.00     0.079 C 
BRANCH  16  17
ATOM     17  C   UNL     1      -6.529  38.692  43.673  1.00  0.00     0.130 C 
ATOM     18  O   UNL     1      -6.617  39.822  43.218  1.00  0.00    -0.300 OA
ATOM     19  C   UNL     1      -7.698  38.101  44.402  1.00  0.00     0.087 C 
ENDBRANCH  16  17
ENDBRANCH  15  16
ENDBRANCH  13  15
ENDBRANCH  11  12
ENDBRANCH   1  11
TORSDOF 9
ENDMDL
MODEL 4
REMARK VINA RESULT:    -4.483     14.517     15.806
REMARK INTER + INTRA:          -8.341
REMARK INTER:                  -6.321
REMARK INTRA:                  -2.019
REMARK UNBOUND:                -1.499
REMARK SMILES CC(=O)CCC=C(C)CCC=C(C)CCC=C(C)C
REMARK SMILES IDX 10 1 11 2 12 3 13 4 14 5 15 6 16 7 18 8 17 9 19 10 9 11 7 12
REMARK SMILES IDX 6 13 8 14 5 15 4 16 2 17 3 18 1 19
REMARK H PARENT
REMARK Flexibility Score: inf
ROOT
ATOM      1  C   UNL     1      -7.755  39.397  45.223  1.00  0.00     0.032 C 
ENDROOT
BRANCH   1   2
ATOM      2  C   UNL     1      -6.994  39.055  43.965  1.00  0.00    -0.028 C 
ATOM      3  C   UNL     1      -5.645  39.017  43.869  1.00  0.00    -0.077 C 
ATOM      4  C   UNL     1      -4.750  39.388  45.029  1.00  0.00     0.039 C 
BRANCH   3   5
ATOM      5  C   UNL     1      -5.013  38.613  42.555  1.00  0.00     0.034 C 
BRANCH   5   6
ATOM      6  C   UNL     1      -3.824  37.675  42.788  1.00  0.00     0.032 C 
BRANCH   6   7
ATOM      7  C   UNL     1      -4.274  36.235  42.810  1.00  0.00    -0.028 C 
ATOM      8  C   UNL     1      -4.718  33.990  41.869  1.00  0.00     0.039 C 
ATOM      9  C   UNL     1      -4.304  35.431  41.723  1.00  0.00    -0.080 C 
ATOM     10  C   UNL     1      -3.908  35.921  40.352  1.00  0.00     0.039 C 
ENDBRANCH   6   7
ENDBRANCH   5   6
ENDBRANCH   3   5
ENDBRANCH   1   2
BRANCH   1  11
ATOM     11  C   UNL     1      -8.420  38.160  45.845  1.00  0.00     0.034 C 
BRANCH  11  12
ATOM     12  C   UNL     1      -7.398  37.214  46.452  1.00  0.00    -0.077 C 
ATOM     13  C   UNL     1      -7.080  36.021  45.899  1.00  0.00    -0.028 C 
ATOM     14  C   UNL     1      -6.679  37.632  47.708  1.00  0.00     0.039 C 
BRANCH  13  15
ATOM     15  C   UNL     1      -7.745  35.427  44.680  1.00  0.00     0.035 C 
BRANCH  15  16
ATOM     16  C   UNL     1      -7.377  33.949  44.495  1.00  0.00     0.079 C 
BRANCH  16  17
ATOM     17  C   UNL     1      -8.405  33.221  43.669  1.00  0.00     0.130 C 
ATOM     18  O   UNL     1      -9.256  32.542  44.223  1.00  0.00    -0.300 OA
ATOM     19  C   UNL     1      -8.382  33.290  42.171  1.00  0.00     0.087 C 
ENDBRANCH  16  17
ENDBRANCH  15  16
ENDBRANCH  13  15
ENDBRANCH  11  12
ENDBRANCH   1  11
TORSDOF 9
ENDMDL
MODEL 5
REMARK VINA RESULT:    -4.395      2.571      6.720
REMARK INTER + INTRA:          -8.206
REMARK INTER:                  -6.419
REMARK INTRA:                  -1.787
REMARK UNBOUND:                -1.499
REMARK SMILES CC(=O)CCC=C(C)CCC=C(C)CCC=C(C)C
REMARK SMILES IDX 10 1 11 2 12 3 13 4 14 5 15 6 16 7 18 8 17 9 19 10 9 11 7 12
REMARK SMILES IDX 6 13 8 14 5 15 4 16 2 17 3 18 1 19
REMARK H PARENT
REMARK Flexibility Score: inf
ROOT
ATOM      1  C   UNL     1       3.165  32.222  51.937  1.00  0.00     0.032 C 
ENDROOT
BRANCH   1   2
ATOM      2  C   UNL     1       3.433  30.951  52.707  1.00  0.00    -0.028 C 
ATOM      3  C   UNL     1       4.621  30.629  53.266  1.00  0.00    -0.077 C 
ATOM      4  C   UNL     1       5.843  31.504  53.109  1.00  0.00     0.039 C 
BRANCH   3   5
ATOM      5  C   UNL     1       4.737  29.341  54.052  1.00  0.00     0.034 C 
BRANCH   5   6
ATOM      6  C   UNL     1       3.424  28.552  54.003  1.00  0.00     0.032 C 
BRANCH   6   7
ATOM      7  C   UNL     1       2.887  28.321  55.394  1.00  0.00    -0.028 C 
ATOM      8  C   UNL     1       1.223  28.429  57.222  1.00  0.00     0.039 C 
ATOM      9  C   UNL     1       1.686  28.766  55.828  1.00  0.00    -0.080 C 
ATOM     10  C   UNL     1       0.766  29.579  54.951  1.00  0.00     0.039 C 
ENDBRANCH   6   7
ENDBRANCH   5   6
ENDBRANCH   3   5
ENDBRANCH   1   2
BRANCH   1  11
ATOM     11  C   UNL     1       3.741  32.162  50.514  1.00  0.00     0.034 C 
BRANCH  11  12
ATOM     12  C   UNL     1       2.903  31.283  49.601  1.00  0.00    -0.077 C 
ATOM     13  C   UNL     1       3.303  30.057  49.190  1.00  0.00    -0.028 C 
ATOM     14  C   UNL     1       1.551  31.778  49.158  1.00  0.00     0.039 C 
BRANCH  13  15
ATOM     15  C   UNL     1       4.647  29.438  49.493  1.00  0.00     0.035 C 
BRANCH  15  16
ATOM     16  C   UNL     1       4.505  28.128  50.279  1.00  0.00     0.079 C 
BRANCH  16  17
ATOM     17  C   UNL     1       4.684  26.926  49.388  1.00  0.00     0.130 C 
ATOM     18  O   UNL     1       5.116  27.072  48.254  1.00  0.00    -0.300 OA
ATOM     19  C   UNL     1       4.310  25.553  49.859  1.00  0.00     0.087 C 
ENDBRANCH  16  17
ENDBRANCH  15  16
ENDBRANCH  13  15
ENDBRANCH  11  12
ENDBRANCH   1  11
TORSDOF 9
ENDMDL
MODEL 6
REMARK VINA RESULT:    -4.389     14.239     15.750
REMARK INTER + INTRA:          -8.197
REMARK INTER:                  -6.456
REMARK INTRA:                  -1.742
REMARK UNBOUND:                -1.499
REMARK SMILES CC(=O)CCC=C(C)CCC=C(C)CCC=C(C)C
REMARK SMILES IDX 10 1 11 2 12 3 13 4 14 5 15 6 16 7 18 8 17 9 19 10 9 11 7 12
REMARK SMILES IDX 6 13 8 14 5 15 4 16 2 17 3 18 1 19
REMARK H PARENT
REMARK Flexibility Score: inf
ROOT
ATOM      1  C   UNL     1      -5.006  38.175  43.850  1.00  0.00     0.032 C 
ENDROOT
BRANCH   1   2
ATOM      2  C   UNL     1      -4.757  38.049  42.366  1.00  0.00    -0.028 C 
ATOM      3  C   UNL     1      -3.533  38.025  41.792  1.00  0.00    -0.077 C 
ATOM      4  C   UNL     1      -2.267  38.195  42.600  1.00  0.00     0.039 C 
BRANCH   3   5
ATOM      5  C   UNL     1      -3.428  37.847  40.294  1.00  0.00     0.034 C 
BRANCH   5   6
ATOM      6  C   UNL     1      -3.903  36.452  39.876  1.00  0.00     0.032 C 
BRANCH   6   7
ATOM      7  C   UNL     1      -2.972  35.389  40.404  1.00  0.00    -0.028 C 
ATOM      8  C   UNL     1      -2.345  33.355  41.666  1.00  0.00     0.039 C 
ATOM      9  C   UNL     1      -3.346  34.399  41.245  1.00  0.00    -0.080 C 
ATOM     10  C   UNL     1      -4.757  34.282  41.769  1.00  0.00     0.039 C 
ENDBRANCH   6   7
ENDBRANCH   5   6
ENDBRANCH   3   5
ENDBRANCH   1   2
BRANCH   1  11
ATOM     11  C   UNL     1      -5.522  36.863  44.459  1.00  0.00     0.034 C 
BRANCH  11  12
ATOM     12  C   UNL     1      -7.037  36.846  44.566  1.00  0.00    -0.077 C 
ATOM     13  C   UNL     1      -7.761  35.703  44.588  1.00  0.00    -0.028 C 
ATOM     14  C   UNL     1      -7.770  38.156  44.688  1.00  0.00     0.039 C 
BRANCH  13  15
ATOM     15  C   UNL     1      -7.191  34.314  44.417  1.00  0.00     0.035 C 
BRANCH  15  16
ATOM     16  C   UNL     1      -8.246  33.231  44.674  1.00  0.00     0.079 C 
BRANCH  16  17
ATOM     17  C   UNL     1      -8.977  32.859  43.411  1.00  0.00     0.130 C 
ATOM     18  O   UNL     1     -10.057  32.293  43.481  1.00  0.00    -0.300 OA
ATOM     19  C   UNL     1      -8.384  33.145  42.063  1.00  0.00     0.087 C 
ENDBRANCH  16  17
ENDBRANCH  15  16
ENDBRANCH  13  15
ENDBRANCH  11  12
ENDBRANCH   1  11
TORSDOF 9
ENDMDL
MODEL 7
REMARK VINA RESULT:    -4.348     10.017     11.840
REMARK INTER + INTRA:          -8.135
REMARK INTER:                  -6.408
REMARK INTRA:                  -1.728
REMARK UNBOUND:                -1.499
REMARK SMILES CC(=O)CCC=C(C)CCC=C(C)CCC=C(C)C
REMARK SMILES IDX 10 1 11 2 12 3 13 4 14 5 15 6 16 7 18 8 17 9 19 10 9 11 7 12
REMARK SMILES IDX 6 13 8 14 5 15 4 16 2 17 3 18 1 19
REMARK H PARENT
REMARK Flexibility Score: inf
ROOT
ATOM      1  C   UNL     1      -8.700  31.060  54.915  1.00  0.00     0.032 C 
ENDROOT
BRANCH   1   2
ATOM      2  C   UNL     1      -7.729  29.965  55.285  1.00  0.00    -0.028 C 
ATOM      3  C   UNL     1      -8.072  28.812  55.903  1.00  0.00    -0.077 C 
ATOM      4  C   UNL     1      -9.488  28.536  56.354  1.00  0.00     0.039 C 
BRANCH   3   5
ATOM      5  C   UNL     1      -7.001  27.777  56.173  1.00  0.00     0.034 C 
BRANCH   5   6
ATOM      6  C   UNL     1      -6.707  26.956  54.914  1.00  0.00     0.032 C 
BRANCH   6   7
ATOM      7  C   UNL     1      -7.402  25.618  54.973  1.00  0.00    -0.028 C 
ATOM      8  C   UNL     1      -9.103  23.924  54.371  1.00  0.00     0.039 C 
ATOM      9  C   UNL     1      -8.523  25.312  54.281  1.00  0.00    -0.080 C 
ATOM     10  C   UNL     1      -9.213  26.314  53.388  1.00  0.00     0.039 C 
ENDBRANCH   6   7
ENDBRANCH   5   6
ENDBRANCH   3   5
ENDBRANCH   1   2
BRANCH   1  11
ATOM     11  C   UNL     1      -9.007  31.981  56.107  1.00  0.00     0.034 C 
BRANCH  11  12
ATOM     12  C   UNL     1      -7.803  32.823  56.495  1.00  0.00    -0.077 C 
ATOM     13  C   UNL     1      -7.048  32.568  57.588  1.00  0.00    -0.028 C 
ATOM     14  C   UNL     1      -7.408  33.975  55.608  1.00  0.00     0.039 C 
BRANCH  13  15
ATOM     15  C   UNL     1      -7.339  31.493  58.609  1.00  0.00     0.035 C 
BRANCH  15  16
ATOM     16  C   UNL     1      -6.337  31.527  59.770  1.00  0.00     0.079 C 
BRANCH  16  17
ATOM     17  C   UNL     1      -5.029  30.882  59.393  1.00  0.00     0.130 C 
ATOM     18  O   UNL     1      -3.979  31.379  59.767  1.00  0.00    -0.300 OA
ATOM     19  C   UNL     1      -4.995  29.653  58.535  1.00  0.00     0.087 C 
ENDBRANCH  16  17
ENDBRANCH  15  16
ENDBRANCH  13  15
ENDBRANCH  11  12
ENDBRANCH   1  11
TORSDOF 9
ENDMDL
MODEL 8
REMARK VINA RESULT:    -4.348      2.467      5.976
REMARK INTER + INTRA:          -8.135
REMARK INTER:                  -6.649
REMARK INTRA:                  -1.485
REMARK UNBOUND:                -1.499
REMARK SMILES CC(=O)CCC=C(C)CCC=C(C)CCC=C(C)C
REMARK SMILES IDX 10 1 11 2 12 3 13 4 14 5 15 6 16 7 18 8 17 9 19 10 9 11 7 12
REMARK SMILES IDX 6 13 8 14 5 15 4 16 2 17 3 18 1 19
REMARK H PARENT
REMARK Flexibility Score: inf
ROOT
ATOM      1  C   UNL     1       4.797  29.452  52.168  1.00  0.00     0.032 C 
ENDROOT
BRANCH   1   2
ATOM      2  C   UNL     1       4.067  28.881  53.360  1.00  0.00    -0.028 C 
ATOM      3  C   UNL     1       4.486  28.992  54.642  1.00  0.00    -0.077 C 
ATOM      4  C   UNL     1       5.794  29.657  55.001  1.00  0.00     0.039 C 
BRANCH   3   5
ATOM      5  C   UNL     1       3.631  28.411  55.746  1.00  0.00     0.034 C 
BRANCH   5   6
ATOM      6  C   UNL     1       2.197  28.175  55.259  1.00  0.00     0.032 C 
BRANCH   6   7
ATOM      7  C   UNL     1       1.199  28.588  56.311  1.00  0.00    -0.028 C 
ATOM      8  C   UNL     1      -0.807  29.731  57.201  1.00  0.00     0.039 C 
ATOM      9  C   UNL     1       0.164  29.430  56.089  1.00  0.00    -0.080 C 
ATOM     10  C   UNL     1      -0.074  30.071  54.744  1.00  0.00     0.039 C 
ENDBRANCH   6   7
ENDBRANCH   5   6
ENDBRANCH   3   5
ENDBRANCH   1   2
BRANCH   1  11
ATOM     11  C   UNL     1       3.926  30.446  51.385  1.00  0.00     0.034 C 
BRANCH  11  12
ATOM     12  C   UNL     1       4.090  31.867  51.898  1.00  0.00    -0.077 C 
ATOM     13  C   UNL     1       3.069  32.754  51.945  1.00  0.00    -0.028 C 
ATOM     14  C   UNL     1       5.438  32.302  52.409  1.00  0.00     0.039 C 
BRANCH  13  15
ATOM     15  C   UNL     1       1.676  32.499  51.420  1.00  0.00     0.035 C 
BRANCH  15  16
ATOM     16  C   UNL     1       0.604  32.849  52.461  1.00  0.00     0.079 C 
BRANCH  16  17
ATOM     17  C   UNL     1       0.131  34.271  52.312  1.00  0.00     0.130 C 
ATOM     18  O   UNL     1      -0.623  34.565  51.396  1.00  0.00    -0.300 OA
ATOM     19  C   UNL     1       0.596  35.342  53.252  1.00  0.00     0.087 C 
ENDBRANCH  16  17
ENDBRANCH  15  16
ENDBRANCH  13  15
ENDBRANCH  11  12
ENDBRANCH   1  11
TORSDOF 9
ENDMDL
MODEL 9
REMARK VINA RESULT:    -4.301     13.282     15.676
REMARK INTER + INTRA:          -8.063
REMARK INTER:                  -5.494
REMARK INTRA:                  -2.569
REMARK UNBOUND:                -1.499
REMARK SMILES CC(=O)CCC=C(C)CCC=C(C)CCC=C(C)C
REMARK SMILES IDX 10 1 11 2 12 3 13 4 14 5 15 6 16 7 18 8 17 9 19 10 9 11 7 12
REMARK SMILES IDX 6 13 8 14 5 15 4 16 2 17 3 18 1 19
REMARK H PARENT
REMARK Flexibility Score: inf
ROOT
ATOM      1  C   UNL     1      -3.905  33.789  42.218  1.00  0.00     0.032 C 
ENDROOT
BRANCH   1   2
ATOM      2  C   UNL     1      -4.370  35.166  41.811  1.00  0.00    -0.028 C 
ATOM      3  C   UNL     1      -3.823  36.323  42.250  1.00  0.00    -0.077 C 
ATOM      4  C   UNL     1      -2.707  36.343  43.269  1.00  0.00     0.039 C 
BRANCH   3   5
ATOM      5  C   UNL     1      -4.359  37.635  41.723  1.00  0.00     0.034 C 
BRANCH   5   6
ATOM      6  C   UNL     1      -4.720  38.579  42.875  1.00  0.00     0.032 C 
BRANCH   6   7
ATOM      7  C   UNL     1      -6.152  38.377  43.304  1.00  0.00    -0.028 C 
ATOM      8  C   UNL     1      -7.991  37.898  44.889  1.00  0.00     0.039 C 
ATOM      9  C   UNL     1      -6.527  38.018  44.553  1.00  0.00    -0.080 C 
ATOM     10  C   UNL     1      -5.523  37.750  45.647  1.00  0.00     0.039 C 
ENDBRANCH   6   7
ENDBRANCH   5   6
ENDBRANCH   3   5
ENDBRANCH   1   2
BRANCH   1  11
ATOM     11  C   UNL     1      -4.968  33.045  43.041  1.00  0.00     0.034 C 
BRANCH  11  12
ATOM     12  C   UNL     1      -5.222  33.720  44.379  1.00  0.00    -0.077 C 
ATOM     13  C   UNL     1      -6.411  34.273  44.709  1.00  0.00    -0.028 C 
ATOM     14  C   UNL     1      -4.114  33.746  45.400  1.00  0.00     0.039 C 
BRANCH  13  15
ATOM     15  C   UNL     1      -7.601  34.384  43.786  1.00  0.00     0.035 C 
BRANCH  15  16
ATOM     16  C   UNL     1      -8.657  33.314  44.089  1.00  0.00     0.079 C 
BRANCH  16  17
ATOM     17  C   UNL     1      -9.048  32.554  42.848  1.00  0.00     0.130 C 
ATOM     18  O   UNL     1      -9.727  31.543  42.947  1.00  0.00    -0.300 OA
ATOM     19  C   UNL     1      -8.587  32.999  41.493  1.00  0.00     0.087 C 
ENDBRANCH  16  17
ENDBRANCH  15  16
ENDBRANCH  13  15
ENDBRANCH  11  12
ENDBRANCH   1  11
TORSDOF 9
ENDMDL
