MODEL 1
REMARK VINA RESULT:    -3.647      0.000      0.000
REMARK INTER + INTRA:          -5.734
REMARK INTER:                  -5.139
REMARK INTRA:                  -0.595
REMARK UNBOUND:                -0.595
REMARK SMILES CCCCCCCCC(=O)[O-]
REMARK SMILES IDX 6 1 7 2 8 3 9 4 10 5 11 6 5 7 4 8 3 9 2 10 1 11
REMARK H PARENT
REMARK Flexibility Score: inf
ROOT
ATOM      1  C   UNL     1       6.517 -17.319  23.618  1.00  0.00     0.000 C 
ENDROOT
BRANCH   1   2
ATOM      2  C   UNL     1       7.477 -16.409  22.836  1.00  0.00     0.006 C 
BRANCH   2   3
ATOM      3  C   UNL     1       7.561 -14.999  23.436  1.00  0.00     0.053 C 
BRANCH   3   4
ATOM      4  C   UNL     1       8.758 -14.845  24.325  1.00  0.00     0.041 C 
ATOM      5  O   UNL     1       9.848 -14.426  23.855  1.00  0.00    -0.550 OA
ATOM      6  O   UNL     1       8.658 -15.136  25.679  1.00  0.00    -0.550 OA
ENDBRANCH   3   4
ENDBRANCH   2   3
ENDBRANCH   1   2
BRANCH   1   7
ATOM      7  C   UNL     1       7.295 -18.329  24.473  1.00  0.00     0.000 C 
BRANCH   7   8
ATOM      8  C   UNL     1       6.928 -19.786  24.146  1.00  0.00    -0.000 C 
BRANCH   8   9
ATOM      9  C   UNL     1       6.124 -19.915  22.842  1.00  0.00    -0.000 C 
BRANCH   9  10
ATOM     10  C   UNL     1       6.948 -20.529  21.700  1.00  0.00    -0.003 C 
ATOM     11  C   UNL     1       7.409 -19.487  20.680  1.00  0.00     0.004 C 
ENDBRANCH   9  10
ENDBRANCH   8   9
ENDBRANCH   7   8
ENDBRANCH   1   7
TORSDOF 7
ENDMDL
MODEL 2
REMARK VINA RESULT:    -3.629      2.682      4.727
REMARK INTER + INTRA:          -5.710
REMARK INTER:                  -4.987
REMARK INTRA:                  -0.723
REMARK UNBOUND:                -0.595
REMARK SMILES CCCCCCCCC(=O)[O-]
REMARK SMILES IDX 6 1 7 2 8 3 9 4 10 5 11 6 5 7 4 8 3 9 2 10 1 11
REMARK H PARENT
REMARK Flexibility Score: inf
ROOT
ATOM      1  C   UNL     1       7.591 -14.839  23.267  1.00  0.00     0.000 C 
ENDROOT
BRANCH   1   2
ATOM      2  C   UNL     1       7.384 -16.316  22.896  1.00  0.00     0.006 C 
BRANCH   2   3
ATOM      3  C   UNL     1       6.348 -17.002  23.797  1.00  0.00     0.053 C 
BRANCH   3   4
ATOM      4  C   UNL     1       6.983 -18.013  24.702  1.00  0.00     0.041 C 
ATOM      5  O   UNL     1       6.740 -18.002  25.937  1.00  0.00    -0.550 OA
ATOM      6  O   UNL     1       7.819 -18.989  24.173  1.00  0.00    -0.550 OA
ENDBRANCH   3   4
ENDBRANCH   2   3
ENDBRANCH   1   2
BRANCH   1   7
ATOM      7  C   UNL     1       8.616 -14.697  24.401  1.00  0.00     0.000 C 
BRANCH   7   8
ATOM      8  C   UNL     1      10.063 -14.892  23.918  1.00  0.00    -0.000 C 
BRANCH   8   9
ATOM      9  C   UNL     1      10.728 -16.137  24.528  1.00  0.00    -0.000 C 
BRANCH   9  10
ATOM     10  C   UNL     1      10.167 -16.485  25.915  1.00  0.00    -0.003 C 
ATOM     11  C   UNL     1      10.425 -17.940  26.308  1.00  0.00     0.004 C 
ENDBRANCH   9  10
ENDBRANCH   8   9
ENDBRANCH   7   8
ENDBRANCH   1   7
TORSDOF 7
ENDMDL
MODEL 3
REMARK VINA RESULT:    -3.569      1.179      2.304
REMARK INTER + INTRA:          -5.624
REMARK INTER:                  -5.107
REMARK INTRA:                  -0.517
REMARK UNBOUND:                -0.595
REMARK SMILES CCCCCCCCC(=O)[O-]
REMARK SMILES IDX 6 1 7 2 8 3 9 4 10 5 11 6 5 7 4 8 3 9 2 10 1 11
REMARK H PARENT
REMARK Flexibility Score: inf
ROOT
ATOM      1  C   UNL     1       7.370 -16.552  21.894  1.00  0.00     0.000 C 
ENDROOT
BRANCH   1   2
ATOM      2  C   UNL     1       6.943 -15.842  23.188  1.00  0.00     0.006 C 
BRANCH   2   3
ATOM      3  C   UNL     1       7.730 -14.547  23.427  1.00  0.00     0.053 C 
BRANCH   3   4
ATOM      4  C   UNL     1       8.911 -14.771  24.321  1.00  0.00     0.041 C 
ATOM      5  O   UNL     1      10.080 -14.634  23.876  1.00  0.00    -0.550 OA
ATOM      6  O   UNL     1       8.717 -15.101  25.657  1.00  0.00    -0.550 OA
ENDBRANCH   3   4
ENDBRANCH   2   3
ENDBRANCH   1   2
BRANCH   1   7
ATOM      7  C   UNL     1       7.219 -18.074  22.029  1.00  0.00     0.000 C 
BRANCH   7   8
ATOM      8  C   UNL     1       6.348 -18.478  23.230  1.00  0.00    -0.000 C 
BRANCH   8   9
ATOM      9  C   UNL     1       6.764 -19.830  23.834  1.00  0.00    -0.000 C 
BRANCH   9  10
ATOM     10  C   UNL     1       7.106 -19.726  25.329  1.00  0.00    -0.003 C 
ATOM     11  C   UNL     1       6.864 -18.326  25.893  1.00  0.00     0.004 C 
ENDBRANCH   9  10
ENDBRANCH   8   9
ENDBRANCH   7   8
ENDBRANCH   1   7
TORSDOF 7
ENDMDL
MODEL 4
REMARK VINA RESULT:    -3.521      1.219      2.111
REMARK INTER + INTRA:          -5.557
REMARK INTER:                  -4.973
REMARK INTRA:                  -0.584
REMARK UNBOUND:                -0.595
REMARK SMILES CCCCCCCCC(=O)[O-]
REMARK SMILES IDX 6 1 7 2 8 3 9 4 10 5 11 6 5 7 4 8 3 9 2 10 1 11
REMARK H PARENT
REMARK Flexibility Score: inf
ROOT
ATOM      1  C   UNL     1       8.166 -16.084  22.629  1.00  0.00     0.000 C 
ENDROOT
BRANCH   1   2
ATOM      2  C   UNL     1       8.177 -14.817  23.498  1.00  0.00     0.006 C 
BRANCH   2   3
ATOM      3  C   UNL     1       9.402 -14.755  24.419  1.00  0.00     0.053 C 
BRANCH   3   4
ATOM      4  C   UNL     1       9.273 -15.695  25.579  1.00  0.00     0.041 C 
ATOM      5  O   UNL     1      10.273 -16.340  25.988  1.00  0.00    -0.550 OA
ATOM      6  O   UNL     1       8.052 -15.832  26.228  1.00  0.00    -0.550 OA
ENDBRANCH   3   4
ENDBRANCH   2   3
ENDBRANCH   1   2
BRANCH   1   7
ATOM      7  C   UNL     1       6.744 -16.652  22.505  1.00  0.00     0.000 C 
BRANCH   7   8
ATOM      8  C   UNL     1       6.356 -17.540  23.699  1.00  0.00    -0.000 C 
BRANCH   8   9
ATOM      9  C   UNL     1       7.357 -18.684  23.934  1.00  0.00    -0.000 C 
BRANCH   9  10
ATOM     10  C   UNL     1       6.768 -20.062  23.593  1.00  0.00    -0.003 C 
ATOM     11  C   UNL     1       6.708 -20.321  22.087  1.00  0.00     0.004 C 
ENDBRANCH   9  10
ENDBRANCH   8   9
ENDBRANCH   7   8
ENDBRANCH   1   7
TORSDOF 7
ENDMDL
MODEL 5
REMARK VINA RESULT:    -3.501      1.020      1.747
REMARK INTER + INTRA:          -5.528
REMARK INTER:                  -5.029
REMARK INTRA:                  -0.500
REMARK UNBOUND:                -0.595
REMARK SMILES CCCCCCCCC(=O)[O-]
REMARK SMILES IDX 6 1 7 2 8 3 9 4 10 5 11 6 5 7 4 8 3 9 2 10 1 11
REMARK H PARENT
REMARK Flexibility Score: inf
ROOT
ATOM      1  C   UNL     1       7.484 -16.178  22.828  1.00  0.00     0.000 C 
ENDROOT
BRANCH   1   2
ATOM      2  C   UNL     1       7.755 -14.741  23.301  1.00  0.00     0.006 C 
BRANCH   2   3
ATOM      3  C   UNL     1       8.629 -14.699  24.561  1.00  0.00     0.053 C 
BRANCH   3   4
ATOM      4  C   UNL     1      10.023 -15.173  24.286  1.00  0.00     0.041 C 
ATOM      5  O   UNL     1      10.688 -14.675  23.341  1.00  0.00    -0.550 OA
ATOM      6  O   UNL     1      10.598 -16.144  25.096  1.00  0.00    -0.550 OA
ENDBRANCH   3   4
ENDBRANCH   2   3
ENDBRANCH   1   2
BRANCH   1   7
ATOM      7  C   UNL     1       6.335 -16.811  23.627  1.00  0.00     0.000 C 
BRANCH   7   8
ATOM      8  C   UNL     1       6.814 -17.935  24.561  1.00  0.00    -0.000 C 
BRANCH   8   9
ATOM      9  C   UNL     1       7.637 -19.006  23.825  1.00  0.00    -0.000 C 
BRANCH   9  10
ATOM     10  C   UNL     1       6.784 -20.207  23.389  1.00  0.00    -0.003 C 
ATOM     11  C   UNL     1       6.781 -20.410  21.874  1.00  0.00     0.004 C 
ENDBRANCH   9  10
ENDBRANCH   8   9
ENDBRANCH   7   8
ENDBRANCH   1   7
TORSDOF 7
ENDMDL
MODEL 6
REMARK VINA RESULT:    -3.417      2.084      3.131
REMARK INTER + INTRA:          -5.410
REMARK INTER:                  -4.953
REMARK INTRA:                  -0.458
REMARK UNBOUND:                -0.595
REMARK SMILES CCCCCCCCC(=O)[O-]
REMARK SMILES IDX 6 1 7 2 8 3 9 4 10 5 11 6 5 7 4 8 3 9 2 10 1 11
REMARK H PARENT
REMARK Flexibility Score: inf
ROOT
ATOM      1  C   UNL     1       8.007 -19.016  23.165  1.00  0.00     0.000 C 
ENDROOT
BRANCH   1   2
ATOM      2  C   UNL     1       7.168 -17.737  23.017  1.00  0.00     0.006 C 
BRANCH   2   3
ATOM      3  C   UNL     1       6.175 -17.556  24.173  1.00  0.00     0.053 C 
BRANCH   3   4
ATOM      4  C   UNL     1       6.861 -17.584  25.504  1.00  0.00     0.041 C 
ATOM      5  O   UNL     1       6.688 -18.554  26.288  1.00  0.00    -0.550 OA
ATOM      6  O   UNL     1       7.718 -16.552  25.865  1.00  0.00    -0.550 OA
ENDBRANCH   3   4
ENDBRANCH   2   3
ENDBRANCH   1   2
BRANCH   1   7
ATOM      7  C   UNL     1       7.142 -20.266  22.947  1.00  0.00     0.000 C 
BRANCH   7   8
ATOM      8  C   UNL     1       6.879 -20.551  21.459  1.00  0.00    -0.000 C 
BRANCH   8   9
ATOM      9  C   UNL     1       7.484 -21.887  20.996  1.00  0.00    -0.000 C 
BRANCH   9  10
ATOM     10  C   UNL     1       8.778 -21.700  20.189  1.00  0.00    -0.003 C 
ATOM     11  C   UNL     1      10.033 -21.984  21.015  1.00  0.00     0.004 C 
ENDBRANCH   9  10
ENDBRANCH   8   9
ENDBRANCH   7   8
ENDBRANCH   1   7
TORSDOF 7
ENDMDL
MODEL 7
REMARK VINA RESULT:    -3.415      1.840      2.967
REMARK INTER + INTRA:          -5.408
REMARK INTER:                  -4.545
REMARK INTRA:                  -0.863
REMARK UNBOUND:                -0.595
REMARK SMILES CCCCCCCCC(=O)[O-]
REMARK SMILES IDX 6 1 7 2 8 3 9 4 10 5 11 6 5 7 4 8 3 9 2 10 1 11
REMARK H PARENT
REMARK Flexibility Score: inf
ROOT
ATOM      1  C   UNL     1      10.244 -18.514  24.096  1.00  0.00     0.000 C 
ENDROOT
BRANCH   1   2
ATOM      2  C   UNL     1       9.891 -18.061  25.521  1.00  0.00     0.006 C 
BRANCH   2   3
ATOM      3  C   UNL     1      10.278 -16.599  25.779  1.00  0.00     0.053 C 
BRANCH   3   4
ATOM      4  C   UNL     1       9.121 -15.672  25.560  1.00  0.00     0.041 C 
ATOM      5  O   UNL     1       9.222 -14.708  24.756  1.00  0.00    -0.550 OA
ATOM      6  O   UNL     1       7.919 -15.894  26.220  1.00  0.00    -0.550 OA
ENDBRANCH   3   4
ENDBRANCH   2   3
ENDBRANCH   1   2
BRANCH   1   7
ATOM      7  C   UNL     1       8.979 -18.898  23.314  1.00  0.00     0.000 C 
BRANCH   7   8
ATOM      8  C   UNL     1       7.726 -18.944  24.203  1.00  0.00    -0.000 C 
BRANCH   8   9
ATOM      9  C   UNL     1       6.591 -18.052  23.673  1.00  0.00    -0.000 C 
BRANCH   9  10
ATOM     10  C   UNL     1       7.096 -16.964  22.713  1.00  0.00    -0.003 C 
ATOM     11  C   UNL     1       6.407 -15.617  22.934  1.00  0.00     0.004 C 
ENDBRANCH   9  10
ENDBRANCH   8   9
ENDBRANCH   7   8
ENDBRANCH   1   7
TORSDOF 7
ENDMDL
MODEL 8
REMARK VINA RESULT:    -3.413      1.573      2.373
REMARK INTER + INTRA:          -5.405
REMARK INTER:                  -4.702
REMARK INTRA:                  -0.703
REMARK UNBOUND:                -0.595
REMARK SMILES CCCCCCCCC(=O)[O-]
REMARK SMILES IDX 6 1 7 2 8 3 9 4 10 5 11 6 5 7 4 8 3 9 2 10 1 11
REMARK H PARENT
REMARK Flexibility Score: inf
ROOT
ATOM      1  C   UNL     1       9.256 -17.933  25.790  1.00  0.00     0.000 C 
ENDROOT
BRANCH   1   2
ATOM      2  C   UNL     1       9.772 -16.486  25.758  1.00  0.00     0.006 C 
BRANCH   2   3
ATOM      3  C   UNL     1       8.640 -15.470  25.555  1.00  0.00     0.053 C 
BRANCH   3   4
ATOM      4  C   UNL     1       8.774 -14.743  24.251  1.00  0.00     0.041 C 
ATOM      5  O   UNL     1       7.749 -14.388  23.614  1.00  0.00    -0.550 OA
ATOM      6  O   UNL     1      10.035 -14.431  23.757  1.00  0.00    -0.550 OA
ENDBRANCH   3   4
ENDBRANCH   2   3
ENDBRANCH   1   2
BRANCH   1   7
ATOM      7  C   UNL     1       7.725 -17.967  25.892  1.00  0.00     0.000 C 
BRANCH   7   8
ATOM      8  C   UNL     1       7.129 -19.296  25.400  1.00  0.00    -0.000 C 
BRANCH   8   9
ATOM      9  C   UNL     1       7.261 -19.476  23.878  1.00  0.00    -0.000 C 
BRANCH   9  10
ATOM     10  C   UNL     1       6.592 -18.338  23.090  1.00  0.00    -0.003 C 
ATOM     11  C   UNL     1       7.552 -17.650  22.120  1.00  0.00     0.004 C 
ENDBRANCH   9  10
ENDBRANCH   8   9
ENDBRANCH   7   8
ENDBRANCH   1   7
TORSDOF 7
ENDMDL
MODEL 9
REMARK VINA RESULT:    -3.396      2.316      4.723
REMARK INTER + INTRA:          -5.381
REMARK INTER:                  -4.694
REMARK INTRA:                  -0.687
REMARK UNBOUND:                -0.595
REMARK SMILES CCCCCCCCC(=O)[O-]
REMARK SMILES IDX 6 1 7 2 8 3 9 4 10 5 11 6 5 7 4 8 3 9 2 10 1 11
REMARK H PARENT
REMARK Flexibility Score: inf
ROOT
ATOM      1  C   UNL     1       7.305 -16.689  21.991  1.00  0.00     0.000 C 
ENDROOT
BRANCH   1   2
ATOM      2  C   UNL     1       7.047 -18.081  22.587  1.00  0.00     0.006 C 
BRANCH   2   3
ATOM      3  C   UNL     1       6.415 -18.008  23.984  1.00  0.00     0.053 C 
BRANCH   3   4
ATOM      4  C   UNL     1       7.047 -18.983  24.930  1.00  0.00     0.041 C 
ATOM      5  O   UNL     1       7.773 -18.572  25.873  1.00  0.00    -0.550 OA
ATOM      6  O   UNL     1       6.806 -20.343  24.788  1.00  0.00    -0.550 OA
ENDBRANCH   3   4
ENDBRANCH   2   3
ENDBRANCH   1   2
BRANCH   1   7
ATOM      7  C   UNL     1       6.762 -15.588  22.914  1.00  0.00     0.000 C 
BRANCH   7   8
ATOM      8  C   UNL     1       7.860 -14.628  23.399  1.00  0.00    -0.000 C 
BRANCH   8   9
ATOM      9  C   UNL     1       8.427 -15.024  24.773  1.00  0.00    -0.000 C 
BRANCH   9  10
ATOM     10  C   UNL     1       9.883 -15.508  24.692  1.00  0.00    -0.003 C 
ATOM     11  C   UNL     1      10.571 -15.092  23.391  1.00  0.00     0.004 C 
ENDBRANCH   9  10
ENDBRANCH   8   9
ENDBRANCH   7   8
ENDBRANCH   1   7
TORSDOF 7
ENDMDL
