MODEL 1
REMARK VINA RESULT:    -6.340      0.000      0.000
REMARK INTER + INTRA:          -7.819
REMARK INTER:                  -7.637
REMARK INTRA:                  -0.183
REMARK UNBOUND:                -0.183
REMARK SMILES Oc1cc(O)c2cc(O)c(-c3ccc(O)c(O)c3)[o+]c2c1
REMARK SMILES IDX 10 1 19 2 20 3 21 4 2 5 3 6 4 7 6 8 7 9 8 10 11 11 12 12
REMARK SMILES IDX 13 13 14 14 18 15 16 16 15 17 17 19 9 21 1 23 5 25
REMARK H PARENT 15 18 17 20 9 22 1 24 5 26
REMARK Flexibility Score: inf
ROOT
ATOM      1  C   UNL     1     -17.069  -2.511 -28.662  1.00  0.00     0.402 A 
ATOM      2  O   UNL     1     -17.726  -1.498 -28.101  1.00  0.00    -0.202 OA
ATOM      3  C   UNL     1     -18.786  -0.919 -28.656  1.00  0.00     0.368 A 
ATOM      4  C   UNL     1     -19.406   0.142 -27.990  1.00  0.00     0.162 A 
ATOM      5  C   UNL     1     -20.520   0.770 -28.550  1.00  0.00     0.128 A 
ATOM      6  C   UNL     1     -21.017   0.339 -29.786  1.00  0.00     0.093 A 
ATOM      7  C   UNL     1     -20.412  -0.721 -30.472  1.00  0.00     0.136 A 
ATOM      8  C   UNL     1     -19.281  -1.365 -29.904  1.00  0.00     0.125 A 
ATOM      9  C   UNL     1     -18.620  -2.444 -30.514  1.00  0.00     0.078 A 
ATOM     10  C   UNL     1     -17.515  -3.031 -29.891  1.00  0.00     0.223 A 
ENDROOT
BRANCH   1  11
ATOM     11  C   UNL     1     -15.896  -3.065 -27.949  1.00  0.00     0.087 A 
ATOM     12  C   UNL     1     -15.883  -4.387 -27.479  1.00  0.00     0.022 A 
ATOM     13  C   UNL     1     -14.756  -4.894 -26.830  1.00  0.00     0.051 A 
ATOM     14  C   UNL     1     -13.619  -4.100 -26.648  1.00  0.00     0.157 A 
ATOM     15  C   UNL     1     -14.748  -2.272 -27.787  1.00  0.00     0.068 A 
ATOM     16  C   UNL     1     -13.612  -2.772 -27.137  1.00  0.00     0.158 A 
BRANCH  14  17
ATOM     17  O   UNL     1     -12.526  -4.666 -25.987  1.00  0.00    -0.504 OA
ATOM     18  H   UNL     1     -11.613  -4.784 -26.403  1.00  0.00     0.293 HD
ENDBRANCH  14  17
BRANCH  16  19
ATOM     19  O   UNL     1     -12.512  -1.923 -27.002  1.00  0.00    -0.504 OA
ATOM     20  H   UNL     1     -12.446  -1.012 -27.431  1.00  0.00     0.293 HD
ENDBRANCH  16  19
ENDBRANCH   1  11
BRANCH  10  21
ATOM     21  O   UNL     1     -16.888  -4.133 -30.472  1.00  0.00    -0.500 OA
ATOM     22  H   UNL     1     -17.418  -4.888 -30.892  1.00  0.00     0.294 HD
ENDBRANCH  10  21
BRANCH   5  23
ATOM     23  O   UNL     1     -21.125   1.826 -27.871  1.00  0.00    -0.507 OA
ATOM     24  H   UNL     1     -22.030   1.721 -27.428  1.00  0.00     0.293 HD
ENDBRANCH   5  23
BRANCH   7  25
ATOM     25  O   UNL     1     -20.965  -1.091 -31.701  1.00  0.00    -0.507 OA
ATOM     26  H   UNL     1     -21.891  -0.833 -32.010  1.00  0.00     0.293 HD
ENDBRANCH   7  25
TORSDOF 6
ENDMDL
MODEL 2
REMARK VINA RESULT:    -6.338      2.768      6.854
REMARK INTER + INTRA:          -7.817
REMARK INTER:                  -7.475
REMARK INTRA:                  -0.342
REMARK UNBOUND:                -0.183
REMARK SMILES Oc1cc(O)c2cc(O)c(-c3ccc(O)c(O)c3)[o+]c2c1
REMARK SMILES IDX 10 1 19 2 20 3 21 4 2 5 3 6 4 7 6 8 7 9 8 10 11 11 12 12
REMARK SMILES IDX 13 13 14 14 18 15 16 16 15 17 17 19 9 21 1 23 5 25
REMARK H PARENT 15 18 17 20 9 22 1 24 5 26
REMARK Flexibility Score: inf
ROOT
ATOM      1  C   UNL     1     -16.245  -2.753 -30.652  1.00  0.00     0.402 A 
ATOM      2  O   UNL     1     -15.903  -3.265 -29.472  1.00  0.00    -0.202 OA
ATOM      3  C   UNL     1     -14.886  -2.811 -28.747  1.00  0.00     0.368 A 
ATOM      4  C   UNL     1     -14.602  -3.417 -27.520  1.00  0.00     0.162 A 
ATOM      5  C   UNL     1     -13.538  -2.963 -26.739  1.00  0.00     0.128 A 
ATOM      6  C   UNL     1     -12.749  -1.897 -27.187  1.00  0.00     0.093 A 
ATOM      7  C   UNL     1     -13.013  -1.274 -28.413  1.00  0.00     0.136 A 
ATOM      8  C   UNL     1     -14.097  -1.730 -29.208  1.00  0.00     0.125 A 
ATOM      9  C   UNL     1     -14.443  -1.158 -30.443  1.00  0.00     0.078 A 
ATOM     10  C   UNL     1     -15.527  -1.659 -31.169  1.00  0.00     0.223 A 
ENDROOT
BRANCH   1  11
ATOM     11  C   UNL     1     -17.394  -3.354 -31.369  1.00  0.00     0.087 A 
ATOM     12  C   UNL     1     -17.205  -4.281 -32.404  1.00  0.00     0.022 A 
ATOM     13  C   UNL     1     -18.304  -4.851 -33.050  1.00  0.00     0.051 A 
ATOM     14  C   UNL     1     -19.608  -4.518 -32.669  1.00  0.00     0.157 A 
ATOM     15  C   UNL     1     -18.701  -3.034 -30.969  1.00  0.00     0.068 A 
ATOM     16  C   UNL     1     -19.810  -3.600 -31.611  1.00  0.00     0.158 A 
BRANCH  14  17
ATOM     17  O   UNL     1     -20.663  -5.120 -33.357  1.00  0.00    -0.504 OA
ATOM     18  H   UNL     1     -20.845  -6.114 -33.357  1.00  0.00     0.293 HD
ENDBRANCH  14  17
BRANCH  16  19
ATOM     19  O   UNL     1     -21.080  -3.227 -31.168  1.00  0.00    -0.504 OA
ATOM     20  H   UNL     1     -21.937  -3.656 -31.485  1.00  0.00     0.293 HD
ENDBRANCH  16  19
ENDBRANCH   1  11
BRANCH  10  21
ATOM     21  O   UNL     1     -15.902  -1.060 -32.371  1.00  0.00    -0.500 OA
ATOM     22  H   UNL     1     -15.323  -0.360 -32.821  1.00  0.00     0.294 HD
ENDBRANCH  10  21
BRANCH   5  23
ATOM     23  O   UNL     1     -13.271  -3.580 -25.519  1.00  0.00    -0.507 OA
ATOM     24  H   UNL     1     -12.561  -3.224 -24.890  1.00  0.00     0.293 HD
ENDBRANCH   5  23
BRANCH   7  25
ATOM     25  O   UNL     1     -12.179  -0.218 -28.791  1.00  0.00    -0.507 OA
ATOM     26  H   UNL     1     -12.506   0.691 -29.083  1.00  0.00     0.293 HD
ENDBRANCH   7  25
TORSDOF 6
ENDMDL
MODEL 3
REMARK VINA RESULT:    -6.104      2.816      6.815
REMARK INTER + INTRA:          -7.536
REMARK INTER:                  -7.204
REMARK INTRA:                  -0.332
REMARK UNBOUND:                -0.183
REMARK SMILES Oc1cc(O)c2cc(O)c(-c3ccc(O)c(O)c3)[o+]c2c1
REMARK SMILES IDX 10 1 19 2 20 3 21 4 2 5 3 6 4 7 6 8 7 9 8 10 11 11 12 12
REMARK SMILES IDX 13 13 14 14 18 15 16 16 15 17 17 19 9 21 1 23 5 25
REMARK H PARENT 15 18 17 20 9 22 1 24 5 26
REMARK Flexibility Score: inf
ROOT
ATOM      1  C   UNL     1     -16.236  -3.247 -30.050  1.00  0.00     0.402 A 
ATOM      2  O   UNL     1     -15.451  -2.300 -30.555  1.00  0.00    -0.202 OA
ATOM      3  C   UNL     1     -14.400  -1.801 -29.910  1.00  0.00     0.368 A 
ATOM      4  C   UNL     1     -13.637  -0.805 -30.524  1.00  0.00     0.162 A 
ATOM      5  C   UNL     1     -12.530  -0.261 -29.869  1.00  0.00     0.128 A 
ATOM      6  C   UNL     1     -12.184  -0.715 -28.591  1.00  0.00     0.093 A 
ATOM      7  C   UNL     1     -12.934  -1.712 -27.955  1.00  0.00     0.136 A 
ATOM      8  C   UNL     1     -14.058  -2.269 -28.620  1.00  0.00     0.125 A 
ATOM      9  C   UNL     1     -14.859  -3.282 -28.065  1.00  0.00     0.078 A 
ATOM     10  C   UNL     1     -15.948  -3.785 -28.781  1.00  0.00     0.223 A 
ENDROOT
BRANCH   1  11
ATOM     11  C   UNL     1     -17.383  -3.713 -30.863  1.00  0.00     0.087 A 
ATOM     12  C   UNL     1     -17.223  -4.684 -31.863  1.00  0.00     0.022 A 
ATOM     13  C   UNL     1     -18.323  -5.125 -32.600  1.00  0.00     0.051 A 
ATOM     14  C   UNL     1     -19.602  -4.617 -32.349  1.00  0.00     0.157 A 
ATOM     15  C   UNL     1     -18.668  -3.218 -30.593  1.00  0.00     0.068 A 
ATOM     16  C   UNL     1     -19.778  -3.653 -31.328  1.00  0.00     0.158 A 
BRANCH  14  17
ATOM     17  O   UNL     1     -20.659  -5.096 -33.125  1.00  0.00    -0.504 OA
ATOM     18  H   UNL     1     -20.636  -5.967 -33.636  1.00  0.00     0.293 HD
ENDBRANCH  14  17
BRANCH  16  19
ATOM     19  O   UNL     1     -21.024  -3.107 -31.012  1.00  0.00    -0.504 OA
ATOM     20  H   UNL     1     -21.501  -2.423 -31.580  1.00  0.00     0.293 HD
ENDBRANCH  16  19
ENDBRANCH   1  11
BRANCH  10  21
ATOM     21  O   UNL     1     -16.714  -4.824 -28.253  1.00  0.00    -0.500 OA
ATOM     22  H   UNL     1     -17.288  -5.415 -28.842  1.00  0.00     0.294 HD
ENDBRANCH  10  21
BRANCH   5  23
ATOM     23  O   UNL     1     -11.781   0.732 -30.497  1.00  0.00    -0.507 OA
ATOM     24  H   UNL     1     -11.524   0.662 -31.475  1.00  0.00     0.293 HD
ENDBRANCH   5  23
BRANCH   7  25
ATOM     25  O   UNL     1     -12.525  -2.108 -26.679  1.00  0.00    -0.507 OA
ATOM     26  H   UNL     1     -12.487  -1.497 -25.877  1.00  0.00     0.293 HD
ENDBRANCH   7  25
TORSDOF 6
ENDMDL
MODEL 4
REMARK VINA RESULT:    -5.933      2.020      2.530
REMARK INTER + INTRA:          -7.329
REMARK INTER:                  -6.997
REMARK INTRA:                  -0.332
REMARK UNBOUND:                -0.183
REMARK SMILES Oc1cc(O)c2cc(O)c(-c3ccc(O)c(O)c3)[o+]c2c1
REMARK SMILES IDX 10 1 19 2 20 3 21 4 2 5 3 6 4 7 6 8 7 9 8 10 11 11 12 12
REMARK SMILES IDX 13 13 14 14 18 15 16 16 15 17 17 19 9 21 1 23 5 25
REMARK H PARENT 15 18 17 20 9 22 1 24 5 26
REMARK Flexibility Score: inf
ROOT
ATOM      1  C   UNL     1     -16.417  -2.557 -29.205  1.00  0.00     0.402 A 
ATOM      2  O   UNL     1     -17.192  -1.556 -29.617  1.00  0.00    -0.202 OA
ATOM      3  C   UNL     1     -18.399  -1.736 -30.143  1.00  0.00     0.368 A 
ATOM      4  C   UNL     1     -19.136  -0.620 -30.549  1.00  0.00     0.162 A 
ATOM      5  C   UNL     1     -20.405  -0.780 -31.107  1.00  0.00     0.128 A 
ATOM      6  C   UNL     1     -20.943  -2.063 -31.263  1.00  0.00     0.093 A 
ATOM      7  C   UNL     1     -20.224  -3.196 -30.864  1.00  0.00     0.136 A 
ATOM      8  C   UNL     1     -18.934  -3.038 -30.293  1.00  0.00     0.125 A 
ATOM      9  C   UNL     1     -18.147  -4.115 -29.852  1.00  0.00     0.078 A 
ATOM     10  C   UNL     1     -16.887  -3.881 -29.295  1.00  0.00     0.223 A 
ENDROOT
BRANCH   1  11
ATOM     11  C   UNL     1     -15.086  -2.228 -28.645  1.00  0.00     0.087 A 
ATOM     12  C   UNL     1     -14.880  -2.129 -27.260  1.00  0.00     0.022 A 
ATOM     13  C   UNL     1     -13.611  -1.841 -26.755  1.00  0.00     0.051 A 
ATOM     14  C   UNL     1     -12.524  -1.657 -27.616  1.00  0.00     0.157 A 
ATOM     15  C   UNL     1     -13.993  -2.066 -29.511  1.00  0.00     0.068 A 
ATOM     16  C   UNL     1     -12.716  -1.775 -29.014  1.00  0.00     0.158 A 
BRANCH  14  17
ATOM     17  O   UNL     1     -11.282  -1.366 -27.048  1.00  0.00    -0.504 OA
ATOM     18  H   UNL     1     -11.014  -0.451 -26.713  1.00  0.00     0.293 HD
ENDBRANCH  14  17
BRANCH  16  19
ATOM     19  O   UNL     1     -11.679  -1.616 -29.934  1.00  0.00    -0.504 OA
ATOM     20  H   UNL     1     -11.773  -1.124 -30.811  1.00  0.00     0.293 HD
ENDBRANCH  16  19
ENDBRANCH   1  11
BRANCH  10  21
ATOM     21  O   UNL     1     -16.126  -4.945 -28.813  1.00  0.00    -0.500 OA
ATOM     22  H   UNL     1     -15.295  -5.268 -29.294  1.00  0.00     0.294 HD
ENDBRANCH  10  21
BRANCH   5  23
ATOM     23  O   UNL     1     -21.125   0.345 -31.507  1.00  0.00    -0.507 OA
ATOM     24  H   UNL     1     -21.034   0.728 -32.440  1.00  0.00     0.293 HD
ENDBRANCH   5  23
BRANCH   7  25
ATOM     25  O   UNL     1     -20.828  -4.442 -31.055  1.00  0.00    -0.507 OA
ATOM     26  H   UNL     1     -21.724  -4.579 -31.499  1.00  0.00     0.293 HD
ENDBRANCH   7  25
TORSDOF 6
ENDMDL
MODEL 5
REMARK VINA RESULT:    -5.830      3.977      6.419
REMARK INTER + INTRA:          -7.205
REMARK INTER:                  -6.884
REMARK INTRA:                  -0.321
REMARK UNBOUND:                -0.183
REMARK SMILES Oc1cc(O)c2cc(O)c(-c3ccc(O)c(O)c3)[o+]c2c1
REMARK SMILES IDX 10 1 19 2 20 3 21 4 2 5 3 6 4 7 6 8 7 9 8 10 11 11 12 12
REMARK SMILES IDX 13 13 14 14 18 15 16 16 15 17 17 19 9 21 1 23 5 25
REMARK H PARENT 15 18 17 20 9 22 1 24 5 26
REMARK Flexibility Score: inf
ROOT
ATOM      1  C   UNL     1     -14.609  -3.068 -30.999  1.00  0.00     0.402 A 
ATOM      2  O   UNL     1     -13.862  -3.307 -29.924  1.00  0.00    -0.202 OA
ATOM      3  C   UNL     1     -14.237  -2.989 -28.689  1.00  0.00     0.368 A 
ATOM      4  C   UNL     1     -13.380  -3.278 -27.623  1.00  0.00     0.162 A 
ATOM      5  C   UNL     1     -13.747  -2.954 -26.316  1.00  0.00     0.128 A 
ATOM      6  C   UNL     1     -14.977  -2.334 -26.071  1.00  0.00     0.093 A 
ATOM      7  C   UNL     1     -15.852  -2.033 -27.121  1.00  0.00     0.136 A 
ATOM      8  C   UNL     1     -15.485  -2.365 -28.452  1.00  0.00     0.125 A 
ATOM      9  C   UNL     1     -16.304  -2.114 -29.565  1.00  0.00     0.078 A 
ATOM     10  C   UNL     1     -15.876  -2.474 -30.846  1.00  0.00     0.223 A 
ENDROOT
BRANCH   1  11
ATOM     11  C   UNL     1     -14.075  -3.460 -32.323  1.00  0.00     0.087 A 
ATOM     12  C   UNL     1     -14.158  -4.784 -32.781  1.00  0.00     0.022 A 
ATOM     13  C   UNL     1     -13.669  -5.125 -34.044  1.00  0.00     0.051 A 
ATOM     14  C   UNL     1     -13.101  -4.155 -34.876  1.00  0.00     0.157 A 
ATOM     15  C   UNL     1     -13.527  -2.480 -33.165  1.00  0.00     0.068 A 
ATOM     16  C   UNL     1     -13.033  -2.812 -34.433  1.00  0.00     0.158 A 
BRANCH  14  17
ATOM     17  O   UNL     1     -12.627  -4.562 -36.125  1.00  0.00    -0.504 OA
ATOM     18  H   UNL     1     -13.090  -4.358 -37.000  1.00  0.00     0.293 HD
ENDBRANCH  14  17
BRANCH  16  19
ATOM     19  O   UNL     1     -12.490  -1.788 -35.211  1.00  0.00    -0.504 OA
ATOM     20  H   UNL     1     -12.356  -1.847 -36.209  1.00  0.00     0.293 HD
ENDBRANCH  16  19
ENDBRANCH   1  11
BRANCH  10  21
ATOM     21  O   UNL     1     -16.709  -2.270 -31.945  1.00  0.00    -0.500 OA
ATOM     22  H   UNL     1     -17.181  -3.040 -32.406  1.00  0.00     0.294 HD
ENDBRANCH  10  21
BRANCH   5  23
ATOM     23  O   UNL     1     -12.879  -3.250 -25.267  1.00  0.00    -0.507 OA
ATOM     24  H   UNL     1     -13.201  -3.726 -24.433  1.00  0.00     0.293 HD
ENDBRANCH   5  23
BRANCH   7  25
ATOM     25  O   UNL     1     -17.061  -1.412 -26.795  1.00  0.00    -0.507 OA
ATOM     26  H   UNL     1     -17.552  -0.767 -27.397  1.00  0.00     0.293 HD
ENDBRANCH   7  25
TORSDOF 6
ENDMDL
MODEL 6
REMARK VINA RESULT:    -5.644      4.042      5.619
REMARK INTER + INTRA:          -6.981
REMARK INTER:                  -6.628
REMARK INTRA:                  -0.354
REMARK UNBOUND:                -0.183
REMARK SMILES Oc1cc(O)c2cc(O)c(-c3ccc(O)c(O)c3)[o+]c2c1
REMARK SMILES IDX 10 1 19 2 20 3 21 4 2 5 3 6 4 7 6 8 7 9 8 10 11 11 12 12
REMARK SMILES IDX 13 13 14 14 18 15 16 16 15 17 17 19 9 21 1 23 5 25
REMARK H PARENT 15 18 17 20 9 22 1 24 5 26
REMARK Flexibility Score: inf
ROOT
ATOM      1  C   UNL     1     -14.643  -2.985 -31.074  1.00  0.00     0.402 A 
ATOM      2  O   UNL     1     -15.910  -2.581 -31.031  1.00  0.00    -0.202 OA
ATOM      3  C   UNL     1     -16.513  -2.186 -29.915  1.00  0.00     0.368 A 
ATOM      4  C   UNL     1     -17.850  -1.782 -29.971  1.00  0.00     0.162 A 
ATOM      5  C   UNL     1     -18.509  -1.364 -28.814  1.00  0.00     0.128 A 
ATOM      6  C   UNL     1     -17.830  -1.351 -27.590  1.00  0.00     0.093 A 
ATOM      7  C   UNL     1     -16.491  -1.752 -27.508  1.00  0.00     0.136 A 
ATOM      8  C   UNL     1     -15.816  -2.174 -28.683  1.00  0.00     0.125 A 
ATOM      9  C   UNL     1     -14.471  -2.579 -28.698  1.00  0.00     0.078 A 
ATOM     10  C   UNL     1     -13.872  -2.978 -29.896  1.00  0.00     0.223 A 
ENDROOT
BRANCH   1  11
ATOM     11  C   UNL     1     -14.087  -3.412 -32.378  1.00  0.00     0.087 A 
ATOM     12  C   UNL     1     -14.142  -4.751 -32.793  1.00  0.00     0.022 A 
ATOM     13  C   UNL     1     -13.633  -5.125 -34.038  1.00  0.00     0.051 A 
ATOM     14  C   UNL     1     -13.071  -4.173 -34.896  1.00  0.00     0.157 A 
ATOM     15  C   UNL     1     -13.544  -2.450 -33.246  1.00  0.00     0.068 A 
ATOM     16  C   UNL     1     -13.030  -2.816 -34.496  1.00  0.00     0.158 A 
BRANCH  14  17
ATOM     17  O   UNL     1     -12.575  -4.613 -36.125  1.00  0.00    -0.504 OA
ATOM     18  H   UNL     1     -11.685  -4.327 -36.510  1.00  0.00     0.293 HD
ENDBRANCH  14  17
BRANCH  16  19
ATOM     19  O   UNL     1     -12.495  -1.808 -35.301  1.00  0.00    -0.504 OA
ATOM     20  H   UNL     1     -11.742  -1.199 -35.017  1.00  0.00     0.293 HD
ENDBRANCH  16  19
ENDBRANCH   1  11
BRANCH  10  21
ATOM     21  O   UNL     1     -12.524  -3.333 -29.920  1.00  0.00    -0.500 OA
ATOM     22  H   UNL     1     -11.809  -2.742 -29.512  1.00  0.00     0.294 HD
ENDBRANCH  10  21
BRANCH   5  23
ATOM     23  O   UNL     1     -19.842  -0.965 -28.890  1.00  0.00    -0.507 OA
ATOM     24  H   UNL     1     -20.556  -1.393 -28.313  1.00  0.00     0.293 HD
ENDBRANCH   5  23
BRANCH   7  25
ATOM     25  O   UNL     1     -15.884  -1.713 -26.250  1.00  0.00    -0.507 OA
ATOM     26  H   UNL     1     -15.415  -2.496 -25.818  1.00  0.00     0.293 HD
ENDBRANCH   7  25
TORSDOF 6
ENDMDL
MODEL 7
REMARK VINA RESULT:    -5.593      3.956      6.202
REMARK INTER + INTRA:          -6.920
REMARK INTER:                  -6.586
REMARK INTRA:                  -0.334
REMARK UNBOUND:                -0.183
REMARK SMILES Oc1cc(O)c2cc(O)c(-c3ccc(O)c(O)c3)[o+]c2c1
REMARK SMILES IDX 10 1 19 2 20 3 21 4 2 5 3 6 4 7 6 8 7 9 8 10 11 11 12 12
REMARK SMILES IDX 13 13 14 14 18 15 16 16 15 17 17 19 9 21 1 23 5 25
REMARK H PARENT 15 18 17 20 9 22 1 24 5 26
REMARK Flexibility Score: inf
ROOT
ATOM      1  C   UNL     1     -13.964  -3.542 -30.522  1.00  0.00     0.402 A 
ATOM      2  O   UNL     1     -14.999  -2.806 -30.123  1.00  0.00    -0.202 OA
ATOM      3  C   UNL     1     -15.268  -2.558 -28.846  1.00  0.00     0.368 A 
ATOM      4  C   UNL     1     -16.382  -1.776 -28.526  1.00  0.00     0.162 A 
ATOM      5  C   UNL     1     -16.691  -1.501 -27.193  1.00  0.00     0.128 A 
ATOM      6  C   UNL     1     -15.883  -2.012 -26.170  1.00  0.00     0.093 A 
ATOM      7  C   UNL     1     -14.763  -2.798 -26.465  1.00  0.00     0.136 A 
ATOM      8  C   UNL     1     -14.443  -3.077 -27.820  1.00  0.00     0.125 A 
ATOM      9  C   UNL     1     -13.332  -3.844 -28.209  1.00  0.00     0.078 A 
ATOM     10  C   UNL     1     -13.079  -4.073 -29.564  1.00  0.00     0.223 A 
ENDROOT
BRANCH   1  11
ATOM     11  C   UNL     1     -13.775  -3.755 -31.975  1.00  0.00     0.087 A 
ATOM     12  C   UNL     1     -14.157  -4.956 -32.593  1.00  0.00     0.022 A 
ATOM     13  C   UNL     1     -13.991  -5.125 -33.969  1.00  0.00     0.051 A 
ATOM     14  C   UNL     1     -13.454  -4.100 -34.755  1.00  0.00     0.157 A 
ATOM     15  C   UNL     1     -13.256  -2.717 -32.765  1.00  0.00     0.068 A 
ATOM     16  C   UNL     1     -13.085  -2.877 -34.145  1.00  0.00     0.158 A 
BRANCH  14  17
ATOM     17  O   UNL     1     -13.309  -4.334 -36.124  1.00  0.00    -0.504 OA
ATOM     18  H   UNL     1     -12.558  -4.876 -36.528  1.00  0.00     0.293 HD
ENDBRANCH  14  17
BRANCH  16  19
ATOM     19  O   UNL     1     -12.552  -1.806 -34.865  1.00  0.00    -0.504 OA
ATOM     20  H   UNL     1     -12.326  -0.910 -34.459  1.00  0.00     0.293 HD
ENDBRANCH  16  19
ENDBRANCH   1  11
BRANCH  10  21
ATOM     21  O   UNL     1     -11.950  -4.792 -29.954  1.00  0.00    -0.500 OA
ATOM     22  H   UNL     1     -11.014  -4.481 -29.721  1.00  0.00     0.294 HD
ENDBRANCH  10  21
BRANCH   5  23
ATOM     23  O   UNL     1     -17.805  -0.720 -26.894  1.00  0.00    -0.507 OA
ATOM     24  H   UNL     1     -18.657  -0.782 -27.439  1.00  0.00     0.293 HD
ENDBRANCH   5  23
BRANCH   7  25
ATOM     25  O   UNL     1     -14.008  -3.273 -25.388  1.00  0.00    -0.507 OA
ATOM     26  H   UNL     1     -13.864  -4.250 -25.179  1.00  0.00     0.293 HD
ENDBRANCH   7  25
TORSDOF 6
ENDMDL
MODEL 8
REMARK VINA RESULT:    -5.517      1.026      2.647
REMARK INTER + INTRA:          -6.828
REMARK INTER:                  -6.707
REMARK INTRA:                  -0.121
REMARK UNBOUND:                -0.183
REMARK SMILES Oc1cc(O)c2cc(O)c(-c3ccc(O)c(O)c3)[o+]c2c1
REMARK SMILES IDX 10 1 19 2 20 3 21 4 2 5 3 6 4 7 6 8 7 9 8 10 11 11 12 12
REMARK SMILES IDX 13 13 14 14 18 15 16 16 15 17 17 19 9 21 1 23 5 25
REMARK H PARENT 15 18 17 20 9 22 1 24 5 26
REMARK Flexibility Score: inf
ROOT
ATOM      1  C   UNL     1     -17.024  -1.799 -27.567  1.00  0.00     0.402 A 
ATOM      2  O   UNL     1     -17.673  -2.075 -28.695  1.00  0.00    -0.202 OA
ATOM      3  C   UNL     1     -18.752  -1.412 -29.097  1.00  0.00     0.368 A 
ATOM      4  C   UNL     1     -19.368  -1.779 -30.297  1.00  0.00     0.162 A 
ATOM      5  C   UNL     1     -20.504  -1.102 -30.742  1.00  0.00     0.128 A 
ATOM      6  C   UNL     1     -21.033  -0.052 -29.983  1.00  0.00     0.093 A 
ATOM      7  C   UNL     1     -20.435   0.334 -28.777  1.00  0.00     0.136 A 
ATOM      8  C   UNL     1     -19.277  -0.350 -28.322  1.00  0.00     0.125 A 
ATOM      9  C   UNL     1     -18.604  -0.023 -27.133  1.00  0.00     0.078 A 
ATOM     10  C   UNL     1     -17.466  -0.739 -26.752  1.00  0.00     0.223 A 
ENDROOT
BRANCH   1  11
ATOM     11  C   UNL     1     -15.838  -2.617 -27.223  1.00  0.00     0.087 A 
ATOM     12  C   UNL     1     -15.929  -4.009 -27.074  1.00  0.00     0.022 A 
ATOM     13  C   UNL     1     -14.793  -4.762 -26.773  1.00  0.00     0.051 A 
ATOM     14  C   UNL     1     -13.546  -4.146 -26.626  1.00  0.00     0.157 A 
ATOM     15  C   UNL     1     -14.584  -1.998 -27.098  1.00  0.00     0.068 A 
ATOM     16  C   UNL     1     -13.438  -2.745 -26.795  1.00  0.00     0.158 A 
BRANCH  14  17
ATOM     17  O   UNL     1     -12.449  -4.955 -26.319  1.00  0.00    -0.504 OA
ATOM     18  H   UNL     1     -12.293  -5.870 -26.718  1.00  0.00     0.293 HD
ENDBRANCH  14  17
BRANCH  16  19
ATOM     19  O   UNL     1     -12.227  -2.061 -26.674  1.00  0.00    -0.504 OA
ATOM     20  H   UNL     1     -12.091  -1.256 -26.081  1.00  0.00     0.293 HD
ENDBRANCH  16  19
ENDBRANCH   1  11
BRANCH  10  21
ATOM     21  O   UNL     1     -16.769  -0.384 -25.598  1.00  0.00    -0.500 OA
ATOM     22  H   UNL     1     -16.027   0.307 -25.615  1.00  0.00     0.294 HD
ENDBRANCH  10  21
BRANCH   5  23
ATOM     23  O   UNL     1     -21.103  -1.482 -31.941  1.00  0.00    -0.507 OA
ATOM     24  H   UNL     1     -20.739  -1.175 -32.835  1.00  0.00     0.293 HD
ENDBRANCH   5  23
BRANCH   7  25
ATOM     25  O   UNL     1     -21.024   1.390 -28.075  1.00  0.00    -0.507 OA
ATOM     26  H   UNL     1     -22.019   1.545 -28.009  1.00  0.00     0.293 HD
ENDBRANCH   7  25
TORSDOF 6
ENDMDL
MODEL 9
REMARK VINA RESULT:    -5.505      3.240      6.915
REMARK INTER + INTRA:          -6.814
REMARK INTER:                  -6.856
REMARK INTRA:                   0.043
REMARK UNBOUND:                -0.183
REMARK SMILES Oc1cc(O)c2cc(O)c(-c3ccc(O)c(O)c3)[o+]c2c1
REMARK SMILES IDX 10 1 19 2 20 3 21 4 2 5 3 6 4 7 6 8 7 9 8 10 11 11 12 12
REMARK SMILES IDX 13 13 14 14 18 15 16 16 15 17 17 19 9 21 1 23 5 25
REMARK H PARENT 15 18 17 20 9 22 1 24 5 26
REMARK Flexibility Score: inf
ROOT
ATOM      1  C   UNL     1     -16.436  -2.351 -29.968  1.00  0.00     0.402 A 
ATOM      2  O   UNL     1     -16.124  -2.096 -31.236  1.00  0.00    -0.202 OA
ATOM      3  C   UNL     1     -15.045  -2.589 -31.836  1.00  0.00     0.368 A 
ATOM      4  C   UNL     1     -14.801  -2.260 -33.173  1.00  0.00     0.162 A 
ATOM      5  C   UNL     1     -13.675  -2.761 -33.827  1.00  0.00     0.128 A 
ATOM      6  C   UNL     1     -12.784  -3.596 -33.143  1.00  0.00     0.093 A 
ATOM      7  C   UNL     1     -13.006  -3.939 -31.804  1.00  0.00     0.136 A 
ATOM      8  C   UNL     1     -14.153  -3.435 -31.136  1.00  0.00     0.125 A 
ATOM      9  C   UNL     1     -14.463  -3.736 -29.799  1.00  0.00     0.078 A 
ATOM     10  C   UNL     1     -15.613  -3.205 -29.209  1.00  0.00     0.223 A 
ENDROOT
BRANCH   1  11
ATOM     11  C   UNL     1     -17.660  -1.733 -29.410  1.00  0.00     0.087 A 
ATOM     12  C   UNL     1     -17.684  -1.201 -28.112  1.00  0.00     0.022 A 
ATOM     13  C   UNL     1     -18.843  -0.602 -27.617  1.00  0.00     0.051 A 
ATOM     14  C   UNL     1     -19.995  -0.513 -28.406  1.00  0.00     0.157 A 
ATOM     15  C   UNL     1     -18.807  -1.625 -30.213  1.00  0.00     0.068 A 
ATOM     16  C   UNL     1     -19.976  -1.027 -29.724  1.00  0.00     0.158 A 
BRANCH  14  17
ATOM     17  O   UNL     1     -21.123   0.093 -27.849  1.00  0.00    -0.504 OA
ATOM     18  H   UNL     1     -21.566  -0.214 -26.995  1.00  0.00     0.293 HD
ENDBRANCH  14  17
BRANCH  16  19
ATOM     19  O   UNL     1     -21.081  -0.966 -30.575  1.00  0.00    -0.504 OA
ATOM     20  H   UNL     1     -21.672  -1.755 -30.790  1.00  0.00     0.293 HD
ENDBRANCH  16  19
ENDBRANCH   1  11
BRANCH  10  21
ATOM     21  O   UNL     1     -15.948  -3.544 -27.899  1.00  0.00    -0.500 OA
ATOM     22  H   UNL     1     -15.615  -4.398 -27.467  1.00  0.00     0.294 HD
ENDBRANCH  10  21
BRANCH   5  23
ATOM     23  O   UNL     1     -13.448  -2.422 -35.160  1.00  0.00    -0.507 OA
ATOM     24  H   UNL     1     -12.543  -2.559 -35.594  1.00  0.00     0.293 HD
ENDBRANCH   5  23
BRANCH   7  25
ATOM     25  O   UNL     1     -12.070  -4.776 -31.190  1.00  0.00    -0.507 OA
ATOM     26  H   UNL     1     -11.164  -4.998 -31.576  1.00  0.00     0.293 HD
ENDBRANCH   7  25
TORSDOF 6
ENDMDL
