MODEL 1
REMARK VINA RESULT:    -2.886      0.000      0.000
REMARK INTER + INTRA:          -1.462
REMARK INTER:                  -3.561
REMARK INTRA:                   2.099
REMARK UNBOUND:                 2.099
REMARK SMILES C=C1CC[C@H]2[C@@H]([C@H]3[C@H](C)CC[C@H]13)C2(C)C
REMARK SMILES IDX 3 1 2 2 1 3 12 4 9 5 8 6 10 7 7 8 11 9 4 11 5 12 6 13 13 14
REMARK SMILES IDX 14 16 15 17
REMARK H PARENT
REMARK Flexibility Score: 80.00
ROOT
ATOM      1  C   UNL     1      48.740  33.088  30.192  1.00  0.00     0.031 C 
ENDROOT
BRANCH   1   2
ATOM      2  C   UNL     1      50.071  33.600  29.689  1.00  0.00    -0.074 C 
ATOM      3  C   UNL     1      51.064  33.809  30.575  1.00  0.00     0.008 C 
BRANCH   2   4
ATOM      4  C   UNL     1      50.329  33.468  28.197  1.00  0.00     0.018 C 
ATOM      5  C   UNL     1      52.518  30.858  26.540  1.00  0.00     0.008 C 
ATOM      6  C   UNL     1      51.625  32.096  26.676  1.00  0.00    -0.010 C 
ATOM      7  C   UNL     1      52.430  33.366  26.935  1.00  0.00     0.004 C 
ATOM      8  C   UNL     1      50.669  32.007  27.866  1.00  0.00     0.003 CG0
ATOM      9  C   UNL     1      51.452  34.335  27.593  1.00  0.00     0.008 C 
ATOM     10  G   UNL     1      49.381  31.217  27.523  1.00  0.00     0.000 G0
ENDBRANCH   2   4
ENDBRANCH   1   2
BRANCH   1  11
ATOM     11  C   UNL     1      48.695  31.551  30.117  1.00  0.00     0.009 C 
BRANCH  11  12
ATOM     12  C   UNL     1      48.348  31.046  28.694  1.00  0.00    -0.001 C 
ATOM     13  C   UNL     1      49.371  31.199  27.544  1.00  0.00     0.002 CG0
ATOM     14  C   UNL     1      49.067  29.807  28.126  1.00  0.00    -0.029 C 
ATOM     15  G   UNL     1      50.659  31.992  27.880  1.00  0.00     0.000 G0
ATOM     16  C   UNL     1      48.192  28.925  27.227  1.00  0.00     0.011 C 
ATOM     17  C   UNL     1      50.123  29.048  28.953  1.00  0.00     0.011 C 
ENDBRANCH  11  12
ENDBRANCH   1  11
TORSDOF 0
ENDMDL
MODEL 2
REMARK VINA RESULT:    -2.882      1.072      3.598
REMARK INTER + INTRA:          -1.457
REMARK INTER:                  -3.606
REMARK INTRA:                   2.149
REMARK UNBOUND:                 2.099
REMARK SMILES C=C1CC[C@H]2[C@@H]([C@H]3[C@H](C)CC[C@H]13)C2(C)C
REMARK SMILES IDX 3 1 2 2 1 3 12 4 9 5 8 6 10 7 7 8 11 9 4 11 5 12 6 13 13 14
REMARK SMILES IDX 14 16 15 17
REMARK H PARENT
REMARK Flexibility Score: 80.00
ROOT
ATOM      1  C   UNL     1      50.899  34.141  29.197  1.00  0.00     0.031 C 
ENDROOT
BRANCH   1   2
ATOM      2  C   UNL     1      49.740  33.385  29.808  1.00  0.00    -0.074 C 
ATOM      3  C   UNL     1      48.574  34.031  30.004  1.00  0.00     0.008 C 
BRANCH   2   4
ATOM      4  C   UNL     1      49.837  31.869  29.793  1.00  0.00     0.018 C 
ATOM      5  C   UNL     1      48.014  29.546  27.420  1.00  0.00     0.008 C 
ATOM      6  C   UNL     1      48.890  29.985  28.598  1.00  0.00    -0.010 C 
ATOM      7  C   UNL     1      48.090  30.149  29.887  1.00  0.00     0.004 C 
ATOM      8  C   UNL     1      49.535  31.353  28.378  1.00  0.00     0.003 CG0
ATOM      9  C   UNL     1      48.917  31.091  30.756  1.00  0.00     0.008 C 
ATOM     10  G   UNL     1      50.841  31.256  27.549  1.00  0.00     0.000 G0
ENDBRANCH   2   4
ENDBRANCH   1   2
BRANCH   1  11
ATOM     11  C   UNL     1      50.922  33.942  27.671  1.00  0.00     0.009 C 
BRANCH  11  12
ATOM     12  C   UNL     1      51.579  32.597  27.269  1.00  0.00    -0.001 C 
ATOM     13  C   UNL     1      50.852  31.262  27.553  1.00  0.00     0.002 CG0
ATOM     14  C   UNL     1      50.986  31.774  26.108  1.00  0.00    -0.029 C 
ATOM     15  G   UNL     1      49.537  31.362  28.366  1.00  0.00     0.000 G0
ATOM     16  C   UNL     1      52.028  31.026  25.267  1.00  0.00     0.011 C 
ATOM     17  C   UNL     1      49.753  32.269  25.326  1.00  0.00     0.011 C 
ENDBRANCH  11  12
ENDBRANCH   1  11
TORSDOF 0
ENDMDL
MODEL 3
REMARK VINA RESULT:    -2.827      1.618      2.293
REMARK INTER + INTRA:          -1.390
REMARK INTER:                  -3.553
REMARK INTRA:                   2.163
REMARK UNBOUND:                 2.099
REMARK SMILES C=C1CC[C@H]2[C@@H]([C@H]3[C@H](C)CC[C@H]13)C2(C)C
REMARK SMILES IDX 3 1 2 2 1 3 12 4 9 5 8 6 10 7 7 8 11 9 4 11 5 12 6 13 13 14
REMARK SMILES IDX 14 16 15 17
REMARK H PARENT
REMARK Flexibility Score: 80.00
ROOT
ATOM      1  C   UNL     1      50.779  33.984  30.136  1.00  0.00     0.031 C 
ENDROOT
BRANCH   1   2
ATOM      2  C   UNL     1      50.793  34.293  28.655  1.00  0.00    -0.074 C 
ATOM      3  C   UNL     1      51.978  34.438  28.032  1.00  0.00     0.008 C 
BRANCH   2   4
ATOM      4  C   UNL     1      49.503  34.029  27.895  1.00  0.00     0.018 C 
ATOM      5  C   UNL     1      48.818  31.070  25.632  1.00  0.00     0.008 C 
ATOM      6  C   UNL     1      48.593  32.412  26.337  1.00  0.00    -0.010 C 
ATOM      7  C   UNL     1      49.103  33.592  25.516  1.00  0.00     0.004 C 
ATOM      8  C   UNL     1      49.350  32.519  27.661  1.00  0.00     0.003 CG0
ATOM      9  C   UNL     1      49.336  34.713  26.523  1.00  0.00     0.008 C 
ATOM     10  G   UNL     1      48.573  31.867  28.832  1.00  0.00     0.000 G0
ENDBRANCH   2   4
ENDBRANCH   1   2
BRANCH   1  11
ATOM     11  C   UNL     1      50.712  32.463  30.363  1.00  0.00     0.009 C 
BRANCH  11  12
ATOM     12  C   UNL     1      49.269  31.917  30.229  1.00  0.00    -0.001 C 
ATOM     13  C   UNL     1      48.579  31.877  28.844  1.00  0.00     0.002 CG0
ATOM     14  C   UNL     1      49.025  30.569  29.522  1.00  0.00    -0.029 C 
ATOM     15  G   UNL     1      49.359  32.532  27.677  1.00  0.00     0.000 G0
ATOM     16  C   UNL     1      47.877  29.742  30.115  1.00  0.00     0.011 C 
ATOM     17  C   UNL     1      50.195  29.742  28.953  1.00  0.00     0.011 C 
ENDBRANCH  11  12
ENDBRANCH   1  11
TORSDOF 0
ENDMDL
MODEL 4
REMARK VINA RESULT:    -2.637      1.368      3.136
REMARK INTER + INTRA:          -1.155
REMARK INTER:                  -3.297
REMARK INTRA:                   2.142
REMARK UNBOUND:                 2.099
REMARK SMILES C=C1CC[C@H]2[C@@H]([C@H]3[C@H](C)CC[C@H]13)C2(C)C
REMARK SMILES IDX 3 1 2 2 1 3 12 4 9 5 8 6 10 7 7 8 11 9 4 11 5 12 6 13 13 14
REMARK SMILES IDX 14 16 15 17
REMARK H PARENT
REMARK Flexibility Score: 80.00
ROOT
ATOM      1  C   UNL     1      50.656  32.846  25.738  1.00  0.00     0.031 C 
ENDROOT
BRANCH   1   2
ATOM      2  C   UNL     1      50.350  33.680  26.963  1.00  0.00    -0.074 C 
ATOM      3  C   UNL     1      49.322  34.550  26.916  1.00  0.00     0.008 C 
BRANCH   2   4
ATOM      4  C   UNL     1      50.955  33.207  28.274  1.00  0.00     0.018 C 
ATOM      5  C   UNL     1      49.124  31.374  31.037  1.00  0.00     0.008 C 
ATOM      6  C   UNL     1      50.265  32.101  30.317  1.00  0.00    -0.010 C 
ATOM      7  C   UNL     1      50.264  33.601  30.594  1.00  0.00     0.004 C 
ATOM      8  C   UNL     1      50.162  31.999  28.795  1.00  0.00     0.003 CG0
ATOM      9  C   UNL     1      51.025  34.226  29.430  1.00  0.00     0.008 C 
ATOM     10  G   UNL     1      50.772  30.681  28.255  1.00  0.00     0.000 G0
ENDBRANCH   2   4
ENDBRANCH   1   2
BRANCH   1  11
ATOM     11  C   UNL     1      49.940  31.486  25.826  1.00  0.00     0.009 C 
BRANCH  11  12
ATOM     12  C   UNL     1      50.710  30.478  26.714  1.00  0.00    -0.001 C 
ATOM     13  C   UNL     1      50.766  30.679  28.248  1.00  0.00     0.002 CG0
ATOM     14  C   UNL     1      49.929  29.533  27.650  1.00  0.00    -0.029 C 
ATOM     15  G   UNL     1      50.141  31.990  28.786  1.00  0.00     0.000 G0
ATOM     16  C   UNL     1      50.557  28.143  27.811  1.00  0.00     0.011 C 
ATOM     17  C   UNL     1      48.390  29.563  27.712  1.00  0.00     0.011 C 
ENDBRANCH  11  12
ENDBRANCH   1  11
TORSDOF 0
ENDMDL
MODEL 5
REMARK VINA RESULT:    -2.515      1.422      3.798
REMARK INTER + INTRA:          -1.004
REMARK INTER:                  -3.174
REMARK INTRA:                   2.169
REMARK UNBOUND:                 2.099
REMARK SMILES C=C1CC[C@H]2[C@@H]([C@H]3[C@H](C)CC[C@H]13)C2(C)C
REMARK SMILES IDX 3 1 2 2 1 3 12 4 9 5 8 6 10 7 7 8 11 9 4 11 5 12 6 13 13 14
REMARK SMILES IDX 14 16 15 17
REMARK H PARENT
REMARK Flexibility Score: 80.00
ROOT
ATOM      1  C   UNL     1      50.632  29.361  28.982  1.00  0.00     0.031 C 
ENDROOT
BRANCH   1   2
ATOM      2  C   UNL     1      50.265  29.623  27.538  1.00  0.00    -0.074 C 
ATOM      3  C   UNL     1      49.212  28.973  27.007  1.00  0.00     0.008 C 
BRANCH   2   4
ATOM      4  C   UNL     1      50.847  30.877  26.908  1.00  0.00     0.018 C 
ATOM      5  C   UNL     1      49.000  34.129  26.305  1.00  0.00     0.008 C 
ATOM      6  C   UNL     1      50.136  33.101  26.258  1.00  0.00    -0.010 C 
ATOM      7  C   UNL     1      50.075  32.225  25.010  1.00  0.00     0.004 C 
ATOM      8  C   UNL     1      50.081  32.107  27.418  1.00  0.00     0.003 CG0
ATOM      9  C   UNL     1      50.849  30.961  25.368  1.00  0.00     0.008 C 
ATOM     10  G   UNL     1      50.751  32.667  28.698  1.00  0.00     0.000 G0
ENDBRANCH   2   4
ENDBRANCH   1   2
BRANCH   1  11
ATOM     11  C   UNL     1      49.958  30.395  29.901  1.00  0.00     0.009 C 
BRANCH  11  12
ATOM     12  C   UNL     1      50.738  31.733  29.945  1.00  0.00    -0.001 C 
ATOM     13  C   UNL     1      50.762  32.658  28.705  1.00  0.00     0.002 CG0
ATOM     14  C   UNL     1      49.966  33.067  29.957  1.00  0.00    -0.029 C 
ATOM     15  G   UNL     1      50.094  32.098  27.424  1.00  0.00     0.000 G0
ATOM     16  C   UNL     1      50.625  34.171  30.791  1.00  0.00     0.011 C 
ATOM     17  C   UNL     1      48.425  33.098  29.938  1.00  0.00     0.011 C 
ENDBRANCH  11  12
ENDBRANCH   1  11
TORSDOF 0
ENDMDL
MODEL 6
REMARK VINA RESULT:    -2.429      1.243      3.766
REMARK INTER + INTRA:          -0.898
REMARK INTER:                  -3.073
REMARK INTRA:                   2.176
REMARK UNBOUND:                 2.099
REMARK SMILES C=C1CC[C@H]2[C@@H]([C@H]3[C@H](C)CC[C@H]13)C2(C)C
REMARK SMILES IDX 3 1 2 2 1 3 12 4 9 5 8 6 10 7 7 8 11 9 4 11 5 12 6 13 13 14
REMARK SMILES IDX 14 16 15 17
REMARK H PARENT
REMARK Flexibility Score: 80.00
ROOT
ATOM      1  C   UNL     1      48.992  31.006  30.582  1.00  0.00     0.031 C 
ENDROOT
BRANCH   1   2
ATOM      2  C   UNL     1      49.034  29.945  29.505  1.00  0.00    -0.074 C 
ATOM      3  C   UNL     1      47.877  29.398  29.086  1.00  0.00     0.008 C 
BRANCH   2   4
ATOM      4  C   UNL     1      50.317  29.851  28.695  1.00  0.00     0.018 C 
ATOM      5  C   UNL     1      50.834  31.170  25.182  1.00  0.00     0.008 C 
ATOM      6  C   UNL     1      51.141  30.437  26.493  1.00  0.00    -0.010 C 
ATOM      7  C   UNL     1      50.733  28.968  26.445  1.00  0.00     0.004 C 
ATOM      8  C   UNL     1      50.366  31.005  27.683  1.00  0.00     0.003 CG0
ATOM      9  C   UNL     1      50.560  28.550  27.902  1.00  0.00     0.008 C 
ATOM     10  G   UNL     1      51.070  32.237  28.303  1.00  0.00     0.000 G0
ENDBRANCH   2   4
ENDBRANCH   1   2
BRANCH   1  11
ATOM     11  C   UNL     1      48.963  32.409  29.948  1.00  0.00     0.009 C 
BRANCH  11  12
ATOM     12  C   UNL     1      50.374  32.885  29.520  1.00  0.00    -0.001 C 
ATOM     13  C   UNL     1      51.079  32.232  28.307  1.00  0.00     0.002 CG0
ATOM     14  C   UNL     1      50.548  33.674  28.208  1.00  0.00    -0.029 C 
ATOM     15  G   UNL     1      50.354  31.019  27.671  1.00  0.00     0.000 G0
ATOM     16  C   UNL     1      51.638  34.751  28.258  1.00  0.00     0.011 C 
ATOM     17  C   UNL     1      49.341  34.011  27.312  1.00  0.00     0.011 C 
ENDBRANCH  11  12
ENDBRANCH   1  11
TORSDOF 0
ENDMDL
MODEL 7
REMARK VINA RESULT:    -2.421      1.301      3.303
REMARK INTER + INTRA:          -0.889
REMARK INTER:                  -3.013
REMARK INTRA:                   2.124
REMARK UNBOUND:                 2.099
REMARK SMILES C=C1CC[C@H]2[C@@H]([C@H]3[C@H](C)CC[C@H]13)C2(C)C
REMARK SMILES IDX 3 1 2 2 1 3 12 4 9 5 8 6 10 7 7 8 11 9 4 11 5 12 6 13 13 14
REMARK SMILES IDX 14 16 15 17
REMARK H PARENT
REMARK Flexibility Score: 80.00
ROOT
ATOM      1  C   UNL     1      51.029  33.758  27.025  1.00  0.00     0.031 C 
ENDROOT
BRANCH   1   2
ATOM      2  C   UNL     1      51.652  32.507  26.447  1.00  0.00    -0.074 C 
ATOM      3  C   UNL     1      52.995  32.404  26.414  1.00  0.00     0.008 C 
BRANCH   2   4
ATOM      4  C   UNL     1      50.742  31.297  26.310  1.00  0.00     0.018 C 
ATOM      5  C   UNL     1      50.690  28.280  28.600  1.00  0.00     0.008 C 
ATOM      6  C   UNL     1      50.349  29.168  27.398  1.00  0.00    -0.010 C 
ATOM      7  C   UNL     1      51.262  28.903  26.204  1.00  0.00     0.004 C 
ATOM      8  C   UNL     1      50.535  30.657  27.691  1.00  0.00     0.003 CG0
ATOM      9  C   UNL     1      51.198  30.171  25.360  1.00  0.00     0.008 C 
ATOM     10  G   UNL     1      49.298  31.272  28.392  1.00  0.00     0.000 G0
ENDBRANCH   2   4
ENDBRANCH   1   2
BRANCH   1  11
ATOM     11  C   UNL     1      50.731  33.565  28.522  1.00  0.00     0.009 C 
BRANCH  11  12
ATOM     12  C   UNL     1      49.406  32.797  28.759  1.00  0.00    -0.001 C 
ATOM     13  C   UNL     1      49.305  31.294  28.404  1.00  0.00     0.002 CG0
ATOM     14  C   UNL     1      49.325  31.740  29.878  1.00  0.00    -0.029 C 
ATOM     15  G   UNL     1      50.536  30.679  27.691  1.00  0.00     0.000 G0
ATOM     16  C   UNL     1      47.963  31.664  30.578  1.00  0.00     0.011 C 
ATOM     17  C   UNL     1      50.537  31.437  30.779  1.00  0.00     0.011 C 
ENDBRANCH  11  12
ENDBRANCH   1  11
TORSDOF 0
ENDMDL
MODEL 8
REMARK VINA RESULT:    -2.401      1.545      2.081
REMARK INTER + INTRA:          -0.863
REMARK INTER:                  -3.016
REMARK INTRA:                   2.153
REMARK UNBOUND:                 2.099
REMARK SMILES C=C1CC[C@H]2[C@@H]([C@H]3[C@H](C)CC[C@H]13)C2(C)C
REMARK SMILES IDX 3 1 2 2 1 3 12 4 9 5 8 6 10 7 7 8 11 9 4 11 5 12 6 13 13 14
REMARK SMILES IDX 14 16 15 17
REMARK H PARENT
REMARK Flexibility Score: 80.00
ROOT
ATOM      1  C   UNL     1      50.140  32.689  30.560  1.00  0.00     0.031 C 
ENDROOT
BRANCH   1   2
ATOM      2  C   UNL     1      50.063  33.502  29.287  1.00  0.00    -0.074 C 
ATOM      3  C   UNL     1      51.154  34.180  28.882  1.00  0.00     0.008 C 
BRANCH   2   4
ATOM      4  C   UNL     1      48.907  33.189  28.351  1.00  0.00     0.018 C 
ATOM      5  C   UNL     1      49.114  31.158  25.161  1.00  0.00     0.008 C 
ATOM      6  C   UNL     1      48.508  32.049  26.250  1.00  0.00    -0.010 C 
ATOM      7  C   UNL     1      48.660  33.535  25.936  1.00  0.00     0.004 C 
ATOM      8  C   UNL     1      49.196  31.879  27.605  1.00  0.00     0.003 CG0
ATOM      9  C   UNL     1      48.556  34.244  27.282  1.00  0.00     0.008 C 
ATOM     10  G   UNL     1      48.636  30.671  28.397  1.00  0.00     0.000 G0
ENDBRANCH   2   4
ENDBRANCH   1   2
BRANCH   1  11
ATOM     11  C   UNL     1      50.504  31.228  30.240  1.00  0.00     0.009 C 
BRANCH  11  12
ATOM     12  C   UNL     1      49.272  30.406  29.787  1.00  0.00    -0.001 C 
ATOM     13  C   UNL     1      48.626  30.669  28.406  1.00  0.00     0.002 CG0
ATOM     14  C   UNL     1      49.418  29.372  28.653  1.00  0.00    -0.029 C 
ATOM     15  G   UNL     1      49.196  31.868  27.606  1.00  0.00     0.000 G0
ATOM     16  C   UNL     1      48.545  28.123  28.820  1.00  0.00     0.011 C 
ATOM     17  C   UNL     1      50.774  29.131  27.962  1.00  0.00     0.011 C 
ENDBRANCH  11  12
ENDBRANCH   1  11
TORSDOF 0
ENDMDL
MODEL 9
REMARK VINA RESULT:    -2.369      3.180      6.002
REMARK INTER + INTRA:          -0.825
REMARK INTER:                  -2.907
REMARK INTRA:                   2.083
REMARK UNBOUND:                 2.099
REMARK SMILES C=C1CC[C@H]2[C@@H]([C@H]3[C@H](C)CC[C@H]13)C2(C)C
REMARK SMILES IDX 3 1 2 2 1 3 12 4 9 5 8 6 10 7 7 8 11 9 4 11 5 12 6 13 13 14
REMARK SMILES IDX 14 16 15 17
REMARK H PARENT
REMARK Flexibility Score: 80.00
ROOT
ATOM      1  C   UNL     1      53.844  31.863  24.513  1.00  0.00     0.031 C 
ENDROOT
BRANCH   1   2
ATOM      2  C   UNL     1      52.489  31.362  24.964  1.00  0.00    -0.074 C 
ATOM      3  C   UNL     1      51.546  31.113  24.036  1.00  0.00     0.008 C 
BRANCH   2   4
ATOM      4  C   UNL     1      52.410  30.800  26.374  1.00  0.00     0.018 C 
ATOM      5  C   UNL     1      52.301  27.130  27.304  1.00  0.00     0.008 C 
ATOM      6  C   UNL     1      52.257  28.651  27.484  1.00  0.00    -0.010 C 
ATOM      7  C   UNL     1      50.840  29.207  27.380  1.00  0.00     0.004 C 
ATOM      8  C   UNL     1      53.035  29.397  26.399  1.00  0.00     0.003 CG0
ATOM      9  C   UNL     1      51.010  30.677  27.010  1.00  0.00     0.008 C 
ATOM     10  G   UNL     1      54.547  29.485  26.722  1.00  0.00     0.000 G0
ENDBRANCH   2   4
ENDBRANCH   1   2
BRANCH   1  11
ATOM     11  C   UNL     1      54.809  30.683  24.307  1.00  0.00     0.009 C 
BRANCH  11  12
ATOM     12  C   UNL     1      55.439  30.205  25.639  1.00  0.00    -0.001 C 
ATOM     13  C   UNL     1      54.570  29.476  26.692  1.00  0.00     0.002 CG0
ATOM     14  C   UNL     1      55.632  28.697  25.896  1.00  0.00    -0.029 C 
ATOM     15  G   UNL     1      53.054  29.394  26.384  1.00  0.00     0.000 G0
ATOM     16  C   UNL     1      56.891  28.348  26.698  1.00  0.00     0.011 C 
ATOM     17  C   UNL     1      55.220  27.649  24.843  1.00  0.00     0.011 C 
ENDBRANCH  11  12
ENDBRANCH   1  11
TORSDOF 0
ENDMDL
