MODEL 1
REMARK VINA RESULT:    -3.809      0.000      0.000
REMARK INTER + INTRA:          -5.166
REMARK INTER:                  -4.922
REMARK INTRA:                  -0.244
REMARK UNBOUND:                -0.244
REMARK SMILES CCCCCCC(=O)[O-]
REMARK SMILES IDX 5 1 6 2 7 3 8 4 9 5 4 6 3 7 2 8 1 9
REMARK H PARENT
REMARK Flexibility Score: inf
ROOT
ATOM      1  C   UNL     1      -6.654  26.253  58.802  1.00  0.00     0.006 C 
ENDROOT
BRANCH   1   2
ATOM      2  C   UNL     1      -6.216  25.559  57.502  1.00  0.00     0.053 C 
BRANCH   2   3
ATOM      3  C   UNL     1      -6.645  24.125  57.457  1.00  0.00     0.041 C 
ATOM      4  O   UNL     1      -6.121  23.283  58.232  1.00  0.00    -0.550 OA
ATOM      5  O   UNL     1      -7.600  23.713  56.536  1.00  0.00    -0.550 OA
ENDBRANCH   2   3
ENDBRANCH   1   2
BRANCH   1   6
ATOM      6  C   UNL     1      -8.138  26.053  59.161  1.00  0.00     0.000 C 
BRANCH   6   7
ATOM      7  C   UNL     1      -8.380  25.994  60.679  1.00  0.00    -0.000 C 
BRANCH   7   8
ATOM      8  C   UNL     1      -7.083  26.141  61.489  1.00  0.00    -0.003 C 
ATOM      9  C   UNL     1      -7.322  26.141  62.998  1.00  0.00     0.004 C 
ENDBRANCH   7   8
ENDBRANCH   6   7
ENDBRANCH   1   6
TORSDOF 5
ENDMDL
MODEL 2
REMARK VINA RESULT:    -3.546      2.994      4.514
REMARK INTER + INTRA:          -4.827
REMARK INTER:                  -4.578
REMARK INTRA:                  -0.249
REMARK UNBOUND:                -0.244
REMARK SMILES CCCCCCC(=O)[O-]
REMARK SMILES IDX 5 1 6 2 7 3 8 4 9 5 4 6 3 7 2 8 1 9
REMARK H PARENT
REMARK Flexibility Score: inf
ROOT
ATOM      1  C   UNL     1      -8.171  26.248  59.740  1.00  0.00     0.006 C 
ENDROOT
BRANCH   1   2
ATOM      2  C   UNL     1      -7.402  25.644  60.927  1.00  0.00     0.053 C 
BRANCH   2   3
ATOM      3  C   UNL     1      -8.110  25.864  62.228  1.00  0.00     0.041 C 
ATOM      4  O   UNL     1      -7.462  26.206  63.252  1.00  0.00    -0.550 OA
ATOM      5  O   UNL     1      -9.482  25.660  62.317  1.00  0.00    -0.550 OA
ENDBRANCH   2   3
ENDBRANCH   1   2
BRANCH   1   6
ATOM      6  C   UNL     1      -7.385  26.266  58.416  1.00  0.00     0.000 C 
BRANCH   6   7
ATOM      7  C   UNL     1      -7.513  24.950  57.631  1.00  0.00    -0.000 C 
BRANCH   7   8
ATOM      8  C   UNL     1      -6.255  24.074  57.741  1.00  0.00    -0.003 C 
ATOM      9  C   UNL     1      -4.994  24.883  58.044  1.00  0.00     0.004 C 
ENDBRANCH   7   8
ENDBRANCH   6   7
ENDBRANCH   1   6
TORSDOF 5
ENDMDL
MODEL 3
REMARK VINA RESULT:    -3.483      8.420      9.606
REMARK INTER + INTRA:          -4.745
REMARK INTER:                  -4.412
REMARK INTRA:                  -0.334
REMARK UNBOUND:                -0.244
REMARK SMILES CCCCCCC(=O)[O-]
REMARK SMILES IDX 5 1 6 2 7 3 8 4 9 5 4 6 3 7 2 8 1 9
REMARK H PARENT
REMARK Flexibility Score: inf
ROOT
ATOM      1  C   UNL     1      -4.834  32.019  54.727  1.00  0.00     0.006 C 
ENDROOT
BRANCH   1   2
ATOM      2  C   UNL     1      -5.905  31.504  55.703  1.00  0.00     0.053 C 
BRANCH   2   3
ATOM      3  C   UNL     1      -7.292  31.787  55.215  1.00  0.00     0.041 C 
ATOM      4  O   UNL     1      -8.286  31.503  55.933  1.00  0.00    -0.550 OA
ATOM      5  O   UNL     1      -7.489  32.332  53.952  1.00  0.00    -0.550 OA
ENDBRANCH   2   3
ENDBRANCH   1   2
BRANCH   1   6
ATOM      6  C   UNL     1      -3.777  32.938  55.369  1.00  0.00     0.000 C 
BRANCH   6   7
ATOM      7  C   UNL     1      -3.750  34.342  54.742  1.00  0.00    -0.000 C 
BRANCH   7   8
ATOM      8  C   UNL     1      -4.812  34.518  53.645  1.00  0.00    -0.003 C 
ATOM      9  C   UNL     1      -5.865  35.566  54.002  1.00  0.00     0.004 C 
ENDBRANCH   7   8
ENDBRANCH   6   7
ENDBRANCH   1   6
TORSDOF 5
ENDMDL
MODEL 4
REMARK VINA RESULT:    -3.454      2.785      4.369
REMARK INTER + INTRA:          -4.708
REMARK INTER:                  -4.517
REMARK INTRA:                  -0.191
REMARK UNBOUND:                -0.244
REMARK SMILES CCCCCCC(=O)[O-]
REMARK SMILES IDX 5 1 6 2 7 3 8 4 9 5 4 6 3 7 2 8 1 9
REMARK H PARENT
REMARK Flexibility Score: inf
ROOT
ATOM      1  C   UNL     1      -5.020  25.077  57.859  1.00  0.00     0.006 C 
ENDROOT
BRANCH   1   2
ATOM      2  C   UNL     1      -6.246  24.193  58.147  1.00  0.00     0.053 C 
BRANCH   2   3
ATOM      3  C   UNL     1      -7.428  24.583  57.314  1.00  0.00     0.041 C 
ATOM      4  O   UNL     1      -7.994  23.731  56.581  1.00  0.00    -0.550 OA
ATOM      5  O   UNL     1      -7.884  25.895  57.323  1.00  0.00    -0.550 OA
ENDBRANCH   2   3
ENDBRANCH   1   2
BRANCH   1   6
ATOM      6  C   UNL     1      -4.528  25.893  59.069  1.00  0.00     0.000 C 
BRANCH   6   7
ATOM      7  C   UNL     1      -3.046  26.290  58.954  1.00  0.00    -0.000 C 
BRANCH   7   8
ATOM      8  C   UNL     1      -2.414  25.832  57.631  1.00  0.00    -0.003 C 
ATOM      9  C   UNL     1      -1.430  26.852  57.058  1.00  0.00     0.004 C 
ENDBRANCH   7   8
ENDBRANCH   6   7
ENDBRANCH   1   6
TORSDOF 5
ENDMDL
MODEL 5
REMARK VINA RESULT:    -3.402      1.889      2.116
REMARK INTER + INTRA:          -4.640
REMARK INTER:                  -4.564
REMARK INTRA:                  -0.076
REMARK UNBOUND:                -0.244
REMARK SMILES CCCCCCC(=O)[O-]
REMARK SMILES IDX 5 1 6 2 7 3 8 4 9 5 4 6 3 7 2 8 1 9
REMARK H PARENT
REMARK Flexibility Score: inf
ROOT
ATOM      1  C   UNL     1      -6.758  24.723  58.493  1.00  0.00     0.006 C 
ENDROOT
BRANCH   1   2
ATOM      2  C   UNL     1      -5.660  25.369  57.632  1.00  0.00     0.053 C 
BRANCH   2   3
ATOM      3  C   UNL     1      -6.191  26.490  56.792  1.00  0.00     0.041 C 
ATOM      4  O   UNL     1      -6.159  27.673  57.221  1.00  0.00    -0.550 OA
ATOM      5  O   UNL     1      -6.752  26.223  55.549  1.00  0.00    -0.550 OA
ENDBRANCH   2   3
ENDBRANCH   1   2
BRANCH   1   6
ATOM      6  C   UNL     1      -8.088  25.499  58.516  1.00  0.00     0.000 C 
BRANCH   6   7
ATOM      7  C   UNL     1      -8.314  26.253  59.838  1.00  0.00    -0.000 C 
BRANCH   7   8
ATOM      8  C   UNL     1      -7.265  25.899  60.904  1.00  0.00    -0.003 C 
ATOM      9  C   UNL     1      -7.877  25.678  62.287  1.00  0.00     0.004 C 
ENDBRANCH   7   8
ENDBRANCH   6   7
ENDBRANCH   1   6
TORSDOF 5
ENDMDL
MODEL 6
REMARK VINA RESULT:    -3.383      3.305      5.566
REMARK INTER + INTRA:          -4.615
REMARK INTER:                  -4.433
REMARK INTRA:                  -0.183
REMARK UNBOUND:                -0.244
REMARK SMILES CCCCCCC(=O)[O-]
REMARK SMILES IDX 5 1 6 2 7 3 8 4 9 5 4 6 3 7 2 8 1 9
REMARK H PARENT
REMARK Flexibility Score: inf
ROOT
ATOM      1  C   UNL     1      -4.744  24.676  57.454  1.00  0.00     0.006 C 
ENDROOT
BRANCH   1   2
ATOM      2  C   UNL     1      -6.069  23.942  57.722  1.00  0.00     0.053 C 
BRANCH   2   3
ATOM      3  C   UNL     1      -7.186  24.472  56.878  1.00  0.00     0.041 C 
ATOM      4  O   UNL     1      -8.077  23.695  56.446  1.00  0.00    -0.550 OA
ATOM      5  O   UNL     1      -7.226  25.820  56.542  1.00  0.00    -0.550 OA
ENDBRANCH   2   3
ENDBRANCH   1   2
BRANCH   1   6
ATOM      6  C   UNL     1      -4.010  24.217  56.180  1.00  0.00     0.000 C 
BRANCH   6   7
ATOM      7  C   UNL     1      -4.086  22.696  55.965  1.00  0.00    -0.000 C 
BRANCH   7   8
ATOM      8  C   UNL     1      -2.732  22.090  55.562  1.00  0.00    -0.003 C 
ATOM      9  C   UNL     1      -2.661  20.583  55.807  1.00  0.00     0.004 C 
ENDBRANCH   7   8
ENDBRANCH   6   7
ENDBRANCH   1   6
TORSDOF 5
ENDMDL
MODEL 7
REMARK VINA RESULT:    -3.381      2.920      4.074
REMARK INTER + INTRA:          -4.614
REMARK INTER:                  -4.282
REMARK INTRA:                  -0.331
REMARK UNBOUND:                -0.244
REMARK SMILES CCCCCCC(=O)[O-]
REMARK SMILES IDX 5 1 6 2 7 3 8 4 9 5 4 6 3 7 2 8 1 9
REMARK H PARENT
REMARK Flexibility Score: inf
ROOT
ATOM      1  C   UNL     1      -5.281  23.609  57.278  1.00  0.00     0.006 C 
ENDROOT
BRANCH   1   2
ATOM      2  C   UNL     1      -6.350  24.344  58.104  1.00  0.00     0.053 C 
BRANCH   2   3
ATOM      3  C   UNL     1      -7.581  24.632  57.301  1.00  0.00     0.041 C 
ATOM      4  O   UNL     1      -8.176  25.734  57.428  1.00  0.00    -0.550 OA
ATOM      5  O   UNL     1      -8.090  23.670  56.438  1.00  0.00    -0.550 OA
ENDBRANCH   2   3
ENDBRANCH   1   2
BRANCH   1   6
ATOM      6  C   UNL     1      -4.619  24.469  56.185  1.00  0.00     0.000 C 
BRANCH   6   7
ATOM      7  C   UNL     1      -4.108  25.819  56.718  1.00  0.00    -0.000 C 
BRANCH   7   8
ATOM      8  C   UNL     1      -2.881  25.665  57.631  1.00  0.00    -0.003 C 
ATOM      9  C   UNL     1      -3.105  26.241  59.028  1.00  0.00     0.004 C 
ENDBRANCH   7   8
ENDBRANCH   6   7
ENDBRANCH   1   6
TORSDOF 5
ENDMDL
MODEL 8
REMARK VINA RESULT:    -3.345      9.245     10.340
REMARK INTER + INTRA:          -4.567
REMARK INTER:                  -4.456
REMARK INTRA:                  -0.110
REMARK UNBOUND:                -0.244
REMARK SMILES CCCCCCC(=O)[O-]
REMARK SMILES IDX 5 1 6 2 7 3 8 4 9 5 4 6 3 7 2 8 1 9
REMARK H PARENT
REMARK Flexibility Score: inf
ROOT
ATOM      1  C   UNL     1      -5.729  32.689  53.459  1.00  0.00     0.006 C 
ENDROOT
BRANCH   1   2
ATOM      2  C   UNL     1      -7.093  32.718  54.169  1.00  0.00     0.053 C 
BRANCH   2   3
ATOM      3  C   UNL     1      -7.333  31.482  54.979  1.00  0.00     0.041 C 
ATOM      4  O   UNL     1      -6.728  30.414  54.700  1.00  0.00    -0.550 OA
ATOM      5  O   UNL     1      -8.251  31.500  56.022  1.00  0.00    -0.550 OA
ENDBRANCH   2   3
ENDBRANCH   1   2
BRANCH   1   6
ATOM      6  C   UNL     1      -4.770  33.818  53.880  1.00  0.00     0.000 C 
BRANCH   6   7
ATOM      7  C   UNL     1      -5.407  35.213  53.765  1.00  0.00    -0.000 C 
BRANCH   7   8
ATOM      8  C   UNL     1      -4.381  36.300  53.405  1.00  0.00    -0.003 C 
ATOM      9  C   UNL     1      -4.869  37.710  53.740  1.00  0.00     0.004 C 
ENDBRANCH   7   8
ENDBRANCH   6   7
ENDBRANCH   1   6
TORSDOF 5
ENDMDL
MODEL 9
REMARK VINA RESULT:    -3.249      1.762      2.730
REMARK INTER + INTRA:          -4.442
REMARK INTER:                  -4.061
REMARK INTRA:                  -0.382
REMARK UNBOUND:                -0.244
REMARK SMILES CCCCCCC(=O)[O-]
REMARK SMILES IDX 5 1 6 2 7 3 8 4 9 5 4 6 3 7 2 8 1 9
REMARK H PARENT
REMARK Flexibility Score: inf
ROOT
ATOM      1  C   UNL     1      -4.696  25.101  57.002  1.00  0.00     0.006 C 
ENDROOT
BRANCH   1   2
ATOM      2  C   UNL     1      -5.637  23.955  56.594  1.00  0.00     0.053 C 
BRANCH   2   3
ATOM      3  C   UNL     1      -6.994  24.453  56.204  1.00  0.00     0.041 C 
ATOM      4  O   UNL     1      -8.005  23.719  56.354  1.00  0.00    -0.550 OA
ATOM      5  O   UNL     1      -7.138  25.716  55.642  1.00  0.00    -0.550 OA
ENDBRANCH   2   3
ENDBRANCH   1   2
BRANCH   1   6
ATOM      6  C   UNL     1      -4.669  25.393  58.514  1.00  0.00     0.000 C 
BRANCH   6   7
ATOM      7  C   UNL     1      -5.674  26.481  58.928  1.00  0.00    -0.000 C 
BRANCH   7   8
ATOM      8  C   UNL     1      -6.762  25.949  59.874  1.00  0.00    -0.003 C 
ATOM      9  C   UNL     1      -8.164  26.030  59.272  1.00  0.00     0.004 C 
ENDBRANCH   7   8
ENDBRANCH   6   7
ENDBRANCH   1   6
TORSDOF 5
ENDMDL
