MODEL 1
REMARK VINA RESULT:    -5.137      0.000      0.000
REMARK INTER + INTRA:          -5.472
REMARK INTER:                  -6.488
REMARK INTRA:                   1.017
REMARK UNBOUND:                 1.017
REMARK SMILES COc1cc(O)c2c(=O)c(OC)c(-c3ccc(O)c(O)c3)oc2c1
REMARK SMILES IDX 3 1 4 2 5 3 7 4 23 5 24 6 22 7 13 8 10 9 8 10 9 11 2 12 1 13
REMARK SMILES IDX 6 14 14 16 21 17 15 18 19 19 16 20 17 21 20 22 18 24 11 26
REMARK SMILES IDX 12 27
REMARK H PARENT 6 15 20 23 18 25
REMARK Flexibility Score: inf
ROOT
ATOM      1  C   UNL     1       2.240  13.743  26.477  1.00  0.00     0.126 A 
ATOM      2  C   UNL     1       2.147  14.038  25.108  1.00  0.00     0.093 A 
ATOM      3  C   UNL     1       1.621  15.258  24.665  1.00  0.00     0.134 A 
ATOM      4  C   UNL     1       1.103  16.190  25.612  1.00  0.00     0.111 A 
ATOM      5  C   UNL     1       1.233  15.891  26.990  1.00  0.00     0.146 A 
ATOM      6  C   UNL     1       1.798  14.683  27.407  1.00  0.00     0.094 A 
ATOM      7  O   UNL     1       0.818  16.746  27.913  1.00  0.00    -0.452 OA
ATOM      8  C   UNL     1       0.246  17.909  27.630  1.00  0.00     0.180 A 
ATOM      9  C   UNL     1      -0.002  18.269  26.293  1.00  0.00     0.210 A 
ATOM     10  C   UNL     1       0.422  17.385  25.272  1.00  0.00     0.239 A 
ATOM     11  O   UNL     1       0.150  17.643  24.073  1.00  0.00    -0.285 OA
ENDROOT
BRANCH   1  12
ATOM     12  O   UNL     1       2.776  12.537  26.954  1.00  0.00    -0.496 OA
ATOM     13  C   UNL     1       2.354  11.885  28.148  1.00  0.00     0.278 C 
ENDBRANCH   1  12
BRANCH   3  14
ATOM     14  O   UNL     1       1.672  15.495  23.288  1.00  0.00    -0.507 OA
ATOM     15  H   UNL     1       2.486  15.338  22.710  1.00  0.00     0.293 HD
ENDBRANCH   3  14
BRANCH   8  16
ATOM     16  C   UNL     1      -0.138  18.784  28.763  1.00  0.00     0.025 A 
ATOM     17  C   UNL     1       0.180  18.398  30.074  1.00  0.00     0.062 A 
ATOM     18  C   UNL     1      -0.762  20.025  28.546  1.00  0.00     0.016 A 
ATOM     19  C   UNL     1      -0.154  19.220  31.160  1.00  0.00     0.158 A 
ATOM     20  C   UNL     1      -1.093  20.846  29.628  1.00  0.00     0.051 A 
ATOM     21  C   UNL     1      -0.794  20.446  30.937  1.00  0.00     0.157 A 
BRANCH  19  22
ATOM     22  O   UNL     1       0.150  18.828  32.462  1.00  0.00    -0.504 OA
ATOM     23  H   UNL     1      -0.554  18.426  33.073  1.00  0.00     0.293 HD
ENDBRANCH  19  22
BRANCH  21  24
ATOM     24  O   UNL     1      -1.125  21.260  32.017  1.00  0.00    -0.504 OA
ATOM     25  H   UNL     1      -1.405  22.226  31.888  1.00  0.00     0.293 HD
ENDBRANCH  21  24
ENDBRANCH   8  16
BRANCH   9  26
ATOM     26  O   UNL     1      -0.693  19.473  26.044  1.00  0.00    -0.490 OA
ATOM     27  C   UNL     1      -1.056  19.997  24.771  1.00  0.00     0.278 C 
ENDBRANCH   9  26
TORSDOF 6
ENDMDL
MODEL 2
REMARK VINA RESULT:    -5.047      1.369      6.801
REMARK INTER + INTRA:          -5.359
REMARK INTER:                  -5.715
REMARK INTRA:                   0.356
REMARK UNBOUND:                 1.017
REMARK SMILES COc1cc(O)c2c(=O)c(OC)c(-c3ccc(O)c(O)c3)oc2c1
REMARK SMILES IDX 3 1 4 2 5 3 7 4 23 5 24 6 22 7 13 8 10 9 8 10 9 11 2 12 1 13
REMARK SMILES IDX 6 14 14 16 21 17 15 18 19 19 16 20 17 21 20 22 18 24 11 26
REMARK SMILES IDX 12 27
REMARK H PARENT 6 15 20 23 18 25
REMARK Flexibility Score: inf
ROOT
ATOM      1  C   UNL     1      -0.215  19.321  30.074  1.00  0.00     0.126 A 
ATOM      2  C   UNL     1      -0.683  20.192  29.077  1.00  0.00     0.093 A 
ATOM      3  C   UNL     1      -0.529  19.887  27.720  1.00  0.00     0.134 A 
ATOM      4  C   UNL     1       0.179  18.709  27.335  1.00  0.00     0.111 A 
ATOM      5  C   UNL     1       0.617  17.826  28.352  1.00  0.00     0.146 A 
ATOM      6  C   UNL     1       0.416  18.136  29.700  1.00  0.00     0.094 A 
ATOM      7  O   UNL     1       1.232  16.693  28.049  1.00  0.00    -0.452 OA
ATOM      8  C   UNL     1       1.496  16.312  26.806  1.00  0.00     0.180 A 
ATOM      9  C   UNL     1       1.173  17.152  25.725  1.00  0.00     0.210 A 
ATOM     10  C   UNL     1       0.517  18.376  26.001  1.00  0.00     0.239 A 
ATOM     11  O   UNL     1       0.281  19.180  25.065  1.00  0.00    -0.285 OA
ENDROOT
BRANCH   1  12
ATOM     12  O   UNL     1      -0.367  19.590  31.443  1.00  0.00    -0.496 OA
ATOM     13  C   UNL     1      -0.769  20.848  31.976  1.00  0.00     0.278 C 
ENDBRANCH   1  12
BRANCH   3  14
ATOM     14  O   UNL     1      -1.125  20.767  26.812  1.00  0.00    -0.507 OA
ATOM     15  H   UNL     1      -2.121  20.905  26.719  1.00  0.00     0.293 HD
ENDBRANCH   3  14
BRANCH   8  16
ATOM     16  C   UNL     1       2.158  15.000  26.610  1.00  0.00     0.025 A 
ATOM     17  C   UNL     1       3.435  14.951  26.029  1.00  0.00     0.062 A 
ATOM     18  C   UNL     1       1.559  13.808  27.050  1.00  0.00     0.016 A 
ATOM     19  C   UNL     1       4.092  13.724  25.855  1.00  0.00     0.158 A 
ATOM     20  C   UNL     1       2.213  12.584  26.879  1.00  0.00     0.051 A 
ATOM     21  C   UNL     1       3.478  12.538  26.278  1.00  0.00     0.157 A 
BRANCH  19  22
ATOM     22  O   UNL     1       5.353  13.675  25.265  1.00  0.00    -0.504 OA
ATOM     23  H   UNL     1       6.200  13.719  25.821  1.00  0.00     0.293 HD
ENDBRANCH  19  22
BRANCH  21  24
ATOM     24  O   UNL     1       4.132  11.320  26.103  1.00  0.00    -0.504 OA
ATOM     25  H   UNL     1       4.476  10.784  26.892  1.00  0.00     0.293 HD
ENDBRANCH  21  24
ENDBRANCH   8  16
BRANCH   9  26
ATOM     26  O   UNL     1       1.554  16.747  24.429  1.00  0.00    -0.490 OA
ATOM     27  C   UNL     1       1.126  15.573  23.746  1.00  0.00     0.278 C 
ENDBRANCH   9  26
TORSDOF 6
ENDMDL
MODEL 3
REMARK VINA RESULT:    -5.029      3.895      6.424
REMARK INTER + INTRA:          -5.335
REMARK INTER:                  -4.877
REMARK INTRA:                  -0.458
REMARK UNBOUND:                 1.017
REMARK SMILES COc1cc(O)c2c(=O)c(OC)c(-c3ccc(O)c(O)c3)oc2c1
REMARK SMILES IDX 3 1 4 2 5 3 7 4 23 5 24 6 22 7 13 8 10 9 8 10 9 11 2 12 1 13
REMARK SMILES IDX 6 14 14 16 21 17 15 18 19 19 16 20 17 21 20 22 18 24 11 26
REMARK SMILES IDX 12 27
REMARK H PARENT 6 15 20 23 18 25
REMARK Flexibility Score: inf
ROOT
ATOM      1  C   UNL     1       1.269  10.989  30.103  1.00  0.00     0.126 A 
ATOM      2  C   UNL     1       2.500  10.317  30.038  1.00  0.00     0.093 A 
ATOM      3  C   UNL     1       3.496  10.720  29.140  1.00  0.00     0.134 A 
ATOM      4  C   UNL     1       3.236  11.782  28.224  1.00  0.00     0.111 A 
ATOM      5  C   UNL     1       2.001  12.468  28.324  1.00  0.00     0.146 A 
ATOM      6  C   UNL     1       1.039  12.072  29.256  1.00  0.00     0.094 A 
ATOM      7  O   UNL     1       1.730  13.496  27.533  1.00  0.00    -0.452 OA
ATOM      8  C   UNL     1       2.560  13.942  26.599  1.00  0.00     0.180 A 
ATOM      9  C   UNL     1       3.780  13.281  26.363  1.00  0.00     0.210 A 
ATOM     10  C   UNL     1       4.112  12.175  27.182  1.00  0.00     0.239 A 
ATOM     11  O   UNL     1       5.159  11.521  26.950  1.00  0.00    -0.285 OA
ENDROOT
BRANCH   1  12
ATOM     12  O   UNL     1       0.255  10.621  31.002  1.00  0.00    -0.496 OA
ATOM     13  C   UNL     1      -1.124  10.929  30.829  1.00  0.00     0.278 C 
ENDBRANCH   1  12
BRANCH   3  14
ATOM     14  O   UNL     1       4.722  10.053  29.230  1.00  0.00    -0.507 OA
ATOM     15  H   UNL     1       5.622  10.492  29.100  1.00  0.00     0.293 HD
ENDBRANCH   3  14
BRANCH   8  16
ATOM     16  C   UNL     1       2.142  15.124  25.810  1.00  0.00     0.025 A 
ATOM     17  C   UNL     1       2.492  16.410  26.252  1.00  0.00     0.062 A 
ATOM     18  C   UNL     1       1.453  14.982  24.593  1.00  0.00     0.016 A 
ATOM     19  C   UNL     1       2.127  17.543  25.510  1.00  0.00     0.158 A 
ATOM     20  C   UNL     1       1.090  16.110  23.851  1.00  0.00     0.051 A 
ATOM     21  C   UNL     1       1.422  17.393  24.309  1.00  0.00     0.157 A 
BRANCH  19  22
ATOM     22  O   UNL     1       2.462  18.818  25.958  1.00  0.00    -0.504 OA
ATOM     23  H   UNL     1       1.880  19.623  25.751  1.00  0.00     0.293 HD
ENDBRANCH  19  22
BRANCH  21  24
ATOM     24  O   UNL     1       1.061  18.520  23.574  1.00  0.00    -0.504 OA
ATOM     25  H   UNL     1       0.288  18.500  22.917  1.00  0.00     0.293 HD
ENDBRANCH  21  24
ENDBRANCH   8  16
BRANCH   9  26
ATOM     26  O   UNL     1       4.588  13.734  25.300  1.00  0.00    -0.490 OA
ATOM     27  C   UNL     1       5.631  14.700  25.378  1.00  0.00     0.278 C 
ENDBRANCH   9  26
TORSDOF 6
ENDMDL
MODEL 4
REMARK VINA RESULT:    -4.505      2.485      4.222
REMARK INTER + INTRA:          -4.674
REMARK INTER:                  -4.810
REMARK INTRA:                   0.137
REMARK UNBOUND:                 1.017
REMARK SMILES COc1cc(O)c2c(=O)c(OC)c(-c3ccc(O)c(O)c3)oc2c1
REMARK SMILES IDX 3 1 4 2 5 3 7 4 23 5 24 6 22 7 13 8 10 9 8 10 9 11 2 12 1 13
REMARK SMILES IDX 6 14 14 16 21 17 15 18 19 19 16 20 17 21 20 22 18 24 11 26
REMARK SMILES IDX 12 27
REMARK H PARENT 6 15 20 23 18 25
REMARK Flexibility Score: inf
ROOT
ATOM      1  C   UNL     1       3.188  10.972  28.759  1.00  0.00     0.126 A 
ATOM      2  C   UNL     1       4.049  10.701  27.685  1.00  0.00     0.093 A 
ATOM      3  C   UNL     1       4.210  11.617  26.638  1.00  0.00     0.134 A 
ATOM      4  C   UNL     1       3.433  12.814  26.620  1.00  0.00     0.111 A 
ATOM      5  C   UNL     1       2.593  13.086  27.727  1.00  0.00     0.146 A 
ATOM      6  C   UNL     1       2.481  12.173  28.778  1.00  0.00     0.094 A 
ATOM      7  O   UNL     1       1.891  14.208  27.786  1.00  0.00    -0.452 OA
ATOM      8  C   UNL     1       1.904  15.132  26.835  1.00  0.00     0.180 A 
ATOM      9  C   UNL     1       2.644  14.924  25.656  1.00  0.00     0.210 A 
ATOM     10  C   UNL     1       3.408  13.737  25.547  1.00  0.00     0.239 A 
ATOM     11  O   UNL     1       4.022  13.489  24.479  1.00  0.00    -0.285 OA
ENDROOT
BRANCH   1  12
ATOM     12  O   UNL     1       3.016  10.083  29.831  1.00  0.00    -0.496 OA
ATOM     13  C   UNL     1       3.972   9.875  30.866  1.00  0.00     0.278 C 
ENDBRANCH   1  12
BRANCH   3  14
ATOM     14  O   UNL     1       5.170  11.299  25.673  1.00  0.00    -0.507 OA
ATOM     15  H   UNL     1       6.021  11.821  25.520  1.00  0.00     0.293 HD
ENDBRANCH   3  14
BRANCH   8  16
ATOM     16  C   UNL     1       1.097  16.357  27.049  1.00  0.00     0.025 A 
ATOM     17  C   UNL     1       1.740  17.559  27.383  1.00  0.00     0.062 A 
ATOM     18  C   UNL     1      -0.297  16.353  26.865  1.00  0.00     0.016 A 
ATOM     19  C   UNL     1       0.999  18.736  27.568  1.00  0.00     0.158 A 
ATOM     20  C   UNL     1      -1.036  17.525  27.047  1.00  0.00     0.051 A 
ATOM     21  C   UNL     1      -0.392  18.718  27.403  1.00  0.00     0.157 A 
BRANCH  19  22
ATOM     22  O   UNL     1       1.637  19.925  27.914  1.00  0.00    -0.504 OA
ATOM     23  H   UNL     1       2.243  20.411  27.262  1.00  0.00     0.293 HD
ENDBRANCH  19  22
BRANCH  21  24
ATOM     24  O   UNL     1      -1.125  19.888  27.588  1.00  0.00    -0.504 OA
ATOM     25  H   UNL     1      -1.307  20.260  28.514  1.00  0.00     0.293 HD
ENDBRANCH  21  24
ENDBRANCH   8  16
BRANCH   9  26
ATOM     26  O   UNL     1       2.555  15.892  24.634  1.00  0.00    -0.490 OA
ATOM     27  C   UNL     1       1.373  16.312  23.963  1.00  0.00     0.278 C 
ENDBRANCH   9  26
TORSDOF 6
ENDMDL
MODEL 5
REMARK VINA RESULT:    -4.242      1.687      6.560
REMARK INTER + INTRA:          -4.341
REMARK INTER:                  -4.039
REMARK INTRA:                  -0.302
REMARK UNBOUND:                 1.017
REMARK SMILES COc1cc(O)c2c(=O)c(OC)c(-c3ccc(O)c(O)c3)oc2c1
REMARK SMILES IDX 3 1 4 2 5 3 7 4 23 5 24 6 22 7 13 8 10 9 8 10 9 11 2 12 1 13
REMARK SMILES IDX 6 14 14 16 21 17 15 18 19 19 16 20 17 21 20 22 18 24 11 26
REMARK SMILES IDX 12 27
REMARK H PARENT 6 15 20 23 18 25
REMARK Flexibility Score: inf
ROOT
ATOM      1  C   UNL     1      -0.879  20.378  28.179  1.00  0.00     0.126 A 
ATOM      2  C   UNL     1      -0.837  20.954  26.900  1.00  0.00     0.093 A 
ATOM      3  C   UNL     1      -0.609  20.171  25.762  1.00  0.00     0.134 A 
ATOM      4  C   UNL     1      -0.342  18.777  25.904  1.00  0.00     0.111 A 
ATOM      5  C   UNL     1      -0.418  18.207  27.198  1.00  0.00     0.146 A 
ATOM      6  C   UNL     1      -0.686  19.005  28.314  1.00  0.00     0.094 A 
ATOM      7  O   UNL     1      -0.231  16.908  27.380  1.00  0.00    -0.452 OA
ATOM      8  C   UNL     1       0.052  16.064  26.397  1.00  0.00     0.180 A 
ATOM      9  C   UNL     1       0.228  16.539  25.085  1.00  0.00     0.210 A 
ATOM     10  C   UNL     1       0.041  17.921  24.843  1.00  0.00     0.239 A 
ATOM     11  O   UNL     1       0.262  18.388  23.697  1.00  0.00    -0.285 OA
ENDROOT
BRANCH   1  12
ATOM     12  O   UNL     1      -1.120  21.132  29.338  1.00  0.00    -0.496 OA
ATOM     13  C   UNL     1      -0.886  22.533  29.451  1.00  0.00     0.278 C 
ENDBRANCH   1  12
BRANCH   3  14
ATOM     14  O   UNL     1      -0.694  20.825  24.529  1.00  0.00    -0.507 OA
ATOM     15  H   UNL     1      -0.829  21.819  24.417  1.00  0.00     0.293 HD
ENDBRANCH   3  14
BRANCH   8  16
ATOM     16  C   UNL     1       0.201  14.629  26.739  1.00  0.00     0.025 A 
ATOM     17  C   UNL     1       1.463  14.132  27.101  1.00  0.00     0.062 A 
ATOM     18  C   UNL     1      -0.909  13.767  26.767  1.00  0.00     0.016 A 
ATOM     19  C   UNL     1       1.624  12.783  27.451  1.00  0.00     0.158 A 
ATOM     20  C   UNL     1      -0.751  12.424  27.117  1.00  0.00     0.051 A 
ATOM     21  C   UNL     1       0.515  11.926  27.456  1.00  0.00     0.157 A 
BRANCH  19  22
ATOM     22  O   UNL     1       2.879  12.288  27.795  1.00  0.00    -0.504 OA
ATOM     23  H   UNL     1       3.731  12.757  27.509  1.00  0.00     0.293 HD
ENDBRANCH  19  22
BRANCH  21  24
ATOM     24  O   UNL     1       0.678  10.587  27.803  1.00  0.00    -0.504 OA
ATOM     25  H   UNL     1       1.478  10.271  28.340  1.00  0.00     0.293 HD
ENDBRANCH  21  24
ENDBRANCH   8  16
BRANCH   9  26
ATOM     26  O   UNL     1       0.618  15.619  24.090  1.00  0.00    -0.490 OA
ATOM     27  C   UNL     1       1.940  15.161  23.826  1.00  0.00     0.278 C 
ENDBRANCH   9  26
TORSDOF 6
ENDMDL
MODEL 6
REMARK VINA RESULT:    -4.043      2.478      4.373
REMARK INTER + INTRA:          -4.090
REMARK INTER:                  -3.987
REMARK INTRA:                  -0.102
REMARK UNBOUND:                 1.017
REMARK SMILES COc1cc(O)c2c(=O)c(OC)c(-c3ccc(O)c(O)c3)oc2c1
REMARK SMILES IDX 3 1 4 2 5 3 7 4 23 5 24 6 22 7 13 8 10 9 8 10 9 11 2 12 1 13
REMARK SMILES IDX 6 14 14 16 21 17 15 18 19 19 16 20 17 21 20 22 18 24 11 26
REMARK SMILES IDX 12 27
REMARK H PARENT 6 15 20 23 18 25
REMARK Flexibility Score: inf
ROOT
ATOM      1  C   UNL     1       0.015  11.493  28.200  1.00  0.00     0.126 A 
ATOM      2  C   UNL     1       1.282  11.017  27.826  1.00  0.00     0.093 A 
ATOM      3  C   UNL     1       2.189  11.837  27.145  1.00  0.00     0.134 A 
ATOM      4  C   UNL     1       1.799  13.154  26.757  1.00  0.00     0.111 A 
ATOM      5  C   UNL     1       0.530  13.628  27.169  1.00  0.00     0.146 A 
ATOM      6  C   UNL     1      -0.342  12.802  27.883  1.00  0.00     0.094 A 
ATOM      7  O   UNL     1       0.139  14.860  26.881  1.00  0.00    -0.452 OA
ATOM      8  C   UNL     1       0.876  15.720  26.189  1.00  0.00     0.180 A 
ATOM      9  C   UNL     1       2.120  15.324  25.665  1.00  0.00     0.210 A 
ATOM     10  C   UNL     1       2.578  14.014  25.944  1.00  0.00     0.239 A 
ATOM     11  O   UNL     1       3.650  13.607  25.431  1.00  0.00    -0.285 OA
ENDROOT
BRANCH   1  12
ATOM     12  O   UNL     1      -0.912  10.702  28.897  1.00  0.00    -0.496 OA
ATOM     13  C   UNL     1      -0.988  10.613  30.317  1.00  0.00     0.278 C 
ENDBRANCH   1  12
BRANCH   3  14
ATOM     14  O   UNL     1       3.460  11.303  26.915  1.00  0.00    -0.507 OA
ATOM     15  H   UNL     1       3.766  10.396  27.236  1.00  0.00     0.293 HD
ENDBRANCH   3  14
BRANCH   8  16
ATOM     16  C   UNL     1       0.329  17.080  25.971  1.00  0.00     0.025 A 
ATOM     17  C   UNL     1       0.482  18.055  26.969  1.00  0.00     0.062 A 
ATOM     18  C   UNL     1      -0.289  17.432  24.758  1.00  0.00     0.016 A 
ATOM     19  C   UNL     1      -0.007  19.356  26.776  1.00  0.00     0.158 A 
ATOM     20  C   UNL     1      -0.775  18.728  24.564  1.00  0.00     0.051 A 
ATOM     21  C   UNL     1      -0.639  19.692  25.572  1.00  0.00     0.157 A 
BRANCH  19  22
ATOM     22  O   UNL     1       0.134  20.319  27.773  1.00  0.00    -0.504 OA
ATOM     23  H   UNL     1      -0.646  20.588  28.364  1.00  0.00     0.293 HD
ENDBRANCH  19  22
BRANCH  21  24
ATOM     24  O   UNL     1      -1.125  20.984  25.383  1.00  0.00    -0.504 OA
ATOM     25  H   UNL     1      -0.525  21.796  25.480  1.00  0.00     0.293 HD
ENDBRANCH  21  24
ENDBRANCH   8  16
BRANCH   9  26
ATOM     26  O   UNL     1       2.826  16.242  24.860  1.00  0.00    -0.490 OA
ATOM     27  C   UNL     1       3.455  17.444  25.292  1.00  0.00     0.278 C 
ENDBRANCH   9  26
TORSDOF 6
ENDMDL
MODEL 7
REMARK VINA RESULT:    -3.515      2.628      4.252
REMARK INTER + INTRA:          -3.423
REMARK INTER:                  -3.527
REMARK INTRA:                   0.104
REMARK UNBOUND:                 1.017
REMARK SMILES COc1cc(O)c2c(=O)c(OC)c(-c3ccc(O)c(O)c3)oc2c1
REMARK SMILES IDX 3 1 4 2 5 3 7 4 23 5 24 6 22 7 13 8 10 9 8 10 9 11 2 12 1 13
REMARK SMILES IDX 6 14 14 16 21 17 15 18 19 19 16 20 17 21 20 22 18 24 11 26
REMARK SMILES IDX 12 27
REMARK H PARENT 6 15 20 23 18 25
REMARK Flexibility Score: inf
ROOT
ATOM      1  C   UNL     1       5.454  14.462  25.302  1.00  0.00     0.126 A 
ATOM      2  C   UNL     1       4.853  13.239  25.637  1.00  0.00     0.093 A 
ATOM      3  C   UNL     1       3.492  13.165  25.956  1.00  0.00     0.134 A 
ATOM      4  C   UNL     1       2.714  14.359  26.016  1.00  0.00     0.111 A 
ATOM      5  C   UNL     1       3.327  15.580  25.645  1.00  0.00     0.146 A 
ATOM      6  C   UNL     1       4.679  15.621  25.292  1.00  0.00     0.094 A 
ATOM      7  O   UNL     1       2.637  16.711  25.631  1.00  0.00    -0.452 OA
ATOM      8  C   UNL     1       1.357  16.792  25.970  1.00  0.00     0.180 A 
ATOM      9  C   UNL     1       0.673  15.651  26.429  1.00  0.00     0.210 A 
ATOM     10  C   UNL     1       1.372  14.420  26.464  1.00  0.00     0.239 A 
ATOM     11  O   UNL     1       0.811  13.400  26.937  1.00  0.00    -0.285 OA
ENDROOT
BRANCH   1  12
ATOM     12  O   UNL     1       6.812  14.568  24.963  1.00  0.00    -0.496 OA
ATOM     13  C   UNL     1       7.414  15.733  24.406  1.00  0.00     0.278 C 
ENDBRANCH   1  12
BRANCH   3  14
ATOM     14  O   UNL     1       2.970  11.885  26.169  1.00  0.00    -0.507 OA
ATOM     15  H   UNL     1       3.200  11.074  25.613  1.00  0.00     0.293 HD
ENDBRANCH   3  14
BRANCH   8  16
ATOM     16  C   UNL     1       0.698  18.116  25.874  1.00  0.00     0.025 A 
ATOM     17  C   UNL     1       0.961  19.091  26.849  1.00  0.00     0.062 A 
ATOM     18  C   UNL     1      -0.138  18.438  24.791  1.00  0.00     0.016 A 
ATOM     19  C   UNL     1       0.367  20.360  26.766  1.00  0.00     0.158 A 
ATOM     20  C   UNL     1      -0.729  19.702  24.707  1.00  0.00     0.051 A 
ATOM     21  C   UNL     1      -0.482  20.665  25.695  1.00  0.00     0.157 A 
BRANCH  19  22
ATOM     22  O   UNL     1       0.617  21.321  27.743  1.00  0.00    -0.504 OA
ATOM     23  H   UNL     1      -0.046  21.506  28.488  1.00  0.00     0.293 HD
ENDBRANCH  19  22
BRANCH  21  24
ATOM     24  O   UNL     1      -1.071  21.924  25.616  1.00  0.00    -0.504 OA
ATOM     25  H   UNL     1      -1.672  22.277  26.353  1.00  0.00     0.293 HD
ENDBRANCH  21  24
ENDBRANCH   8  16
BRANCH   9  26
ATOM     26  O   UNL     1      -0.660  15.804  26.865  1.00  0.00    -0.490 OA
ATOM     27  C   UNL     1      -1.124  16.677  27.889  1.00  0.00     0.278 C 
ENDBRANCH   9  26
TORSDOF 6
ENDMDL
MODEL 8
REMARK VINA RESULT:    -3.509      2.072      6.749
REMARK INTER + INTRA:          -3.415
REMARK INTER:                  -3.312
REMARK INTRA:                  -0.103
REMARK UNBOUND:                 1.017
REMARK SMILES COc1cc(O)c2c(=O)c(OC)c(-c3ccc(O)c(O)c3)oc2c1
REMARK SMILES IDX 3 1 4 2 5 3 7 4 23 5 24 6 22 7 13 8 10 9 8 10 9 11 2 12 1 13
REMARK SMILES IDX 6 14 14 16 21 17 15 18 19 19 16 20 17 21 20 22 18 24 11 26
REMARK SMILES IDX 12 27
REMARK H PARENT 6 15 20 23 18 25
REMARK Flexibility Score: inf
ROOT
ATOM      1  C   UNL     1      -0.308  19.602  29.335  1.00  0.00     0.126 A 
ATOM      2  C   UNL     1       0.593  20.316  28.529  1.00  0.00     0.093 A 
ATOM      3  C   UNL     1       1.377  19.664  27.569  1.00  0.00     0.134 A 
ATOM      4  C   UNL     1       1.317  18.243  27.453  1.00  0.00     0.111 A 
ATOM      5  C   UNL     1       0.380  17.543  28.251  1.00  0.00     0.146 A 
ATOM      6  C   UNL     1      -0.419  18.222  29.175  1.00  0.00     0.094 A 
ATOM      7  O   UNL     1       0.246  16.229  28.146  1.00  0.00    -0.452 OA
ATOM      8  C   UNL     1       0.968  15.482  27.320  1.00  0.00     0.180 A 
ATOM      9  C   UNL     1       1.981  16.068  26.539  1.00  0.00     0.210 A 
ATOM     10  C   UNL     1       2.163  17.470  26.621  1.00  0.00     0.239 A 
ATOM     11  O   UNL     1       3.106  18.012  25.992  1.00  0.00    -0.285 OA
ENDROOT
BRANCH   1  12
ATOM     12  O   UNL     1      -1.119  20.227  30.295  1.00  0.00    -0.496 OA
ATOM     13  C   UNL     1      -0.692  20.568  31.610  1.00  0.00     0.278 C 
ENDBRANCH   1  12
BRANCH   3  14
ATOM     14  O   UNL     1       2.161  20.479  26.747  1.00  0.00    -0.507 OA
ATOM     15  H   UNL     1       2.690  21.276  27.070  1.00  0.00     0.293 HD
ENDBRANCH   3  14
BRANCH   8  16
ATOM     16  C   UNL     1       0.687  14.028  27.279  1.00  0.00     0.025 A 
ATOM     17  C   UNL     1       1.604  13.130  27.848  1.00  0.00     0.062 A 
ATOM     18  C   UNL     1      -0.510  13.531  26.733  1.00  0.00     0.016 A 
ATOM     19  C   UNL     1       1.349  11.751  27.841  1.00  0.00     0.158 A 
ATOM     20  C   UNL     1      -0.766  12.158  26.727  1.00  0.00     0.051 A 
ATOM     21  C   UNL     1       0.163  11.263  27.277  1.00  0.00     0.157 A 
BRANCH  19  22
ATOM     22  O   UNL     1       2.266  10.860  28.394  1.00  0.00    -0.504 OA
ATOM     23  H   UNL     1       2.584  10.042  27.884  1.00  0.00     0.293 HD
ENDBRANCH  19  22
BRANCH  21  24
ATOM     24  O   UNL     1      -0.088   9.893  27.270  1.00  0.00    -0.504 OA
ATOM     25  H   UNL     1      -0.153   9.369  26.404  1.00  0.00     0.293 HD
ENDBRANCH  21  24
ENDBRANCH   8  16
BRANCH   9  26
ATOM     26  O   UNL     1       2.783  15.223  25.745  1.00  0.00    -0.490 OA
ATOM     27  C   UNL     1       4.205  15.173  25.726  1.00  0.00     0.278 C 
ENDBRANCH   9  26
TORSDOF 6
ENDMDL
MODEL 9
REMARK VINA RESULT:    -3.484      2.931      7.787
REMARK INTER + INTRA:          -3.384
REMARK INTER:                  -3.175
REMARK INTRA:                  -0.208
REMARK UNBOUND:                 1.017
REMARK SMILES COc1cc(O)c2c(=O)c(OC)c(-c3ccc(O)c(O)c3)oc2c1
REMARK SMILES IDX 3 1 4 2 5 3 7 4 23 5 24 6 22 7 13 8 10 9 8 10 9 11 2 12 1 13
REMARK SMILES IDX 6 14 14 16 21 17 15 18 19 19 16 20 17 21 20 22 18 24 11 26
REMARK SMILES IDX 12 27
REMARK H PARENT 6 15 20 23 18 25
REMARK Flexibility Score: inf
ROOT
ATOM      1  C   UNL     1       2.106  18.697  27.020  1.00  0.00     0.126 A 
ATOM      2  C   UNL     1       0.753  18.509  27.344  1.00  0.00     0.093 A 
ATOM      3  C   UNL     1       0.201  17.224  27.421  1.00  0.00     0.134 A 
ATOM      4  C   UNL     1       1.002  16.089  27.095  1.00  0.00     0.111 A 
ATOM      5  C   UNL     1       2.372  16.295  26.801  1.00  0.00     0.146 A 
ATOM      6  C   UNL     1       2.908  17.585  26.769  1.00  0.00     0.094 A 
ATOM      7  O   UNL     1       3.172  15.272  26.543  1.00  0.00    -0.452 OA
ATOM      8  C   UNL     1       2.765  14.009  26.524  1.00  0.00     0.180 A 
ATOM      9  C   UNL     1       1.407  13.701  26.725  1.00  0.00     0.210 A 
ATOM     10  C   UNL     1       0.513  14.763  27.001  1.00  0.00     0.239 A 
ATOM     11  O   UNL     1      -0.716  14.529  27.113  1.00  0.00    -0.285 OA
ENDROOT
BRANCH   1  12
ATOM     12  O   UNL     1       2.694  19.970  26.949  1.00  0.00    -0.496 OA
ATOM     13  C   UNL     1       2.118  21.154  27.492  1.00  0.00     0.278 C 
ENDBRANCH   1  12
BRANCH   3  14
ATOM     14  O   UNL     1      -1.125  17.141  27.856  1.00  0.00    -0.507 OA
ATOM     15  H   UNL     1      -1.929  17.344  27.280  1.00  0.00     0.293 HD
ENDBRANCH   3  14
BRANCH   8  16
ATOM     16  C   UNL     1       3.777  12.960  26.256  1.00  0.00     0.025 A 
ATOM     17  C   UNL     1       4.064  12.008  27.247  1.00  0.00     0.062 A 
ATOM     18  C   UNL     1       4.413  12.862  25.007  1.00  0.00     0.016 A 
ATOM     19  C   UNL     1       5.002  10.992  27.008  1.00  0.00     0.158 A 
ATOM     20  C   UNL     1       5.346  11.850  24.767  1.00  0.00     0.051 A 
ATOM     21  C   UNL     1       5.646  10.914  25.767  1.00  0.00     0.157 A 
BRANCH  19  22
ATOM     22  O   UNL     1       5.296  10.056  27.998  1.00  0.00    -0.504 OA
ATOM     23  H   UNL     1       6.245   9.914  28.327  1.00  0.00     0.293 HD
ENDBRANCH  19  22
BRANCH  21  24
ATOM     24  O   UNL     1       6.577   9.905  25.533  1.00  0.00    -0.504 OA
ATOM     25  H   UNL     1       7.001   9.775  24.621  1.00  0.00     0.293 HD
ENDBRANCH  21  24
ENDBRANCH   8  16
BRANCH   9  26
ATOM     26  O   UNL     1       1.005  12.355  26.604  1.00  0.00    -0.490 OA
ATOM     27  C   UNL     1       0.649  11.476  27.666  1.00  0.00     0.278 C 
ENDBRANCH   9  26
TORSDOF 6
ENDMDL
