MODEL 1
REMARK VINA RESULT:    -5.241      0.000      0.000
REMARK INTER + INTRA:          -6.146
REMARK INTER:                  -6.006
REMARK INTRA:                  -0.139
REMARK UNBOUND:                -0.139
REMARK SMILES O=C([O-])C=Cc1ccc(O)cc1
REMARK SMILES IDX 6 1 7 2 12 3 8 4 11 5 9 6 5 7 4 8 2 9 1 10 3 11 10 12
REMARK H PARENT 10 13
REMARK Flexibility Score: inf
ROOT
ATOM      1  C   UNL     1      21.352  43.184  16.829  1.00  0.00    -0.025 A 
ATOM      2  C   UNL     1      20.315  43.734  17.600  1.00  0.00     0.012 A 
ATOM      3  C   UNL     1      21.195  43.115  15.429  1.00  0.00     0.012 A 
ATOM      4  C   UNL     1      19.157  44.226  16.990  1.00  0.00     0.047 A 
ATOM      5  C   UNL     1      20.035  43.608  14.822  1.00  0.00     0.047 A 
ATOM      6  C   UNL     1      19.016  44.166  15.599  1.00  0.00     0.115 A 
ENDROOT
BRANCH   1   7
ATOM      7  C   UNL     1      22.556  42.666  17.523  1.00  0.00     0.010 C 
ATOM      8  C   UNL     1      22.532  41.660  18.410  1.00  0.00     0.025 C 
BRANCH   8   9
ATOM      9  C   UNL     1      23.750  41.164  19.072  1.00  0.00     0.064 C 
ATOM     10  O   UNL     1      24.626  40.524  18.430  1.00  0.00    -0.545 OA
ATOM     11  O   UNL     1      23.939  41.407  20.425  1.00  0.00    -0.545 OA
ENDBRANCH   8   9
ENDBRANCH   1   7
BRANCH   6  12
ATOM     12  O   UNL     1      17.868  44.654  14.979  1.00  0.00    -0.508 OA
ATOM     13  H   UNL     1      16.952  44.269  15.182  1.00  0.00     0.293 HD
ENDBRANCH   6  12
TORSDOF 3
ENDMDL
MODEL 2
REMARK VINA RESULT:    -5.200      0.186      1.410
REMARK INTER + INTRA:          -6.099
REMARK INTER:                  -5.965
REMARK INTRA:                  -0.134
REMARK UNBOUND:                -0.139
REMARK SMILES O=C([O-])C=Cc1ccc(O)cc1
REMARK SMILES IDX 6 1 7 2 12 3 8 4 11 5 9 6 5 7 4 8 2 9 1 10 3 11 10 12
REMARK H PARENT 10 13
REMARK Flexibility Score: inf
ROOT
ATOM      1  C   UNL     1      21.372  43.171  16.860  1.00  0.00    -0.025 A 
ATOM      2  C   UNL     1      21.243  43.177  15.461  1.00  0.00     0.012 A 
ATOM      3  C   UNL     1      20.334  43.720  17.640  1.00  0.00     0.012 A 
ATOM      4  C   UNL     1      20.095  43.696  14.853  1.00  0.00     0.047 A 
ATOM      5  C   UNL     1      19.187  44.238  17.029  1.00  0.00     0.047 A 
ATOM      6  C   UNL     1      19.064  44.226  15.638  1.00  0.00     0.115 A 
ENDROOT
BRANCH   1   7
ATOM      7  C   UNL     1      22.613  42.618  17.456  1.00  0.00     0.010 C 
ATOM      8  C   UNL     1      22.637  41.571  18.293  1.00  0.00     0.025 C 
BRANCH   8   9
ATOM      9  C   UNL     1      23.891  41.043  18.856  1.00  0.00     0.064 C 
ATOM     10  O   UNL     1      24.693  40.375  18.150  1.00  0.00    -0.545 OA
ATOM     11  O   UNL     1      24.196  41.286  20.188  1.00  0.00    -0.545 OA
ENDBRANCH   8   9
ENDBRANCH   1   7
BRANCH   6  12
ATOM     12  O   UNL     1      17.915  44.745  15.045  1.00  0.00    -0.508 OA
ATOM     13  H   UNL     1      17.955  45.255  14.169  1.00  0.00     0.293 HD
ENDBRANCH   6  12
TORSDOF 3
ENDMDL
MODEL 3
REMARK VINA RESULT:    -4.970     11.635     13.014
REMARK INTER + INTRA:          -5.835
REMARK INTER:                  -5.694
REMARK INTRA:                  -0.141
REMARK UNBOUND:                -0.139
REMARK SMILES O=C([O-])C=Cc1ccc(O)cc1
REMARK SMILES IDX 6 1 7 2 12 3 8 4 11 5 9 6 5 7 4 8 2 9 1 10 3 11 10 12
REMARK H PARENT 10 13
REMARK Flexibility Score: inf
ROOT
ATOM      1  C   UNL     1      14.760  51.356  11.345  1.00  0.00    -0.025 A 
ATOM      2  C   UNL     1      15.953  50.614  11.343  1.00  0.00     0.012 A 
ATOM      3  C   UNL     1      13.823  51.140  10.313  1.00  0.00     0.012 A 
ATOM      4  C   UNL     1      16.197  49.661  10.349  1.00  0.00     0.047 A 
ATOM      5  C   UNL     1      14.071  50.186   9.321  1.00  0.00     0.047 A 
ATOM      6  C   UNL     1      15.255  49.443   9.338  1.00  0.00     0.115 A 
ENDROOT
BRANCH   1   7
ATOM      7  C   UNL     1      14.551  52.363  12.415  1.00  0.00     0.010 C 
ATOM      8  C   UNL     1      15.356  53.416  12.616  1.00  0.00     0.025 C 
BRANCH   8   9
ATOM      9  C   UNL     1      15.110  54.402  13.681  1.00  0.00     0.064 C 
ATOM     10  O   UNL     1      13.957  54.569  14.162  1.00  0.00    -0.545 OA
ATOM     11  O   UNL     1      16.167  55.160  14.166  1.00  0.00    -0.545 OA
ENDBRANCH   8   9
ENDBRANCH   1   7
BRANCH   6  12
ATOM     12  O   UNL     1      15.487  48.496   8.343  1.00  0.00    -0.508 OA
ATOM     13  H   UNL     1      15.390  48.726   7.360  1.00  0.00     0.293 HD
ENDBRANCH   6  12
TORSDOF 3
ENDMDL
MODEL 4
REMARK VINA RESULT:    -4.839      9.063     11.415
REMARK INTER + INTRA:          -5.686
REMARK INTER:                  -5.546
REMARK INTRA:                  -0.140
REMARK UNBOUND:                -0.139
REMARK SMILES O=C([O-])C=Cc1ccc(O)cc1
REMARK SMILES IDX 6 1 7 2 12 3 8 4 11 5 9 6 5 7 4 8 2 9 1 10 3 11 10 12
REMARK H PARENT 10 13
REMARK Flexibility Score: inf
ROOT
ATOM      1  C   UNL     1      21.312  38.891   8.387  1.00  0.00    -0.025 A 
ATOM      2  C   UNL     1      21.181  39.349   9.709  1.00  0.00     0.012 A 
ATOM      3  C   UNL     1      22.603  38.789   7.829  1.00  0.00     0.012 A 
ATOM      4  C   UNL     1      22.311  39.674  10.466  1.00  0.00     0.047 A 
ATOM      5  C   UNL     1      23.731  39.116   8.589  1.00  0.00     0.047 A 
ATOM      6  C   UNL     1      23.588  39.556   9.908  1.00  0.00     0.115 A 
ENDROOT
BRANCH   1   7
ATOM      7  C   UNL     1      20.083  38.569   7.621  1.00  0.00     0.010 C 
ATOM      8  C   UNL     1      20.051  38.424   6.289  1.00  0.00     0.025 C 
BRANCH   8   9
ATOM      9  C   UNL     1      18.813  38.092   5.564  1.00  0.00     0.064 C 
ATOM     10  O   UNL     1      17.872  38.924   5.465  1.00  0.00    -0.545 OA
ATOM     11  O   UNL     1      18.681  36.841   4.976  1.00  0.00    -0.545 OA
ENDBRANCH   8   9
ENDBRANCH   1   7
BRANCH   6  12
ATOM     12  O   UNL     1      24.722  39.876  10.652  1.00  0.00    -0.508 OA
ATOM     13  H   UNL     1      24.813  39.598  11.623  1.00  0.00     0.293 HD
ENDBRANCH   6  12
TORSDOF 3
ENDMDL
MODEL 5
REMARK VINA RESULT:    -4.818      9.044     11.450
REMARK INTER + INTRA:          -5.662
REMARK INTER:                  -5.513
REMARK INTRA:                  -0.148
REMARK UNBOUND:                -0.139
REMARK SMILES O=C([O-])C=Cc1ccc(O)cc1
REMARK SMILES IDX 6 1 7 2 12 3 8 4 11 5 9 6 5 7 4 8 2 9 1 10 3 11 10 12
REMARK H PARENT 10 13
REMARK Flexibility Score: inf
ROOT
ATOM      1  C   UNL     1      21.283  38.842   8.475  1.00  0.00    -0.025 A 
ATOM      2  C   UNL     1      22.549  38.780   7.869  1.00  0.00     0.012 A 
ATOM      3  C   UNL     1      21.195  39.238   9.825  1.00  0.00     0.012 A 
ATOM      4  C   UNL     1      23.700  39.129   8.584  1.00  0.00     0.047 A 
ATOM      5  C   UNL     1      22.348  39.586  10.538  1.00  0.00     0.047 A 
ATOM      6  C   UNL     1      23.600  39.534   9.919  1.00  0.00     0.115 A 
ENDROOT
BRANCH   1   7
ATOM      7  C   UNL     1      20.094  38.452   7.678  1.00  0.00     0.010 C 
ATOM      8  C   UNL     1      20.062  38.450   6.338  1.00  0.00     0.025 C 
BRANCH   8   9
ATOM      9  C   UNL     1      18.866  38.045   5.580  1.00  0.00     0.064 C 
ATOM     10  O   UNL     1      18.745  36.874   5.130  1.00  0.00    -0.545 OA
ATOM     11  O   UNL     1      17.853  38.968   5.359  1.00  0.00    -0.545 OA
ENDBRANCH   8   9
ENDBRANCH   1   7
BRANCH   6  12
ATOM     12  O   UNL     1      24.738  39.885  10.642  1.00  0.00    -0.508 OA
ATOM     13  H   UNL     1      25.163  39.245  11.304  1.00  0.00     0.293 HD
ENDBRANCH   6  12
TORSDOF 3
ENDMDL
MODEL 6
REMARK VINA RESULT:    -4.773      1.806      2.479
REMARK INTER + INTRA:          -5.610
REMARK INTER:                  -5.475
REMARK INTRA:                  -0.135
REMARK UNBOUND:                -0.139
REMARK SMILES O=C([O-])C=Cc1ccc(O)cc1
REMARK SMILES IDX 6 1 7 2 12 3 8 4 11 5 9 6 5 7 4 8 2 9 1 10 3 11 10 12
REMARK H PARENT 10 13
REMARK Flexibility Score: inf
ROOT
ATOM      1  C   UNL     1      20.537  42.708  17.076  1.00  0.00    -0.025 A 
ATOM      2  C   UNL     1      20.742  42.527  15.698  1.00  0.00     0.012 A 
ATOM      3  C   UNL     1      19.833  43.848  17.514  1.00  0.00     0.012 A 
ATOM      4  C   UNL     1      20.237  43.448  14.775  1.00  0.00     0.047 A 
ATOM      5  C   UNL     1      19.329  44.768  16.588  1.00  0.00     0.047 A 
ATOM      6  C   UNL     1      19.527  44.569  15.219  1.00  0.00     0.115 A 
ENDROOT
BRANCH   1   7
ATOM      7  C   UNL     1      21.102  41.708  18.016  1.00  0.00     0.010 C 
ATOM      8  C   UNL     1      20.549  41.399  19.197  1.00  0.00     0.025 C 
BRANCH   8   9
ATOM      9  C   UNL     1      21.132  40.393  20.100  1.00  0.00     0.064 C 
ATOM     10  O   UNL     1      21.919  40.726  21.027  1.00  0.00    -0.545 OA
ATOM     11  O   UNL     1      20.810  39.054  19.929  1.00  0.00    -0.545 OA
ENDBRANCH   8   9
ENDBRANCH   1   7
BRANCH   6  12
ATOM     12  O   UNL     1      19.017  45.494  14.310  1.00  0.00    -0.508 OA
ATOM     13  H   UNL     1      18.826  46.452  14.580  1.00  0.00     0.293 HD
ENDBRANCH   6  12
TORSDOF 3
ENDMDL
MODEL 7
REMARK VINA RESULT:    -4.680      4.558      5.382
REMARK INTER + INTRA:          -5.503
REMARK INTER:                  -5.354
REMARK INTRA:                  -0.149
REMARK UNBOUND:                -0.139
REMARK SMILES O=C([O-])C=Cc1ccc(O)cc1
REMARK SMILES IDX 6 1 7 2 12 3 8 4 11 5 9 6 5 7 4 8 2 9 1 10 3 11 10 12
REMARK H PARENT 10 13
REMARK Flexibility Score: inf
ROOT
ATOM      1  C   UNL     1      19.760  39.044  19.850  1.00  0.00    -0.025 A 
ATOM      2  C   UNL     1      19.087  39.800  18.876  1.00  0.00     0.012 A 
ATOM      3  C   UNL     1      19.178  37.840  20.298  1.00  0.00     0.012 A 
ATOM      4  C   UNL     1      17.873  39.354  18.341  1.00  0.00     0.047 A 
ATOM      5  C   UNL     1      17.964  37.398  19.761  1.00  0.00     0.047 A 
ATOM      6  C   UNL     1      17.312  38.151  18.781  1.00  0.00     0.115 A 
ENDROOT
BRANCH   1   7
ATOM      7  C   UNL     1      21.039  39.563  20.394  1.00  0.00     0.010 C 
ATOM      8  C   UNL     1      21.896  40.319  19.694  1.00  0.00     0.025 C 
BRANCH   8   9
ATOM      9  C   UNL     1      23.151  40.827  20.271  1.00  0.00     0.064 C 
ATOM     10  O   UNL     1      23.284  40.972  21.517  1.00  0.00    -0.545 OA
ATOM     11  O   UNL     1      24.208  41.149  19.432  1.00  0.00    -0.545 OA
ENDBRANCH   8   9
ENDBRANCH   1   7
BRANCH   6  12
ATOM     12  O   UNL     1      16.104  37.696  18.256  1.00  0.00    -0.508 OA
ATOM     13  H   UNL     1      15.382  38.341  17.955  1.00  0.00     0.293 HD
ENDBRANCH   6  12
TORSDOF 3
ENDMDL
MODEL 8
REMARK VINA RESULT:    -4.657      9.349     11.265
REMARK INTER + INTRA:          -5.476
REMARK INTER:                  -5.323
REMARK INTRA:                  -0.153
REMARK UNBOUND:                -0.139
REMARK SMILES O=C([O-])C=Cc1ccc(O)cc1
REMARK SMILES IDX 6 1 7 2 12 3 8 4 11 5 9 6 5 7 4 8 2 9 1 10 3 11 10 12
REMARK H PARENT 10 13
REMARK Flexibility Score: inf
ROOT
ATOM      1  C   UNL     1      21.696  38.877   8.147  1.00  0.00    -0.025 A 
ATOM      2  C   UNL     1      20.497  38.851   8.879  1.00  0.00     0.012 A 
ATOM      3  C   UNL     1      22.845  39.434   8.746  1.00  0.00     0.012 A 
ATOM      4  C   UNL     1      20.450  39.345  10.187  1.00  0.00     0.047 A 
ATOM      5  C   UNL     1      22.794  39.928  10.053  1.00  0.00     0.047 A 
ATOM      6  C   UNL     1      21.599  39.882  10.777  1.00  0.00     0.115 A 
ENDROOT
BRANCH   1   7
ATOM      7  C   UNL     1      21.694  38.351   6.760  1.00  0.00     0.010 C 
ATOM      8  C   UNL     1      20.580  38.044   6.080  1.00  0.00     0.025 C 
BRANCH   8   9
ATOM      9  C   UNL     1      20.616  37.534   4.699  1.00  0.00     0.064 C 
ATOM     10  O   UNL     1      21.710  37.308   4.116  1.00  0.00    -0.545 OA
ATOM     11  O   UNL     1      19.425  37.296   4.028  1.00  0.00    -0.545 OA
ENDBRANCH   8   9
ENDBRANCH   1   7
BRANCH   6  12
ATOM     12  O   UNL     1      21.565  40.376  12.079  1.00  0.00    -0.508 OA
ATOM     13  H   UNL     1      21.773  41.348  12.282  1.00  0.00     0.293 HD
ENDBRANCH   6  12
TORSDOF 3
ENDMDL
MODEL 9
REMARK VINA RESULT:    -4.656      2.922      3.697
REMARK INTER + INTRA:          -5.476
REMARK INTER:                  -5.340
REMARK INTRA:                  -0.136
REMARK UNBOUND:                -0.139
REMARK SMILES O=C([O-])C=Cc1ccc(O)cc1
REMARK SMILES IDX 6 1 7 2 12 3 8 4 11 5 9 6 5 7 4 8 2 9 1 10 3 11 10 12
REMARK H PARENT 10 13
REMARK Flexibility Score: inf
ROOT
ATOM      1  C   UNL     1      19.654  43.072  16.927  1.00  0.00    -0.025 A 
ATOM      2  C   UNL     1      20.433  42.261  16.085  1.00  0.00     0.012 A 
ATOM      3  C   UNL     1      19.081  44.247  16.398  1.00  0.00     0.012 A 
ATOM      4  C   UNL     1      20.618  42.599  14.740  1.00  0.00     0.047 A 
ATOM      5  C   UNL     1      19.268  44.582  15.053  1.00  0.00     0.047 A 
ATOM      6  C   UNL     1      20.033  43.760  14.222  1.00  0.00     0.115 A 
ENDROOT
BRANCH   1   7
ATOM      7  C   UNL     1      19.496  42.676  18.348  1.00  0.00     0.010 C 
ATOM      8  C   UNL     1      18.804  41.601  18.751  1.00  0.00     0.025 C 
BRANCH   8   9
ATOM      9  C   UNL     1      18.679  41.233  20.171  1.00  0.00     0.064 C 
ATOM     10  O   UNL     1      17.652  41.538  20.837  1.00  0.00    -0.545 OA
ATOM     11  O   UNL     1      19.708  40.536  20.789  1.00  0.00    -0.545 OA
ENDBRANCH   8   9
ENDBRANCH   1   7
BRANCH   6  12
ATOM     12  O   UNL     1      20.208  44.107  12.884  1.00  0.00    -0.508 OA
ATOM     13  H   UNL     1      20.295  45.075  12.596  1.00  0.00     0.293 HD
ENDBRANCH   6  12
TORSDOF 3
ENDMDL
