MODEL 1
REMARK VINA RESULT:    -6.617      0.000      0.000
REMARK INTER + INTRA:         -13.198
REMARK INTER:                 -11.645
REMARK INTRA:                  -1.553
REMARK UNBOUND:                -1.553
REMARK SMILES CCCCCCC=CCCCCCCCC(=O)[O-]
REMARK SMILES IDX 10 1 11 2 12 3 13 4 14 5 15 6 16 7 17 8 18 9 9 10 8 11 7 12
REMARK SMILES IDX 6 13 5 14 4 15 3 16 2 17 1 18
REMARK H PARENT
REMARK Flexibility Score: inf
ROOT
ATOM      1  C   UNL     1      20.282  70.380  74.983  1.00  0.00     0.004 C 
ENDROOT
BRANCH   1   2
ATOM      2  C   UNL     1      21.734  70.842  74.787  1.00  0.00     0.000 C 
BRANCH   2   3
ATOM      3  C   UNL     1      21.856  71.996  73.777  1.00  0.00     0.000 C 
BRANCH   3   4
ATOM      4  C   UNL     1      22.262  71.518  72.371  1.00  0.00     0.000 C 
BRANCH   4   5
ATOM      5  C   UNL     1      21.085  71.168  71.438  1.00  0.00     0.006 C 
BRANCH   5   6
ATOM      6  C   UNL     1      20.759  69.667  71.358  1.00  0.00     0.053 C 
BRANCH   6   7
ATOM      7  C   UNL     1      20.543  69.214  69.946  1.00  0.00     0.041 C 
ATOM      8  O   UNL     1      19.961  68.122  69.714  1.00  0.00    -0.550 OA
ATOM      9  O   UNL     1      20.957  70.014  68.888  1.00  0.00    -0.550 OA
ENDBRANCH   6   7
ENDBRANCH   5   6
ENDBRANCH   4   5
ENDBRANCH   3   4
ENDBRANCH   2   3
ENDBRANCH   1   2
BRANCH   1  10
ATOM     10  C   UNL     1      19.272  71.525  74.820  1.00  0.00     0.027 C 
BRANCH  10  11
ATOM     11  C   UNL     1      18.308  71.243  73.701  1.00  0.00    -0.031 C 
ATOM     12  C   UNL     1      17.502  72.207  73.233  1.00  0.00    -0.031 C 
BRANCH  12  13
ATOM     13  C   UNL     1      16.540  71.953  72.104  1.00  0.00     0.027 C 
BRANCH  13  14
ATOM     14  C   UNL     1      15.085  72.105  72.571  1.00  0.00     0.004 C 
BRANCH  14  15
ATOM     15  C   UNL     1      14.245  70.838  72.331  1.00  0.00     0.000 C 
BRANCH  15  16
ATOM     16  C   UNL     1      14.172  69.866  73.525  1.00  0.00    -0.000 C 
BRANCH  16  17
ATOM     17  C   UNL     1      14.565  70.474  74.883  1.00  0.00    -0.003 C 
ATOM     18  C   UNL     1      13.943  69.737  76.068  1.00  0.00     0.004 C 
ENDBRANCH  16  17
ENDBRANCH  15  16
ENDBRANCH  14  15
ENDBRANCH  13  14
ENDBRANCH  12  13
ENDBRANCH  10  11
ENDBRANCH   1  10
TORSDOF 13
ENDMDL
MODEL 2
REMARK VINA RESULT:    -6.548      2.433      3.454
REMARK INTER + INTRA:         -13.078
REMARK INTER:                 -12.104
REMARK INTRA:                  -0.974
REMARK UNBOUND:                -1.553
REMARK SMILES CCCCCCC=CCCCCCCCC(=O)[O-]
REMARK SMILES IDX 10 1 11 2 12 3 13 4 14 5 15 6 16 7 17 8 18 9 9 10 8 11 7 12
REMARK SMILES IDX 6 13 5 14 4 15 3 16 2 17 1 18
REMARK H PARENT
REMARK Flexibility Score: inf
ROOT
ATOM      1  C   UNL     1      20.104  71.624  72.084  1.00  0.00     0.004 C 
ENDROOT
BRANCH   1   2
ATOM      2  C   UNL     1      20.724  71.124  70.770  1.00  0.00     0.000 C 
BRANCH   2   3
ATOM      3  C   UNL     1      21.839  72.049  70.252  1.00  0.00     0.000 C 
BRANCH   3   4
ATOM      4  C   UNL     1      22.302  73.073  71.303  1.00  0.00     0.000 C 
BRANCH   4   5
ATOM      5  C   UNL     1      23.538  72.650  72.124  1.00  0.00     0.006 C 
BRANCH   5   6
ATOM      6  C   UNL     1      23.335  72.682  73.647  1.00  0.00     0.053 C 
BRANCH   6   7
ATOM      7  C   UNL     1      23.433  71.317  74.256  1.00  0.00     0.041 C 
ATOM      8  O   UNL     1      23.827  71.180  75.444  1.00  0.00    -0.550 OA
ATOM      9  O   UNL     1      23.057  70.199  73.521  1.00  0.00    -0.550 OA
ENDBRANCH   6   7
ENDBRANCH   5   6
ENDBRANCH   4   5
ENDBRANCH   3   4
ENDBRANCH   2   3
ENDBRANCH   1   2
BRANCH   1  10
ATOM     10  C   UNL     1      18.948  72.608  71.854  1.00  0.00     0.027 C 
BRANCH  10  11
ATOM     11  C   UNL     1      17.637  72.017  72.293  1.00  0.00    -0.031 C 
ATOM     12  C   UNL     1      16.483  72.657  72.052  1.00  0.00    -0.031 C 
BRANCH  12  13
ATOM     13  C   UNL     1      15.158  72.079  72.468  1.00  0.00     0.027 C 
BRANCH  13  14
ATOM     14  C   UNL     1      15.171  70.546  72.384  1.00  0.00     0.004 C 
BRANCH  14  15
ATOM     15  C   UNL     1      13.991  69.897  73.128  1.00  0.00     0.000 C 
BRANCH  15  16
ATOM     16  C   UNL     1      13.526  70.642  74.395  1.00  0.00    -0.000 C 
BRANCH  16  17
ATOM     17  C   UNL     1      13.986  70.016  75.722  1.00  0.00    -0.003 C 
ATOM     18  C   UNL     1      15.238  70.680  76.293  1.00  0.00     0.004 C 
ENDBRANCH  16  17
ENDBRANCH  15  16
ENDBRANCH  14  15
ENDBRANCH  13  14
ENDBRANCH  12  13
ENDBRANCH  10  11
ENDBRANCH   1  10
TORSDOF 13
ENDMDL
MODEL 3
REMARK VINA RESULT:    -6.529      2.416      3.456
REMARK INTER + INTRA:         -13.044
REMARK INTER:                 -11.806
REMARK INTRA:                  -1.238
REMARK UNBOUND:                -1.553
REMARK SMILES CCCCCCC=CCCCCCCCC(=O)[O-]
REMARK SMILES IDX 10 1 11 2 12 3 13 4 14 5 15 6 16 7 17 8 18 9 9 10 8 11 7 12
REMARK SMILES IDX 6 13 5 14 4 15 3 16 2 17 1 18
REMARK H PARENT
REMARK Flexibility Score: inf
ROOT
ATOM      1  C   UNL     1      21.081  70.703  70.487  1.00  0.00     0.004 C 
ENDROOT
BRANCH   1   2
ATOM      2  C   UNL     1      21.386  72.122  69.985  1.00  0.00     0.000 C 
BRANCH   2   3
ATOM      3  C   UNL     1      22.810  72.582  70.342  1.00  0.00     0.000 C 
BRANCH   3   4
ATOM      4  C   UNL     1      22.882  73.297  71.703  1.00  0.00     0.000 C 
BRANCH   4   5
ATOM      5  C   UNL     1      23.581  72.498  72.822  1.00  0.00     0.006 C 
BRANCH   5   6
ATOM      6  C   UNL     1      22.683  72.162  74.023  1.00  0.00     0.053 C 
BRANCH   6   7
ATOM      7  C   UNL     1      22.845  70.739  74.465  1.00  0.00     0.041 C 
ATOM      8  O   UNL     1      22.942  70.464  75.690  1.00  0.00    -0.550 OA
ATOM      9  O   UNL     1      22.857  69.716  73.526  1.00  0.00    -0.550 OA
ENDBRANCH   6   7
ENDBRANCH   5   6
ENDBRANCH   4   5
ENDBRANCH   3   4
ENDBRANCH   2   3
ENDBRANCH   1   2
BRANCH   1  10
ATOM     10  C   UNL     1      20.150  70.695  71.708  1.00  0.00     0.027 C 
BRANCH  10  11
ATOM     11  C   UNL     1      19.082  71.747  71.583  1.00  0.00    -0.031 C 
ATOM     12  C   UNL     1      17.965  71.680  72.322  1.00  0.00    -0.031 C 
BRANCH  12  13
ATOM     13  C   UNL     1      16.890  72.728  72.225  1.00  0.00     0.027 C 
BRANCH  13  14
ATOM     14  C   UNL     1      15.555  72.204  72.774  1.00  0.00     0.004 C 
BRANCH  14  15
ATOM     15  C   UNL     1      15.313  70.721  72.442  1.00  0.00     0.000 C 
BRANCH  15  16
ATOM     16  C   UNL     1      14.017  70.123  73.025  1.00  0.00    -0.000 C 
BRANCH  16  17
ATOM     17  C   UNL     1      13.579  70.714  74.376  1.00  0.00    -0.003 C 
ATOM     18  C   UNL     1      14.109  69.924  75.572  1.00  0.00     0.004 C 
ENDBRANCH  16  17
ENDBRANCH  15  16
ENDBRANCH  14  15
ENDBRANCH  13  14
ENDBRANCH  12  13
ENDBRANCH  10  11
ENDBRANCH   1  10
TORSDOF 13
ENDMDL
MODEL 4
REMARK VINA RESULT:    -6.520      4.600      6.048
REMARK INTER + INTRA:         -13.028
REMARK INTER:                 -11.744
REMARK INTRA:                  -1.284
REMARK UNBOUND:                -1.553
REMARK SMILES CCCCCCC=CCCCCCCCC(=O)[O-]
REMARK SMILES IDX 10 1 11 2 12 3 13 4 14 5 15 6 16 7 17 8 18 9 9 10 8 11 7 12
REMARK SMILES IDX 6 13 5 14 4 15 3 16 2 17 1 18
REMARK H PARENT
REMARK Flexibility Score: inf
ROOT
ATOM      1  C   UNL     1      19.629  71.150  75.388  1.00  0.00     0.004 C 
ENDROOT
BRANCH   1   2
ATOM      2  C   UNL     1      20.332  70.127  76.293  1.00  0.00     0.000 C 
BRANCH   2   3
ATOM      3  C   UNL     1      19.594  69.909  77.625  1.00  0.00     0.000 C 
BRANCH   3   4
ATOM      4  C   UNL     1      20.061  68.644  78.366  1.00  0.00     0.000 C 
BRANCH   4   5
ATOM      5  C   UNL     1      19.233  68.279  79.616  1.00  0.00     0.006 C 
BRANCH   5   6
ATOM      6  C   UNL     1      18.669  69.486  80.382  1.00  0.00     0.053 C 
BRANCH   6   7
ATOM      7  C   UNL     1      17.170  69.490  80.399  1.00  0.00     0.041 C 
ATOM      8  O   UNL     1      16.525  69.367  79.324  1.00  0.00    -0.550 OA
ATOM      9  O   UNL     1      16.487  69.597  81.604  1.00  0.00    -0.550 OA
ENDBRANCH   6   7
ENDBRANCH   5   6
ENDBRANCH   4   5
ENDBRANCH   3   4
ENDBRANCH   2   3
ENDBRANCH   1   2
BRANCH   1  10
ATOM     10  C   UNL     1      18.202  71.471  75.857  1.00  0.00     0.027 C 
BRANCH  10  11
ATOM     11  C   UNL     1      17.271  71.639  74.688  1.00  0.00    -0.031 C 
ATOM     12  C   UNL     1      17.753  71.826  73.451  1.00  0.00    -0.031 C 
BRANCH  12  13
ATOM     13  C   UNL     1      16.843  71.982  72.264  1.00  0.00     0.027 C 
BRANCH  13  14
ATOM     14  C   UNL     1      15.370  71.824  72.671  1.00  0.00     0.004 C 
BRANCH  14  15
ATOM     15  C   UNL     1      14.801  70.436  72.328  1.00  0.00     0.000 C 
BRANCH  15  16
ATOM     16  C   UNL     1      14.056  69.732  73.479  1.00  0.00    -0.000 C 
BRANCH  16  17
ATOM     17  C   UNL     1      13.723  70.630  74.683  1.00  0.00    -0.003 C 
ATOM     18  C   UNL     1      14.038  69.969  76.025  1.00  0.00     0.004 C 
ENDBRANCH  16  17
ENDBRANCH  15  16
ENDBRANCH  14  15
ENDBRANCH  13  14
ENDBRANCH  12  13
ENDBRANCH  10  11
ENDBRANCH   1  10
TORSDOF 13
ENDMDL
MODEL 5
REMARK VINA RESULT:    -6.474      3.143      6.985
REMARK INTER + INTRA:         -12.947
REMARK INTER:                 -11.655
REMARK INTRA:                  -1.292
REMARK UNBOUND:                -1.553
REMARK SMILES CCCCCCC=CCCCCCCCC(=O)[O-]
REMARK SMILES IDX 10 1 11 2 12 3 13 4 14 5 15 6 16 7 17 8 18 9 9 10 8 11 7 12
REMARK SMILES IDX 6 13 5 14 4 15 3 16 2 17 1 18
REMARK H PARENT
REMARK Flexibility Score: inf
ROOT
ATOM      1  C   UNL     1      14.916  70.572  72.325  1.00  0.00     0.004 C 
ENDROOT
BRANCH   1   2
ATOM      2  C   UNL     1      14.146  69.802  73.408  1.00  0.00     0.000 C 
BRANCH   2   3
ATOM      3  C   UNL     1      13.801  70.678  74.625  1.00  0.00     0.000 C 
BRANCH   3   4
ATOM      4  C   UNL     1      14.025  69.954  75.965  1.00  0.00     0.000 C 
BRANCH   4   5
ATOM      5  C   UNL     1      15.153  70.537  76.839  1.00  0.00     0.006 C 
BRANCH   5   6
ATOM      6  C   UNL     1      16.316  71.160  76.050  1.00  0.00     0.053 C 
BRANCH   6   7
ATOM      7  C   UNL     1      17.518  71.396  76.912  1.00  0.00     0.041 C 
ATOM      8  O   UNL     1      18.640  71.621  76.387  1.00  0.00    -0.550 OA
ATOM      9  O   UNL     1      17.392  71.399  78.296  1.00  0.00    -0.550 OA
ENDBRANCH   6   7
ENDBRANCH   5   6
ENDBRANCH   4   5
ENDBRANCH   3   4
ENDBRANCH   2   3
ENDBRANCH   1   2
BRANCH   1  10
ATOM     10  C   UNL     1      14.963  72.083  72.595  1.00  0.00     0.027 C 
BRANCH  10  11
ATOM     11  C   UNL     1      16.369  72.544  72.860  1.00  0.00    -0.031 C 
ATOM     12  C   UNL     1      17.417  71.826  72.431  1.00  0.00    -0.031 C 
BRANCH  12  13
ATOM     13  C   UNL     1      18.833  72.274  72.671  1.00  0.00     0.027 C 
BRANCH  13  14
ATOM     14  C   UNL     1      19.517  72.680  71.357  1.00  0.00     0.004 C 
BRANCH  14  15
ATOM     15  C   UNL     1      20.958  72.152  71.245  1.00  0.00     0.000 C 
BRANCH  15  16
ATOM     16  C   UNL     1      21.144  70.957  70.289  1.00  0.00    -0.000 C 
BRANCH  16  17
ATOM     17  C   UNL     1      20.594  69.618  70.808  1.00  0.00    -0.003 C 
ATOM     18  C   UNL     1      20.017  68.740  69.698  1.00  0.00     0.004 C 
ENDBRANCH  16  17
ENDBRANCH  15  16
ENDBRANCH  14  15
ENDBRANCH  13  14
ENDBRANCH  12  13
ENDBRANCH  10  11
ENDBRANCH   1  10
TORSDOF 13
ENDMDL
MODEL 6
REMARK VINA RESULT:    -6.400      1.410      2.577
REMARK INTER + INTRA:         -12.817
REMARK INTER:                 -11.450
REMARK INTRA:                  -1.368
REMARK UNBOUND:                -1.553
REMARK SMILES CCCCCCC=CCCCCCCCC(=O)[O-]
REMARK SMILES IDX 10 1 11 2 12 3 13 4 14 5 15 6 16 7 17 8 18 9 9 10 8 11 7 12
REMARK SMILES IDX 6 13 5 14 4 15 3 16 2 17 1 18
REMARK H PARENT
REMARK Flexibility Score: inf
ROOT
ATOM      1  C   UNL     1      18.951  72.519  72.563  1.00  0.00     0.004 C 
ENDROOT
BRANCH   1   2
ATOM      2  C   UNL     1      19.924  73.167  71.567  1.00  0.00     0.000 C 
BRANCH   2   3
ATOM      3  C   UNL     1      21.097  72.243  71.199  1.00  0.00     0.000 C 
BRANCH   3   4
ATOM      4  C   UNL     1      21.395  71.194  72.285  1.00  0.00     0.000 C 
BRANCH   4   5
ATOM      5  C   UNL     1      21.227  69.728  71.838  1.00  0.00     0.006 C 
BRANCH   5   6
ATOM      6  C   UNL     1      20.112  69.499  70.804  1.00  0.00     0.053 C 
BRANCH   6   7
ATOM      7  C   UNL     1      20.658  69.080  69.473  1.00  0.00     0.041 C 
ATOM      8  O   UNL     1      20.893  69.942  68.585  1.00  0.00    -0.550 OA
ATOM      9  O   UNL     1      20.938  67.742  69.225  1.00  0.00    -0.550 OA
ENDBRANCH   6   7
ENDBRANCH   5   6
ENDBRANCH   4   5
ENDBRANCH   3   4
ENDBRANCH   2   3
ENDBRANCH   1   2
BRANCH   1  10
ATOM     10  C   UNL     1      17.481  72.801  72.222  1.00  0.00     0.027 C 
BRANCH  10  11
ATOM     11  C   UNL     1      16.710  71.523  72.042  1.00  0.00    -0.031 C 
ATOM     12  C   UNL     1      15.471  71.395  72.538  1.00  0.00    -0.031 C 
BRANCH  12  13
ATOM     13  C   UNL     1      14.674  70.132  72.358  1.00  0.00     0.027 C 
BRANCH  13  14
ATOM     14  C   UNL     1      13.996  69.711  73.670  1.00  0.00     0.004 C 
BRANCH  14  15
ATOM     15  C   UNL     1      14.168  70.751  74.791  1.00  0.00     0.000 C 
BRANCH  15  16
ATOM     16  C   UNL     1      14.427  70.165  76.193  1.00  0.00    -0.000 C 
BRANCH  16  17
ATOM     17  C   UNL     1      15.629  70.769  76.939  1.00  0.00    -0.003 C 
ATOM     18  C   UNL     1      16.662  71.391  76.000  1.00  0.00     0.004 C 
ENDBRANCH  16  17
ENDBRANCH  15  16
ENDBRANCH  14  15
ENDBRANCH  13  14
ENDBRANCH  12  13
ENDBRANCH  10  11
ENDBRANCH   1  10
TORSDOF 13
ENDMDL
MODEL 7
REMARK VINA RESULT:    -6.384      2.379      2.964
REMARK INTER + INTRA:         -12.788
REMARK INTER:                 -11.137
REMARK INTRA:                  -1.651
REMARK UNBOUND:                -1.553
REMARK SMILES CCCCCCC=CCCCCCCCC(=O)[O-]
REMARK SMILES IDX 10 1 11 2 12 3 13 4 14 5 15 6 16 7 17 8 18 9 9 10 8 11 7 12
REMARK SMILES IDX 6 13 5 14 4 15 3 16 2 17 1 18
REMARK H PARENT
REMARK Flexibility Score: inf
ROOT
ATOM      1  C   UNL     1      19.121  71.501  76.560  1.00  0.00     0.004 C 
ENDROOT
BRANCH   1   2
ATOM      2  C   UNL     1      19.961  70.215  76.529  1.00  0.00     0.000 C 
BRANCH   2   3
ATOM      3  C   UNL     1      21.054  70.248  75.446  1.00  0.00     0.000 C 
BRANCH   3   4
ATOM      4  C   UNL     1      20.480  70.348  74.022  1.00  0.00     0.000 C 
BRANCH   4   5
ATOM      5  C   UNL     1      20.875  71.624  73.249  1.00  0.00     0.006 C 
BRANCH   5   6
ATOM      6  C   UNL     1      22.052  71.442  72.277  1.00  0.00     0.053 C 
BRANCH   6   7
ATOM      7  C   UNL     1      23.247  72.247  72.686  1.00  0.00     0.041 C 
ATOM      8  O   UNL     1      23.872  72.932  71.834  1.00  0.00    -0.550 OA
ATOM      9  O   UNL     1      23.652  72.265  74.015  1.00  0.00    -0.550 OA
ENDBRANCH   6   7
ENDBRANCH   5   6
ENDBRANCH   4   5
ENDBRANCH   3   4
ENDBRANCH   2   3
ENDBRANCH   1   2
BRANCH   1  10
ATOM     10  C   UNL     1      17.612  71.222  76.493  1.00  0.00     0.027 C 
BRANCH  10  11
ATOM     11  C   UNL     1      16.982  71.918  75.318  1.00  0.00    -0.031 C 
ATOM     12  C   UNL     1      17.288  71.555  74.064  1.00  0.00    -0.031 C 
BRANCH  12  13
ATOM     13  C   UNL     1      16.660  72.227  72.873  1.00  0.00     0.027 C 
BRANCH  13  14
ATOM     14  C   UNL     1      15.475  71.410  72.338  1.00  0.00     0.004 C 
BRANCH  14  15
ATOM     15  C   UNL     1      14.112  71.986  72.762  1.00  0.00     0.000 C 
BRANCH  15  16
ATOM     16  C   UNL     1      13.306  71.106  73.738  1.00  0.00    -0.000 C 
BRANCH  16  17
ATOM     17  C   UNL     1      14.055  69.873  74.272  1.00  0.00    -0.003 C 
ATOM     18  C   UNL     1      14.007  69.760  75.796  1.00  0.00     0.004 C 
ENDBRANCH  16  17
ENDBRANCH  15  16
ENDBRANCH  14  15
ENDBRANCH  13  14
ENDBRANCH  12  13
ENDBRANCH  10  11
ENDBRANCH   1  10
TORSDOF 13
ENDMDL
MODEL 8
REMARK VINA RESULT:    -6.379      3.422      4.529
REMARK INTER + INTRA:         -12.780
REMARK INTER:                 -11.113
REMARK INTRA:                  -1.667
REMARK UNBOUND:                -1.553
REMARK SMILES CCCCCCC=CCCCCCCCC(=O)[O-]
REMARK SMILES IDX 10 1 11 2 12 3 13 4 14 5 15 6 16 7 17 8 18 9 9 10 8 11 7 12
REMARK SMILES IDX 6 13 5 14 4 15 3 16 2 17 1 18
REMARK H PARENT
REMARK Flexibility Score: inf
ROOT
ATOM      1  C   UNL     1      20.682  69.978  72.289  1.00  0.00     0.004 C 
ENDROOT
BRANCH   1   2
ATOM      2  C   UNL     1      21.819  70.638  73.083  1.00  0.00     0.000 C 
BRANCH   2   3
ATOM      3  C   UNL     1      21.545  70.664  74.597  1.00  0.00     0.000 C 
BRANCH   3   4
ATOM      4  C   UNL     1      20.075  70.370  74.943  1.00  0.00     0.000 C 
BRANCH   4   5
ATOM      5  C   UNL     1      19.295  71.562  75.534  1.00  0.00     0.006 C 
BRANCH   5   6
ATOM      6  C   UNL     1      18.222  71.175  76.565  1.00  0.00     0.053 C 
BRANCH   6   7
ATOM      7  C   UNL     1      18.739  71.256  77.969  1.00  0.00     0.041 C 
ATOM      8  O   UNL     1      19.370  70.287  78.468  1.00  0.00    -0.550 OA
ATOM      9  O   UNL     1      18.550  72.413  78.715  1.00  0.00    -0.550 OA
ENDBRANCH   6   7
ENDBRANCH   5   6
ENDBRANCH   4   5
ENDBRANCH   3   4
ENDBRANCH   2   3
ENDBRANCH   1   2
BRANCH   1  10
ATOM     10  C   UNL     1      20.192  70.850  71.123  1.00  0.00     0.027 C 
BRANCH  10  11
ATOM     11  C   UNL     1      19.251  71.920  71.604  1.00  0.00    -0.031 C 
ATOM     12  C   UNL     1      18.017  71.608  72.025  1.00  0.00    -0.031 C 
BRANCH  12  13
ATOM     13  C   UNL     1      17.063  72.658  72.524  1.00  0.00     0.027 C 
BRANCH  13  14
ATOM     14  C   UNL     1      15.605  72.257  72.254  1.00  0.00     0.004 C 
BRANCH  14  15
ATOM     15  C   UNL     1      15.393  70.733  72.265  1.00  0.00     0.000 C 
BRANCH  15  16
ATOM     16  C   UNL     1      14.420  70.216  73.343  1.00  0.00    -0.000 C 
BRANCH  16  17
ATOM     17  C   UNL     1      14.771  70.624  74.784  1.00  0.00    -0.003 C 
ATOM     18  C   UNL     1      13.970  69.852  75.833  1.00  0.00     0.004 C 
ENDBRANCH  16  17
ENDBRANCH  15  16
ENDBRANCH  14  15
ENDBRANCH  13  14
ENDBRANCH  12  13
ENDBRANCH  10  11
ENDBRANCH   1  10
TORSDOF 13
ENDMDL
MODEL 9
REMARK VINA RESULT:    -6.367      3.767      6.978
REMARK INTER + INTRA:         -12.759
REMARK INTER:                 -11.695
REMARK INTRA:                  -1.065
REMARK UNBOUND:                -1.553
REMARK SMILES CCCCCCC=CCCCCCCCC(=O)[O-]
REMARK SMILES IDX 10 1 11 2 12 3 13 4 14 5 15 6 16 7 17 8 18 9 9 10 8 11 7 12
REMARK SMILES IDX 6 13 5 14 4 15 3 16 2 17 1 18
REMARK H PARENT
REMARK Flexibility Score: inf
ROOT
ATOM      1  C   UNL     1      13.677  70.725  74.035  1.00  0.00     0.004 C 
ENDROOT
BRANCH   1   2
ATOM      2  C   UNL     1      14.050  69.792  75.197  1.00  0.00     0.000 C 
BRANCH   2   3
ATOM      3  C   UNL     1      14.805  70.521  76.322  1.00  0.00     0.000 C 
BRANCH   3   4
ATOM      4  C   UNL     1      16.178  71.053  75.873  1.00  0.00     0.000 C 
BRANCH   4   5
ATOM      5  C   UNL     1      17.095  71.534  77.016  1.00  0.00     0.006 C 
BRANCH   5   6
ATOM      6  C   UNL     1      16.731  70.980  78.403  1.00  0.00     0.053 C 
BRANCH   6   7
ATOM      7  C   UNL     1      17.735  69.979  78.888  1.00  0.00     0.041 C 
ATOM      8  O   UNL     1      18.952  70.109  78.593  1.00  0.00    -0.550 OA
ATOM      9  O   UNL     1      17.330  68.922  79.695  1.00  0.00    -0.550 OA
ENDBRANCH   6   7
ENDBRANCH   5   6
ENDBRANCH   4   5
ENDBRANCH   3   4
ENDBRANCH   2   3
ENDBRANCH   1   2
BRANCH   1  10
ATOM     10  C   UNL     1      14.218  70.233  72.685  1.00  0.00     0.027 C 
BRANCH  10  11
ATOM     11  C   UNL     1      15.500  70.934  72.326  1.00  0.00    -0.031 C 
ATOM     12  C   UNL     1      15.558  72.272  72.282  1.00  0.00    -0.031 C 
BRANCH  12  13
ATOM     13  C   UNL     1      16.831  72.996  71.939  1.00  0.00     0.027 C 
BRANCH  13  14
ATOM     14  C   UNL     1      18.050  72.301  72.565  1.00  0.00     0.004 C 
BRANCH  14  15
ATOM     15  C   UNL     1      18.815  71.420  71.562  1.00  0.00     0.000 C 
BRANCH  15  16
ATOM     16  C   UNL     1      20.040  70.683  72.141  1.00  0.00    -0.000 C 
BRANCH  16  17
ATOM     17  C   UNL     1      20.956  70.025  71.095  1.00  0.00    -0.003 C 
ATOM     18  C   UNL     1      20.193  69.155  70.097  1.00  0.00     0.004 C 
ENDBRANCH  16  17
ENDBRANCH  15  16
ENDBRANCH  14  15
ENDBRANCH  13  14
ENDBRANCH  12  13
ENDBRANCH  10  11
ENDBRANCH   1  10
TORSDOF 13
ENDMDL
