MODEL 1
REMARK VINA RESULT:    -4.134      0.000      0.000
REMARK INTER + INTRA:          -9.553
REMARK INTER:                  -7.759
REMARK INTRA:                  -1.794
REMARK UNBOUND:                -1.794
REMARK SMILES CCCCCCCCC=CCCCCCCCC(=O)[O-]
REMARK SMILES IDX 10 1 9 2 11 3 12 4 13 5 14 6 15 7 16 8 17 9 18 10 19 11
REMARK SMILES IDX 20 12 8 13 7 14 6 15 5 16 4 17 3 18 2 19 1 20
REMARK H PARENT
REMARK Flexibility Score: inf
ROOT
ATOM      1  C   UNL     1     110.317   0.224  61.917  1.00  0.00    -0.031 C 
ATOM      2  C   UNL     1     110.940   0.638  60.803  1.00  0.00    -0.031 C 
ENDROOT
BRANCH   1   3
ATOM      3  C   UNL     1     110.562  -1.142  62.495  1.00  0.00     0.027 C 
BRANCH   3   4
ATOM      4  C   UNL     1     111.616  -1.089  63.613  1.00  0.00     0.004 C 
BRANCH   4   5
ATOM      5  C   UNL     1     111.396   0.087  64.577  1.00  0.00     0.000 C 
BRANCH   5   6
ATOM      6  C   UNL     1     112.676   0.908  64.808  1.00  0.00     0.000 C 
BRANCH   6   7
ATOM      7  C   UNL     1     112.820   2.082  63.821  1.00  0.00     0.000 C 
BRANCH   7   8
ATOM      8  C   UNL     1     114.056   2.019  62.901  1.00  0.00     0.006 C 
BRANCH   8   9
ATOM      9  C   UNL     1     114.327   0.635  62.290  1.00  0.00     0.053 C 
BRANCH   9  10
ATOM     10  C   UNL     1     114.713   0.725  60.847  1.00  0.00     0.041 C 
ATOM     11  O   UNL     1     114.348  -0.168  60.037  1.00  0.00    -0.550 OA
ATOM     12  O   UNL     1     115.502   1.777  60.400  1.00  0.00    -0.550 OA
ENDBRANCH   9  10
ENDBRANCH   8   9
ENDBRANCH   7   8
ENDBRANCH   6   7
ENDBRANCH   5   6
ENDBRANCH   4   5
ENDBRANCH   3   4
ENDBRANCH   1   3
BRANCH   2  13
ATOM     13  C   UNL     1     110.686   2.000  60.214  1.00  0.00     0.027 C 
BRANCH  13  14
ATOM     14  C   UNL     1     109.262   2.510  60.497  1.00  0.00     0.004 C 
BRANCH  14  15
ATOM     15  C   UNL     1     108.618   3.287  59.330  1.00  0.00     0.000 C 
BRANCH  15  16
ATOM     16  C   UNL     1     108.859   2.679  57.936  1.00  0.00     0.000 C 
BRANCH  16  17
ATOM     17  C   UNL     1     107.817   3.132  56.900  1.00  0.00    -0.000 C 
BRANCH  17  18
ATOM     18  C   UNL     1     106.965   1.967  56.373  1.00  0.00    -0.000 C 
BRANCH  18  19
ATOM     19  C   UNL     1     107.718   0.629  56.396  1.00  0.00    -0.003 C 
ATOM     20  C   UNL     1     106.954  -0.419  57.201  1.00  0.00     0.004 C 
ENDBRANCH  18  19
ENDBRANCH  17  18
ENDBRANCH  16  17
ENDBRANCH  15  16
ENDBRANCH  14  15
ENDBRANCH  13  14
ENDBRANCH   2  13
TORSDOF 15
ENDMDL
MODEL 2
REMARK VINA RESULT:    -4.117      4.004      6.891
REMARK INTER + INTRA:          -9.521
REMARK INTER:                  -6.680
REMARK INTRA:                  -2.841
REMARK UNBOUND:                -1.794
REMARK SMILES CCCCCCCCC=CCCCCCCCC(=O)[O-]
REMARK SMILES IDX 10 1 9 2 11 3 12 4 13 5 14 6 15 7 16 8 17 9 18 10 19 11
REMARK SMILES IDX 20 12 8 13 7 14 6 15 5 16 4 17 3 18 2 19 1 20
REMARK H PARENT
REMARK Flexibility Score: inf
ROOT
ATOM      1  C   UNL     1     111.091   0.267  61.068  1.00  0.00    -0.031 C 
ATOM      2  C   UNL     1     110.563  -0.123  62.239  1.00  0.00    -0.031 C 
ENDROOT
BRANCH   1   3
ATOM      3  C   UNL     1     110.328   1.144  60.115  1.00  0.00     0.027 C 
BRANCH   3   4
ATOM      4  C   UNL     1     110.469   2.628  60.493  1.00  0.00     0.004 C 
BRANCH   4   5
ATOM      5  C   UNL     1     109.249   3.161  61.261  1.00  0.00     0.000 C 
BRANCH   5   6
ATOM      6  C   UNL     1     109.571   3.479  62.731  1.00  0.00     0.000 C 
BRANCH   6   7
ATOM      7  C   UNL     1     108.657   2.732  63.720  1.00  0.00     0.000 C 
BRANCH   7   8
ATOM      8  C   UNL     1     108.735   3.217  65.181  1.00  0.00     0.006 C 
BRANCH   8   9
ATOM      9  C   UNL     1     109.194   2.148  66.186  1.00  0.00     0.053 C 
BRANCH   9  10
ATOM     10  C   UNL     1     108.183   1.920  67.265  1.00  0.00     0.041 C 
ATOM     11  O   UNL     1     107.626   0.798  67.385  1.00  0.00    -0.550 OA
ATOM     12  O   UNL     1     107.831   2.957  68.121  1.00  0.00    -0.550 OA
ENDBRANCH   9  10
ENDBRANCH   8   9
ENDBRANCH   7   8
ENDBRANCH   6   7
ENDBRANCH   5   6
ENDBRANCH   4   5
ENDBRANCH   3   4
ENDBRANCH   1   3
BRANCH   2  13
ATOM     13  C   UNL     1     111.320  -1.012  63.188  1.00  0.00     0.027 C 
BRANCH  13  14
ATOM     14  C   UNL     1     111.455  -0.400  64.593  1.00  0.00     0.004 C 
BRANCH  14  15
ATOM     15  C   UNL     1     112.626   0.593  64.748  1.00  0.00     0.000 C 
BRANCH  15  16
ATOM     16  C   UNL     1     112.298   2.046  64.359  1.00  0.00     0.000 C 
BRANCH  16  17
ATOM     17  C   UNL     1     113.188   2.572  63.221  1.00  0.00    -0.000 C 
BRANCH  17  18
ATOM     18  C   UNL     1     114.275   1.567  62.809  1.00  0.00    -0.000 C 
BRANCH  18  19
ATOM     19  C   UNL     1     114.472   1.503  61.287  1.00  0.00    -0.003 C 
ATOM     20  C   UNL     1     114.712   0.068  60.823  1.00  0.00     0.004 C 
ENDBRANCH  18  19
ENDBRANCH  17  18
ENDBRANCH  16  17
ENDBRANCH  15  16
ENDBRANCH  14  15
ENDBRANCH  13  14
ENDBRANCH   2  13
TORSDOF 15
ENDMDL
MODEL 3
REMARK VINA RESULT:    -4.113      2.480      4.314
REMARK INTER + INTRA:          -9.514
REMARK INTER:                  -6.675
REMARK INTRA:                  -2.839
REMARK UNBOUND:                -1.794
REMARK SMILES CCCCCCCCC=CCCCCCCCC(=O)[O-]
REMARK SMILES IDX 10 1 9 2 11 3 12 4 13 5 14 6 15 7 16 8 17 9 18 10 19 11
REMARK SMILES IDX 20 12 8 13 7 14 6 15 5 16 4 17 3 18 2 19 1 20
REMARK H PARENT
REMARK Flexibility Score: inf
ROOT
ATOM      1  C   UNL     1     110.610  -0.248  62.160  1.00  0.00    -0.031 C 
ATOM      2  C   UNL     1     111.357   0.156  61.120  1.00  0.00    -0.031 C 
ENDROOT
BRANCH   1   3
ATOM      3  C   UNL     1     111.157  -1.176  63.208  1.00  0.00     0.027 C 
BRANCH   3   4
ATOM      4  C   UNL     1     111.367  -0.443  64.543  1.00  0.00     0.004 C 
BRANCH   4   5
ATOM      5  C   UNL     1     112.701   0.319  64.594  1.00  0.00     0.000 C 
BRANCH   5   6
ATOM      6  C   UNL     1     112.513   1.844  64.515  1.00  0.00     0.000 C 
BRANCH   6   7
ATOM      7  C   UNL     1     113.317   2.488  63.370  1.00  0.00     0.000 C 
BRANCH   7   8
ATOM      8  C   UNL     1     114.262   1.532  62.613  1.00  0.00     0.006 C 
BRANCH   8   9
ATOM      9  C   UNL     1     114.736   2.052  61.247  1.00  0.00     0.053 C 
BRANCH   9  10
ATOM     10  C   UNL     1     115.432   0.991  60.453  1.00  0.00     0.041 C 
ATOM     11  O   UNL     1     115.156  -0.223  60.640  1.00  0.00    -0.550 OA
ATOM     12  O   UNL     1     116.409   1.339  59.529  1.00  0.00    -0.550 OA
ENDBRANCH   9  10
ENDBRANCH   8   9
ENDBRANCH   7   8
ENDBRANCH   6   7
ENDBRANCH   5   6
ENDBRANCH   4   5
ENDBRANCH   3   4
ENDBRANCH   1   3
BRANCH   2  13
ATOM     13  C   UNL     1     110.807   1.074  60.062  1.00  0.00     0.027 C 
BRANCH  13  14
ATOM     14  C   UNL     1     111.012   2.561  60.404  1.00  0.00     0.004 C 
BRANCH  14  15
ATOM     15  C   UNL     1     109.775   3.253  61.015  1.00  0.00     0.000 C 
BRANCH  15  16
ATOM     16  C   UNL     1     109.920   3.643  62.497  1.00  0.00     0.000 C 
BRANCH  16  17
ATOM     17  C   UNL     1     109.092   2.745  63.432  1.00  0.00    -0.000 C 
BRANCH  17  18
ATOM     18  C   UNL     1     108.975   3.321  64.852  1.00  0.00    -0.000 C 
BRANCH  18  19
ATOM     19  C   UNL     1     109.220   2.265  65.939  1.00  0.00    -0.003 C 
ATOM     20  C   UNL     1     108.323   2.505  67.151  1.00  0.00     0.004 C 
ENDBRANCH  18  19
ENDBRANCH  17  18
ENDBRANCH  16  17
ENDBRANCH  15  16
ENDBRANCH  14  15
ENDBRANCH  13  14
ENDBRANCH   2  13
TORSDOF 15
ENDMDL
MODEL 4
REMARK VINA RESULT:    -3.997      1.341      2.568
REMARK INTER + INTRA:          -9.296
REMARK INTER:                  -6.842
REMARK INTRA:                  -2.454
REMARK UNBOUND:                -1.794
REMARK SMILES CCCCCCCCC=CCCCCCCCC(=O)[O-]
REMARK SMILES IDX 10 1 9 2 11 3 12 4 13 5 14 6 15 7 16 8 17 9 18 10 19 11
REMARK SMILES IDX 20 12 8 13 7 14 6 15 5 16 4 17 3 18 2 19 1 20
REMARK H PARENT
REMARK Flexibility Score: inf
ROOT
ATOM      1  C   UNL     1     111.480   1.947  64.407  1.00  0.00    -0.031 C 
ATOM      2  C   UNL     1     111.677   3.012  63.614  1.00  0.00    -0.031 C 
ENDROOT
BRANCH   1   3
ATOM      3  C   UNL     1     112.615   1.050  64.817  1.00  0.00     0.027 C 
BRANCH   3   4
ATOM      4  C   UNL     1     112.459  -0.353  64.208  1.00  0.00     0.004 C 
BRANCH   4   5
ATOM      5  C   UNL     1     111.003  -0.677  63.835  1.00  0.00     0.000 C 
BRANCH   5   6
ATOM      6  C   UNL     1     110.855  -1.133  62.374  1.00  0.00     0.000 C 
BRANCH   6   7
ATOM      7  C   UNL     1     110.741   0.046  61.388  1.00  0.00     0.000 C 
BRANCH   7   8
ATOM      8  C   UNL     1     111.887   0.158  60.362  1.00  0.00     0.006 C 
BRANCH   8   9
ATOM      9  C   UNL     1     112.795   1.383  60.551  1.00  0.00     0.053 C 
BRANCH   9  10
ATOM     10  C   UNL     1     114.073   1.033  61.248  1.00  0.00     0.041 C 
ATOM     11  O   UNL     1     114.566  -0.119  61.126  1.00  0.00    -0.550 OA
ATOM     12  O   UNL     1     114.704   1.969  62.058  1.00  0.00    -0.550 OA
ENDBRANCH   9  10
ENDBRANCH   8   9
ENDBRANCH   7   8
ENDBRANCH   6   7
ENDBRANCH   5   6
ENDBRANCH   4   5
ENDBRANCH   3   4
ENDBRANCH   1   3
BRANCH   2  13
ATOM     13  C   UNL     1     110.541   3.903  63.191  1.00  0.00     0.027 C 
BRANCH  13  14
ATOM     14  C   UNL     1     110.289   3.862  61.674  1.00  0.00     0.004 C 
BRANCH  14  15
ATOM     15  C   UNL     1     108.955   3.203  61.264  1.00  0.00     0.000 C 
BRANCH  15  16
ATOM     16  C   UNL     1     108.584   3.364  59.779  1.00  0.00     0.000 C 
BRANCH  16  17
ATOM     17  C   UNL     1     108.864   2.096  58.954  1.00  0.00    -0.000 C 
BRANCH  17  18
ATOM     18  C   UNL     1     108.483   2.259  57.475  1.00  0.00    -0.000 C 
BRANCH  18  19
ATOM     19  C   UNL     1     108.697   0.971  56.665  1.00  0.00    -0.003 C 
ATOM     20  C   UNL     1     107.562  -0.022  56.902  1.00  0.00     0.004 C 
ENDBRANCH  18  19
ENDBRANCH  17  18
ENDBRANCH  16  17
ENDBRANCH  15  16
ENDBRANCH  14  15
ENDBRANCH  13  14
ENDBRANCH   2  13
TORSDOF 15
ENDMDL
MODEL 5
REMARK VINA RESULT:    -3.989      2.328      5.135
REMARK INTER + INTRA:          -9.280
REMARK INTER:                  -6.443
REMARK INTRA:                  -2.837
REMARK UNBOUND:                -1.794
REMARK SMILES CCCCCCCCC=CCCCCCCCC(=O)[O-]
REMARK SMILES IDX 10 1 9 2 11 3 12 4 13 5 14 6 15 7 16 8 17 9 18 10 19 11
REMARK SMILES IDX 20 12 8 13 7 14 6 15 5 16 4 17 3 18 2 19 1 20
REMARK H PARENT
REMARK Flexibility Score: inf
ROOT
ATOM      1  C   UNL     1     109.557   0.802  61.508  1.00  0.00    -0.031 C 
ATOM      2  C   UNL     1     110.567  -0.081  61.504  1.00  0.00    -0.031 C 
ENDROOT
BRANCH   1   3
ATOM      3  C   UNL     1     109.480   1.914  60.498  1.00  0.00     0.027 C 
BRANCH   3   4
ATOM      4  C   UNL     1     110.816   2.668  60.402  1.00  0.00     0.004 C 
BRANCH   4   5
ATOM      5  C   UNL     1     111.019   3.659  61.559  1.00  0.00     0.000 C 
BRANCH   5   6
ATOM      6  C   UNL     1     112.422   3.559  62.182  1.00  0.00     0.000 C 
BRANCH   6   7
ATOM      7  C   UNL     1     113.331   2.553  61.452  1.00  0.00     0.000 C 
BRANCH   7   8
ATOM      8  C   UNL     1     114.168   1.638  62.369  1.00  0.00     0.006 C 
BRANCH   8   9
ATOM      9  C   UNL     1     114.358   0.207  61.841  1.00  0.00     0.053 C 
BRANCH   9  10
ATOM     10  C   UNL     1     114.785   0.190  60.406  1.00  0.00     0.041 C 
ATOM     11  O   UNL     1     114.054  -0.348  59.534  1.00  0.00    -0.550 OA
ATOM     12  O   UNL     1     116.005   0.741  60.036  1.00  0.00    -0.550 OA
ENDBRANCH   9  10
ENDBRANCH   8   9
ENDBRANCH   7   8
ENDBRANCH   6   7
ENDBRANCH   5   6
ENDBRANCH   4   5
ENDBRANCH   3   4
ENDBRANCH   1   3
BRANCH   2  13
ATOM     13  C   UNL     1     110.653  -1.186  62.523  1.00  0.00     0.027 C 
BRANCH  13  14
ATOM     14  C   UNL     1     111.675  -0.889  63.634  1.00  0.00     0.004 C 
BRANCH  14  15
ATOM     15  C   UNL     1     111.094  -0.143  64.854  1.00  0.00     0.000 C 
BRANCH  15  16
ATOM     16  C   UNL     1     111.228   1.390  64.799  1.00  0.00     0.000 C 
BRANCH  16  17
ATOM     17  C   UNL     1     110.078   2.114  65.519  1.00  0.00    -0.000 C 
BRANCH  17  18
ATOM     18  C   UNL     1     109.581   3.344  64.744  1.00  0.00    -0.000 C 
BRANCH  18  19
ATOM     19  C   UNL     1     108.258   3.082  64.008  1.00  0.00    -0.003 C 
ATOM     20  C   UNL     1     107.121   2.830  64.995  1.00  0.00     0.004 C 
ENDBRANCH  18  19
ENDBRANCH  17  18
ENDBRANCH  16  17
ENDBRANCH  15  16
ENDBRANCH  14  15
ENDBRANCH  13  14
ENDBRANCH   2  13
TORSDOF 15
ENDMDL
MODEL 6
REMARK VINA RESULT:    -3.988      2.882      6.041
REMARK INTER + INTRA:          -9.278
REMARK INTER:                  -6.729
REMARK INTRA:                  -2.549
REMARK UNBOUND:                -1.794
REMARK SMILES CCCCCCCCC=CCCCCCCCC(=O)[O-]
REMARK SMILES IDX 10 1 9 2 11 3 12 4 13 5 14 6 15 7 16 8 17 9 18 10 19 11
REMARK SMILES IDX 20 12 8 13 7 14 6 15 5 16 4 17 3 18 2 19 1 20
REMARK H PARENT
REMARK Flexibility Score: inf
ROOT
ATOM      1  C   UNL     1     111.417   0.333  60.422  1.00  0.00    -0.031 C 
ATOM      2  C   UNL     1     112.632   0.855  60.192  1.00  0.00    -0.031 C 
ENDROOT
BRANCH   1   3
ATOM      3  C   UNL     1     110.215   1.207  60.648  1.00  0.00     0.027 C 
BRANCH   3   4
ATOM      4  C   UNL     1     110.510   2.666  60.263  1.00  0.00     0.004 C 
BRANCH   4   5
ATOM      5  C   UNL     1     110.512   3.608  61.478  1.00  0.00     0.000 C 
BRANCH   5   6
ATOM      6  C   UNL     1     111.921   3.822  62.057  1.00  0.00     0.000 C 
BRANCH   6   7
ATOM      7  C   UNL     1     111.960   3.716  63.593  1.00  0.00     0.000 C 
BRANCH   7   8
ATOM      8  C   UNL     1     111.414   2.395  64.174  1.00  0.00     0.006 C 
BRANCH   8   9
ATOM      9  C   UNL     1     112.494   1.365  64.541  1.00  0.00     0.053 C 
BRANCH   9  10
ATOM     10  C   UNL     1     112.051  -0.037  64.260  1.00  0.00     0.041 C 
ATOM     11  O   UNL     1     111.040  -0.510  64.841  1.00  0.00    -0.550 OA
ATOM     12  O   UNL     1     112.773  -0.833  63.379  1.00  0.00    -0.550 OA
ENDBRANCH   9  10
ENDBRANCH   8   9
ENDBRANCH   7   8
ENDBRANCH   6   7
ENDBRANCH   5   6
ENDBRANCH   4   5
ENDBRANCH   3   4
ENDBRANCH   1   3
BRANCH   2  13
ATOM     13  C   UNL     1     113.839  -0.018  59.980  1.00  0.00     0.027 C 
BRANCH  13  14
ATOM     14  C   UNL     1     115.068   0.469  60.769  1.00  0.00     0.004 C 
BRANCH  14  15
ATOM     15  C   UNL     1     114.786   1.638  61.735  1.00  0.00     0.000 C 
BRANCH  15  16
ATOM     16  C   UNL     1     115.544   2.939  61.414  1.00  0.00     0.000 C 
BRANCH  16  17
ATOM     17  C   UNL     1     115.542   3.275  59.913  1.00  0.00    -0.000 C 
BRANCH  17  18
ATOM     18  C   UNL     1     116.919   3.735  59.411  1.00  0.00    -0.000 C 
BRANCH  18  19
ATOM     19  C   UNL     1     117.301   3.092  58.069  1.00  0.00    -0.003 C 
ATOM     20  C   UNL     1     117.403   1.574  58.195  1.00  0.00     0.004 C 
ENDBRANCH  18  19
ENDBRANCH  17  18
ENDBRANCH  16  17
ENDBRANCH  15  16
ENDBRANCH  14  15
ENDBRANCH  13  14
ENDBRANCH   2  13
TORSDOF 15
ENDMDL
MODEL 7
REMARK VINA RESULT:    -3.981      2.716      5.299
REMARK INTER + INTRA:          -9.265
REMARK INTER:                  -6.636
REMARK INTRA:                  -2.629
REMARK UNBOUND:                -1.794
REMARK SMILES CCCCCCCCC=CCCCCCCCC(=O)[O-]
REMARK SMILES IDX 10 1 9 2 11 3 12 4 13 5 14 6 15 7 16 8 17 9 18 10 19 11
REMARK SMILES IDX 20 12 8 13 7 14 6 15 5 16 4 17 3 18 2 19 1 20
REMARK H PARENT
REMARK Flexibility Score: inf
ROOT
ATOM      1  C   UNL     1     112.235   0.422  60.506  1.00  0.00    -0.031 C 
ATOM      2  C   UNL     1     111.453   1.342  59.921  1.00  0.00    -0.031 C 
ENDROOT
BRANCH   1   3
ATOM      3  C   UNL     1     113.532  -0.017  59.886  1.00  0.00     0.027 C 
BRANCH   3   4
ATOM      4  C   UNL     1     114.715   0.246  60.831  1.00  0.00     0.004 C 
BRANCH   4   5
ATOM      5  C   UNL     1     114.297   1.000  62.105  1.00  0.00     0.000 C 
BRANCH   5   6
ATOM      6  C   UNL     1     114.914   2.406  62.187  1.00  0.00     0.000 C 
BRANCH   6   7
ATOM      7  C   UNL     1     114.580   3.279  60.962  1.00  0.00     0.000 C 
BRANCH   7   8
ATOM      8  C   UNL     1     115.776   4.035  60.349  1.00  0.00     0.006 C 
BRANCH   8   9
ATOM      9  C   UNL     1     116.501   3.278  59.225  1.00  0.00     0.053 C 
BRANCH   9  10
ATOM     10  C   UNL     1     117.667   2.493  59.740  1.00  0.00     0.041 C 
ATOM     11  O   UNL     1     118.571   3.063  60.405  1.00  0.00    -0.550 OA
ATOM     12  O   UNL     1     117.773   1.136  59.458  1.00  0.00    -0.550 OA
ENDBRANCH   9  10
ENDBRANCH   8   9
ENDBRANCH   7   8
ENDBRANCH   6   7
ENDBRANCH   5   6
ENDBRANCH   4   5
ENDBRANCH   3   4
ENDBRANCH   1   3
BRANCH   2  13
ATOM     13  C   UNL     1     110.147   1.773  60.532  1.00  0.00     0.027 C 
BRANCH  13  14
ATOM     14  C   UNL     1     110.261   2.042  62.043  1.00  0.00     0.004 C 
BRANCH  14  15
ATOM     15  C   UNL     1     111.129   3.263  62.412  1.00  0.00     0.000 C 
BRANCH  15  16
ATOM     16  C   UNL     1     111.684   3.252  63.847  1.00  0.00     0.000 C 
BRANCH  16  17
ATOM     17  C   UNL     1     111.298   1.983  64.625  1.00  0.00    -0.000 C 
BRANCH  17  18
ATOM     18  C   UNL     1     112.489   1.034  64.834  1.00  0.00    -0.000 C 
BRANCH  18  19
ATOM     19  C   UNL     1     112.059  -0.437  64.935  1.00  0.00    -0.003 C 
ATOM     20  C   UNL     1     111.401  -0.907  63.639  1.00  0.00     0.004 C 
ENDBRANCH  18  19
ENDBRANCH  17  18
ENDBRANCH  16  17
ENDBRANCH  15  16
ENDBRANCH  14  15
ENDBRANCH  13  14
ENDBRANCH   2  13
TORSDOF 15
ENDMDL
MODEL 8
REMARK VINA RESULT:    -3.959      2.594      4.053
REMARK INTER + INTRA:          -9.225
REMARK INTER:                  -6.422
REMARK INTRA:                  -2.803
REMARK UNBOUND:                -1.794
REMARK SMILES CCCCCCCCC=CCCCCCCCC(=O)[O-]
REMARK SMILES IDX 10 1 9 2 11 3 12 4 13 5 14 6 15 7 16 8 17 9 18 10 19 11
REMARK SMILES IDX 20 12 8 13 7 14 6 15 5 16 4 17 3 18 2 19 1 20
REMARK H PARENT
REMARK Flexibility Score: inf
ROOT
ATOM      1  C   UNL     1     111.320   0.165  63.961  1.00  0.00    -0.031 C 
ATOM      2  C   UNL     1     111.642   1.302  64.597  1.00  0.00    -0.031 C 
ENDROOT
BRANCH   1   3
ATOM      3  C   UNL     1     112.375  -0.763  63.425  1.00  0.00     0.027 C 
BRANCH   3   4
ATOM      4  C   UNL     1     113.494   0.019  62.719  1.00  0.00     0.004 C 
BRANCH   4   5
ATOM      5  C   UNL     1     113.250   0.167  61.208  1.00  0.00     0.000 C 
BRANCH   5   6
ATOM      6  C   UNL     1     114.032   1.341  60.596  1.00  0.00     0.000 C 
BRANCH   6   7
ATOM      7  C   UNL     1     114.794   2.167  61.650  1.00  0.00     0.000 C 
BRANCH   7   8
ATOM      8  C   UNL     1     115.638   3.329  61.088  1.00  0.00     0.006 C 
BRANCH   8   9
ATOM      9  C   UNL     1     116.298   3.041  59.731  1.00  0.00     0.053 C 
BRANCH   9  10
ATOM     10  C   UNL     1     117.586   2.292  59.881  1.00  0.00     0.041 C 
ATOM     11  O   UNL     1     117.692   1.120  59.434  1.00  0.00    -0.550 OA
ATOM     12  O   UNL     1     118.659   2.875  60.542  1.00  0.00    -0.550 OA
ENDBRANCH   9  10
ENDBRANCH   8   9
ENDBRANCH   7   8
ENDBRANCH   6   7
ENDBRANCH   5   6
ENDBRANCH   4   5
ENDBRANCH   3   4
ENDBRANCH   1   3
BRANCH   2  13
ATOM     13  C   UNL     1     110.588   2.239  65.121  1.00  0.00     0.027 C 
BRANCH  13  14
ATOM     14  C   UNL     1     110.605   3.605  64.413  1.00  0.00     0.004 C 
BRANCH  14  15
ATOM     15  C   UNL     1     111.868   3.872  63.567  1.00  0.00     0.000 C 
BRANCH  15  16
ATOM     16  C   UNL     1     111.633   3.900  62.046  1.00  0.00     0.000 C 
BRANCH  16  17
ATOM     17  C   UNL     1     110.341   3.176  61.630  1.00  0.00    -0.000 C 
BRANCH  17  18
ATOM     18  C   UNL     1     110.438   2.560  60.226  1.00  0.00    -0.000 C 
BRANCH  18  19
ATOM     19  C   UNL     1     110.002   1.087  60.197  1.00  0.00    -0.003 C 
ATOM     20  C   UNL     1     108.946   0.806  61.263  1.00  0.00     0.004 C 
ENDBRANCH  18  19
ENDBRANCH  17  18
ENDBRANCH  16  17
ENDBRANCH  15  16
ENDBRANCH  14  15
ENDBRANCH  13  14
ENDBRANCH   2  13
TORSDOF 15
ENDMDL
MODEL 9
REMARK VINA RESULT:    -3.942      3.125      5.019
REMARK INTER + INTRA:          -9.192
REMARK INTER:                  -6.753
REMARK INTRA:                  -2.439
REMARK UNBOUND:                -1.794
REMARK SMILES CCCCCCCCC=CCCCCCCCC(=O)[O-]
REMARK SMILES IDX 10 1 9 2 11 3 12 4 13 5 14 6 15 7 16 8 17 9 18 10 19 11
REMARK SMILES IDX 20 12 8 13 7 14 6 15 5 16 4 17 3 18 2 19 1 20
REMARK H PARENT
REMARK Flexibility Score: inf
ROOT
ATOM      1  C   UNL     1     113.293   0.328  62.689  1.00  0.00    -0.031 C 
ATOM      2  C   UNL     1     112.513  -0.624  63.223  1.00  0.00    -0.031 C 
ENDROOT
BRANCH   1   3
ATOM      3  C   UNL     1     114.095   0.081  61.441  1.00  0.00     0.027 C 
BRANCH   3   4
ATOM      4  C   UNL     1     113.521   0.865  60.250  1.00  0.00     0.004 C 
BRANCH   4   5
ATOM      5  C   UNL     1     113.338   2.360  60.560  1.00  0.00     0.000 C 
BRANCH   5   6
ATOM      6  C   UNL     1     114.611   3.002  61.137  1.00  0.00     0.000 C 
BRANCH   6   7
ATOM      7  C   UNL     1     115.542   3.569  60.048  1.00  0.00     0.000 C 
BRANCH   7   8
ATOM      8  C   UNL     1     116.970   2.986  60.036  1.00  0.00     0.006 C 
BRANCH   8   9
ATOM      9  C   UNL     1     117.117   1.676  59.246  1.00  0.00     0.053 C 
BRANCH   9  10
ATOM     10  C   UNL     1     117.529   1.919  57.828  1.00  0.00     0.041 C 
ATOM     11  O   UNL     1     117.905   3.065  57.465  1.00  0.00    -0.550 OA
ATOM     12  O   UNL     1     117.469   0.889  56.897  1.00  0.00    -0.550 OA
ENDBRANCH   9  10
ENDBRANCH   8   9
ENDBRANCH   7   8
ENDBRANCH   6   7
ENDBRANCH   5   6
ENDBRANCH   4   5
ENDBRANCH   3   4
ENDBRANCH   1   3
BRANCH   2  13
ATOM     13  C   UNL     1     111.721  -0.382  64.480  1.00  0.00     0.027 C 
BRANCH  13  14
ATOM     14  C   UNL     1     112.032   0.980  65.123  1.00  0.00     0.004 C 
BRANCH  14  15
ATOM     15  C   UNL     1     110.999   2.084  64.815  1.00  0.00     0.000 C 
BRANCH  15  16
ATOM     16  C   UNL     1     111.525   3.236  63.940  1.00  0.00     0.000 C 
BRANCH  16  17
ATOM     17  C   UNL     1     110.590   3.564  62.763  1.00  0.00    -0.000 C 
BRANCH  17  18
ATOM     18  C   UNL     1     109.571   2.448  62.491  1.00  0.00    -0.000 C 
BRANCH  18  19
ATOM     19  C   UNL     1     109.968   1.564  61.300  1.00  0.00    -0.003 C 
ATOM     20  C   UNL     1     109.511   0.122  61.509  1.00  0.00     0.004 C 
ENDBRANCH  18  19
ENDBRANCH  17  18
ENDBRANCH  16  17
ENDBRANCH  15  16
ENDBRANCH  14  15
ENDBRANCH  13  14
ENDBRANCH   2  13
TORSDOF 15
ENDMDL
