MODEL 1
REMARK VINA RESULT:    -4.558      0.000      0.000
REMARK INTER + INTRA:          -8.485
REMARK INTER:                  -7.889
REMARK INTRA:                  -0.596
REMARK UNBOUND:                -0.596
REMARK SMILES CCCCCCCCCCCCCCO
REMARK SMILES IDX 8 1 7 2 6 3 5 4 4 5 3 6 2 7 1 8 9 9 10 10 11 11 12 12 13 13
REMARK SMILES IDX 14 14 15 15
REMARK H PARENT 15 16
REMARK Flexibility Score: inf
ROOT
ATOM      1  C   UNL     1     -31.657 -22.734 -33.979  1.00  0.00     0.000 C 
ENDROOT
BRANCH   1   2
ATOM      2  C   UNL     1     -32.355 -22.712 -35.344  1.00  0.00    -0.000 C 
BRANCH   2   3
ATOM      3  C   UNL     1     -32.185 -24.050 -36.072  1.00  0.00    -0.000 C 
BRANCH   3   4
ATOM      4  C   UNL     1     -31.085 -23.961 -37.137  1.00  0.00    -0.000 C 
BRANCH   4   5
ATOM      5  C   UNL     1     -31.349 -24.944 -38.286  1.00  0.00    -0.000 C 
BRANCH   5   6
ATOM      6  C   UNL     1     -32.437 -25.978 -37.951  1.00  0.00    -0.000 C 
BRANCH   6   7
ATOM      7  C   UNL     1     -32.225 -27.343 -38.641  1.00  0.00    -0.003 C 
ATOM      8  C   UNL     1     -33.483 -28.210 -38.613  1.00  0.00     0.004 C 
ENDBRANCH   6   7
ENDBRANCH   5   6
ENDBRANCH   4   5
ENDBRANCH   3   4
ENDBRANCH   2   3
ENDBRANCH   1   2
BRANCH   1   9
ATOM      9  C   UNL     1     -31.099 -21.351 -33.624  1.00  0.00     0.000 C 
BRANCH   9  10
ATOM     10  C   UNL     1     -29.585 -21.413 -33.383  1.00  0.00     0.000 C 
BRANCH  10  11
ATOM     11  C   UNL     1     -29.179 -20.513 -32.206  1.00  0.00     0.000 C 
BRANCH  11  12
ATOM     12  C   UNL     1     -30.389 -19.878 -31.503  1.00  0.00     0.002 C 
BRANCH  12  13
ATOM     13  C   UNL     1     -30.560 -20.372 -30.057  1.00  0.00     0.028 C 
BRANCH  13  14
ATOM     14  C   UNL     1     -30.373 -21.888 -29.946  1.00  0.00     0.156 C 
BRANCH  14  15
ATOM     15  O   UNL     1     -29.686 -22.219 -28.769  1.00  0.00    -0.396 OA
ATOM     16  H   UNL     1     -29.545 -23.201 -28.784  1.00  0.00     0.210 HD
ENDBRANCH  14  15
ENDBRANCH  13  14
ENDBRANCH  12  13
ENDBRANCH  11  12
ENDBRANCH  10  11
ENDBRANCH   9  10
ENDBRANCH   1   9
TORSDOF 13
ENDMDL
MODEL 2
REMARK VINA RESULT:    -4.412      0.816      1.290
REMARK INTER + INTRA:          -8.232
REMARK INTER:                  -7.404
REMARK INTRA:                  -0.828
REMARK UNBOUND:                -0.596
REMARK SMILES CCCCCCCCCCCCCCO
REMARK SMILES IDX 8 1 7 2 6 3 5 4 4 5 3 6 2 7 1 8 9 9 10 10 11 11 12 12 13 13
REMARK SMILES IDX 14 14 15 15
REMARK H PARENT 15 16
REMARK Flexibility Score: inf
ROOT
ATOM      1  C   UNL     1     -31.327 -22.288 -33.786  1.00  0.00     0.000 C 
ENDROOT
BRANCH   1   2
ATOM      2  C   UNL     1     -32.265 -23.202 -34.582  1.00  0.00    -0.000 C 
BRANCH   2   3
ATOM      3  C   UNL     1     -32.770 -22.504 -35.850  1.00  0.00    -0.000 C 
BRANCH   3   4
ATOM      4  C   UNL     1     -32.570 -23.392 -37.084  1.00  0.00    -0.000 C 
BRANCH   4   5
ATOM      5  C   UNL     1     -31.126 -23.903 -37.168  1.00  0.00    -0.000 C 
BRANCH   5   6
ATOM      6  C   UNL     1     -30.984 -25.157 -38.045  1.00  0.00    -0.000 C 
BRANCH   6   7
ATOM      7  C   UNL     1     -32.321 -25.884 -38.306  1.00  0.00    -0.003 C 
ATOM      8  C   UNL     1     -32.122 -27.353 -38.676  1.00  0.00     0.004 C 
ENDBRANCH   6   7
ENDBRANCH   5   6
ENDBRANCH   4   5
ENDBRANCH   3   4
ENDBRANCH   2   3
ENDBRANCH   1   2
BRANCH   1   9
ATOM      9  C   UNL     1     -31.802 -20.831 -33.839  1.00  0.00     0.000 C 
BRANCH   9  10
ATOM     10  C   UNL     1     -30.827 -19.907 -33.097  1.00  0.00     0.000 C 
BRANCH  10  11
ATOM     11  C   UNL     1     -29.465 -20.588 -32.903  1.00  0.00     0.000 C 
BRANCH  11  12
ATOM     12  C   UNL     1     -28.859 -20.315 -31.517  1.00  0.00     0.002 C 
BRANCH  12  13
ATOM     13  C   UNL     1     -29.919 -20.291 -30.404  1.00  0.00     0.028 C 
BRANCH  13  14
ATOM     14  C   UNL     1     -30.440 -21.694 -30.080  1.00  0.00     0.156 C 
BRANCH  14  15
ATOM     15  O   UNL     1     -29.750 -22.241 -28.987  1.00  0.00    -0.396 OA
ATOM     16  H   UNL     1     -30.392 -22.822 -28.503  1.00  0.00     0.210 HD
ENDBRANCH  14  15
ENDBRANCH  13  14
ENDBRANCH  12  13
ENDBRANCH  11  12
ENDBRANCH  10  11
ENDBRANCH   9  10
ENDBRANCH   1   9
TORSDOF 13
ENDMDL
MODEL 3
REMARK VINA RESULT:    -4.278      3.440      8.311
REMARK INTER + INTRA:          -8.001
REMARK INTER:                  -7.390
REMARK INTRA:                  -0.612
REMARK UNBOUND:                -0.596
REMARK SMILES CCCCCCCCCCCCCCO
REMARK SMILES IDX 8 1 7 2 6 3 5 4 4 5 3 6 2 7 1 8 9 9 10 10 11 11 12 12 13 13
REMARK SMILES IDX 14 14 15 15
REMARK H PARENT 15 16
REMARK Flexibility Score: inf
ROOT
ATOM      1  C   UNL     1     -32.559 -23.729 -35.823  1.00  0.00     0.000 C 
ENDROOT
BRANCH   1   2
ATOM      2  C   UNL     1     -32.576 -22.468 -34.950  1.00  0.00    -0.000 C 
BRANCH   2   3
ATOM      3  C   UNL     1     -31.477 -22.521 -33.883  1.00  0.00    -0.000 C 
BRANCH   3   4
ATOM      4  C   UNL     1     -30.929 -21.119 -33.587  1.00  0.00    -0.000 C 
BRANCH   4   5
ATOM      5  C   UNL     1     -29.457 -21.181 -33.160  1.00  0.00    -0.000 C 
BRANCH   5   6
ATOM      6  C   UNL     1     -29.201 -20.529 -31.792  1.00  0.00    -0.000 C 
BRANCH   6   7
ATOM      7  C   UNL     1     -30.323 -20.788 -30.765  1.00  0.00    -0.003 C 
ATOM      8  C   UNL     1     -30.253 -22.193 -30.168  1.00  0.00     0.004 C 
ENDBRANCH   6   7
ENDBRANCH   5   6
ENDBRANCH   4   5
ENDBRANCH   3   4
ENDBRANCH   2   3
ENDBRANCH   1   2
BRANCH   1   9
ATOM      9  C   UNL     1     -31.750 -23.499 -37.105  1.00  0.00     0.000 C 
BRANCH   9  10
ATOM     10  C   UNL     1     -31.089 -24.801 -37.579  1.00  0.00     0.000 C 
BRANCH  10  11
ATOM     11  C   UNL     1     -31.858 -25.407 -38.763  1.00  0.00     0.000 C 
BRANCH  11  12
ATOM     12  C   UNL     1     -31.987 -26.935 -38.664  1.00  0.00     0.002 C 
BRANCH  12  13
ATOM     13  C   UNL     1     -33.318 -27.376 -38.032  1.00  0.00     0.028 C 
BRANCH  13  14
ATOM     14  C   UNL     1     -34.046 -28.408 -38.897  1.00  0.00     0.156 C 
BRANCH  14  15
ATOM     15  O   UNL     1     -33.358 -29.630 -38.899  1.00  0.00    -0.396 OA
ATOM     16  H   UNL     1     -33.109 -29.820 -39.840  1.00  0.00     0.210 HD
ENDBRANCH  14  15
ENDBRANCH  13  14
ENDBRANCH  12  13
ENDBRANCH  11  12
ENDBRANCH  10  11
ENDBRANCH   9  10
ENDBRANCH   1   9
TORSDOF 13
ENDMDL
MODEL 4
REMARK VINA RESULT:    -4.193      2.925      7.445
REMARK INTER + INTRA:          -7.854
REMARK INTER:                  -6.758
REMARK INTRA:                  -1.096
REMARK UNBOUND:                -0.596
REMARK SMILES CCCCCCCCCCCCCCO
REMARK SMILES IDX 8 1 7 2 6 3 5 4 4 5 3 6 2 7 1 8 9 9 10 10 11 11 12 12 13 13
REMARK SMILES IDX 14 14 15 15
REMARK H PARENT 15 16
REMARK Flexibility Score: inf
ROOT
ATOM      1  C   UNL     1     -31.218 -22.241 -33.943  1.00  0.00     0.000 C 
ENDROOT
BRANCH   1   2
ATOM      2  C   UNL     1     -31.815 -20.830 -33.888  1.00  0.00    -0.000 C 
BRANCH   2   3
ATOM      3  C   UNL     1     -30.907 -19.877 -33.103  1.00  0.00    -0.000 C 
BRANCH   3   4
ATOM      4  C   UNL     1     -29.470 -20.411 -33.045  1.00  0.00    -0.000 C 
BRANCH   4   5
ATOM      5  C   UNL     1     -28.913 -20.342 -31.616  1.00  0.00    -0.000 C 
BRANCH   5   6
ATOM      6  C   UNL     1     -30.016 -20.287 -30.546  1.00  0.00    -0.000 C 
BRANCH   6   7
ATOM      7  C   UNL     1     -30.138 -21.585 -29.718  1.00  0.00    -0.003 C 
ATOM      8  C   UNL     1     -30.462 -22.800 -30.586  1.00  0.00     0.004 C 
ENDBRANCH   6   7
ENDBRANCH   5   6
ENDBRANCH   4   5
ENDBRANCH   3   4
ENDBRANCH   2   3
ENDBRANCH   1   2
BRANCH   1   9
ATOM      9  C   UNL     1     -32.031 -23.146 -34.876  1.00  0.00     0.000 C 
BRANCH   9  10
ATOM     10  C   UNL     1     -33.048 -22.332 -35.686  1.00  0.00     0.000 C 
BRANCH  10  11
ATOM     11  C   UNL     1     -33.409 -23.049 -36.995  1.00  0.00     0.000 C 
BRANCH  11  12
ATOM     12  C   UNL     1     -32.893 -22.306 -38.238  1.00  0.00     0.002 C 
BRANCH  12  13
ATOM     13  C   UNL     1     -31.583 -22.899 -38.780  1.00  0.00     0.028 C 
BRANCH  13  14
ATOM     14  C   UNL     1     -31.501 -24.411 -38.547  1.00  0.00     0.156 C 
BRANCH  14  15
ATOM     15  O   UNL     1     -30.419 -24.727 -37.712  1.00  0.00    -0.396 OA
ATOM     16  H   UNL     1     -29.592 -24.548 -38.230  1.00  0.00     0.210 HD
ENDBRANCH  14  15
ENDBRANCH  13  14
ENDBRANCH  12  13
ENDBRANCH  11  12
ENDBRANCH  10  11
ENDBRANCH   9  10
ENDBRANCH   1   9
TORSDOF 13
ENDMDL
MODEL 5
REMARK VINA RESULT:    -3.611      3.241      8.042
REMARK INTER + INTRA:          -6.846
REMARK INTER:                  -6.674
REMARK INTRA:                  -0.172
REMARK UNBOUND:                -0.596
REMARK SMILES CCCCCCCCCCCCCCO
REMARK SMILES IDX 8 1 7 2 6 3 5 4 4 5 3 6 2 7 1 8 9 9 10 10 11 11 12 12 13 13
REMARK SMILES IDX 14 14 15 15
REMARK H PARENT 15 16
REMARK Flexibility Score: inf
ROOT
ATOM      1  C   UNL     1     -31.539 -22.198 -34.240  1.00  0.00     0.000 C 
ENDROOT
BRANCH   1   2
ATOM      2  C   UNL     1     -32.019 -20.759 -34.018  1.00  0.00    -0.000 C 
BRANCH   2   3
ATOM      3  C   UNL     1     -30.946 -19.923 -33.311  1.00  0.00    -0.000 C 
BRANCH   3   4
ATOM      4  C   UNL     1     -29.711 -20.773 -32.987  1.00  0.00    -0.000 C 
BRANCH   4   5
ATOM      5  C   UNL     1     -28.830 -20.087 -31.935  1.00  0.00    -0.000 C 
BRANCH   5   6
ATOM      6  C   UNL     1     -29.252 -20.415 -30.494  1.00  0.00    -0.000 C 
BRANCH   6   7
ATOM      7  C   UNL     1     -30.560 -21.231 -30.403  1.00  0.00    -0.003 C 
ATOM      8  C   UNL     1     -30.317 -22.735 -30.527  1.00  0.00     0.004 C 
ENDBRANCH   6   7
ENDBRANCH   5   6
ENDBRANCH   4   5
ENDBRANCH   3   4
ENDBRANCH   2   3
ENDBRANCH   1   2
BRANCH   1   9
ATOM      9  C   UNL     1     -32.379 -22.899 -35.314  1.00  0.00     0.000 C 
BRANCH   9  10
ATOM     10  C   UNL     1     -31.491 -23.713 -36.264  1.00  0.00     0.000 C 
BRANCH  10  11
ATOM     11  C   UNL     1     -32.341 -24.608 -37.178  1.00  0.00     0.000 C 
BRANCH  11  12
ATOM     12  C   UNL     1     -31.487 -25.540 -38.052  1.00  0.00     0.002 C 
BRANCH  12  13
ATOM     13  C   UNL     1     -32.336 -26.413 -38.991  1.00  0.00     0.028 C 
BRANCH  13  14
ATOM     14  C   UNL     1     -32.535 -27.825 -38.434  1.00  0.00     0.156 C 
BRANCH  14  15
ATOM     15  O   UNL     1     -31.463 -28.656 -38.791  1.00  0.00    -0.396 OA
ATOM     16  H   UNL     1     -30.782 -28.078 -39.223  1.00  0.00     0.210 HD
ENDBRANCH  14  15
ENDBRANCH  13  14
ENDBRANCH  12  13
ENDBRANCH  11  12
ENDBRANCH  10  11
ENDBRANCH   9  10
ENDBRANCH   1   9
TORSDOF 13
ENDMDL
MODEL 6
REMARK VINA RESULT:    -2.868      1.015      2.305
REMARK INTER + INTRA:          -5.560
REMARK INTER:                  -5.017
REMARK INTRA:                  -0.543
REMARK UNBOUND:                -0.596
REMARK SMILES CCCCCCCCCCCCCCO
REMARK SMILES IDX 8 1 7 2 6 3 5 4 4 5 3 6 2 7 1 8 9 9 10 10 11 11 12 12 13 13
REMARK SMILES IDX 14 14 15 15
REMARK H PARENT 15 16
REMARK Flexibility Score: inf
ROOT
ATOM      1  C   UNL     1     -31.384 -23.690 -36.004  1.00  0.00     0.000 C 
ENDROOT
BRANCH   1   2
ATOM      2  C   UNL     1     -30.839 -24.049 -37.392  1.00  0.00    -0.000 C 
BRANCH   2   3
ATOM      3  C   UNL     1     -31.937 -23.947 -38.457  1.00  0.00    -0.000 C 
BRANCH   3   4
ATOM      4  C   UNL     1     -32.244 -25.321 -39.064  1.00  0.00    -0.000 C 
BRANCH   4   5
ATOM      5  C   UNL     1     -31.470 -26.430 -38.339  1.00  0.00    -0.000 C 
BRANCH   5   6
ATOM      6  C   UNL     1     -32.310 -27.698 -38.113  1.00  0.00    -0.000 C 
BRANCH   6   7
ATOM      7  C   UNL     1     -33.541 -27.796 -39.038  1.00  0.00    -0.003 C 
ATOM      8  C   UNL     1     -34.091 -29.220 -39.125  1.00  0.00     0.004 C 
ENDBRANCH   6   7
ENDBRANCH   5   6
ENDBRANCH   4   5
ENDBRANCH   3   4
ENDBRANCH   2   3
ENDBRANCH   1   2
BRANCH   1   9
ATOM      9  C   UNL     1     -32.267 -22.438 -36.066  1.00  0.00     0.000 C 
BRANCH   9  10
ATOM     10  C   UNL     1     -32.768 -22.048 -34.669  1.00  0.00     0.000 C 
BRANCH  10  11
ATOM     11  C   UNL     1     -31.812 -21.049 -34.002  1.00  0.00     0.000 C 
BRANCH  11  12
ATOM     12  C   UNL     1     -30.666 -21.741 -33.247  1.00  0.00     0.002 C 
BRANCH  12  13
ATOM     13  C   UNL     1     -30.143 -20.902 -32.070  1.00  0.00     0.028 C 
BRANCH  13  14
ATOM     14  C   UNL     1     -30.645 -21.431 -30.723  1.00  0.00     0.156 C 
BRANCH  14  15
ATOM     15  O   UNL     1     -29.596 -21.506 -29.795  1.00  0.00    -0.396 OA
ATOM     16  H   UNL     1     -29.891 -22.120 -29.074  1.00  0.00     0.210 HD
ENDBRANCH  14  15
ENDBRANCH  13  14
ENDBRANCH  12  13
ENDBRANCH  11  12
ENDBRANCH  10  11
ENDBRANCH   9  10
ENDBRANCH   1   9
TORSDOF 13
ENDMDL
MODEL 7
REMARK VINA RESULT:    -2.231      3.551      8.416
REMARK INTER + INTRA:          -4.458
REMARK INTER:                  -3.996
REMARK INTRA:                  -0.462
REMARK UNBOUND:                -0.596
REMARK SMILES CCCCCCCCCCCCCCO
REMARK SMILES IDX 8 1 7 2 6 3 5 4 4 5 3 6 2 7 1 8 9 9 10 10 11 11 12 12 13 13
REMARK SMILES IDX 14 14 15 15
REMARK H PARENT 15 16
REMARK Flexibility Score: inf
ROOT
ATOM      1  C   UNL     1     -32.037 -23.560 -36.537  1.00  0.00     0.000 C 
ENDROOT
BRANCH   1   2
ATOM      2  C   UNL     1     -32.989 -22.370 -36.708  1.00  0.00    -0.000 C 
BRANCH   2   3
ATOM      3  C   UNL     1     -33.227 -21.658 -35.372  1.00  0.00    -0.000 C 
BRANCH   3   4
ATOM      4  C   UNL     1     -31.931 -21.573 -34.556  1.00  0.00    -0.000 C 
BRANCH   4   5
ATOM      5  C   UNL     1     -31.796 -20.204 -33.876  1.00  0.00    -0.000 C 
BRANCH   5   6
ATOM      6  C   UNL     1     -31.416 -20.308 -32.390  1.00  0.00    -0.000 C 
BRANCH   6   7
ATOM      7  C   UNL     1     -30.483 -21.496 -32.072  1.00  0.00    -0.003 C 
ATOM      8  C   UNL     1     -29.013 -21.165 -32.326  1.00  0.00     0.004 C 
ENDBRANCH   6   7
ENDBRANCH   5   6
ENDBRANCH   4   5
ENDBRANCH   3   4
ENDBRANCH   2   3
ENDBRANCH   1   2
BRANCH   1   9
ATOM      9  C   UNL     1     -32.795 -24.890 -36.628  1.00  0.00     0.000 C 
BRANCH   9  10
ATOM     10  C   UNL     1     -32.262 -25.749 -37.783  1.00  0.00     0.000 C 
BRANCH  10  11
ATOM     11  C   UNL     1     -33.182 -26.951 -38.042  1.00  0.00     0.000 C 
BRANCH  11  12
ATOM     12  C   UNL     1     -32.588 -27.941 -39.057  1.00  0.00     0.002 C 
BRANCH  12  13
ATOM     13  C   UNL     1     -31.162 -28.381 -38.688  1.00  0.00     0.028 C 
BRANCH  13  14
ATOM     14  C   UNL     1     -30.877 -29.821 -39.125  1.00  0.00     0.156 C 
BRANCH  14  15
ATOM     15  O   UNL     1     -29.635 -30.252 -38.637  1.00  0.00    -0.396 OA
ATOM     16  H   UNL     1     -29.014 -29.480 -38.706  1.00  0.00     0.210 HD
ENDBRANCH  14  15
ENDBRANCH  13  14
ENDBRANCH  12  13
ENDBRANCH  11  12
ENDBRANCH  10  11
ENDBRANCH   9  10
ENDBRANCH   1   9
TORSDOF 13
ENDMDL
