MODEL 1
REMARK VINA RESULT:    -3.723      0.000      0.000
REMARK INTER + INTRA:          -4.536
REMARK INTER:                  -4.485
REMARK INTRA:                  -0.052
REMARK UNBOUND:                -0.052
REMARK SMILES CC[C@H](C)[C@@H]([NH3+])C(=O)[O-]
REMARK SMILES IDX 3 1 4 2 5 3 6 4 7 8 8 9 9 10 2 11 1 12
REMARK H PARENT 6 5 6 6 6 7
REMARK Flexibility Score: inf
ROOT
ATOM      1  C   UNL     1      29.063  25.477  22.141  1.00  0.00     0.050 C 
ATOM      2  C   UNL     1      29.465  24.555  20.976  1.00  0.00     0.014 C 
ENDROOT
BRANCH   1   3
ATOM      3  C   UNL     1      27.846  26.370  21.722  1.00  0.00     0.230 C 
BRANCH   3   4
ATOM      4  N   UNL     1      27.474  26.179  20.312  1.00  0.00    -0.350 N 
ATOM      5  H   UNL     1      28.240  25.736  19.762  1.00  0.00     0.345 HD
ATOM      6  H   UNL     1      26.630  25.564  20.253  1.00  0.00     0.345 HD
ATOM      7  H   UNL     1      27.230  27.099  19.878  1.00  0.00     0.345 HD
ENDBRANCH   3   4
BRANCH   3   8
ATOM      8  C   UNL     1      26.649  26.202  22.628  1.00  0.00     0.099 C 
ATOM      9  O   UNL     1      26.290  27.149  23.376  1.00  0.00    -0.544 OA
ATOM     10  O   UNL     1      25.956  24.998  22.675  1.00  0.00    -0.544 OA
ENDBRANCH   3   8
ENDBRANCH   1   3
BRANCH   1  11
ATOM     11  C   UNL     1      30.324  26.241  22.633  1.00  0.00     0.006 C 
ATOM     12  C   UNL     1      31.433  25.340  23.177  1.00  0.00     0.004 C 
ENDBRANCH   1  11
TORSDOF 4
ENDMDL
MODEL 2
REMARK VINA RESULT:    -3.718      1.756      2.661
REMARK INTER + INTRA:          -4.531
REMARK INTER:                  -4.435
REMARK INTRA:                  -0.096
REMARK UNBOUND:                -0.052
REMARK SMILES CC[C@H](C)[C@@H]([NH3+])C(=O)[O-]
REMARK SMILES IDX 3 1 4 2 5 3 6 4 7 8 8 9 9 10 2 11 1 12
REMARK H PARENT 6 5 6 6 6 7
REMARK Flexibility Score: inf
ROOT
ATOM      1  C   UNL     1      28.873  26.057  21.087  1.00  0.00     0.050 C 
ATOM      2  C   UNL     1      29.454  24.645  21.281  1.00  0.00     0.014 C 
ENDROOT
BRANCH   1   3
ATOM      3  C   UNL     1      27.526  26.195  21.875  1.00  0.00     0.230 C 
BRANCH   3   4
ATOM      4  N   UNL     1      26.824  24.909  22.006  1.00  0.00    -0.350 N 
ATOM      5  H   UNL     1      25.872  25.023  22.411  1.00  0.00     0.345 HD
ATOM      6  H   UNL     1      26.728  24.465  21.063  1.00  0.00     0.345 HD
ATOM      7  H   UNL     1      27.377  24.259  22.610  1.00  0.00     0.345 HD
ENDBRANCH   3   4
BRANCH   3   8
ATOM      8  C   UNL     1      27.691  26.865  23.218  1.00  0.00     0.099 C 
ATOM      9  O   UNL     1      26.714  26.934  24.009  1.00  0.00    -0.544 OA
ATOM     10  O   UNL     1      28.902  27.442  23.581  1.00  0.00    -0.544 OA
ENDBRANCH   3   8
ENDBRANCH   1   3
BRANCH   1  11
ATOM     11  C   UNL     1      28.803  26.365  19.566  1.00  0.00     0.006 C 
ATOM     12  C   UNL     1      28.776  25.125  18.672  1.00  0.00     0.004 C 
ENDBRANCH   1  11
TORSDOF 4
ENDMDL
MODEL 3
REMARK VINA RESULT:    -3.709      0.121      1.078
REMARK INTER + INTRA:          -4.520
REMARK INTER:                  -4.466
REMARK INTRA:                  -0.054
REMARK UNBOUND:                -0.052
REMARK SMILES CC[C@H](C)[C@@H]([NH3+])C(=O)[O-]
REMARK SMILES IDX 3 1 4 2 5 3 6 4 7 8 8 9 9 10 2 11 1 12
REMARK H PARENT 6 5 6 6 6 7
REMARK Flexibility Score: inf
ROOT
ATOM      1  C   UNL     1      29.035  25.484  22.095  1.00  0.00     0.050 C 
ATOM      2  C   UNL     1      29.455  24.568  20.933  1.00  0.00     0.014 C 
ENDROOT
BRANCH   1   3
ATOM      3  C   UNL     1      27.808  26.361  21.669  1.00  0.00     0.230 C 
BRANCH   3   4
ATOM      4  N   UNL     1      27.475  26.199  20.246  1.00  0.00    -0.350 N 
ATOM      5  H   UNL     1      26.507  25.840  20.109  1.00  0.00     0.345 HD
ATOM      6  H   UNL     1      27.554  27.122  19.760  1.00  0.00     0.345 HD
ATOM      7  H   UNL     1      28.151  25.541  19.793  1.00  0.00     0.345 HD
ENDBRANCH   3   4
BRANCH   3   8
ATOM      8  C   UNL     1      26.594  26.145  22.541  1.00  0.00     0.099 C 
ATOM      9  O   UNL     1      26.051  25.011  22.591  1.00  0.00    -0.544 OA
ATOM     10  O   UNL     1      26.042  27.196  23.264  1.00  0.00    -0.544 OA
ENDBRANCH   3   8
ENDBRANCH   1   3
BRANCH   1  11
ATOM     11  C   UNL     1      30.283  26.264  22.594  1.00  0.00     0.006 C 
ATOM     12  C   UNL     1      31.370  25.383  23.212  1.00  0.00     0.004 C 
ENDBRANCH   1  11
TORSDOF 4
ENDMDL
MODEL 4
REMARK VINA RESULT:    -3.549      2.379      3.106
REMARK INTER + INTRA:          -4.326
REMARK INTER:                  -4.215
REMARK INTRA:                  -0.112
REMARK UNBOUND:                -0.052
REMARK SMILES CC[C@H](C)[C@@H]([NH3+])C(=O)[O-]
REMARK SMILES IDX 3 1 4 2 5 3 6 4 7 8 8 9 9 10 2 11 1 12
REMARK H PARENT 6 5 6 6 6 7
REMARK Flexibility Score: inf
ROOT
ATOM      1  C   UNL     1      28.545  27.152  22.843  1.00  0.00     0.050 C 
ATOM      2  C   UNL     1      28.010  27.266  24.281  1.00  0.00     0.014 C 
ENDROOT
BRANCH   1   3
ATOM      3  C   UNL     1      27.902  25.915  22.128  1.00  0.00     0.230 C 
BRANCH   3   4
ATOM      4  N   UNL     1      26.505  26.161  21.738  1.00  0.00    -0.350 N 
ATOM      5  H   UNL     1      26.426  26.479  20.749  1.00  0.00     0.345 HD
ATOM      6  H   UNL     1      25.952  25.280  21.845  1.00  0.00     0.345 HD
ATOM      7  H   UNL     1      26.081  26.884  22.364  1.00  0.00     0.345 HD
ENDBRANCH   3   4
BRANCH   3   8
ATOM      8  C   UNL     1      28.715  25.418  20.956  1.00  0.00     0.099 C 
ATOM      9  O   UNL     1      29.405  24.372  21.069  1.00  0.00    -0.544 OA
ATOM     10  O   UNL     1      28.743  26.125  19.760  1.00  0.00    -0.544 OA
ENDBRANCH   3   8
ENDBRANCH   1   3
BRANCH   1  11
ATOM     11  C   UNL     1      30.098  27.178  22.882  1.00  0.00     0.006 C 
ATOM     12  C   UNL     1      30.729  28.326  22.093  1.00  0.00     0.004 C 
ENDBRANCH   1  11
TORSDOF 4
ENDMDL
MODEL 5
REMARK VINA RESULT:    -3.510      2.328      2.946
REMARK INTER + INTRA:          -4.280
REMARK INTER:                  -4.191
REMARK INTRA:                  -0.090
REMARK UNBOUND:                -0.052
REMARK SMILES CC[C@H](C)[C@@H]([NH3+])C(=O)[O-]
REMARK SMILES IDX 3 1 4 2 5 3 6 4 7 8 8 9 9 10 2 11 1 12
REMARK H PARENT 6 5 6 6 6 7
REMARK Flexibility Score: inf
ROOT
ATOM      1  C   UNL     1      29.076  27.109  22.619  1.00  0.00     0.050 C 
ATOM      2  C   UNL     1      28.530  27.520  23.997  1.00  0.00     0.014 C 
ENDROOT
BRANCH   1   3
ATOM      3  C   UNL     1      28.231  25.924  22.039  1.00  0.00     0.230 C 
BRANCH   3   4
ATOM      4  N   UNL     1      26.830  26.303  21.802  1.00  0.00    -0.350 N 
ATOM      5  H   UNL     1      26.598  26.329  20.787  1.00  0.00     0.345 HD
ATOM      6  H   UNL     1      26.197  25.611  22.265  1.00  0.00     0.345 HD
ATOM      7  H   UNL     1      26.637  27.242  22.220  1.00  0.00     0.345 HD
ENDBRANCH   3   4
BRANCH   3   8
ATOM      8  C   UNL     1      28.845  25.306  20.805  1.00  0.00     0.099 C 
ATOM      9  O   UNL     1      29.487  24.228  20.896  1.00  0.00    -0.544 OA
ATOM     10  O   UNL     1      28.743  25.935  19.570  1.00  0.00    -0.544 OA
ENDBRANCH   3   8
ENDBRANCH   1   3
BRANCH   1  11
ATOM     11  C   UNL     1      30.604  26.855  22.741  1.00  0.00     0.006 C 
ATOM     12  C   UNL     1      30.982  25.763  23.742  1.00  0.00     0.004 C 
ENDBRANCH   1  11
TORSDOF 4
ENDMDL
MODEL 6
REMARK VINA RESULT:    -3.496      2.099      2.822
REMARK INTER + INTRA:          -4.263
REMARK INTER:                  -4.295
REMARK INTRA:                   0.032
REMARK UNBOUND:                -0.052
REMARK SMILES CC[C@H](C)[C@@H]([NH3+])C(=O)[O-]
REMARK SMILES IDX 3 1 4 2 5 3 6 4 7 8 8 9 9 10 2 11 1 12
REMARK H PARENT 6 5 6 6 6 7
REMARK Flexibility Score: inf
ROOT
ATOM      1  C   UNL     1      27.526  26.387  22.100  1.00  0.00     0.050 C 
ATOM      2  C   UNL     1      28.259  26.823  23.381  1.00  0.00     0.014 C 
ENDROOT
BRANCH   1   3
ATOM      3  C   UNL     1      26.053  25.974  22.440  1.00  0.00     0.230 C 
BRANCH   3   4
ATOM      4  N   UNL     1      25.902  24.518  22.583  1.00  0.00    -0.350 N 
ATOM      5  H   UNL     1      26.202  24.184  23.523  1.00  0.00     0.345 HD
ATOM      6  H   UNL     1      24.898  24.256  22.447  1.00  0.00     0.345 HD
ATOM      7  H   UNL     1      26.463  24.026  21.850  1.00  0.00     0.345 HD
ENDBRANCH   3   4
BRANCH   3   8
ATOM      8  C   UNL     1      25.497  26.700  23.643  1.00  0.00     0.099 C 
ATOM      9  O   UNL     1      25.396  26.102  24.746  1.00  0.00    -0.544 OA
ATOM     10  O   UNL     1      25.058  28.014  23.539  1.00  0.00    -0.544 OA
ENDBRANCH   3   8
ENDBRANCH   1   3
BRANCH   1  11
ATOM     11  C   UNL     1      28.380  25.310  21.376  1.00  0.00     0.006 C 
ATOM     12  C   UNL     1      28.644  25.604  19.899  1.00  0.00     0.004 C 
ENDBRANCH   1  11
TORSDOF 4
ENDMDL
MODEL 7
REMARK VINA RESULT:    -3.406      2.883      3.866
REMARK INTER + INTRA:          -4.154
REMARK INTER:                  -4.088
REMARK INTRA:                  -0.066
REMARK UNBOUND:                -0.052
REMARK SMILES CC[C@H](C)[C@@H]([NH3+])C(=O)[O-]
REMARK SMILES IDX 3 1 4 2 5 3 6 4 7 8 8 9 9 10 2 11 1 12
REMARK H PARENT 6 5 6 6 6 7
REMARK Flexibility Score: inf
ROOT
ATOM      1  C   UNL     1      28.824  25.900  21.449  1.00  0.00     0.050 C 
ATOM      2  C   UNL     1      27.395  25.739  21.996  1.00  0.00     0.014 C 
ENDROOT
BRANCH   1   3
ATOM      3  C   UNL     1      29.660  26.825  22.397  1.00  0.00     0.230 C 
BRANCH   3   4
ATOM      4  N   UNL     1      28.807  27.692  23.223  1.00  0.00    -0.350 N 
ATOM      5  H   UNL     1      28.124  27.146  23.788  1.00  0.00     0.345 HD
ATOM      6  H   UNL     1      29.404  28.249  23.877  1.00  0.00     0.345 HD
ATOM      7  H   UNL     1      28.286  28.366  22.615  1.00  0.00     0.345 HD
ENDBRANCH   3   4
BRANCH   3   8
ATOM      8  C   UNL     1      30.648  26.063  23.249  1.00  0.00     0.099 C 
ATOM      9  O   UNL     1      31.115  24.968  22.840  1.00  0.00    -0.544 OA
ATOM     10  O   UNL     1      31.021  26.537  24.500  1.00  0.00    -0.544 OA
ENDBRANCH   3   8
ENDBRANCH   1   3
BRANCH   1  11
ATOM     11  C   UNL     1      28.744  26.349  19.963  1.00  0.00     0.006 C 
ATOM     12  C   UNL     1      28.779  25.200  18.955  1.00  0.00     0.004 C 
ENDBRANCH   1  11
TORSDOF 4
ENDMDL
MODEL 8
REMARK VINA RESULT:    -3.396      2.297      3.505
REMARK INTER + INTRA:          -4.142
REMARK INTER:                  -4.115
REMARK INTRA:                  -0.027
REMARK UNBOUND:                -0.052
REMARK SMILES CC[C@H](C)[C@@H]([NH3+])C(=O)[O-]
REMARK SMILES IDX 3 1 4 2 5 3 6 4 7 8 8 9 9 10 2 11 1 12
REMARK H PARENT 6 5 6 6 6 7
REMARK Flexibility Score: inf
ROOT
ATOM      1  C   UNL     1      26.872  26.549  22.576  1.00  0.00     0.050 C 
ATOM      2  C   UNL     1      25.730  25.561  22.873  1.00  0.00     0.014 C 
ENDROOT
BRANCH   1   3
ATOM      3  C   UNL     1      27.916  25.887  21.613  1.00  0.00     0.230 C 
BRANCH   3   4
ATOM      4  N   UNL     1      27.581  26.101  20.197  1.00  0.00    -0.350 N 
ATOM      5  H   UNL     1      26.556  26.036  20.023  1.00  0.00     0.345 HD
ATOM      6  H   UNL     1      27.905  27.051  19.900  1.00  0.00     0.345 HD
ATOM      7  H   UNL     1      28.073  25.395  19.602  1.00  0.00     0.345 HD
ENDBRANCH   3   4
BRANCH   3   8
ATOM      8  C   UNL     1      29.338  26.304  21.905  1.00  0.00     0.099 C 
ATOM      9  O   UNL     1      29.754  27.428  21.522  1.00  0.00    -0.544 OA
ATOM     10  O   UNL     1      30.210  25.443  22.561  1.00  0.00    -0.544 OA
ENDBRANCH   3   8
ENDBRANCH   1   3
BRANCH   1  11
ATOM     11  C   UNL     1      27.436  27.083  23.921  1.00  0.00     0.006 C 
ATOM     12  C   UNL     1      26.366  27.466  24.945  1.00  0.00     0.004 C 
ENDBRANCH   1  11
TORSDOF 4
ENDMDL
MODEL 9
REMARK VINA RESULT:    -3.291      2.121      2.678
REMARK INTER + INTRA:          -4.016
REMARK INTER:                  -3.908
REMARK INTRA:                  -0.109
REMARK UNBOUND:                -0.052
REMARK SMILES CC[C@H](C)[C@@H]([NH3+])C(=O)[O-]
REMARK SMILES IDX 3 1 4 2 5 3 6 4 7 8 8 9 9 10 2 11 1 12
REMARK H PARENT 6 5 6 6 6 7
REMARK Flexibility Score: inf
ROOT
ATOM      1  C   UNL     1      30.357  27.265  22.386  1.00  0.00     0.050 C 
ATOM      2  C   UNL     1      30.485  28.798  22.395  1.00  0.00     0.014 C 
ENDROOT
BRANCH   1   3
ATOM      3  C   UNL     1      28.957  26.841  22.947  1.00  0.00     0.230 C 
BRANCH   3   4
ATOM      4  N   UNL     1      28.269  27.951  23.623  1.00  0.00    -0.350 N 
ATOM      5  H   UNL     1      28.627  28.103  24.589  1.00  0.00     0.345 HD
ATOM      6  H   UNL     1      28.410  28.833  23.078  1.00  0.00     0.345 HD
ATOM      7  H   UNL     1      27.241  27.762  23.665  1.00  0.00     0.345 HD
ENDBRANCH   3   4
BRANCH   3   8
ATOM      8  C   UNL     1      28.069  26.205  21.903  1.00  0.00     0.099 C 
ATOM      9  O   UNL     1      27.016  25.610  22.253  1.00  0.00    -0.544 OA
ATOM     10  O   UNL     1      28.418  26.235  20.559  1.00  0.00    -0.544 OA
ENDBRANCH   3   8
ENDBRANCH   1   3
BRANCH   1  11
ATOM     11  C   UNL     1      31.589  26.655  23.111  1.00  0.00     0.006 C 
ATOM     12  C   UNL     1      31.451  25.169  23.444  1.00  0.00     0.004 C 
ENDBRANCH   1  11
TORSDOF 4
ENDMDL
