MODEL 1
REMARK VINA RESULT:    -3.454      0.000      0.000
REMARK INTER + INTRA:          -3.897
REMARK INTER:                  -3.858
REMARK INTRA:                  -0.039
REMARK UNBOUND:                -0.039
REMARK SMILES CCCC(=O)[O-]
REMARK SMILES IDX 3 1 4 2 5 3 6 4 2 5 1 6
REMARK H PARENT
REMARK Flexibility Score: inf
ROOT
ATOM      1  C   UNL     1     -31.456  -7.775  33.529  1.00  0.00     0.052 C 
ENDROOT
BRANCH   1   2
ATOM      2  C   UNL     1     -32.501  -8.832  33.706  1.00  0.00     0.041 C 
ATOM      3  O   UNL     1     -32.817  -9.222  34.861  1.00  0.00    -0.550 OA
ATOM      4  O   UNL     1     -33.160  -9.350  32.599  1.00  0.00    -0.550 OA
ENDBRANCH   1   2
BRANCH   1   5
ATOM      5  C   UNL     1     -32.103  -6.389  33.459  1.00  0.00     0.003 C 
ATOM      6  C   UNL     1     -32.300  -5.946  32.012  1.00  0.00     0.004 C 
ENDBRANCH   1   5
TORSDOF 2
ENDMDL
MODEL 2
REMARK VINA RESULT:    -3.299      1.332      1.687
REMARK INTER + INTRA:          -3.724
REMARK INTER:                  -3.661
REMARK INTRA:                  -0.063
REMARK UNBOUND:                -0.039
REMARK SMILES CCCC(=O)[O-]
REMARK SMILES IDX 3 1 4 2 5 3 6 4 2 5 1 6
REMARK H PARENT
REMARK Flexibility Score: inf
ROOT
ATOM      1  C   UNL     1     -32.179  -6.452  33.939  1.00  0.00     0.052 C 
ENDROOT
BRANCH   1   2
ATOM      2  C   UNL     1     -31.847  -7.871  34.280  1.00  0.00     0.041 C 
ATOM      3  O   UNL     1     -32.675  -8.581  34.909  1.00  0.00    -0.550 OA
ATOM      4  O   UNL     1     -30.645  -8.423  33.861  1.00  0.00    -0.550 OA
ENDBRANCH   1   2
BRANCH   1   5
ATOM      5  C   UNL     1     -32.294  -6.278  32.422  1.00  0.00     0.003 C 
ATOM      6  C   UNL     1     -33.533  -6.982  31.879  1.00  0.00     0.004 C 
ENDBRANCH   1   5
TORSDOF 2
ENDMDL
MODEL 3
REMARK VINA RESULT:    -3.253      1.383      1.942
REMARK INTER + INTRA:          -3.673
REMARK INTER:                  -3.613
REMARK INTRA:                  -0.060
REMARK UNBOUND:                -0.039
REMARK SMILES CCCC(=O)[O-]
REMARK SMILES IDX 3 1 4 2 5 3 6 4 2 5 1 6
REMARK H PARENT
REMARK Flexibility Score: inf
ROOT
ATOM      1  C   UNL     1     -32.017  -6.387  33.640  1.00  0.00     0.052 C 
ENDROOT
BRANCH   1   2
ATOM      2  C   UNL     1     -31.691  -7.789  34.049  1.00  0.00     0.041 C 
ATOM      3  O   UNL     1     -30.622  -8.329  33.660  1.00  0.00    -0.550 OA
ATOM      4  O   UNL     1     -32.543  -8.481  34.899  1.00  0.00    -0.550 OA
ENDBRANCH   1   2
BRANCH   1   5
ATOM      5  C   UNL     1     -32.385  -6.335  32.154  1.00  0.00     0.003 C 
ATOM      6  C   UNL     1     -33.661  -7.123  31.875  1.00  0.00     0.004 C 
ENDBRANCH   1   5
TORSDOF 2
ENDMDL
MODEL 4
REMARK VINA RESULT:    -3.203      1.898      2.856
REMARK INTER + INTRA:          -3.617
REMARK INTER:                  -3.549
REMARK INTRA:                  -0.067
REMARK UNBOUND:                -0.039
REMARK SMILES CCCC(=O)[O-]
REMARK SMILES IDX 3 1 4 2 5 3 6 4 2 5 1 6
REMARK H PARENT
REMARK Flexibility Score: inf
ROOT
ATOM      1  C   UNL     1     -32.295  -6.862  34.050  1.00  0.00     0.052 C 
ENDROOT
BRANCH   1   2
ATOM      2  C   UNL     1     -32.725  -6.734  32.623  1.00  0.00     0.041 C 
ATOM      3  O   UNL     1     -32.317  -5.770  31.922  1.00  0.00    -0.550 OA
ATOM      4  O   UNL     1     -33.538  -7.704  32.052  1.00  0.00    -0.550 OA
ENDBRANCH   1   2
BRANCH   1   5
ATOM      5  C   UNL     1     -31.807  -8.285  34.337  1.00  0.00     0.003 C 
ATOM      6  C   UNL     1     -30.431  -8.529  33.726  1.00  0.00     0.004 C 
ENDBRANCH   1   5
TORSDOF 2
ENDMDL
MODEL 5
REMARK VINA RESULT:    -3.161      1.841      2.571
REMARK INTER + INTRA:          -3.570
REMARK INTER:                  -3.551
REMARK INTRA:                  -0.019
REMARK UNBOUND:                -0.039
REMARK SMILES CCCC(=O)[O-]
REMARK SMILES IDX 3 1 4 2 5 3 6 4 2 5 1 6
REMARK H PARENT
REMARK Flexibility Score: inf
ROOT
ATOM      1  C   UNL     1     -31.858  -8.337  34.383  1.00  0.00     0.052 C 
ENDROOT
BRANCH   1   2
ATOM      2  C   UNL     1     -33.131  -8.441  33.603  1.00  0.00     0.041 C 
ATOM      3  O   UNL     1     -33.282  -9.362  32.759  1.00  0.00    -0.550 OA
ATOM      4  O   UNL     1     -34.167  -7.548  33.842  1.00  0.00    -0.550 OA
ENDBRANCH   1   2
BRANCH   1   5
ATOM      5  C   UNL     1     -30.652  -8.302  33.439  1.00  0.00     0.003 C 
ATOM      6  C   UNL     1     -29.447  -9.001  34.058  1.00  0.00     0.004 C 
ENDBRANCH   1   5
TORSDOF 2
ENDMDL
MODEL 6
REMARK VINA RESULT:    -3.131      4.803      5.245
REMARK INTER + INTRA:          -3.536
REMARK INTER:                  -3.507
REMARK INTRA:                  -0.029
REMARK UNBOUND:                -0.039
REMARK SMILES CCCC(=O)[O-]
REMARK SMILES IDX 3 1 4 2 5 3 6 4 2 5 1 6
REMARK H PARENT
REMARK Flexibility Score: inf
ROOT
ATOM      1  C   UNL     1     -28.327 -10.060  35.055  1.00  0.00     0.052 C 
ENDROOT
BRANCH   1   2
ATOM      2  C   UNL     1     -27.480 -11.188  34.554  1.00  0.00     0.041 C 
ATOM      3  O   UNL     1     -26.713 -11.801  35.342  1.00  0.00    -0.550 OA
ATOM      4  O   UNL     1     -27.574 -11.593  33.229  1.00  0.00    -0.550 OA
ENDBRANCH   1   2
BRANCH   1   5
ATOM      5  C   UNL     1     -28.629  -9.074  33.922  1.00  0.00     0.003 C 
ATOM      6  C   UNL     1     -30.114  -8.728  33.876  1.00  0.00     0.004 C 
ENDBRANCH   1   5
TORSDOF 2
ENDMDL
MODEL 7
REMARK VINA RESULT:    -2.988      2.134      2.610
REMARK INTER + INTRA:          -3.376
REMARK INTER:                  -3.346
REMARK INTRA:                  -0.031
REMARK UNBOUND:                -0.039
REMARK SMILES CCCC(=O)[O-]
REMARK SMILES IDX 3 1 4 2 5 3 6 4 2 5 1 6
REMARK H PARENT
REMARK Flexibility Score: inf
ROOT
ATOM      1  C   UNL     1     -32.781  -8.696  34.130  1.00  0.00     0.052 C 
ENDROOT
BRANCH   1   2
ATOM      2  C   UNL     1     -31.763  -7.629  33.876  1.00  0.00     0.041 C 
ATOM      3  O   UNL     1     -32.014  -6.431  34.169  1.00  0.00    -0.550 OA
ATOM      4  O   UNL     1     -30.518  -7.965  33.361  1.00  0.00    -0.550 OA
ENDBRANCH   1   2
BRANCH   1   5
ATOM      5  C   UNL     1     -33.279  -9.286  32.808  1.00  0.00     0.003 C 
ATOM      6  C   UNL     1     -33.791  -8.194  31.875  1.00  0.00     0.004 C 
ENDBRANCH   1   5
TORSDOF 2
ENDMDL
MODEL 8
REMARK VINA RESULT:    -2.786      3.137      3.638
REMARK INTER + INTRA:          -3.152
REMARK INTER:                  -3.130
REMARK INTRA:                  -0.022
REMARK UNBOUND:                -0.039
REMARK SMILES CCCC(=O)[O-]
REMARK SMILES IDX 3 1 4 2 5 3 6 4 2 5 1 6
REMARK H PARENT
REMARK Flexibility Score: inf
ROOT
ATOM      1  C   UNL     1     -30.358  -8.987  34.216  1.00  0.00     0.052 C 
ENDROOT
BRANCH   1   2
ATOM      2  C   UNL     1     -28.882  -9.234  34.188  1.00  0.00     0.041 C 
ATOM      3  O   UNL     1     -28.135  -8.523  33.466  1.00  0.00    -0.550 OA
ATOM      4  O   UNL     1     -28.326 -10.219  34.994  1.00  0.00    -0.550 OA
ENDBRANCH   1   2
BRANCH   1   5
ATOM      5  C   UNL     1     -30.743  -7.928  33.180  1.00  0.00     0.003 C 
ATOM      6  C   UNL     1     -31.837  -7.009  33.713  1.00  0.00     0.004 C 
ENDBRANCH   1   5
TORSDOF 2
ENDMDL
MODEL 9
REMARK VINA RESULT:    -2.750     17.905     18.618
REMARK INTER + INTRA:          -3.110
REMARK INTER:                  -3.104
REMARK INTRA:                  -0.006
REMARK UNBOUND:                -0.039
REMARK SMILES CCCC(=O)[O-]
REMARK SMILES IDX 3 1 4 2 5 3 6 4 2 5 1 6
REMARK H PARENT
REMARK Flexibility Score: inf
ROOT
ATOM      1  C   UNL     1     -35.609  -1.002  50.201  1.00  0.00     0.052 C 
ENDROOT
BRANCH   1   2
ATOM      2  C   UNL     1     -34.643  -2.128  50.394  1.00  0.00     0.041 C 
ATOM      3  O   UNL     1     -33.746  -2.346  49.537  1.00  0.00    -0.550 OA
ATOM      4  O   UNL     1     -34.703  -2.907  51.541  1.00  0.00    -0.550 OA
ENDBRANCH   1   2
BRANCH   1   5
ATOM      5  C   UNL     1     -34.961   0.331  50.587  1.00  0.00     0.003 C 
ATOM      6  C   UNL     1     -35.835   1.509  50.170  1.00  0.00     0.004 C 
ENDBRANCH   1   5
TORSDOF 2
ENDMDL
