MODEL 1
REMARK VINA RESULT:    12.235      0.000      0.000
REMARK INTER + INTRA:          19.254
REMARK INTER:                  16.884
REMARK INTRA:                   2.369
REMARK UNBOUND:                 2.369
REMARK SMILES C=C(CC[C@@H](C(=O)[O-])[C@@H]1CC[C@@]2(C)C3=C(CC[C@@]12C)[C@@]1(C)CC[C@H](O)C(C)(C)[C@@H]1CC3)C(C)C
REMARK SMILES IDX 4 1 5 2 6 3 7 4 8 5 9 6 10 7 18 8 11 9 12 10 17 11 19 12
REMARK SMILES IDX 13 13 14 14 16 15 15 16 31 17 20 18 30 19 29 20 22 21 21 22
REMARK SMILES IDX 26 23 23 24 24 25 27 26 28 27 25 28 3 30 2 31 1 32 32 33
REMARK SMILES IDX 33 34 34 35
REMARK H PARENT 25 29
REMARK Flexibility Score: inf
ROOT
ATOM      1  C   UNL     1      80.706  32.899  51.181  1.00  0.00     0.014 C 
ENDROOT
BRANCH   1   2
ATOM      2  C   UNL     1      79.966  34.113  50.550  1.00  0.00     0.039 C 
BRANCH   2   3
ATOM      3  C   UNL     1      80.370  34.183  49.091  1.00  0.00     0.045 C 
ATOM      4  O   UNL     1      80.378  35.294  48.489  1.00  0.00    -0.550 OA
ATOM      5  O   UNL     1      80.774  33.036  48.413  1.00  0.00    -0.550 OA
ENDBRANCH   2   3
BRANCH   2   6
ATOM      6  C   UNL     1      78.393  34.183  50.693  1.00  0.00     0.004 C 
ATOM      7  C   UNL     1      77.909  35.601  50.302  1.00  0.00     0.006 C 
ATOM      8  C   UNL     1      77.706  33.863  52.095  1.00  0.00    -0.020 C 
ATOM      9  C   UNL     1      76.744  35.969  51.186  1.00  0.00     0.012 C 
ATOM     10  C   UNL     1      76.975  35.223  52.511  1.00  0.00    -0.006 C 
ATOM     11  C   UNL     1      76.686  32.670  51.931  1.00  0.00     0.012 C 
ATOM     12  C   UNL     1      78.694  33.388  53.201  1.00  0.00     0.012 C 
ATOM     13  C   UNL     1      77.916  36.122  53.375  1.00  0.00     0.017 C 
ATOM     14  C   UNL     1      75.605  35.007  53.209  1.00  0.00    -0.064 C 
ATOM     15  C   UNL     1      75.257  33.109  51.674  1.00  0.00     0.032 C 
ATOM     16  C   UNL     1      74.801  33.968  52.839  1.00  0.00    -0.064 C 
ATOM     17  C   UNL     1      74.993  36.125  54.043  1.00  0.00     0.032 C 
ATOM     18  C   UNL     1      73.446  33.710  53.556  1.00  0.00    -0.008 C 
ATOM     19  C   UNL     1      74.001  35.670  55.128  1.00  0.00     0.009 C 
ATOM     20  C   UNL     1      73.591  34.179  55.043  1.00  0.00     0.007 C 
ATOM     21  C   UNL     1      73.132  32.171  53.552  1.00  0.00     0.014 C 
ATOM     22  C   UNL     1      72.350  34.515  52.791  1.00  0.00     0.016 C 
ATOM     23  C   UNL     1      72.418  33.769  56.049  1.00  0.00    -0.006 C 
ATOM     24  C   UNL     1      72.196  31.630  54.650  1.00  0.00     0.033 C 
ATOM     25  C   UNL     1      71.445  32.711  55.431  1.00  0.00     0.120 C 
ATOM     26  C   UNL     1      71.562  34.970  56.543  1.00  0.00     0.014 C 
ATOM     27  C   UNL     1      73.063  33.162  57.326  1.00  0.00     0.014 C 
BRANCH  25  28
ATOM     28  O   UNL     1      70.482  33.318  54.602  1.00  0.00    -0.393 OA
ATOM     29  H   UNL     1      69.994  32.591  54.133  1.00  0.00     0.210 HD
ENDBRANCH  25  28
ENDBRANCH   2   6
ENDBRANCH   1   2
BRANCH   1  30
ATOM     30  C   UNL     1      81.812  33.264  52.184  1.00  0.00     0.031 C 
BRANCH  30  31
ATOM     31  C   UNL     1      81.592  34.652  52.753  1.00  0.00    -0.075 C 
ATOM     32  C   UNL     1      81.086  35.612  51.959  1.00  0.00     0.008 C 
BRANCH  31  33
ATOM     33  C   UNL     1      81.873  34.952  54.218  1.00  0.00     0.008 C 
ATOM     34  C   UNL     1      80.584  35.304  54.973  1.00  0.00     0.012 C 
ATOM     35  C   UNL     1      82.923  36.063  54.356  1.00  0.00     0.012 C 
ENDBRANCH  31  33
ENDBRANCH  30  31
ENDBRANCH   1  30
TORSDOF 7
ENDMDL
MODEL 2
REMARK VINA RESULT:    12.471      1.774      8.221
REMARK INTER + INTRA:          19.579
REMARK INTER:                  17.345
REMARK INTRA:                   2.234
REMARK UNBOUND:                 2.369
REMARK SMILES C=C(CC[C@@H](C(=O)[O-])[C@@H]1CC[C@@]2(C)C3=C(CC[C@@]12C)[C@@]1(C)CC[C@H](O)C(C)(C)[C@@H]1CC3)C(C)C
REMARK SMILES IDX 4 1 5 2 6 3 7 4 8 5 9 6 10 7 18 8 11 9 12 10 17 11 19 12
REMARK SMILES IDX 13 13 14 14 16 15 15 16 31 17 20 18 30 19 29 20 22 21 21 22
REMARK SMILES IDX 26 23 23 24 24 25 27 26 28 27 25 28 3 30 2 31 1 32 32 33
REMARK SMILES IDX 33 34 34 35
REMARK H PARENT 25 29
REMARK Flexibility Score: inf
ROOT
ATOM      1  C   UNL     1      71.593  34.338  54.794  1.00  0.00     0.014 C 
ENDROOT
BRANCH   1   2
ATOM      2  C   UNL     1      72.428  34.102  53.503  1.00  0.00     0.039 C 
BRANCH   2   3
ATOM      3  C   UNL     1      71.957  35.104  52.467  1.00  0.00     0.045 C 
ATOM      4  O   UNL     1      72.656  36.124  52.210  1.00  0.00    -0.550 OA
ATOM      5  O   UNL     1      70.776  34.890  51.763  1.00  0.00    -0.550 OA
ENDBRANCH   2   3
BRANCH   2   6
ATOM      6  C   UNL     1      74.005  34.127  53.620  1.00  0.00     0.004 C 
ATOM      7  C   UNL     1      74.456  35.520  54.123  1.00  0.00     0.006 C 
ATOM      8  C   UNL     1      74.903  33.817  52.340  1.00  0.00    -0.020 C 
ATOM      9  C   UNL     1      75.760  35.871  53.450  1.00  0.00     0.012 C 
ATOM     10  C   UNL     1      75.728  35.163  52.086  1.00  0.00    -0.006 C 
ATOM     11  C   UNL     1      75.850  32.589  52.636  1.00  0.00     0.012 C 
ATOM     12  C   UNL     1      74.096  33.398  51.076  1.00  0.00     0.012 C 
ATOM     13  C   UNL     1      74.966  36.110  51.105  1.00  0.00     0.017 C 
ATOM     14  C   UNL     1      77.187  34.920  51.614  1.00  0.00    -0.064 C 
ATOM     15  C   UNL     1      77.228  32.978  53.133  1.00  0.00     0.032 C 
ATOM     16  C   UNL     1      77.891  33.849  52.082  1.00  0.00    -0.064 C 
ATOM     17  C   UNL     1      77.957  36.037  50.921  1.00  0.00     0.032 C 
ATOM     18  C   UNL     1      79.338  33.565  51.587  1.00  0.00    -0.008 C 
ATOM     19  C   UNL     1      79.100  35.576  50.000  1.00  0.00     0.009 C 
ATOM     20  C   UNL     1      79.450  34.072  50.110  1.00  0.00     0.007 C 
ATOM     21  C   UNL     1      79.606  32.017  51.601  1.00  0.00     0.014 C 
ATOM     22  C   UNL     1      80.316  34.318  52.542  1.00  0.00     0.016 C 
ATOM     23  C   UNL     1      80.761  33.648  49.298  1.00  0.00    -0.006 C 
ATOM     24  C   UNL     1      80.694  31.472  50.655  1.00  0.00     0.033 C 
ATOM     25  C   UNL     1      81.591  32.546  50.037  1.00  0.00     0.120 C 
ATOM     26  C   UNL     1      81.718  34.833  48.983  1.00  0.00     0.014 C 
ATOM     27  C   UNL     1      80.317  33.090  47.917  1.00  0.00     0.014 C 
BRANCH  25  28
ATOM     28  O   UNL     1      82.421  33.104  51.028  1.00  0.00    -0.393 OA
ATOM     29  H   UNL     1      82.896  33.875  50.618  1.00  0.00     0.210 HD
ENDBRANCH  25  28
ENDBRANCH   2   6
ENDBRANCH   1   2
BRANCH   1  30
ATOM     30  C   UNL     1      72.416  34.439  56.088  1.00  0.00     0.031 C 
BRANCH  30  31
ATOM     31  C   UNL     1      72.689  33.064  56.667  1.00  0.00    -0.075 C 
ATOM     32  C   UNL     1      73.723  32.347  56.191  1.00  0.00     0.008 C 
BRANCH  31  33
ATOM     33  C   UNL     1      71.853  32.518  57.815  1.00  0.00     0.008 C 
ATOM     34  C   UNL     1      70.466  33.171  57.856  1.00  0.00     0.012 C 
ATOM     35  C   UNL     1      72.589  32.682  59.152  1.00  0.00     0.012 C 
ENDBRANCH  31  33
ENDBRANCH  30  31
ENDBRANCH   1  30
TORSDOF 7
ENDMDL
MODEL 3
REMARK VINA RESULT:    14.230      1.338      2.086
REMARK INTER + INTRA:          22.006
REMARK INTER:                  21.326
REMARK INTRA:                   0.680
REMARK UNBOUND:                 2.369
REMARK SMILES C=C(CC[C@@H](C(=O)[O-])[C@@H]1CC[C@@]2(C)C3=C(CC[C@@]12C)[C@@]1(C)CC[C@H](O)C(C)(C)[C@@H]1CC3)C(C)C
REMARK SMILES IDX 4 1 5 2 6 3 7 4 8 5 9 6 10 7 18 8 11 9 12 10 17 11 19 12
REMARK SMILES IDX 13 13 14 14 16 15 15 16 31 17 20 18 30 19 29 20 22 21 21 22
REMARK SMILES IDX 26 23 23 24 24 25 27 26 28 27 25 28 3 30 2 31 1 32 32 33
REMARK SMILES IDX 33 34 34 35
REMARK H PARENT 25 29
REMARK Flexibility Score: inf
ROOT
ATOM      1  C   UNL     1      79.936  33.311  49.089  1.00  0.00     0.014 C 
ENDROOT
BRANCH   1   2
ATOM      2  C   UNL     1      79.442  34.092  50.340  1.00  0.00     0.039 C 
BRANCH   2   3
ATOM      3  C   UNL     1      80.075  35.469  50.298  1.00  0.00     0.045 C 
ATOM      4  O   UNL     1      80.258  36.048  49.190  1.00  0.00    -0.550 OA
ATOM      5  O   UNL     1      80.420  36.124  51.477  1.00  0.00    -0.550 OA
ENDBRANCH   2   3
BRANCH   2   6
ATOM      6  C   UNL     1      77.883  34.206  50.580  1.00  0.00     0.004 C 
ATOM      7  C   UNL     1      77.426  35.654  50.272  1.00  0.00     0.006 C 
ATOM      8  C   UNL     1      77.268  33.852  52.007  1.00  0.00    -0.020 C 
ATOM      9  C   UNL     1      76.328  36.022  51.239  1.00  0.00     0.012 C 
ATOM     10  C   UNL     1      76.611  35.217  52.517  1.00  0.00    -0.006 C 
ATOM     11  C   UNL     1      76.200  32.700  51.859  1.00  0.00     0.012 C 
ATOM     12  C   UNL     1      78.303  33.302  53.033  1.00  0.00     0.012 C 
ATOM     13  C   UNL     1      77.630  36.051  53.357  1.00  0.00     0.017 C 
ATOM     14  C   UNL     1      75.277  35.018  53.288  1.00  0.00    -0.064 C 
ATOM     15  C   UNL     1      74.775  33.194  51.705  1.00  0.00     0.032 C 
ATOM     16  C   UNL     1      74.418  34.021  52.927  1.00  0.00    -0.064 C 
ATOM     17  C   UNL     1      74.754  36.120  54.199  1.00  0.00     0.032 C 
ATOM     18  C   UNL     1      73.099  33.777  53.714  1.00  0.00    -0.008 C 
ATOM     19  C   UNL     1      73.812  35.654  55.323  1.00  0.00     0.009 C 
ATOM     20  C   UNL     1      73.347  34.182  55.206  1.00  0.00     0.007 C 
ATOM     21  C   UNL     1      72.733  32.251  53.669  1.00  0.00     0.014 C 
ATOM     22  C   UNL     1      71.989  34.647  53.047  1.00  0.00     0.016 C 
ATOM     23  C   UNL     1      72.221  33.769  56.264  1.00  0.00    -0.006 C 
ATOM     24  C   UNL     1      71.845  31.696  54.801  1.00  0.00     0.033 C 
ATOM     25  C   UNL     1      71.178  32.768  55.666  1.00  0.00     0.120 C 
ATOM     26  C   UNL     1      71.437  34.976  56.853  1.00  0.00     0.014 C 
ATOM     27  C   UNL     1      72.919  33.091  57.476  1.00  0.00     0.014 C 
BRANCH  25  28
ATOM     28  O   UNL     1      70.190  33.438  54.919  1.00  0.00    -0.393 OA
ATOM     29  H   UNL     1      70.647  33.895  54.165  1.00  0.00     0.210 HD
ENDBRANCH  25  28
ENDBRANCH   2   6
ENDBRANCH   1   2
BRANCH   1  30
ATOM     30  C   UNL     1      81.034  32.272  49.364  1.00  0.00     0.031 C 
BRANCH  30  31
ATOM     31  C   UNL     1      80.621  31.330  50.479  1.00  0.00    -0.075 C 
ATOM     32  C   UNL     1      79.890  30.242  50.179  1.00  0.00     0.008 C 
BRANCH  31  33
ATOM     33  C   UNL     1      81.078  31.564  51.912  1.00  0.00     0.008 C 
ATOM     34  C   UNL     1      79.993  31.155  52.917  1.00  0.00     0.012 C 
ATOM     35  C   UNL     1      81.508  33.023  52.116  1.00  0.00     0.012 C 
ENDBRANCH  31  33
ENDBRANCH  30  31
ENDBRANCH   1  30
TORSDOF 7
ENDMDL
