MODEL 1
REMARK VINA RESULT:    -3.762      0.000      0.000
REMARK INTER + INTRA:          -6.607
REMARK INTER:                  -5.962
REMARK INTRA:                  -0.646
REMARK UNBOUND:                -0.646
REMARK SMILES CCCCCCCCCCCC(=O)[O-]
REMARK SMILES IDX 7 1 8 2 9 3 10 4 11 5 12 6 13 7 14 8 6 9 5 10 4 11 3 12 2 13
REMARK SMILES IDX 1 14
REMARK H PARENT
REMARK Flexibility Score: inf
ROOT
ATOM      1  C   UNL     1      35.074  28.568  16.071  1.00  0.00     0.000 C 
ENDROOT
BRANCH   1   2
ATOM      2  C   UNL     1      35.314  27.241  15.323  1.00  0.00     0.000 C 
BRANCH   2   3
ATOM      3  C   UNL     1      35.577  27.384  13.812  1.00  0.00     0.000 C 
BRANCH   3   4
ATOM      4  C   UNL     1      34.354  27.125  12.908  1.00  0.00     0.006 C 
BRANCH   4   5
ATOM      5  C   UNL     1      33.846  28.366  12.157  1.00  0.00     0.053 C 
BRANCH   5   6
ATOM      6  C   UNL     1      32.953  29.210  13.013  1.00  0.00     0.041 C 
ATOM      7  O   UNL     1      32.868  30.450  12.812  1.00  0.00    -0.550 OA
ATOM      8  O   UNL     1      32.189  28.622  14.013  1.00  0.00    -0.550 OA
ENDBRANCH   5   6
ENDBRANCH   4   5
ENDBRANCH   3   4
ENDBRANCH   2   3
ENDBRANCH   1   2
BRANCH   1   9
ATOM      9  C   UNL     1      36.264  29.062  16.916  1.00  0.00     0.000 C 
BRANCH   9  10
ATOM     10  C   UNL     1      36.085  28.925  18.441  1.00  0.00    -0.000 C 
BRANCH  10  11
ATOM     11  C   UNL     1      34.648  28.616  18.899  1.00  0.00    -0.000 C 
BRANCH  11  12
ATOM     12  C   UNL     1      34.299  29.270  20.248  1.00  0.00    -0.000 C 
BRANCH  12  13
ATOM     13  C   UNL     1      35.527  29.433  21.157  1.00  0.00    -0.003 C 
ATOM     14  C   UNL     1      35.575  28.391  22.275  1.00  0.00     0.004 C 
ENDBRANCH  12  13
ENDBRANCH  11  12
ENDBRANCH  10  11
ENDBRANCH   9  10
ENDBRANCH   1   9
TORSDOF 10
ENDMDL
MODEL 2
REMARK VINA RESULT:    -3.657      1.218      1.774
REMARK INTER + INTRA:          -6.441
REMARK INTER:                  -5.476
REMARK INTRA:                  -0.965
REMARK UNBOUND:                -0.646
REMARK SMILES CCCCCCCCCCCC(=O)[O-]
REMARK SMILES IDX 7 1 8 2 9 3 10 4 11 5 12 6 13 7 14 8 6 9 5 10 4 11 3 12 2 13
REMARK SMILES IDX 1 14
REMARK H PARENT
REMARK Flexibility Score: inf
ROOT
ATOM      1  C   UNL     1      34.954  29.026  16.855  1.00  0.00     0.000 C 
ENDROOT
BRANCH   1   2
ATOM      2  C   UNL     1      36.335  28.482  16.441  1.00  0.00     0.000 C 
BRANCH   2   3
ATOM      3  C   UNL     1      36.333  27.586  15.187  1.00  0.00     0.000 C 
BRANCH   3   4
ATOM      4  C   UNL     1      34.983  26.914  14.866  1.00  0.00     0.006 C 
BRANCH   4   5
ATOM      5  C   UNL     1      34.593  26.949  13.380  1.00  0.00     0.053 C 
BRANCH   5   6
ATOM      6  C   UNL     1      33.856  28.204  13.025  1.00  0.00     0.041 C 
ATOM      7  O   UNL     1      34.218  28.893  12.035  1.00  0.00    -0.550 OA
ATOM      8  O   UNL     1      32.749  28.593  13.768  1.00  0.00    -0.550 OA
ENDBRANCH   5   6
ENDBRANCH   4   5
ENDBRANCH   3   4
ENDBRANCH   2   3
ENDBRANCH   1   2
BRANCH   1   9
ATOM      9  C   UNL     1      34.518  28.669  18.290  1.00  0.00     0.000 C 
BRANCH   9  10
ATOM     10  C   UNL     1      34.981  27.286  18.788  1.00  0.00    -0.000 C 
BRANCH  10  11
ATOM     11  C   UNL     1      35.835  27.310  20.068  1.00  0.00    -0.000 C 
BRANCH  11  12
ATOM     12  C   UNL     1      36.741  28.550  20.156  1.00  0.00    -0.000 C 
BRANCH  12  13
ATOM     13  C   UNL     1      36.466  29.392  21.411  1.00  0.00    -0.003 C 
ATOM     14  C   UNL     1      35.202  28.954  22.150  1.00  0.00     0.004 C 
ENDBRANCH  12  13
ENDBRANCH  11  12
ENDBRANCH  10  11
ENDBRANCH   9  10
ENDBRANCH   1   9
TORSDOF 10
ENDMDL
MODEL 3
REMARK VINA RESULT:    -3.629     16.853     18.469
REMARK INTER + INTRA:          -6.397
REMARK INTER:                  -5.874
REMARK INTRA:                  -0.523
REMARK UNBOUND:                -0.646
REMARK SMILES CCCCCCCCCCCC(=O)[O-]
REMARK SMILES IDX 7 1 8 2 9 3 10 4 11 5 12 6 13 7 14 8 6 9 5 10 4 11 3 12 2 13
REMARK SMILES IDX 1 14
REMARK H PARENT
REMARK Flexibility Score: inf
ROOT
ATOM      1  C   UNL     1      33.689  43.465  25.024  1.00  0.00     0.000 C 
ENDROOT
BRANCH   1   2
ATOM      2  C   UNL     1      34.693  44.135  24.065  1.00  0.00     0.000 C 
BRANCH   2   3
ATOM      3  C   UNL     1      35.842  44.897  24.752  1.00  0.00     0.000 C 
BRANCH   3   4
ATOM      4  C   UNL     1      36.581  45.912  23.856  1.00  0.00     0.006 C 
BRANCH   4   5
ATOM      5  C   UNL     1      36.870  45.410  22.433  1.00  0.00     0.053 C 
BRANCH   5   6
ATOM      6  C   UNL     1      35.782  45.788  21.475  1.00  0.00     0.041 C 
ATOM      7  O   UNL     1      35.245  46.924  21.541  1.00  0.00    -0.550 OA
ATOM      8  O   UNL     1      35.385  44.895  20.487  1.00  0.00    -0.550 OA
ENDBRANCH   5   6
ENDBRANCH   4   5
ENDBRANCH   3   4
ENDBRANCH   2   3
ENDBRANCH   1   2
BRANCH   1   9
ATOM      9  C   UNL     1      32.227  43.460  24.536  1.00  0.00     0.000 C 
BRANCH   9  10
ATOM     10  C   UNL     1      32.050  43.378  23.007  1.00  0.00    -0.000 C 
BRANCH  10  11
ATOM     11  C   UNL     1      31.124  44.450  22.404  1.00  0.00    -0.000 C 
BRANCH  11  12
ATOM     12  C   UNL     1      31.899  45.578  21.699  1.00  0.00    -0.000 C 
BRANCH  12  13
ATOM     13  C   UNL     1      31.118  46.900  21.669  1.00  0.00    -0.003 C 
ATOM     14  C   UNL     1      29.840  46.848  22.506  1.00  0.00     0.004 C 
ENDBRANCH  12  13
ENDBRANCH  11  12
ENDBRANCH  10  11
ENDBRANCH   9  10
ENDBRANCH   1   9
TORSDOF 10
ENDMDL
MODEL 4
REMARK VINA RESULT:    -3.550      3.199      6.925
REMARK INTER + INTRA:          -6.270
REMARK INTER:                  -5.667
REMARK INTRA:                  -0.603
REMARK UNBOUND:                -0.646
REMARK SMILES CCCCCCCCCCCC(=O)[O-]
REMARK SMILES IDX 7 1 8 2 9 3 10 4 11 5 12 6 13 7 14 8 6 9 5 10 4 11 3 12 2 13
REMARK SMILES IDX 1 14
REMARK H PARENT
REMARK Flexibility Score: inf
ROOT
ATOM      1  C   UNL     1      35.269  28.472  16.169  1.00  0.00     0.000 C 
ENDROOT
BRANCH   1   2
ATOM      2  C   UNL     1      35.814  28.193  17.584  1.00  0.00     0.000 C 
BRANCH   2   3
ATOM      3  C   UNL     1      35.110  27.048  18.339  1.00  0.00     0.000 C 
BRANCH   3   4
ATOM      4  C   UNL     1      35.538  26.875  19.810  1.00  0.00     0.006 C 
BRANCH   4   5
ATOM      5  C   UNL     1      36.086  28.152  20.467  1.00  0.00     0.053 C 
BRANCH   5   6
ATOM      6  C   UNL     1      35.014  28.919  21.178  1.00  0.00     0.041 C 
ATOM      7  O   UNL     1      34.121  29.517  20.522  1.00  0.00    -0.550 OA
ATOM      8  O   UNL     1      34.983  28.947  22.566  1.00  0.00    -0.550 OA
ENDBRANCH   5   6
ENDBRANCH   4   5
ENDBRANCH   3   4
ENDBRANCH   2   3
ENDBRANCH   1   2
BRANCH   1   9
ATOM      9  C   UNL     1      35.787  27.519  15.074  1.00  0.00     0.000 C 
BRANCH   9  10
ATOM     10  C   UNL     1      34.700  26.932  14.152  1.00  0.00    -0.000 C 
BRANCH  10  11
ATOM     11  C   UNL     1      34.898  27.220  12.653  1.00  0.00    -0.000 C 
BRANCH  11  12
ATOM     12  C   UNL     1      33.893  28.250  12.106  1.00  0.00    -0.000 C 
BRANCH  12  13
ATOM     13  C   UNL     1      32.958  28.794  13.196  1.00  0.00    -0.003 C 
ATOM     14  C   UNL     1      32.648  30.280  13.018  1.00  0.00     0.004 C 
ENDBRANCH  12  13
ENDBRANCH  11  12
ENDBRANCH  10  11
ENDBRANCH   9  10
ENDBRANCH   1   9
TORSDOF 10
ENDMDL
MODEL 5
REMARK VINA RESULT:    -3.533      3.703      6.979
REMARK INTER + INTRA:          -6.244
REMARK INTER:                  -5.358
REMARK INTRA:                  -0.886
REMARK UNBOUND:                -0.646
REMARK SMILES CCCCCCCCCCCC(=O)[O-]
REMARK SMILES IDX 7 1 8 2 9 3 10 4 11 5 12 6 13 7 14 8 6 9 5 10 4 11 3 12 2 13
REMARK SMILES IDX 1 14
REMARK H PARENT
REMARK Flexibility Score: inf
ROOT
ATOM      1  C   UNL     1      35.008  29.063  16.937  1.00  0.00     0.000 C 
ENDROOT
BRANCH   1   2
ATOM      2  C   UNL     1      34.510  28.746  18.361  1.00  0.00     0.000 C 
BRANCH   2   3
ATOM      3  C   UNL     1      34.993  27.401  18.936  1.00  0.00     0.000 C 
BRANCH   3   4
ATOM      4  C   UNL     1      35.719  27.494  20.294  1.00  0.00     0.006 C 
BRANCH   4   5
ATOM      5  C   UNL     1      36.470  28.814  20.524  1.00  0.00     0.053 C 
BRANCH   5   6
ATOM      6  C   UNL     1      35.977  29.533  21.742  1.00  0.00     0.041 C 
ATOM      7  O   UNL     1      36.446  30.661  22.047  1.00  0.00    -0.550 OA
ATOM      8  O   UNL     1      34.975  28.970  22.523  1.00  0.00    -0.550 OA
ENDBRANCH   5   6
ENDBRANCH   4   5
ENDBRANCH   3   4
ENDBRANCH   2   3
ENDBRANCH   1   2
BRANCH   1   9
ATOM      9  C   UNL     1      36.319  28.359  16.536  1.00  0.00     0.000 C 
BRANCH   9  10
ATOM     10  C   UNL     1      36.219  27.449  15.296  1.00  0.00    -0.000 C 
BRANCH  10  11
ATOM     11  C   UNL     1      34.785  27.163  14.816  1.00  0.00    -0.000 C 
BRANCH  11  12
ATOM     12  C   UNL     1      34.688  27.005  13.288  1.00  0.00    -0.000 C 
BRANCH  12  13
ATOM     13  C   UNL     1      33.829  28.100  12.637  1.00  0.00    -0.003 C 
ATOM     14  C   UNL     1      32.887  28.780  13.631  1.00  0.00     0.004 C 
ENDBRANCH  12  13
ENDBRANCH  11  12
ENDBRANCH  10  11
ENDBRANCH   9  10
ENDBRANCH   1   9
TORSDOF 10
ENDMDL
MODEL 6
REMARK VINA RESULT:    -3.527      2.935      6.506
REMARK INTER + INTRA:          -6.235
REMARK INTER:                  -5.511
REMARK INTRA:                  -0.724
REMARK UNBOUND:                -0.646
REMARK SMILES CCCCCCCCCCCC(=O)[O-]
REMARK SMILES IDX 7 1 8 2 9 3 10 4 11 5 12 6 13 7 14 8 6 9 5 10 4 11 3 12 2 13
REMARK SMILES IDX 1 14
REMARK H PARENT
REMARK Flexibility Score: inf
ROOT
ATOM      1  C   UNL     1      36.600  27.434  14.197  1.00  0.00     0.000 C 
ENDROOT
BRANCH   1   2
ATOM      2  C   UNL     1      36.683  27.662  15.720  1.00  0.00     0.000 C 
BRANCH   2   3
ATOM      3  C   UNL     1      35.326  27.842  16.426  1.00  0.00     0.000 C 
BRANCH   3   4
ATOM      4  C   UNL     1      35.237  29.057  17.372  1.00  0.00     0.006 C 
BRANCH   4   5
ATOM      5  C   UNL     1      36.162  28.977  18.597  1.00  0.00     0.053 C 
BRANCH   5   6
ATOM      6  C   UNL     1      35.424  28.546  19.827  1.00  0.00     0.041 C 
ATOM      7  O   UNL     1      35.828  27.560  20.497  1.00  0.00    -0.550 OA
ATOM      8  O   UNL     1      34.307  29.255  20.252  1.00  0.00    -0.550 OA
ENDBRANCH   5   6
ENDBRANCH   4   5
ENDBRANCH   3   4
ENDBRANCH   2   3
ENDBRANCH   1   2
BRANCH   1   9
ATOM      9  C   UNL     1      35.253  26.876  13.697  1.00  0.00     0.000 C 
BRANCH   9  10
ATOM     10  C   UNL     1      35.031  26.972  12.175  1.00  0.00    -0.000 C 
BRANCH  10  11
ATOM     11  C   UNL     1      33.833  27.839  11.748  1.00  0.00    -0.000 C 
BRANCH  11  12
ATOM     12  C   UNL     1      34.044  29.335  12.044  1.00  0.00    -0.000 C 
BRANCH  12  13
ATOM     13  C   UNL     1      32.999  29.895  13.020  1.00  0.00    -0.003 C 
ATOM     14  C   UNL     1      32.467  28.837  13.987  1.00  0.00     0.004 C 
ENDBRANCH  12  13
ENDBRANCH  11  12
ENDBRANCH  10  11
ENDBRANCH   9  10
ENDBRANCH   1   9
TORSDOF 10
ENDMDL
MODEL 7
REMARK VINA RESULT:    -3.190     15.682     17.526
REMARK INTER + INTRA:          -5.700
REMARK INTER:                  -5.251
REMARK INTRA:                  -0.449
REMARK UNBOUND:                -0.646
REMARK SMILES CCCCCCCCCCCC(=O)[O-]
REMARK SMILES IDX 7 1 8 2 9 3 10 4 11 5 12 6 13 7 14 8 6 9 5 10 4 11 3 12 2 13
REMARK SMILES IDX 1 14
REMARK H PARENT
REMARK Flexibility Score: inf
ROOT
ATOM      1  C   UNL     1      36.632  44.730  21.354  1.00  0.00     0.000 C 
ENDROOT
BRANCH   1   2
ATOM      2  C   UNL     1      36.010  45.819  22.250  1.00  0.00     0.000 C 
BRANCH   2   3
ATOM      3  C   UNL     1      34.509  45.636  22.549  1.00  0.00     0.000 C 
BRANCH   3   4
ATOM      4  C   UNL     1      33.705  44.919  21.445  1.00  0.00     0.006 C 
BRANCH   4   5
ATOM      5  C   UNL     1      32.202  44.786  21.739  1.00  0.00     0.053 C 
BRANCH   5   6
ATOM      6  C   UNL     1      31.894  43.545  22.519  1.00  0.00     0.041 C 
ATOM      7  O   UNL     1      31.613  42.473  21.922  1.00  0.00    -0.550 OA
ATOM      8  O   UNL     1      31.950  43.565  23.907  1.00  0.00    -0.550 OA
ENDBRANCH   5   6
ENDBRANCH   4   5
ENDBRANCH   3   4
ENDBRANCH   2   3
ENDBRANCH   1   2
BRANCH   1   9
ATOM      9  C   UNL     1      37.074  45.212  19.957  1.00  0.00     0.000 C 
BRANCH   9  10
ATOM     10  C   UNL     1      37.121  44.118  18.873  1.00  0.00    -0.000 C 
BRANCH  10  11
ATOM     11  C   UNL     1      36.683  44.576  17.470  1.00  0.00    -0.000 C 
BRANCH  11  12
ATOM     12  C   UNL     1      37.092  43.585  16.366  1.00  0.00    -0.000 C 
BRANCH  12  13
ATOM     13  C   UNL     1      37.015  44.204  14.962  1.00  0.00    -0.003 C 
ATOM     14  C   UNL     1      36.605  45.677  14.989  1.00  0.00     0.004 C 
ENDBRANCH  12  13
ENDBRANCH  11  12
ENDBRANCH  10  11
ENDBRANCH   9  10
ENDBRANCH   1   9
TORSDOF 10
ENDMDL
