MODEL 1
REMARK VINA RESULT:    -6.087      0.000      0.000
REMARK INTER + INTRA:          -6.574
REMARK INTER:                  -6.442
REMARK INTRA:                  -0.132
REMARK UNBOUND:                -0.132
REMARK SMILES C=C(C)[C@H]1CC=C(C)CC1
REMARK SMILES IDX 8 1 7 2 6 3 5 4 4 5 10 6 9 7 2 8 1 9 3 10
REMARK H PARENT
REMARK Flexibility Score: inf
ROOT
ATOM      1  C   UNL     1     -19.884  44.159  -8.613  1.00  0.00     0.039 C 
ATOM      2  C   UNL     1     -19.101  43.482  -7.522  1.00  0.00    -0.077 C 
ATOM      3  C   UNL     1     -18.686  44.212  -6.463  1.00  0.00    -0.027 C 
ATOM      4  C   UNL     1     -17.851  43.639  -5.345  1.00  0.00     0.035 C 
ATOM      5  C   UNL     1     -17.991  42.110  -5.240  1.00  0.00     0.018 C 
ATOM      6  C   UNL     1     -17.822  41.473  -6.628  1.00  0.00     0.013 C 
ATOM      7  C   UNL     1     -18.916  41.978  -7.578  1.00  0.00     0.031 C 
ENDROOT
BRANCH   5   8
ATOM      8  C   UNL     1     -17.005  41.530  -4.235  1.00  0.00    -0.077 C 
ATOM      9  C   UNL     1     -16.295  42.348  -3.440  1.00  0.00     0.008 C 
ATOM     10  C   UNL     1     -16.789  40.042  -4.112  1.00  0.00     0.039 C 
ENDBRANCH   5   8
TORSDOF 1
ENDMDL
MODEL 2
REMARK VINA RESULT:    -5.962      0.374      1.629
REMARK INTER + INTRA:          -6.442
REMARK INTER:                  -6.313
REMARK INTRA:                  -0.130
REMARK UNBOUND:                -0.132
REMARK SMILES C=C(C)[C@H]1CC=C(C)CC1
REMARK SMILES IDX 8 1 7 2 6 3 5 4 4 5 10 6 9 7 2 8 1 9 3 10
REMARK H PARENT
REMARK Flexibility Score: inf
ROOT
ATOM      1  C   UNL     1     -19.721  43.906  -8.705  1.00  0.00     0.039 C 
ATOM      2  C   UNL     1     -19.021  43.299  -7.520  1.00  0.00    -0.077 C 
ATOM      3  C   UNL     1     -18.660  41.998  -7.568  1.00  0.00    -0.027 C 
ATOM      4  C   UNL     1     -18.001  41.284  -6.413  1.00  0.00     0.035 C 
ATOM      5  C   UNL     1     -17.303  42.261  -5.449  1.00  0.00     0.018 C 
ATOM      6  C   UNL     1     -18.251  43.416  -5.098  1.00  0.00     0.013 C 
ATOM      7  C   UNL     1     -18.623  44.198  -6.365  1.00  0.00     0.031 C 
ENDROOT
BRANCH   5   8
ATOM      8  C   UNL     1     -16.808  41.545  -4.199  1.00  0.00    -0.077 C 
ATOM      9  C   UNL     1     -16.517  42.247  -3.092  1.00  0.00     0.008 C 
ATOM     10  C   UNL     1     -16.620  40.048  -4.171  1.00  0.00     0.039 C 
ENDBRANCH   5   8
TORSDOF 1
ENDMDL
MODEL 3
REMARK VINA RESULT:    -5.883      0.877      4.505
REMARK INTER + INTRA:          -6.359
REMARK INTER:                  -6.229
REMARK INTRA:                  -0.130
REMARK UNBOUND:                -0.132
REMARK SMILES C=C(C)[C@H]1CC=C(C)CC1
REMARK SMILES IDX 8 1 7 2 6 3 5 4 4 5 10 6 9 7 2 8 1 9 3 10
REMARK H PARENT
REMARK Flexibility Score: inf
ROOT
ATOM      1  C   UNL     1     -16.366  40.369  -3.899  1.00  0.00     0.039 C 
ATOM      2  C   UNL     1     -17.059  41.361  -4.792  1.00  0.00    -0.077 C 
ATOM      3  C   UNL     1     -17.503  40.955  -6.002  1.00  0.00    -0.027 C 
ATOM      4  C   UNL     1     -18.163  41.886  -6.990  1.00  0.00     0.035 C 
ATOM      5  C   UNL     1     -18.760  43.129  -6.308  1.00  0.00     0.018 C 
ATOM      6  C   UNL     1     -17.727  43.750  -5.356  1.00  0.00     0.013 C 
ATOM      7  C   UNL     1     -17.355  42.748  -4.255  1.00  0.00     0.031 C 
ENDROOT
BRANCH   5   8
ATOM      8  C   UNL     1     -19.253  44.140  -7.334  1.00  0.00    -0.077 C 
ATOM      9  C   UNL     1     -19.362  45.438  -7.003  1.00  0.00     0.008 C 
ATOM     10  C   UNL     1     -19.640  43.720  -8.731  1.00  0.00     0.039 C 
ENDBRANCH   5   8
TORSDOF 1
ENDMDL
MODEL 4
REMARK VINA RESULT:    -5.779     11.745     13.614
REMARK INTER + INTRA:          -6.249
REMARK INTER:                  -6.120
REMARK INTRA:                  -0.129
REMARK UNBOUND:                -0.132
REMARK SMILES C=C(C)[C@H]1CC=C(C)CC1
REMARK SMILES IDX 8 1 7 2 6 3 5 4 4 5 10 6 9 7 2 8 1 9 3 10
REMARK H PARENT
REMARK Flexibility Score: inf
ROOT
ATOM      1  C   UNL     1     -20.124  41.155   4.424  1.00  0.00     0.039 C 
ATOM      2  C   UNL     1     -20.694  39.983   5.174  1.00  0.00    -0.077 C 
ATOM      3  C   UNL     1     -19.888  38.939   5.470  1.00  0.00    -0.027 C 
ATOM      4  C   UNL     1     -20.377  37.695   6.171  1.00  0.00     0.035 C 
ATOM      5  C   UNL     1     -21.663  37.950   6.977  1.00  0.00     0.018 C 
ATOM      6  C   UNL     1     -22.683  38.701   6.109  1.00  0.00     0.013 C 
ATOM      7  C   UNL     1     -22.118  40.065   5.690  1.00  0.00     0.031 C 
ENDROOT
BRANCH   5   8
ATOM      8  C   UNL     1     -22.241  36.651   7.521  1.00  0.00    -0.077 C 
ATOM      9  C   UNL     1     -23.484  36.272   7.181  1.00  0.00     0.008 C 
ATOM     10  C   UNL     1     -21.452  35.769   8.457  1.00  0.00     0.039 C 
ENDBRANCH   5   8
TORSDOF 1
ENDMDL
MODEL 5
REMARK VINA RESULT:    -5.753      2.180      4.528
REMARK INTER + INTRA:          -6.222
REMARK INTER:                  -6.090
REMARK INTRA:                  -0.131
REMARK UNBOUND:                -0.132
REMARK SMILES C=C(C)[C@H]1CC=C(C)CC1
REMARK SMILES IDX 8 1 7 2 6 3 5 4 4 5 10 6 9 7 2 8 1 9 3 10
REMARK H PARENT
REMARK Flexibility Score: inf
ROOT
ATOM      1  C   UNL     1     -16.001  42.474  -3.878  1.00  0.00     0.039 C 
ATOM      2  C   UNL     1     -17.373  42.262  -4.455  1.00  0.00    -0.077 C 
ATOM      3  C   UNL     1     -18.041  41.125  -4.158  1.00  0.00    -0.027 C 
ATOM      4  C   UNL     1     -19.399  40.795  -4.728  1.00  0.00     0.035 C 
ATOM      5  C   UNL     1     -20.154  42.053  -5.193  1.00  0.00     0.018 C 
ATOM      6  C   UNL     1     -19.233  42.925  -6.059  1.00  0.00     0.013 C 
ATOM      7  C   UNL     1     -18.020  43.386  -5.241  1.00  0.00     0.031 C 
ENDROOT
BRANCH   5   8
ATOM      8  C   UNL     1     -21.435  41.688  -5.932  1.00  0.00    -0.077 C 
ATOM      9  C   UNL     1     -21.582  40.461  -6.458  1.00  0.00     0.008 C 
ATOM     10  C   UNL     1     -22.556  42.683  -6.102  1.00  0.00     0.039 C 
ENDBRANCH   5   8
TORSDOF 1
ENDMDL
MODEL 6
REMARK VINA RESULT:    -5.749      1.985      2.742
REMARK INTER + INTRA:          -6.217
REMARK INTER:                  -6.089
REMARK INTRA:                  -0.128
REMARK UNBOUND:                -0.132
REMARK SMILES C=C(C)[C@H]1CC=C(C)CC1
REMARK SMILES IDX 8 1 7 2 6 3 5 4 4 5 10 6 9 7 2 8 1 9 3 10
REMARK H PARENT
REMARK Flexibility Score: inf
ROOT
ATOM      1  C   UNL     1     -21.384  40.521  -7.971  1.00  0.00     0.039 C 
ATOM      2  C   UNL     1     -20.230  40.702  -7.024  1.00  0.00    -0.077 C 
ATOM      3  C   UNL     1     -18.970  40.659  -7.510  1.00  0.00    -0.027 C 
ATOM      4  C   UNL     1     -17.747  40.778  -6.635  1.00  0.00     0.035 C 
ATOM      5  C   UNL     1     -18.053  41.482  -5.301  1.00  0.00     0.018 C 
ATOM      6  C   UNL     1     -19.305  40.866  -4.660  1.00  0.00     0.013 C 
ATOM      7  C   UNL     1     -20.518  41.060  -5.578  1.00  0.00     0.031 C 
ENDROOT
BRANCH   5   8
ATOM      8  C   UNL     1     -16.857  41.426  -4.359  1.00  0.00    -0.077 C 
ATOM      9  C   UNL     1     -16.385  40.241  -3.939  1.00  0.00     0.008 C 
ATOM     10  C   UNL     1     -16.185  42.683  -3.866  1.00  0.00     0.039 C 
ENDBRANCH   5   8
TORSDOF 1
ENDMDL
MODEL 7
REMARK VINA RESULT:    -5.701     11.896     13.727
REMARK INTER + INTRA:          -6.166
REMARK INTER:                  -6.040
REMARK INTRA:                  -0.126
REMARK UNBOUND:                -0.132
REMARK SMILES C=C(C)[C@H]1CC=C(C)CC1
REMARK SMILES IDX 8 1 7 2 6 3 5 4 4 5 10 6 9 7 2 8 1 9 3 10
REMARK H PARENT
REMARK Flexibility Score: inf
ROOT
ATOM      1  C   UNL     1     -20.267  41.149   4.656  1.00  0.00     0.039 C 
ATOM      2  C   UNL     1     -20.811  39.957   5.394  1.00  0.00    -0.077 C 
ATOM      3  C   UNL     1     -21.960  40.087   6.094  1.00  0.00    -0.027 C 
ATOM      4  C   UNL     1     -22.558  38.966   6.909  1.00  0.00     0.035 C 
ATOM      5  C   UNL     1     -22.075  37.584   6.437  1.00  0.00     0.018 C 
ATOM      6  C   UNL     1     -20.547  37.588   6.283  1.00  0.00     0.013 C 
ATOM      7  C   UNL     1     -20.126  38.615   5.223  1.00  0.00     0.031 C 
ENDROOT
BRANCH   5   8
ATOM      8  C   UNL     1     -22.538  36.483   7.383  1.00  0.00    -0.077 C 
ATOM      9  C   UNL     1     -23.845  36.332   7.651  1.00  0.00     0.008 C 
ATOM     10  C   UNL     1     -21.555  35.551   8.047  1.00  0.00     0.039 C 
ENDBRANCH   5   8
TORSDOF 1
ENDMDL
MODEL 8
REMARK VINA RESULT:    -5.641      1.634      2.381
REMARK INTER + INTRA:          -6.103
REMARK INTER:                  -5.978
REMARK INTRA:                  -0.125
REMARK UNBOUND:                -0.132
REMARK SMILES C=C(C)[C@H]1CC=C(C)CC1
REMARK SMILES IDX 8 1 7 2 6 3 5 4 4 5 10 6 9 7 2 8 1 9 3 10
REMARK H PARENT
REMARK Flexibility Score: inf
ROOT
ATOM      1  C   UNL     1     -21.892  42.366  -7.041  1.00  0.00     0.039 C 
ATOM      2  C   UNL     1     -20.582  42.173  -6.327  1.00  0.00    -0.077 C 
ATOM      3  C   UNL     1     -20.455  41.147  -5.456  1.00  0.00    -0.027 C 
ATOM      4  C   UNL     1     -19.201  40.901  -4.653  1.00  0.00     0.035 C 
ATOM      5  C   UNL     1     -17.961  41.543  -5.300  1.00  0.00     0.018 C 
ATOM      6  C   UNL     1     -18.265  43.000  -5.680  1.00  0.00     0.013 C 
ATOM      7  C   UNL     1     -19.405  43.052  -6.705  1.00  0.00     0.031 C 
ENDROOT
BRANCH   5   8
ATOM      8  C   UNL     1     -16.747  41.445  -4.387  1.00  0.00    -0.077 C 
ATOM      9  C   UNL     1     -16.291  40.243  -3.998  1.00  0.00     0.008 C 
ATOM     10  C   UNL     1     -16.036  42.679  -3.887  1.00  0.00     0.039 C 
ENDBRANCH   5   8
TORSDOF 1
ENDMDL
MODEL 9
REMARK VINA RESULT:    -5.632     11.944     14.183
REMARK INTER + INTRA:          -6.093
REMARK INTER:                  -5.963
REMARK INTRA:                  -0.129
REMARK UNBOUND:                -0.132
REMARK SMILES C=C(C)[C@H]1CC=C(C)CC1
REMARK SMILES IDX 8 1 7 2 6 3 5 4 4 5 10 6 9 7 2 8 1 9 3 10
REMARK H PARENT
REMARK Flexibility Score: inf
ROOT
ATOM      1  C   UNL     1     -21.511  35.848   9.077  1.00  0.00     0.039 C 
ATOM      2  C   UNL     1     -21.506  36.940   8.044  1.00  0.00    -0.077 C 
ATOM      3  C   UNL     1     -22.084  38.126   8.340  1.00  0.00    -0.027 C 
ATOM      4  C   UNL     1     -22.176  39.265   7.354  1.00  0.00     0.035 C 
ATOM      5  C   UNL     1     -21.114  39.161   6.246  1.00  0.00     0.018 C 
ATOM      6  C   UNL     1     -21.103  37.741   5.663  1.00  0.00     0.013 C 
ATOM      7  C   UNL     1     -20.739  36.725   6.753  1.00  0.00     0.031 C 
ENDROOT
BRANCH   5   8
ATOM      8  C   UNL     1     -21.340  40.208   5.163  1.00  0.00    -0.077 C 
ATOM      9  C   UNL     1     -22.565  40.385   4.642  1.00  0.00     0.008 C 
ATOM     10  C   UNL     1     -20.208  41.058   4.641  1.00  0.00     0.039 C 
ENDBRANCH   5   8
TORSDOF 1
ENDMDL
