MODEL 1
REMARK VINA RESULT:    -2.548      0.000      0.000
REMARK INTER + INTRA:          -2.548
REMARK INTER:                  -2.548
REMARK INTRA:                   0.000
REMARK UNBOUND:                 0.000
REMARK SMILES CC(=O)[O-]
REMARK SMILES IDX 1 1 2 2 3 3 4 4
REMARK H PARENT
REMARK Flexibility Score: inf
ROOT
ATOM      1  C   UNL     1      23.873  38.648  25.287  1.00  0.00     0.063 C 
ATOM      2  C   UNL     1      23.491  39.050  23.903  1.00  0.00     0.038 C 
ATOM      3  O   UNL     1      24.192  39.883  23.271  1.00  0.00    -0.550 OA
ATOM      4  O   UNL     1      22.391  38.466  23.287  1.00  0.00    -0.550 OA
ENDROOT
TORSDOF 0
ENDMDL
MODEL 2
REMARK VINA RESULT:    -2.416      1.342      1.677
REMARK INTER + INTRA:          -2.416
REMARK INTER:                  -2.416
REMARK INTRA:                   0.000
REMARK UNBOUND:                 0.000
REMARK SMILES CC(=O)[O-]
REMARK SMILES IDX 1 1 2 2 3 3 4 4
REMARK H PARENT
REMARK Flexibility Score: inf
ROOT
ATOM      1  C   UNL     1      24.111  40.538  23.504  1.00  0.00     0.063 C 
ATOM      2  C   UNL     1      23.678  39.191  23.974  1.00  0.00     0.038 C 
ATOM      3  O   UNL     1      24.275  38.636  24.934  1.00  0.00    -0.550 OA
ATOM      4  O   UNL     1      22.582  38.568  23.391  1.00  0.00    -0.550 OA
ENDROOT
TORSDOF 0
ENDMDL
MODEL 3
REMARK VINA RESULT:    -2.408      1.401      2.067
REMARK INTER + INTRA:          -2.408
REMARK INTER:                  -2.408
REMARK INTRA:                   0.000
REMARK UNBOUND:                 0.000
REMARK SMILES CC(=O)[O-]
REMARK SMILES IDX 1 1 2 2 3 3 4 4
REMARK H PARENT
REMARK Flexibility Score: inf
ROOT
ATOM      1  C   UNL     1      24.044  40.454  23.629  1.00  0.00     0.063 C 
ATOM      2  C   UNL     1      23.591  39.101  24.064  1.00  0.00     0.038 C 
ATOM      3  O   UNL     1      22.623  38.544  23.483  1.00  0.00    -0.550 OA
ATOM      4  O   UNL     1      24.269  38.430  25.073  1.00  0.00    -0.550 OA
ENDROOT
TORSDOF 0
ENDMDL
MODEL 4
REMARK VINA RESULT:    -2.364      1.517      2.097
REMARK INTER + INTRA:          -2.364
REMARK INTER:                  -2.364
REMARK INTRA:                   0.000
REMARK UNBOUND:                 0.000
REMARK SMILES CC(=O)[O-]
REMARK SMILES IDX 1 1 2 2 3 3 4 4
REMARK H PARENT
REMARK Flexibility Score: inf
ROOT
ATOM      1  C   UNL     1      22.648  38.562  23.208  1.00  0.00     0.063 C 
ATOM      2  C   UNL     1      23.665  39.271  24.038  1.00  0.00     0.038 C 
ATOM      3  O   UNL     1      24.262  38.659  24.962  1.00  0.00    -0.550 OA
ATOM      4  O   UNL     1      23.994  40.591  23.759  1.00  0.00    -0.550 OA
ENDROOT
TORSDOF 0
ENDMDL
MODEL 5
REMARK VINA RESULT:    -2.321     10.095     10.502
REMARK INTER + INTRA:          -2.321
REMARK INTER:                  -2.321
REMARK INTRA:                   0.000
REMARK UNBOUND:                 0.000
REMARK SMILES CC(=O)[O-]
REMARK SMILES IDX 1 1 2 2 3 3 4 4
REMARK H PARENT
REMARK Flexibility Score: inf
ROOT
ATOM      1  C   UNL     1      15.892  44.021  19.103  1.00  0.00     0.063 C 
ATOM      2  C   UNL     1      14.994  43.583  20.211  1.00  0.00     0.038 C 
ATOM      3  O   UNL     1      15.407  43.599  21.400  1.00  0.00    -0.550 OA
ATOM      4  O   UNL     1      13.685  43.209  19.940  1.00  0.00    -0.550 OA
ENDROOT
TORSDOF 0
ENDMDL
MODEL 6
REMARK VINA RESULT:    -2.256     10.528     10.996
REMARK INTER + INTRA:          -2.256
REMARK INTER:                  -2.256
REMARK INTRA:                   0.000
REMARK UNBOUND:                 0.000
REMARK SMILES CC(=O)[O-]
REMARK SMILES IDX 1 1 2 2 3 3 4 4
REMARK H PARENT
REMARK Flexibility Score: inf
ROOT
ATOM      1  C   UNL     1      14.579  44.958  18.175  1.00  0.00     0.063 C 
ATOM      2  C   UNL     1      15.211  44.116  19.231  1.00  0.00     0.038 C 
ATOM      3  O   UNL     1      16.465  44.059  19.327  1.00  0.00    -0.550 OA
ATOM      4  O   UNL     1      14.418  43.435  20.146  1.00  0.00    -0.550 OA
ENDROOT
TORSDOF 0
ENDMDL
MODEL 7
REMARK VINA RESULT:    -2.155     11.047     11.548
REMARK INTER + INTRA:          -2.155
REMARK INTER:                  -2.155
REMARK INTRA:                   0.000
REMARK UNBOUND:                 0.000
REMARK SMILES CC(=O)[O-]
REMARK SMILES IDX 1 1 2 2 3 3 4 4
REMARK H PARENT
REMARK Flexibility Score: inf
ROOT
ATOM      1  C   UNL     1      15.992  44.140  19.345  1.00  0.00     0.063 C 
ATOM      2  C   UNL     1      14.875  44.137  18.357  1.00  0.00     0.038 C 
ATOM      3  O   UNL     1      14.463  43.049  17.875  1.00  0.00    -0.550 OA
ATOM      4  O   UNL     1      14.250  45.327  18.007  1.00  0.00    -0.550 OA
ENDROOT
TORSDOF 0
ENDMDL
MODEL 8
REMARK VINA RESULT:    -1.862     19.612     19.784
REMARK INTER + INTRA:          -1.862
REMARK INTER:                  -1.862
REMARK INTRA:                   0.000
REMARK UNBOUND:                 0.000
REMARK SMILES CC(=O)[O-]
REMARK SMILES IDX 1 1 2 2 3 3 4 4
REMARK H PARENT
REMARK Flexibility Score: inf
ROOT
ATOM      1  C   UNL     1      12.550  48.874  35.822  1.00  0.00     0.063 C 
ATOM      2  C   UNL     1      12.573  48.590  37.286  1.00  0.00     0.038 C 
ATOM      3  O   UNL     1      13.076  49.425  38.082  1.00  0.00    -0.550 OA
ATOM      4  O   UNL     1      11.993  47.429  37.780  1.00  0.00    -0.550 OA
ENDROOT
TORSDOF 0
ENDMDL
MODEL 9
REMARK VINA RESULT:    -1.766     10.661     10.900
REMARK INTER + INTRA:          -1.766
REMARK INTER:                  -1.766
REMARK INTRA:                   0.000
REMARK UNBOUND:                 0.000
REMARK SMILES CC(=O)[O-]
REMARK SMILES IDX 1 1 2 2 3 3 4 4
REMARK H PARENT
REMARK Flexibility Score: inf
ROOT
ATOM      1  C   UNL     1      14.082  42.842  20.501  1.00  0.00     0.063 C 
ATOM      2  C   UNL     1      13.640  41.423  20.374  1.00  0.00     0.038 C 
ATOM      3  O   UNL     1      13.558  40.694  21.397  1.00  0.00    -0.550 OA
ATOM      4  O   UNL     1      13.265  40.918  19.136  1.00  0.00    -0.550 OA
ENDROOT
TORSDOF 0
ENDMDL
