MODEL 1
REMARK VINA RESULT:    14.609      0.000      0.000
REMARK INTER + INTRA:          39.432
REMARK INTER:                  38.522
REMARK INTRA:                   0.909
REMARK UNBOUND:                 0.909
REMARK SMILES CCCCCCCCCCCCCCCCCCCCCCCCCCCCCC(=O)[O-]
REMARK SMILES IDX 16 1 17 2 18 3 19 4 20 5 21 6 22 7 23 8 24 9 25 10 26 11
REMARK SMILES IDX 27 12 28 13 29 14 30 15 31 16 32 17 15 18 14 19 13 20 12 21
REMARK SMILES IDX 11 22 10 23 9 24 8 25 7 26 6 27 5 28 4 29 3 30 2 31 1 32
REMARK H PARENT
REMARK Flexibility Score: inf
ROOT
ATOM      1  C   UNL     1      -7.732  24.962 -13.804  1.00  0.00     0.000 C 
ENDROOT
BRANCH   1   2
ATOM      2  C   UNL     1      -7.816  24.557 -12.319  1.00  0.00     0.000 C 
BRANCH   2   3
ATOM      3  C   UNL     1      -9.191  24.042 -11.855  1.00  0.00     0.000 C 
BRANCH   3   4
ATOM      4  C   UNL     1      -9.220  22.570 -11.395  1.00  0.00     0.000 C 
BRANCH   4   5
ATOM      5  C   UNL     1      -9.889  22.330 -10.030  1.00  0.00     0.000 C 
BRANCH   5   6
ATOM      6  C   UNL     1      -8.881  21.983  -8.924  1.00  0.00     0.000 C 
BRANCH   6   7
ATOM      7  C   UNL     1      -9.403  22.427  -7.549  1.00  0.00     0.000 C 
BRANCH   7   8
ATOM      8  C   UNL     1      -8.282  22.567  -6.506  1.00  0.00     0.000 C 
BRANCH   8   9
ATOM      9  C   UNL     1      -7.744  24.005  -6.414  1.00  0.00     0.000 C 
BRANCH   9  10
ATOM     10  C   UNL     1      -7.770  24.557  -4.980  1.00  0.00     0.000 C 
BRANCH  10  11
ATOM     11  C   UNL     1      -9.097  25.259  -4.638  1.00  0.00     0.000 C 
BRANCH  11  12
ATOM     12  C   UNL     1      -9.429  26.401  -5.613  1.00  0.00     0.000 C 
BRANCH  12  13
ATOM     13  C   UNL     1      -9.720  27.726  -4.894  1.00  0.00     0.006 C 
BRANCH  13  14
ATOM     14  C   UNL     1     -10.910  27.581  -3.938  1.00  0.00     0.053 C 
BRANCH  14  15
ATOM     15  C   UNL     1     -12.195  27.429  -4.693  1.00  0.00     0.041 C 
ATOM     16  O   UNL     1     -12.521  26.307  -5.167  1.00  0.00    -0.550 OA
ATOM     17  O   UNL     1     -13.056  28.510  -4.836  1.00  0.00    -0.550 OA
ENDBRANCH  14  15
ENDBRANCH  13  14
ENDBRANCH  12  13
ENDBRANCH  11  12
ENDBRANCH  10  11
ENDBRANCH   9  10
ENDBRANCH   8   9
ENDBRANCH   7   8
ENDBRANCH   6   7
ENDBRANCH   5   6
ENDBRANCH   4   5
ENDBRANCH   3   4
ENDBRANCH   2   3
ENDBRANCH   1   2
BRANCH   1  18
ATOM     18  C   UNL     1      -7.159  26.375 -14.041  1.00  0.00     0.000 C 
BRANCH  18  19
ATOM     19  C   UNL     1      -6.606  26.567 -15.467  1.00  0.00     0.000 C 
BRANCH  19  20
ATOM     20  C   UNL     1      -6.530  28.046 -15.881  1.00  0.00     0.000 C 
BRANCH  20  21
ATOM     21  C   UNL     1      -7.915  28.687 -16.061  1.00  0.00     0.000 C 
BRANCH  21  22
ATOM     22  C   UNL     1      -8.234  29.638 -14.900  1.00  0.00     0.000 C 
BRANCH  22  23
ATOM     23  C   UNL     1      -9.389  30.583 -15.265  1.00  0.00     0.000 C 
BRANCH  23  24
ATOM     24  C   UNL     1      -8.954  31.700 -16.227  1.00  0.00    -0.000 C 
BRANCH  24  25
ATOM     25  C   UNL     1      -9.165  31.326 -17.706  1.00  0.00    -0.000 C 
BRANCH  25  26
ATOM     26  C   UNL     1      -9.087  29.802 -17.937  1.00  0.00    -0.000 C 
BRANCH  26  27
ATOM     27  C   UNL     1      -8.403  29.407 -19.258  1.00  0.00    -0.000 C 
BRANCH  27  28
ATOM     28  C   UNL     1      -7.047  28.714 -19.046  1.00  0.00    -0.000 C 
BRANCH  28  29
ATOM     29  C   UNL     1      -6.100  28.889 -20.245  1.00  0.00    -0.000 C 
BRANCH  29  30
ATOM     30  C   UNL     1      -6.855  29.062 -21.572  1.00  0.00    -0.000 C 
BRANCH  30  31
ATOM     31  C   UNL     1      -6.532  27.916 -22.537  1.00  0.00    -0.003 C 
ATOM     32  C   UNL     1      -5.078  27.473 -22.405  1.00  0.00     0.004 C 
ENDBRANCH  30  31
ENDBRANCH  29  30
ENDBRANCH  28  29
ENDBRANCH  27  28
ENDBRANCH  26  27
ENDBRANCH  25  26
ENDBRANCH  24  25
ENDBRANCH  23  24
ENDBRANCH  22  23
ENDBRANCH  21  22
ENDBRANCH  20  21
ENDBRANCH  19  20
ENDBRANCH  18  19
ENDBRANCH   1  18
TORSDOF 28
ENDMDL
MODEL 2
REMARK VINA RESULT:    16.997      4.744     13.256
REMARK INTER + INTRA:          45.730
REMARK INTER:                  46.231
REMARK INTRA:                  -0.501
REMARK UNBOUND:                 0.909
REMARK SMILES CCCCCCCCCCCCCCCCCCCCCCCCCCCCCC(=O)[O-]
REMARK SMILES IDX 16 1 17 2 18 3 19 4 20 5 21 6 22 7 23 8 24 9 25 10 26 11
REMARK SMILES IDX 27 12 28 13 29 14 30 15 31 16 32 17 15 18 14 19 13 20 12 21
REMARK SMILES IDX 11 22 10 23 9 24 8 25 7 26 6 27 5 28 4 29 3 30 2 31 1 32
REMARK H PARENT
REMARK Flexibility Score: inf
ROOT
ATOM      1  C   UNL     1      -7.134  25.922 -13.725  1.00  0.00     0.000 C 
ENDROOT
BRANCH   1   2
ATOM      2  C   UNL     1      -6.439  25.768 -15.092  1.00  0.00     0.000 C 
BRANCH   2   3
ATOM      3  C   UNL     1      -6.333  27.060 -15.924  1.00  0.00     0.000 C 
BRANCH   3   4
ATOM      4  C   UNL     1      -7.623  27.903 -15.995  1.00  0.00     0.000 C 
BRANCH   4   5
ATOM      5  C   UNL     1      -7.523  29.298 -15.351  1.00  0.00     0.000 C 
BRANCH   5   6
ATOM      6  C   UNL     1      -8.862  29.790 -14.782  1.00  0.00     0.000 C 
BRANCH   6   7
ATOM      7  C   UNL     1      -9.210  31.183 -15.329  1.00  0.00     0.000 C 
BRANCH   7   8
ATOM      8  C   UNL     1      -9.112  31.261 -16.861  1.00  0.00     0.000 C 
BRANCH   8   9
ATOM      9  C   UNL     1      -9.770  30.054 -17.552  1.00  0.00     0.000 C 
BRANCH   9  10
ATOM     10  C   UNL     1      -9.121  29.720 -18.905  1.00  0.00     0.000 C 
BRANCH  10  11
ATOM     11  C   UNL     1      -7.783  28.972 -18.753  1.00  0.00     0.000 C 
BRANCH  11  12
ATOM     12  C   UNL     1      -6.738  29.416 -19.790  1.00  0.00     0.000 C 
BRANCH  12  13
ATOM     13  C   UNL     1      -5.759  28.293 -20.161  1.00  0.00     0.006 C 
BRANCH  13  14
ATOM     14  C   UNL     1      -5.375  28.369 -21.644  1.00  0.00     0.053 C 
BRANCH  14  15
ATOM     15  C   UNL     1      -6.113  27.341 -22.447  1.00  0.00     0.041 C 
ATOM     16  O   UNL     1      -7.369  27.398 -22.545  1.00  0.00    -0.550 OA
ATOM     17  O   UNL     1      -5.416  26.349 -23.125  1.00  0.00    -0.550 OA
ENDBRANCH  14  15
ENDBRANCH  13  14
ENDBRANCH  12  13
ENDBRANCH  11  12
ENDBRANCH  10  11
ENDBRANCH   9  10
ENDBRANCH   8   9
ENDBRANCH   7   8
ENDBRANCH   6   7
ENDBRANCH   5   6
ENDBRANCH   4   5
ENDBRANCH   3   4
ENDBRANCH   2   3
ENDBRANCH   1   2
BRANCH   1  18
ATOM     18  C   UNL     1      -8.222  24.863 -13.447  1.00  0.00     0.000 C 
BRANCH  18  19
ATOM     19  C   UNL     1      -7.871  23.938 -12.265  1.00  0.00     0.000 C 
BRANCH  19  20
ATOM     20  C   UNL     1      -9.036  23.771 -11.276  1.00  0.00     0.000 C 
BRANCH  20  21
ATOM     21  C   UNL     1      -9.373  22.299 -10.993  1.00  0.00     0.000 C 
BRANCH  21  22
ATOM     22  C   UNL     1     -10.031  22.141  -9.615  1.00  0.00     0.000 C 
BRANCH  22  23
ATOM     23  C   UNL     1      -8.971  22.043  -8.508  1.00  0.00     0.000 C 
BRANCH  23  24
ATOM     24  C   UNL     1      -9.399  22.759  -7.218  1.00  0.00    -0.000 C 
BRANCH  24  25
ATOM     25  C   UNL     1      -8.568  24.025  -6.938  1.00  0.00    -0.000 C 
BRANCH  25  26
ATOM     26  C   UNL     1      -8.252  24.193  -5.436  1.00  0.00    -0.000 C 
BRANCH  26  27
ATOM     27  C   UNL     1      -8.963  25.392  -4.782  1.00  0.00    -0.000 C 
BRANCH  27  28
ATOM     28  C   UNL     1      -8.901  26.666  -5.639  1.00  0.00    -0.000 C 
BRANCH  28  29
ATOM     29  C   UNL     1      -9.622  27.855  -4.983  1.00  0.00    -0.000 C 
BRANCH  29  30
ATOM     30  C   UNL     1     -10.897  27.434  -4.239  1.00  0.00    -0.000 C 
BRANCH  30  31
ATOM     31  C   UNL     1     -11.634  26.325  -4.999  1.00  0.00    -0.003 C 
ATOM     32  C   UNL     1     -13.066  26.734  -5.326  1.00  0.00     0.004 C 
ENDBRANCH  30  31
ENDBRANCH  29  30
ENDBRANCH  28  29
ENDBRANCH  27  28
ENDBRANCH  26  27
ENDBRANCH  25  26
ENDBRANCH  24  25
ENDBRANCH  23  24
ENDBRANCH  22  23
ENDBRANCH  21  22
ENDBRANCH  20  21
ENDBRANCH  19  20
ENDBRANCH  18  19
ENDBRANCH   1  18
TORSDOF 28
ENDMDL
MODEL 3
REMARK VINA RESULT:    17.161      1.121      3.491
REMARK INTER + INTRA:          46.161
REMARK INTER:                  46.433
REMARK INTRA:                  -0.272
REMARK UNBOUND:                 0.909
REMARK SMILES CCCCCCCCCCCCCCCCCCCCCCCCCCCCCC(=O)[O-]
REMARK SMILES IDX 16 1 17 2 18 3 19 4 20 5 21 6 22 7 23 8 24 9 25 10 26 11
REMARK SMILES IDX 27 12 28 13 29 14 30 15 31 16 32 17 15 18 14 19 13 20 12 21
REMARK SMILES IDX 11 22 10 23 9 24 8 25 7 26 6 27 5 28 4 29 3 30 2 31 1 32
REMARK H PARENT
REMARK Flexibility Score: inf
ROOT
ATOM      1  C   UNL     1      -7.048  25.638 -13.602  1.00  0.00     0.000 C 
ENDROOT
BRANCH   1   2
ATOM      2  C   UNL     1      -8.356  25.114 -12.979  1.00  0.00     0.000 C 
BRANCH   2   3
ATOM      3  C   UNL     1      -8.245  23.755 -12.264  1.00  0.00     0.000 C 
BRANCH   3   4
ATOM      4  C   UNL     1      -9.101  23.612 -10.989  1.00  0.00     0.000 C 
BRANCH   4   5
ATOM      5  C   UNL     1      -9.603  22.185 -10.701  1.00  0.00     0.000 C 
BRANCH   5   6
ATOM      6  C   UNL     1      -9.844  21.928  -9.206  1.00  0.00     0.000 C 
BRANCH   6   7
ATOM      7  C   UNL     1      -8.907  22.788  -8.344  1.00  0.00     0.000 C 
BRANCH   7   8
ATOM      8  C   UNL     1      -8.797  22.280  -6.898  1.00  0.00     0.000 C 
BRANCH   8   9
ATOM      9  C   UNL     1      -7.456  22.657  -6.245  1.00  0.00     0.000 C 
BRANCH   9  10
ATOM     10  C   UNL     1      -7.604  23.753  -5.177  1.00  0.00     0.000 C 
BRANCH  10  11
ATOM     11  C   UNL     1      -8.252  25.036  -5.729  1.00  0.00     0.000 C 
BRANCH  11  12
ATOM     12  C   UNL     1      -9.265  25.653  -4.750  1.00  0.00     0.000 C 
BRANCH  12  13
ATOM     13  C   UNL     1      -9.699  27.068  -5.161  1.00  0.00     0.006 C 
BRANCH  13  14
ATOM     14  C   UNL     1     -10.740  27.627  -4.184  1.00  0.00     0.053 C 
BRANCH  14  15
ATOM     15  C   UNL     1     -12.133  27.399  -4.689  1.00  0.00     0.041 C 
ATOM     16  O   UNL     1     -12.998  28.309  -4.590  1.00  0.00    -0.550 OA
ATOM     17  O   UNL     1     -12.465  26.202  -5.311  1.00  0.00    -0.550 OA
ENDBRANCH  14  15
ENDBRANCH  13  14
ENDBRANCH  12  13
ENDBRANCH  11  12
ENDBRANCH  10  11
ENDBRANCH   9  10
ENDBRANCH   8   9
ENDBRANCH   7   8
ENDBRANCH   6   7
ENDBRANCH   5   6
ENDBRANCH   4   5
ENDBRANCH   3   4
ENDBRANCH   2   3
ENDBRANCH   1   2
BRANCH   1  18
ATOM     18  C   UNL     1      -7.114  25.841 -15.131  1.00  0.00     0.000 C 
BRANCH  18  19
ATOM     19  C   UNL     1      -6.900  27.308 -15.552  1.00  0.00     0.000 C 
BRANCH  19  20
ATOM     20  C   UNL     1      -5.830  27.463 -16.644  1.00  0.00     0.000 C 
BRANCH  20  21
ATOM     21  C   UNL     1      -6.209  28.505 -17.708  1.00  0.00     0.000 C 
BRANCH  21  22
ATOM     22  C   UNL     1      -6.461  27.835 -19.066  1.00  0.00     0.000 C 
BRANCH  22  23
ATOM     23  C   UNL     1      -5.906  28.693 -20.213  1.00  0.00     0.000 C 
BRANCH  23  24
ATOM     24  C   UNL     1      -6.934  29.705 -20.743  1.00  0.00    -0.000 C 
BRANCH  24  25
ATOM     25  C   UNL     1      -8.382  29.322 -20.386  1.00  0.00    -0.000 C 
BRANCH  25  26
ATOM     26  C   UNL     1      -8.971  30.232 -19.287  1.00  0.00    -0.000 C 
BRANCH  26  27
ATOM     27  C   UNL     1      -9.525  29.464 -18.074  1.00  0.00    -0.000 C 
BRANCH  27  28
ATOM     28  C   UNL     1      -8.821  29.834 -16.759  1.00  0.00    -0.000 C 
BRANCH  28  29
ATOM     29  C   UNL     1      -9.755  30.552 -15.770  1.00  0.00    -0.000 C 
BRANCH  29  30
ATOM     30  C   UNL     1      -9.017  31.583 -14.903  1.00  0.00    -0.000 C 
BRANCH  30  31
ATOM     31  C   UNL     1      -8.569  32.784 -15.744  1.00  0.00    -0.003 C 
ATOM     32  C   UNL     1      -9.169  32.734 -17.145  1.00  0.00     0.004 C 
ENDBRANCH  30  31
ENDBRANCH  29  30
ENDBRANCH  28  29
ENDBRANCH  27  28
ENDBRANCH  26  27
ENDBRANCH  25  26
ENDBRANCH  24  25
ENDBRANCH  23  24
ENDBRANCH  22  23
ENDBRANCH  21  22
ENDBRANCH  20  21
ENDBRANCH  19  20
ENDBRANCH  18  19
ENDBRANCH   1  18
TORSDOF 28
ENDMDL
MODEL 4
REMARK VINA RESULT:    17.291      3.263     12.544
REMARK INTER + INTRA:          46.505
REMARK INTER:                  46.844
REMARK INTRA:                  -0.339
REMARK UNBOUND:                 0.909
REMARK SMILES CCCCCCCCCCCCCCCCCCCCCCCCCCCCCC(=O)[O-]
REMARK SMILES IDX 16 1 17 2 18 3 19 4 20 5 21 6 22 7 23 8 24 9 25 10 26 11
REMARK SMILES IDX 27 12 28 13 29 14 30 15 31 16 32 17 15 18 14 19 13 20 12 21
REMARK SMILES IDX 11 22 10 23 9 24 8 25 7 26 6 27 5 28 4 29 3 30 2 31 1 32
REMARK H PARENT
REMARK Flexibility Score: inf
ROOT
ATOM      1  C   UNL     1      -7.407  25.729 -13.658  1.00  0.00     0.000 C 
ENDROOT
BRANCH   1   2
ATOM      2  C   UNL     1      -7.063  25.918 -15.149  1.00  0.00     0.000 C 
BRANCH   2   3
ATOM      3  C   UNL     1      -6.979  27.381 -15.622  1.00  0.00     0.000 C 
BRANCH   3   4
ATOM      4  C   UNL     1      -5.883  27.671 -16.668  1.00  0.00     0.000 C 
BRANCH   4   5
ATOM      5  C   UNL     1      -6.368  28.409 -17.929  1.00  0.00     0.000 C 
BRANCH   5   6
ATOM      6  C   UNL     1      -6.001  27.677 -19.228  1.00  0.00     0.000 C 
BRANCH   6   7
ATOM      7  C   UNL     1      -5.890  28.663 -20.401  1.00  0.00     0.000 C 
BRANCH   7   8
ATOM      8  C   UNL     1      -7.246  28.949 -21.066  1.00  0.00     0.000 C 
BRANCH   8   9
ATOM      9  C   UNL     1      -7.911  30.223 -20.515  1.00  0.00     0.000 C 
BRANCH   9  10
ATOM     10  C   UNL     1      -9.248  29.937 -19.812  1.00  0.00     0.000 C 
BRANCH  10  11
ATOM     11  C   UNL     1      -9.075  29.118 -18.518  1.00  0.00     0.000 C 
BRANCH  11  12
ATOM     12  C   UNL     1      -9.693  29.812 -17.294  1.00  0.00     0.000 C 
BRANCH  12  13
ATOM     13  C   UNL     1      -8.649  30.166 -16.224  1.00  0.00     0.006 C 
BRANCH  13  14
ATOM     14  C   UNL     1      -9.250  31.086 -15.155  1.00  0.00     0.053 C 
BRANCH  14  15
ATOM     15  C   UNL     1      -8.889  32.518 -15.410  1.00  0.00     0.041 C 
ATOM     16  O   UNL     1      -8.626  33.285 -14.444  1.00  0.00    -0.550 OA
ATOM     17  O   UNL     1      -8.796  32.997 -16.711  1.00  0.00    -0.550 OA
ENDBRANCH  14  15
ENDBRANCH  13  14
ENDBRANCH  12  13
ENDBRANCH  11  12
ENDBRANCH  10  11
ENDBRANCH   9  10
ENDBRANCH   8   9
ENDBRANCH   7   8
ENDBRANCH   6   7
ENDBRANCH   5   6
ENDBRANCH   4   5
ENDBRANCH   3   4
ENDBRANCH   2   3
ENDBRANCH   1   2
BRANCH   1  18
ATOM     18  C   UNL     1      -8.428  24.604 -13.384  1.00  0.00     0.000 C 
BRANCH  18  19
ATOM     19  C   UNL     1      -8.047  23.729 -12.175  1.00  0.00     0.000 C 
BRANCH  19  20
ATOM     20  C   UNL     1      -9.139  23.703 -11.093  1.00  0.00     0.000 C 
BRANCH  20  21
ATOM     21  C   UNL     1      -9.680  22.290 -10.824  1.00  0.00     0.000 C 
BRANCH  21  22
ATOM     22  C   UNL     1      -9.750  22.006  -9.318  1.00  0.00     0.000 C 
BRANCH  22  23
ATOM     23  C   UNL     1      -8.778  22.908  -8.542  1.00  0.00     0.000 C 
BRANCH  23  24
ATOM     24  C   UNL     1      -8.970  22.808  -7.020  1.00  0.00    -0.000 C 
BRANCH  24  25
ATOM     25  C   UNL     1      -7.680  22.397  -6.285  1.00  0.00    -0.000 C 
BRANCH  25  26
ATOM     26  C   UNL     1      -6.810  23.615  -5.911  1.00  0.00    -0.000 C 
BRANCH  26  27
ATOM     27  C   UNL     1      -7.528  24.641  -5.015  1.00  0.00    -0.000 C 
BRANCH  27  28
ATOM     28  C   UNL     1      -8.636  25.409  -5.753  1.00  0.00    -0.000 C 
BRANCH  28  29
ATOM     29  C   UNL     1      -9.797  25.806  -4.827  1.00  0.00    -0.000 C 
BRANCH  29  30
ATOM     30  C   UNL     1      -9.956  27.328  -4.699  1.00  0.00    -0.000 C 
BRANCH  30  31
ATOM     31  C   UNL     1     -11.369  27.693  -4.226  1.00  0.00    -0.003 C 
ATOM     32  C   UNL     1     -12.427  26.873  -4.958  1.00  0.00     0.004 C 
ENDBRANCH  30  31
ENDBRANCH  29  30
ENDBRANCH  28  29
ENDBRANCH  27  28
ENDBRANCH  26  27
ENDBRANCH  25  26
ENDBRANCH  24  25
ENDBRANCH  23  24
ENDBRANCH  22  23
ENDBRANCH  21  22
ENDBRANCH  20  21
ENDBRANCH  19  20
ENDBRANCH  18  19
ENDBRANCH   1  18
TORSDOF 28
ENDMDL
