MODEL 1
REMARK VINA RESULT:    -4.709      0.000      0.000
REMARK INTER + INTRA:          -5.155
REMARK INTER:                  -6.911
REMARK INTRA:                   1.756
REMARK UNBOUND:                 1.756
REMARK SMILES O=c1c(O[C@H]2O[C@@H](CO)[C@H](O)[C@@H](O)[C@@H]2O)c(-c2ccc(O)c(O)c2)oc2cc(O)cc(O)c12
REMARK SMILES IDX 4 1 3 2 16 3 25 4 2 5 26 6 1 7 33 8 27 9 31 10 28 11 30 12
REMARK SMILES IDX 17 13 18 14 19 15 20 16 24 17 22 18 21 19 23 21 32 23 29 25
REMARK SMILES IDX 5 27 14 28 6 29 12 30 7 31 10 32 15 33 13 35 8 37 9 38 11 40
REMARK H PARENT 21 20 23 22 32 24 29 26 15 34 13 36 9 39 11 41
REMARK Flexibility Score: inf
ROOT
ATOM      1  O   UNL     1     -10.241   7.320   6.782  1.00  0.00    -0.454 OA
ENDROOT
BRANCH   1   2
ATOM      2  C   UNL     1     -10.947   8.290   6.056  1.00  0.00     0.214 A 
ATOM      3  C   UNL     1     -10.329   9.483   5.635  1.00  0.00     0.180 A 
ATOM      4  O   UNL     1     -11.024  10.395   4.965  1.00  0.00    -0.452 OA
ATOM      5  C   UNL     1     -12.309   8.109   5.776  1.00  0.00     0.239 A 
ATOM      6  C   UNL     1     -12.308  10.250   4.659  1.00  0.00     0.146 A 
ATOM      7  O   UNL     1     -12.892   7.073   6.192  1.00  0.00    -0.285 OA
ATOM      8  C   UNL     1     -13.009   9.084   5.041  1.00  0.00     0.111 A 
ATOM      9  C   UNL     1     -12.961  11.264   3.951  1.00  0.00     0.094 A 
ATOM     10  C   UNL     1     -14.366   8.941   4.665  1.00  0.00     0.134 A 
ATOM     11  C   UNL     1     -14.303  11.119   3.586  1.00  0.00     0.123 A 
ATOM     12  C   UNL     1     -14.994   9.955   3.927  1.00  0.00     0.093 A 
BRANCH   3  13
ATOM     13  C   UNL     1      -8.929   9.781   5.956  1.00  0.00     0.025 A 
ATOM     14  C   UNL     1      -7.926   9.578   4.999  1.00  0.00     0.016 A 
ATOM     15  C   UNL     1      -6.604   9.930   5.285  1.00  0.00     0.051 A 
ATOM     16  C   UNL     1      -6.284  10.534   6.510  1.00  0.00     0.157 A 
ATOM     17  C   UNL     1      -8.609  10.386   7.182  1.00  0.00     0.062 A 
ATOM     18  C   UNL     1      -7.290  10.772   7.456  1.00  0.00     0.158 A 
BRANCH  16  19
ATOM     19  O   UNL     1      -4.972  10.907   6.796  1.00  0.00    -0.504 OA
ATOM     20  H   UNL     1      -4.269  10.982   6.066  1.00  0.00     0.293 HD
ENDBRANCH  16  19
BRANCH  18  21
ATOM     21  O   UNL     1      -6.973  11.400   8.662  1.00  0.00    -0.504 OA
ATOM     22  H   UNL     1      -7.152  10.960   9.556  1.00  0.00     0.293 HD
ENDBRANCH  18  21
ENDBRANCH   3  13
BRANCH  10  23
ATOM     23  O   UNL     1     -15.090   7.800   5.015  1.00  0.00    -0.507 OA
ATOM     24  H   UNL     1     -15.985   7.858   5.480  1.00  0.00     0.293 HD
ENDBRANCH  10  23
BRANCH  11  25
ATOM     25  O   UNL     1     -14.962  12.124   2.882  1.00  0.00    -0.508 OA
ATOM     26  H   UNL     1     -14.550  13.043   2.763  1.00  0.00     0.293 HD
ENDBRANCH  11  25
ENDBRANCH   1   2
BRANCH   1  27
ATOM     27  C   UNL     1      -9.560   6.226   6.166  1.00  0.00     0.339 C 
ATOM     28  C   UNL     1     -10.468   5.454   5.192  1.00  0.00     0.214 C 
ATOM     29  O   UNL     1      -8.948   5.395   7.141  1.00  0.00    -0.332 OA
ATOM     30  C   UNL     1     -11.521   4.616   5.933  1.00  0.00     0.180 C 
ATOM     31  C   UNL     1      -9.856   4.623   7.918  1.00  0.00     0.179 C 
ATOM     32  C   UNL     1     -10.893   3.813   7.087  1.00  0.00     0.177 C 
BRANCH  28  33
ATOM     33  O   UNL     1      -9.672   4.614   4.393  1.00  0.00    -0.384 OA
ATOM     34  H   UNL     1      -8.736   4.930   4.478  1.00  0.00     0.211 HD
ENDBRANCH  28  33
BRANCH  30  35
ATOM     35  O   UNL     1     -12.542   5.441   6.427  1.00  0.00    -0.387 OA
ATOM     36  H   UNL     1     -12.794   5.090   7.321  1.00  0.00     0.211 HD
ENDBRANCH  30  35
BRANCH  31  37
ATOM     37  C   UNL     1     -10.439   5.396   9.125  1.00  0.00     0.191 C 
BRANCH  37  38
ATOM     38  O   UNL     1     -11.644   6.041   8.815  1.00  0.00    -0.394 OA
ATOM     39  H   UNL     1     -12.374   5.464   9.158  1.00  0.00     0.210 HD
ENDBRANCH  37  38
ENDBRANCH  31  37
BRANCH  32  40
ATOM     40  O   UNL     1     -10.323   2.626   6.582  1.00  0.00    -0.387 OA
ATOM     41  H   UNL     1     -10.692   2.462   5.677  1.00  0.00     0.211 HD
ENDBRANCH  32  40
ENDBRANCH   1  27
TORSDOF 12
ENDMDL
MODEL 2
REMARK VINA RESULT:    -4.138      1.833      6.889
REMARK INTER + INTRA:          -4.317
REMARK INTER:                  -4.506
REMARK INTRA:                   0.188
REMARK UNBOUND:                 1.756
REMARK SMILES O=c1c(O[C@H]2O[C@@H](CO)[C@H](O)[C@@H](O)[C@@H]2O)c(-c2ccc(O)c(O)c2)oc2cc(O)cc(O)c12
REMARK SMILES IDX 4 1 3 2 16 3 25 4 2 5 26 6 1 7 33 8 27 9 31 10 28 11 30 12
REMARK SMILES IDX 17 13 18 14 19 15 20 16 24 17 22 18 21 19 23 21 32 23 29 25
REMARK SMILES IDX 5 27 14 28 6 29 12 30 7 31 10 32 15 33 13 35 8 37 9 38 11 40
REMARK H PARENT 21 20 23 22 32 24 29 26 15 34 13 36 9 39 11 41
REMARK Flexibility Score: inf
ROOT
ATOM      1  O   UNL     1     -11.153   8.707   5.099  1.00  0.00    -0.454 OA
ENDROOT
BRANCH   1   2
ATOM      2  C   UNL     1      -9.819   8.826   5.518  1.00  0.00     0.214 A 
ATOM      3  C   UNL     1      -9.229   7.864   6.360  1.00  0.00     0.180 A 
ATOM      4  O   UNL     1      -7.970   8.008   6.758  1.00  0.00    -0.452 OA
ATOM      5  C   UNL     1      -9.059   9.941   5.141  1.00  0.00     0.239 A 
ATOM      6  C   UNL     1      -7.208   9.036   6.403  1.00  0.00     0.146 A 
ATOM      7  O   UNL     1      -9.587  10.838   4.433  1.00  0.00    -0.285 OA
ATOM      8  C   UNL     1      -7.719  10.049   5.560  1.00  0.00     0.111 A 
ATOM      9  C   UNL     1      -5.893   9.107   6.871  1.00  0.00     0.094 A 
ATOM     10  C   UNL     1      -6.870  11.111   5.167  1.00  0.00     0.134 A 
ATOM     11  C   UNL     1      -5.060  10.162   6.483  1.00  0.00     0.123 A 
ATOM     12  C   UNL     1      -5.544  11.148   5.622  1.00  0.00     0.093 A 
BRANCH   3  13
ATOM     13  C   UNL     1      -9.982   6.709   6.860  1.00  0.00     0.025 A 
ATOM     14  C   UNL     1     -10.618   6.766   8.107  1.00  0.00     0.016 A 
ATOM     15  C   UNL     1     -11.393   5.689   8.547  1.00  0.00     0.051 A 
ATOM     16  C   UNL     1     -11.579   4.569   7.723  1.00  0.00     0.157 A 
ATOM     17  C   UNL     1     -10.169   5.588   6.034  1.00  0.00     0.062 A 
ATOM     18  C   UNL     1     -10.974   4.524   6.460  1.00  0.00     0.158 A 
BRANCH  16  19
ATOM     19  O   UNL     1     -12.366   3.500   8.145  1.00  0.00    -0.504 OA
ATOM     20  H   UNL     1     -12.835   2.891   7.481  1.00  0.00     0.293 HD
ENDBRANCH  16  19
BRANCH  18  21
ATOM     21  O   UNL     1     -11.185   3.422   5.630  1.00  0.00    -0.504 OA
ATOM     22  H   UNL     1     -12.080   2.949   5.588  1.00  0.00     0.293 HD
ENDBRANCH  18  21
ENDBRANCH   3  13
BRANCH  10  23
ATOM     23  O   UNL     1      -7.334  12.125   4.326  1.00  0.00    -0.507 OA
ATOM     24  H   UNL     1      -7.599  11.942   3.368  1.00  0.00     0.293 HD
ENDBRANCH  10  23
BRANCH  11  25
ATOM     25  O   UNL     1      -3.749  10.241   6.945  1.00  0.00    -0.508 OA
ATOM     26  H   UNL     1      -3.008   9.684   6.531  1.00  0.00     0.293 HD
ENDBRANCH  11  25
ENDBRANCH   1   2
BRANCH   1  27
ATOM     27  C   UNL     1     -11.908   9.801   4.578  1.00  0.00     0.339 C 
ATOM     28  C   UNL     1     -11.988  10.974   5.573  1.00  0.00     0.214 C 
ATOM     29  O   UNL     1     -13.180   9.367   4.119  1.00  0.00    -0.332 OA
ATOM     30  C   UNL     1     -12.917  10.660   6.755  1.00  0.00     0.180 C 
ATOM     31  C   UNL     1     -14.089   8.998   5.149  1.00  0.00     0.179 C 
ATOM     32  C   UNL     1     -14.252  10.057   6.279  1.00  0.00     0.177 C 
BRANCH  28  33
ATOM     33  O   UNL     1     -12.453  12.116   4.897  1.00  0.00    -0.384 OA
ATOM     34  H   UNL     1     -12.289  12.894   5.490  1.00  0.00     0.211 HD
ENDBRANCH  28  33
BRANCH  30  35
ATOM     35  O   UNL     1     -12.289   9.781   7.650  1.00  0.00    -0.387 OA
ATOM     36  H   UNL     1     -11.950   9.015   7.117  1.00  0.00     0.211 HD
ENDBRANCH  30  35
BRANCH  31  37
ATOM     37  C   UNL     1     -13.907   7.540   5.633  1.00  0.00     0.191 C 
BRANCH  37  38
ATOM     38  O   UNL     1     -13.364   6.712   4.641  1.00  0.00    -0.394 OA
ATOM     39  H   UNL     1     -12.945   5.944   5.107  1.00  0.00     0.210 HD
ENDBRANCH  37  38
ENDBRANCH  31  37
BRANCH  32  40
ATOM     40  O   UNL     1     -15.125  11.091   5.884  1.00  0.00    -0.387 OA
ATOM     41  H   UNL     1     -15.710  10.748   5.162  1.00  0.00     0.211 HD
ENDBRANCH  32  40
ENDBRANCH   1  27
TORSDOF 12
ENDMDL
MODEL 3
REMARK VINA RESULT:    -3.967      1.763      6.814
REMARK INTER + INTRA:          -4.066
REMARK INTER:                  -5.322
REMARK INTRA:                   1.255
REMARK UNBOUND:                 1.756
REMARK SMILES O=c1c(O[C@H]2O[C@@H](CO)[C@H](O)[C@@H](O)[C@@H]2O)c(-c2ccc(O)c(O)c2)oc2cc(O)cc(O)c12
REMARK SMILES IDX 4 1 3 2 16 3 25 4 2 5 26 6 1 7 33 8 27 9 31 10 28 11 30 12
REMARK SMILES IDX 17 13 18 14 19 15 20 16 24 17 22 18 21 19 23 21 32 23 29 25
REMARK SMILES IDX 5 27 14 28 6 29 12 30 7 31 10 32 15 33 13 35 8 37 9 38 11 40
REMARK H PARENT 21 20 23 22 32 24 29 26 15 34 13 36 9 39 11 41
REMARK Flexibility Score: inf
ROOT
ATOM      1  O   UNL     1     -11.208   8.674   4.917  1.00  0.00    -0.454 OA
ENDROOT
BRANCH   1   2
ATOM      2  C   UNL     1      -9.892   8.811   5.382  1.00  0.00     0.214 A 
ATOM      3  C   UNL     1      -9.323   7.865   6.255  1.00  0.00     0.180 A 
ATOM      4  O   UNL     1      -8.081   8.025   6.697  1.00  0.00    -0.452 OA
ATOM      5  C   UNL     1      -9.129   9.931   5.023  1.00  0.00     0.239 A 
ATOM      6  C   UNL     1      -7.317   9.058   6.360  1.00  0.00     0.146 A 
ATOM      7  O   UNL     1      -9.641  10.816   4.286  1.00  0.00    -0.285 OA
ATOM      8  C   UNL     1      -7.807  10.057   5.488  1.00  0.00     0.111 A 
ATOM      9  C   UNL     1      -6.021   9.147   6.875  1.00  0.00     0.094 A 
ATOM     10  C   UNL     1      -6.955  11.125   5.116  1.00  0.00     0.134 A 
ATOM     11  C   UNL     1      -5.185  10.207   6.507  1.00  0.00     0.123 A 
ATOM     12  C   UNL     1      -5.647  11.179   5.618  1.00  0.00     0.093 A 
BRANCH   3  13
ATOM     13  C   UNL     1     -10.082   6.706   6.739  1.00  0.00     0.025 A 
ATOM     14  C   UNL     1     -10.517   6.653   8.070  1.00  0.00     0.016 A 
ATOM     15  C   UNL     1     -11.301   5.581   8.508  1.00  0.00     0.051 A 
ATOM     16  C   UNL     1     -11.696   4.582   7.606  1.00  0.00     0.157 A 
ATOM     17  C   UNL     1     -10.479   5.707   5.836  1.00  0.00     0.062 A 
ATOM     18  C   UNL     1     -11.294   4.651   6.265  1.00  0.00     0.158 A 
BRANCH  16  19
ATOM     19  O   UNL     1     -12.494   3.520   8.028  1.00  0.00    -0.504 OA
ATOM     20  H   UNL     1     -12.143   2.567   8.048  1.00  0.00     0.293 HD
ENDBRANCH  16  19
BRANCH  18  21
ATOM     21  O   UNL     1     -11.714   3.671   5.364  1.00  0.00    -0.504 OA
ATOM     22  H   UNL     1     -11.759   3.847   4.367  1.00  0.00     0.293 HD
ENDBRANCH  18  21
ENDBRANCH   3  13
BRANCH  10  23
ATOM     23  O   UNL     1      -7.398  12.125   4.249  1.00  0.00    -0.507 OA
ATOM     24  H   UNL     1      -8.192  11.987   3.638  1.00  0.00     0.293 HD
ENDBRANCH  10  23
BRANCH  11  25
ATOM     25  O   UNL     1      -3.892  10.304   7.016  1.00  0.00    -0.508 OA
ATOM     26  H   UNL     1      -3.283  11.076   6.765  1.00  0.00     0.293 HD
ENDBRANCH  11  25
ENDBRANCH   1   2
BRANCH   1  27
ATOM     27  C   UNL     1     -12.312   8.375   5.772  1.00  0.00     0.339 C 
ATOM     28  C   UNL     1     -13.648   8.358   5.008  1.00  0.00     0.214 C 
ATOM     29  O   UNL     1     -12.324   9.234   6.903  1.00  0.00    -0.332 OA
ATOM     30  C   UNL     1     -14.102   9.772   4.616  1.00  0.00     0.180 C 
ATOM     31  C   UNL     1     -12.677  10.582   6.622  1.00  0.00     0.179 C 
ATOM     32  C   UNL     1     -13.989  10.750   5.800  1.00  0.00     0.177 C 
BRANCH  28  33
ATOM     33  O   UNL     1     -14.628   7.753   5.815  1.00  0.00    -0.384 OA
ATOM     34  H   UNL     1     -15.436   7.630   5.252  1.00  0.00     0.211 HD
ENDBRANCH  28  33
BRANCH  30  35
ATOM     35  O   UNL     1     -13.346  10.244   3.533  1.00  0.00    -0.387 OA
ATOM     36  H   UNL     1     -12.435   9.860   3.622  1.00  0.00     0.211 HD
ENDBRANCH  30  35
BRANCH  31  37
ATOM     37  C   UNL     1     -11.484  11.440   6.142  1.00  0.00     0.191 C 
BRANCH  37  38
ATOM     38  O   UNL     1     -10.586  11.734   7.176  1.00  0.00    -0.394 OA
ATOM     39  H   UNL     1     -10.580  12.720   7.279  1.00  0.00     0.210 HD
ENDBRANCH  37  38
ENDBRANCH  31  37
BRANCH  32  40
ATOM     40  O   UNL     1     -15.125  10.628   6.625  1.00  0.00    -0.387 OA
ATOM     41  H   UNL     1     -15.068  11.311   7.340  1.00  0.00     0.211 HD
ENDBRANCH  32  40
ENDBRANCH   1  27
TORSDOF 12
ENDMDL
MODEL 4
REMARK VINA RESULT:    -3.934      1.608      5.889
REMARK INTER + INTRA:          -4.018
REMARK INTER:                  -4.227
REMARK INTRA:                   0.209
REMARK UNBOUND:                 1.756
REMARK SMILES O=c1c(O[C@H]2O[C@@H](CO)[C@H](O)[C@@H](O)[C@@H]2O)c(-c2ccc(O)c(O)c2)oc2cc(O)cc(O)c12
REMARK SMILES IDX 4 1 3 2 16 3 25 4 2 5 26 6 1 7 33 8 27 9 31 10 28 11 30 12
REMARK SMILES IDX 17 13 18 14 19 15 20 16 24 17 22 18 21 19 23 21 32 23 29 25
REMARK SMILES IDX 5 27 14 28 6 29 12 30 7 31 10 32 15 33 13 35 8 37 9 38 11 40
REMARK H PARENT 21 20 23 22 32 24 29 26 15 34 13 36 9 39 11 41
REMARK Flexibility Score: inf
ROOT
ATOM      1  O   UNL     1     -11.058   7.851   5.711  1.00  0.00    -0.454 OA
ENDROOT
BRANCH   1   2
ATOM      2  C   UNL     1      -9.995   8.762   5.800  1.00  0.00     0.214 A 
ATOM      3  C   UNL     1     -10.157  10.114   5.443  1.00  0.00     0.180 A 
ATOM      4  O   UNL     1      -9.131  10.954   5.520  1.00  0.00    -0.452 OA
ATOM      5  C   UNL     1      -8.725   8.327   6.205  1.00  0.00     0.239 A 
ATOM      6  C   UNL     1      -7.920  10.586   5.921  1.00  0.00     0.146 A 
ATOM      7  O   UNL     1      -8.547   7.110   6.476  1.00  0.00    -0.285 OA
ATOM      8  C   UNL     1      -7.665   9.248   6.299  1.00  0.00     0.111 A 
ATOM      9  C   UNL     1      -6.897  11.538   5.969  1.00  0.00     0.094 A 
ATOM     10  C   UNL     1      -6.375   8.897   6.761  1.00  0.00     0.134 A 
ATOM     11  C   UNL     1      -5.622  11.184   6.422  1.00  0.00     0.123 A 
ATOM     12  C   UNL     1      -5.370   9.874   6.832  1.00  0.00     0.093 A 
BRANCH   3  13
ATOM     13  C   UNL     1     -11.435  10.630   4.937  1.00  0.00     0.025 A 
ATOM     14  C   UNL     1     -11.472  11.395   3.764  1.00  0.00     0.016 A 
ATOM     15  C   UNL     1     -12.698  11.825   3.248  1.00  0.00     0.051 A 
ATOM     16  C   UNL     1     -13.897  11.450   3.872  1.00  0.00     0.157 A 
ATOM     17  C   UNL     1     -12.634  10.254   5.562  1.00  0.00     0.062 A 
ATOM     18  C   UNL     1     -13.865  10.654   5.026  1.00  0.00     0.158 A 
BRANCH  16  19
ATOM     19  O   UNL     1     -15.125  11.856   3.354  1.00  0.00    -0.504 OA
ATOM     20  H   UNL     1     -15.186  12.408   2.502  1.00  0.00     0.293 HD
ENDBRANCH  16  19
BRANCH  18  21
ATOM     21  O   UNL     1     -15.061  10.258   5.627  1.00  0.00    -0.504 OA
ATOM     22  H   UNL     1     -15.507   9.377   5.400  1.00  0.00     0.293 HD
ENDBRANCH  18  21
ENDBRANCH   3  13
BRANCH  10  23
ATOM     23  O   UNL     1      -6.087   7.588   7.154  1.00  0.00    -0.507 OA
ATOM     24  H   UNL     1      -6.706   6.819   6.939  1.00  0.00     0.293 HD
ENDBRANCH  10  23
BRANCH  11  25
ATOM     25  O   UNL     1      -4.597  12.125   6.472  1.00  0.00    -0.508 OA
ATOM     26  H   UNL     1      -4.331  12.660   5.652  1.00  0.00     0.293 HD
ENDBRANCH  11  25
ENDBRANCH   1   2
BRANCH   1  27
ATOM     27  C   UNL     1     -11.712   7.300   6.854  1.00  0.00     0.339 C 
ATOM     28  C   UNL     1     -10.875   6.193   7.521  1.00  0.00     0.214 C 
ATOM     29  O   UNL     1     -13.033   6.889   6.534  1.00  0.00    -0.332 OA
ATOM     30  C   UNL     1     -10.858   4.905   6.685  1.00  0.00     0.180 C 
ATOM     31  C   UNL     1     -13.112   5.732   5.709  1.00  0.00     0.179 C 
ATOM     32  C   UNL     1     -12.273   4.521   6.212  1.00  0.00     0.177 C 
BRANCH  28  33
ATOM     33  O   UNL     1     -11.407   5.923   8.795  1.00  0.00    -0.384 OA
ATOM     34  H   UNL     1     -10.696   6.121   9.457  1.00  0.00     0.211 HD
ENDBRANCH  28  33
BRANCH  30  35
ATOM     35  O   UNL     1     -10.009   5.052   5.579  1.00  0.00    -0.387 OA
ATOM     36  H   UNL     1      -9.110   5.288   5.930  1.00  0.00     0.211 HD
ENDBRANCH  30  35
BRANCH  31  37
ATOM     37  C   UNL     1     -12.978   6.046   4.201  1.00  0.00     0.191 C 
BRANCH  37  38
ATOM     38  O   UNL     1     -13.457   5.005   3.394  1.00  0.00    -0.394 OA
ATOM     39  H   UNL     1     -13.356   4.168   3.916  1.00  0.00     0.210 HD
ENDBRANCH  37  38
ENDBRANCH  31  37
BRANCH  32  40
ATOM     40  O   UNL     1     -12.944   3.829   7.240  1.00  0.00    -0.387 OA
ATOM     41  H   UNL     1     -13.294   2.980   6.869  1.00  0.00     0.211 HD
ENDBRANCH  32  40
ENDBRANCH   1  27
TORSDOF 12
ENDMDL
MODEL 5
REMARK VINA RESULT:    -3.377      1.898      6.059
REMARK INTER + INTRA:          -3.200
REMARK INTER:                  -2.432
REMARK INTRA:                  -0.768
REMARK UNBOUND:                 1.756
REMARK SMILES O=c1c(O[C@H]2O[C@@H](CO)[C@H](O)[C@@H](O)[C@@H]2O)c(-c2ccc(O)c(O)c2)oc2cc(O)cc(O)c12
REMARK SMILES IDX 4 1 3 2 16 3 25 4 2 5 26 6 1 7 33 8 27 9 31 10 28 11 30 12
REMARK SMILES IDX 17 13 18 14 19 15 20 16 24 17 22 18 21 19 23 21 32 23 29 25
REMARK SMILES IDX 5 27 14 28 6 29 12 30 7 31 10 32 15 33 13 35 8 37 9 38 11 40
REMARK H PARENT 21 20 23 22 32 24 29 26 15 34 13 36 9 39 11 41
REMARK Flexibility Score: inf
ROOT
ATOM      1  O   UNL     1     -12.131   7.933   5.755  1.00  0.00    -0.454 OA
ENDROOT
BRANCH   1   2
ATOM      2  C   UNL     1     -10.805   8.374   5.882  1.00  0.00     0.214 A 
ATOM      3  C   UNL     1      -9.843   7.610   6.569  1.00  0.00     0.180 A 
ATOM      4  O   UNL     1      -8.598   8.057   6.692  1.00  0.00    -0.452 OA
ATOM      5  C   UNL     1     -10.424   9.619   5.365  1.00  0.00     0.239 A 
ATOM      6  C   UNL     1      -8.191   9.219   6.195  1.00  0.00     0.146 A 
ATOM      7  O   UNL     1     -11.284  10.341   4.795  1.00  0.00    -0.285 OA
ATOM      8  C   UNL     1      -9.090  10.052   5.490  1.00  0.00     0.111 A 
ATOM      9  C   UNL     1      -6.861   9.611   6.373  1.00  0.00     0.094 A 
ATOM     10  C   UNL     1      -8.616  11.265   4.938  1.00  0.00     0.134 A 
ATOM     11  C   UNL     1      -6.399  10.814   5.829  1.00  0.00     0.123 A 
ATOM     12  C   UNL     1      -7.270  11.626   5.100  1.00  0.00     0.093 A 
BRANCH   3  13
ATOM     13  C   UNL     1     -10.182   6.332   7.205  1.00  0.00     0.025 A 
ATOM     14  C   UNL     1     -10.594   6.297   8.544  1.00  0.00     0.016 A 
ATOM     15  C   UNL     1     -10.984   5.086   9.124  1.00  0.00     0.051 A 
ATOM     16  C   UNL     1     -11.013   3.912   8.357  1.00  0.00     0.157 A 
ATOM     17  C   UNL     1     -10.212   5.157   6.436  1.00  0.00     0.062 A 
ATOM     18  C   UNL     1     -10.636   3.950   7.007  1.00  0.00     0.158 A 
BRANCH  16  19
ATOM     19  O   UNL     1     -11.419   2.705   8.921  1.00  0.00    -0.504 OA
ATOM     20  H   UNL     1     -10.780   2.128   9.460  1.00  0.00     0.293 HD
ENDBRANCH  16  19
BRANCH  18  21
ATOM     21  O   UNL     1     -10.695   2.787   6.238  1.00  0.00    -0.504 OA
ATOM     22  H   UNL     1     -10.987   1.900   6.633  1.00  0.00     0.293 HD
ENDBRANCH  18  21
ENDBRANCH   3  13
BRANCH  10  23
ATOM     23  O   UNL     1      -9.470  12.110   4.226  1.00  0.00    -0.507 OA
ATOM     24  H   UNL     1     -10.476  12.029   4.292  1.00  0.00     0.293 HD
ENDBRANCH  10  23
BRANCH  11  25
ATOM     25  O   UNL     1      -5.076  11.213   6.003  1.00  0.00    -0.508 OA
ATOM     26  H   UNL     1      -4.759  12.131   5.709  1.00  0.00     0.293 HD
ENDBRANCH  11  25
ENDBRANCH   1   2
BRANCH   1  27
ATOM     27  C   UNL     1     -12.477   6.606   5.355  1.00  0.00     0.339 C 
ATOM     28  C   UNL     1     -12.191   6.359   3.863  1.00  0.00     0.214 C 
ATOM     29  O   UNL     1     -13.811   6.295   5.731  1.00  0.00    -0.332 OA
ATOM     30  C   UNL     1     -13.197   7.087   2.959  1.00  0.00     0.180 C 
ATOM     31  C   UNL     1     -14.812   6.973   4.982  1.00  0.00     0.179 C 
ATOM     32  C   UNL     1     -14.645   6.872   3.437  1.00  0.00     0.177 C 
BRANCH  28  33
ATOM     33  O   UNL     1     -12.244   4.976   3.610  1.00  0.00    -0.384 OA
ATOM     34  H   UNL     1     -11.728   4.528   4.329  1.00  0.00     0.211 HD
ENDBRANCH  28  33
BRANCH  30  35
ATOM     35  O   UNL     1     -12.908   8.459   2.914  1.00  0.00    -0.387 OA
ATOM     36  H   UNL     1     -13.674   8.933   3.333  1.00  0.00     0.211 HD
ENDBRANCH  30  35
BRANCH  31  37
ATOM     37  C   UNL     1     -15.125   8.389   5.519  1.00  0.00     0.191 C 
BRANCH  37  38
ATOM     38  O   UNL     1     -14.332   9.376   4.918  1.00  0.00    -0.394 OA
ATOM     39  H   UNL     1     -14.817  10.235   5.022  1.00  0.00     0.210 HD
ENDBRANCH  37  38
ENDBRANCH  31  37
BRANCH  32  40
ATOM     40  O   UNL     1     -15.124   5.638   2.954  1.00  0.00    -0.387 OA
ATOM     41  H   UNL     1     -14.361   5.130   2.580  1.00  0.00     0.211 HD
ENDBRANCH  32  40
ENDBRANCH   1  27
TORSDOF 12
ENDMDL
MODEL 6
REMARK VINA RESULT:    -3.230      1.683      5.693
REMARK INTER + INTRA:          -2.985
REMARK INTER:                  -4.682
REMARK INTRA:                   1.698
REMARK UNBOUND:                 1.756
REMARK SMILES O=c1c(O[C@H]2O[C@@H](CO)[C@H](O)[C@@H](O)[C@@H]2O)c(-c2ccc(O)c(O)c2)oc2cc(O)cc(O)c12
REMARK SMILES IDX 4 1 3 2 16 3 25 4 2 5 26 6 1 7 33 8 27 9 31 10 28 11 30 12
REMARK SMILES IDX 17 13 18 14 19 15 20 16 24 17 22 18 21 19 23 21 32 23 29 25
REMARK SMILES IDX 5 27 14 28 6 29 12 30 7 31 10 32 15 33 13 35 8 37 9 38 11 40
REMARK H PARENT 21 20 23 22 32 24 29 26 15 34 13 36 9 39 11 41
REMARK Flexibility Score: inf
ROOT
ATOM      1  O   UNL     1     -11.135   9.140   4.893  1.00  0.00    -0.454 OA
ENDROOT
BRANCH   1   2
ATOM      2  C   UNL     1     -10.859   8.044   5.725  1.00  0.00     0.214 A 
ATOM      3  C   UNL     1      -9.694   8.001   6.514  1.00  0.00     0.180 A 
ATOM      4  O   UNL     1      -9.444   6.945   7.280  1.00  0.00    -0.452 OA
ATOM      5  C   UNL     1     -11.722   6.941   5.748  1.00  0.00     0.239 A 
ATOM      6  C   UNL     1     -10.249   5.891   7.348  1.00  0.00     0.146 A 
ATOM      7  O   UNL     1     -12.741   6.938   5.007  1.00  0.00    -0.285 OA
ATOM      8  C   UNL     1     -11.442   5.848   6.590  1.00  0.00     0.111 A 
ATOM      9  C   UNL     1      -9.906   4.822   8.181  1.00  0.00     0.094 A 
ATOM     10  C   UNL     1     -12.298   4.729   6.715  1.00  0.00     0.134 A 
ATOM     11  C   UNL     1     -10.755   3.716   8.298  1.00  0.00     0.123 A 
ATOM     12  C   UNL     1     -11.952   3.681   7.581  1.00  0.00     0.093 A 
BRANCH   3  13
ATOM     13  C   UNL     1      -8.702   9.082   6.486  1.00  0.00     0.025 A 
ATOM     14  C   UNL     1      -7.581   9.034   7.325  1.00  0.00     0.016 A 
ATOM     15  C   UNL     1      -6.603  10.030   7.245  1.00  0.00     0.051 A 
ATOM     16  C   UNL     1      -6.716  11.054   6.292  1.00  0.00     0.157 A 
ATOM     17  C   UNL     1      -8.814  10.106   5.532  1.00  0.00     0.062 A 
ATOM     18  C   UNL     1      -7.818  11.085   5.427  1.00  0.00     0.158 A 
BRANCH  16  19
ATOM     19  O   UNL     1      -5.736  12.040   6.191  1.00  0.00    -0.504 OA
ATOM     20  H   UNL     1      -5.637  12.764   6.896  1.00  0.00     0.293 HD
ENDBRANCH  16  19
BRANCH  18  21
ATOM     21  O   UNL     1      -7.911  12.088   4.460  1.00  0.00    -0.504 OA
ATOM     22  H   UNL     1      -8.510  12.895   4.584  1.00  0.00     0.293 HD
ENDBRANCH  18  21
ENDBRANCH   3  13
BRANCH  10  23
ATOM     23  O   UNL     1     -13.490   4.655   5.992  1.00  0.00    -0.507 OA
ATOM     24  H   UNL     1     -13.736   3.835   5.453  1.00  0.00     0.293 HD
ENDBRANCH  10  23
BRANCH  11  25
ATOM     25  O   UNL     1     -10.421   2.646   9.124  1.00  0.00    -0.508 OA
ATOM     26  H   UNL     1     -11.126   2.157   9.666  1.00  0.00     0.293 HD
ENDBRANCH  11  25
ENDBRANCH   1   2
BRANCH   1  27
ATOM     27  C   UNL     1     -12.431   9.403   4.353  1.00  0.00     0.339 C 
ATOM     28  C   UNL     1     -12.488  10.755   3.619  1.00  0.00     0.214 C 
ATOM     29  O   UNL     1     -13.433   9.262   5.349  1.00  0.00    -0.332 OA
ATOM     30  C   UNL     1     -12.457  11.939   4.597  1.00  0.00     0.180 C 
ATOM     31  C   UNL     1     -13.440  10.288   6.335  1.00  0.00     0.179 C 
ATOM     32  C   UNL     1     -13.443  11.736   5.762  1.00  0.00     0.177 C 
BRANCH  28  33
ATOM     33  O   UNL     1     -13.665  10.808   2.850  1.00  0.00    -0.384 OA
ATOM     34  H   UNL     1     -13.406  10.638   1.908  1.00  0.00     0.211 HD
ENDBRANCH  28  33
BRANCH  30  35
ATOM     35  O   UNL     1     -11.159  12.125   5.097  1.00  0.00    -0.387 OA
ATOM     36  H   UNL     1     -10.958  11.348   5.682  1.00  0.00     0.211 HD
ENDBRANCH  30  35
BRANCH  31  37
ATOM     37  C   UNL     1     -12.438  10.037   7.486  1.00  0.00     0.191 C 
BRANCH  37  38
ATOM     38  O   UNL     1     -11.525  11.088   7.639  1.00  0.00    -0.394 OA
ATOM     39  H   UNL     1     -10.897  11.036   6.874  1.00  0.00     0.210 HD
ENDBRANCH  37  38
ENDBRANCH  31  37
BRANCH  32  40
ATOM     40  O   UNL     1     -14.738  12.120   5.359  1.00  0.00    -0.387 OA
ATOM     41  H   UNL     1     -15.152  12.642   6.092  1.00  0.00     0.211 HD
ENDBRANCH  32  40
ENDBRANCH   1  27
TORSDOF 12
ENDMDL
MODEL 7
REMARK VINA RESULT:    -2.824      1.765      6.194
REMARK INTER + INTRA:          -2.389
REMARK INTER:                  -2.458
REMARK INTRA:                   0.069
REMARK UNBOUND:                 1.756
REMARK SMILES O=c1c(O[C@H]2O[C@@H](CO)[C@H](O)[C@@H](O)[C@@H]2O)c(-c2ccc(O)c(O)c2)oc2cc(O)cc(O)c12
REMARK SMILES IDX 4 1 3 2 16 3 25 4 2 5 26 6 1 7 33 8 27 9 31 10 28 11 30 12
REMARK SMILES IDX 17 13 18 14 19 15 20 16 24 17 22 18 21 19 23 21 32 23 29 25
REMARK SMILES IDX 5 27 14 28 6 29 12 30 7 31 10 32 15 33 13 35 8 37 9 38 11 40
REMARK H PARENT 21 20 23 22 32 24 29 26 15 34 13 36 9 39 11 41
REMARK Flexibility Score: inf
ROOT
ATOM      1  O   UNL     1     -12.107   8.058   5.901  1.00  0.00    -0.454 OA
ENDROOT
BRANCH   1   2
ATOM      2  C   UNL     1     -10.767   8.414   6.114  1.00  0.00     0.214 A 
ATOM      3  C   UNL     1      -9.903   7.596   6.866  1.00  0.00     0.180 A 
ATOM      4  O   UNL     1      -8.643   7.963   7.069  1.00  0.00    -0.452 OA
ATOM      5  C   UNL     1     -10.273   9.628   5.617  1.00  0.00     0.239 A 
ATOM      6  C   UNL     1      -8.130   9.092   6.595  1.00  0.00     0.146 A 
ATOM      7  O   UNL     1     -11.046  10.399   4.989  1.00  0.00    -0.285 OA
ATOM      8  C   UNL     1      -8.925   9.975   5.829  1.00  0.00     0.111 A 
ATOM      9  C   UNL     1      -6.792   9.399   6.859  1.00  0.00     0.094 A 
ATOM     10  C   UNL     1      -8.338  11.151   5.304  1.00  0.00     0.134 A 
ATOM     11  C   UNL     1      -6.219  10.565   6.342  1.00  0.00     0.123 A 
ATOM     12  C   UNL     1      -6.985  11.425   5.554  1.00  0.00     0.093 A 
BRANCH   3  13
ATOM     13  C   UNL     1     -10.366   6.348   7.484  1.00  0.00     0.025 A 
ATOM     14  C   UNL     1     -11.233   6.383   8.584  1.00  0.00     0.016 A 
ATOM     15  C   UNL     1     -11.726   5.192   9.125  1.00  0.00     0.051 A 
ATOM     16  C   UNL     1     -11.397   3.961   8.538  1.00  0.00     0.157 A 
ATOM     17  C   UNL     1     -10.037   5.116   6.896  1.00  0.00     0.062 A 
ATOM     18  C   UNL     1     -10.559   3.924   7.415  1.00  0.00     0.158 A 
BRANCH  16  19
ATOM     19  O   UNL     1     -11.900   2.770   9.057  1.00  0.00    -0.504 OA
ATOM     20  H   UNL     1     -12.172   2.688  10.033  1.00  0.00     0.293 HD
ENDBRANCH  16  19
BRANCH  18  21
ATOM     21  O   UNL     1     -10.258   2.700   6.816  1.00  0.00    -0.504 OA
ATOM     22  H   UNL     1      -9.554   2.619   6.092  1.00  0.00     0.293 HD
ENDBRANCH  18  21
ENDBRANCH   3  13
BRANCH  10  23
ATOM     23  O   UNL     1      -9.087  12.042   4.533  1.00  0.00    -0.507 OA
ATOM     24  H   UNL     1      -8.932  12.148   3.540  1.00  0.00     0.293 HD
ENDBRANCH  10  23
BRANCH  11  25
ATOM     25  O   UNL     1      -4.887  10.880   6.601  1.00  0.00    -0.508 OA
ATOM     26  H   UNL     1      -4.633  11.709   7.127  1.00  0.00     0.293 HD
ENDBRANCH  11  25
ENDBRANCH   1   2
BRANCH   1  27
ATOM     27  C   UNL     1     -12.831   8.409   4.721  1.00  0.00     0.339 C 
ATOM     28  C   UNL     1     -14.353   8.400   4.952  1.00  0.00     0.214 C 
ATOM     29  O   UNL     1     -12.425   7.608   3.621  1.00  0.00    -0.332 OA
ATOM     30  C   UNL     1     -14.904   6.973   5.082  1.00  0.00     0.180 C 
ATOM     31  C   UNL     1     -12.844   6.251   3.687  1.00  0.00     0.179 C 
ATOM     32  C   UNL     1     -14.362   6.054   3.972  1.00  0.00     0.177 C 
BRANCH  28  33
ATOM     33  O   UNL     1     -14.982   9.053   3.876  1.00  0.00    -0.384 OA
ATOM     34  H   UNL     1     -14.347   9.736   3.537  1.00  0.00     0.211 HD
ENDBRANCH  28  33
BRANCH  30  35
ATOM     35  O   UNL     1     -14.586   6.440   6.340  1.00  0.00    -0.387 OA
ATOM     36  H   UNL     1     -14.614   5.451   6.254  1.00  0.00     0.211 HD
ENDBRANCH  30  35
BRANCH  31  37
ATOM     37  C   UNL     1     -11.896   5.359   4.523  1.00  0.00     0.191 C 
BRANCH  37  38
ATOM     38  O   UNL     1     -12.587   4.385   5.257  1.00  0.00    -0.394 OA
ATOM     39  H   UNL     1     -13.162   3.896   4.613  1.00  0.00     0.210 HD
ENDBRANCH  37  38
ENDBRANCH  31  37
BRANCH  32  40
ATOM     40  O   UNL     1     -15.125   6.227   2.799  1.00  0.00    -0.387 OA
ATOM     41  H   UNL     1     -15.347   7.188   2.710  1.00  0.00     0.211 HD
ENDBRANCH  32  40
ENDBRANCH   1  27
TORSDOF 12
ENDMDL
MODEL 8
REMARK VINA RESULT:    -2.729      1.601      5.601
REMARK INTER + INTRA:          -2.250
REMARK INTER:                  -2.399
REMARK INTRA:                   0.149
REMARK UNBOUND:                 1.756
REMARK SMILES O=c1c(O[C@H]2O[C@@H](CO)[C@H](O)[C@@H](O)[C@@H]2O)c(-c2ccc(O)c(O)c2)oc2cc(O)cc(O)c12
REMARK SMILES IDX 4 1 3 2 16 3 25 4 2 5 26 6 1 7 33 8 27 9 31 10 28 11 30 12
REMARK SMILES IDX 17 13 18 14 19 15 20 16 24 17 22 18 21 19 23 21 32 23 29 25
REMARK SMILES IDX 5 27 14 28 6 29 12 30 7 31 10 32 15 33 13 35 8 37 9 38 11 40
REMARK H PARENT 21 20 23 22 32 24 29 26 15 34 13 36 9 39 11 41
REMARK Flexibility Score: inf
ROOT
ATOM      1  O   UNL     1     -10.974   7.635   5.860  1.00  0.00    -0.454 OA
ENDROOT
BRANCH   1   2
ATOM      2  C   UNL     1      -9.941   8.581   5.933  1.00  0.00     0.214 A 
ATOM      3  C   UNL     1     -10.160   9.930   5.596  1.00  0.00     0.180 A 
ATOM      4  O   UNL     1      -9.163  10.805   5.655  1.00  0.00    -0.452 OA
ATOM      5  C   UNL     1      -8.647   8.187   6.299  1.00  0.00     0.239 A 
ATOM      6  C   UNL     1      -7.929  10.476   6.021  1.00  0.00     0.146 A 
ATOM      7  O   UNL     1      -8.419   6.974   6.551  1.00  0.00    -0.285 OA
ATOM      8  C   UNL     1      -7.617   9.144   6.376  1.00  0.00     0.111 A 
ATOM      9  C   UNL     1      -6.939  11.463   6.053  1.00  0.00     0.094 A 
ATOM     10  C   UNL     1      -6.304   8.833   6.800  1.00  0.00     0.134 A 
ATOM     11  C   UNL     1      -5.641  11.148   6.468  1.00  0.00     0.123 A 
ATOM     12  C   UNL     1      -5.332   9.843   6.856  1.00  0.00     0.093 A 
BRANCH   3  13
ATOM     13  C   UNL     1     -11.468  10.407   5.130  1.00  0.00     0.025 A 
ATOM     14  C   UNL     1     -12.569  10.407   5.995  1.00  0.00     0.016 A 
ATOM     15  C   UNL     1     -13.794  10.928   5.569  1.00  0.00     0.051 A 
ATOM     16  C   UNL     1     -13.913  11.497   4.292  1.00  0.00     0.157 A 
ATOM     17  C   UNL     1     -11.586  10.977   3.852  1.00  0.00     0.062 A 
ATOM     18  C   UNL     1     -12.803  11.531   3.436  1.00  0.00     0.158 A 
BRANCH  16  19
ATOM     19  O   UNL     1     -15.125  12.036   3.864  1.00  0.00    -0.504 OA
ATOM     20  H   UNL     1     -15.699  12.607   4.479  1.00  0.00     0.293 HD
ENDBRANCH  16  19
BRANCH  18  21
ATOM     21  O   UNL     1     -12.917  12.125   2.178  1.00  0.00    -0.504 OA
ATOM     22  H   UNL     1     -12.370  12.938   1.920  1.00  0.00     0.293 HD
ENDBRANCH  18  21
ENDBRANCH   3  13
BRANCH  10  23
ATOM     23  O   UNL     1      -5.960   7.531   7.169  1.00  0.00    -0.507 OA
ATOM     24  H   UNL     1      -6.490   7.015   7.858  1.00  0.00     0.293 HD
ENDBRANCH  10  23
BRANCH  11  25
ATOM     25  O   UNL     1      -4.648  12.125   6.502  1.00  0.00    -0.508 OA
ATOM     26  H   UNL     1      -4.178  12.429   5.656  1.00  0.00     0.293 HD
ENDBRANCH  11  25
ENDBRANCH   1   2
BRANCH   1  27
ATOM     27  C   UNL     1     -10.788   6.315   5.347  1.00  0.00     0.339 C 
ATOM     28  C   UNL     1     -12.064   5.770   4.679  1.00  0.00     0.214 C 
ATOM     29  O   UNL     1     -10.265   5.451   6.346  1.00  0.00    -0.332 OA
ATOM     30  C   UNL     1     -13.143   5.412   5.711  1.00  0.00     0.180 C 
ATOM     31  C   UNL     1     -11.183   5.113   7.379  1.00  0.00     0.179 C 
ATOM     32  C   UNL     1     -12.560   4.590   6.875  1.00  0.00     0.177 C 
BRANCH  28  33
ATOM     33  O   UNL     1     -11.733   4.629   3.925  1.00  0.00    -0.384 OA
ATOM     34  H   UNL     1     -12.583   4.247   3.584  1.00  0.00     0.211 HD
ENDBRANCH  28  33
BRANCH  30  35
ATOM     35  O   UNL     1     -13.751   6.575   6.206  1.00  0.00    -0.387 OA
ATOM     36  H   UNL     1     -14.694   6.567   5.896  1.00  0.00     0.211 HD
ENDBRANCH  30  35
BRANCH  31  37
ATOM     37  C   UNL     1     -11.251   6.169   8.507  1.00  0.00     0.191 C 
BRANCH  37  38
ATOM     38  O   UNL     1      -9.989   6.470   9.035  1.00  0.00    -0.394 OA
ATOM     39  H   UNL     1      -9.999   6.183   9.984  1.00  0.00     0.210 HD
ENDBRANCH  37  38
ENDBRANCH  31  37
BRANCH  32  40
ATOM     40  O   UNL     1     -12.483   3.232   6.504  1.00  0.00    -0.387 OA
ATOM     41  H   UNL     1     -11.528   2.989   6.402  1.00  0.00     0.211 HD
ENDBRANCH  32  40
ENDBRANCH   1  27
TORSDOF 12
ENDMDL
