MODEL 1
REMARK VINA RESULT:    -5.784      0.000      0.000
REMARK INTER + INTRA:          -7.572
REMARK INTER:                  -8.151
REMARK INTRA:                   0.579
REMARK UNBOUND:                 0.579
REMARK SMILES CC1=CCC(=C(C)C)C(=O)CC(C)=CCC1
REMARK SMILES IDX 12 1 14 2 13 3 15 4 16 5 2 6 1 7 3 8 11 10 9 11 10 12 5 13
REMARK SMILES IDX 6 14 7 15 8 16 4 17
REMARK H PARENT
REMARK Flexibility Score: 60.00
ROOT
ATOM      1  C   UNL     1      -3.534 -11.413  27.883  1.00  0.00    -0.070 C 
ATOM      2  C   UNL     1      -2.762 -10.696  28.733  1.00  0.00    -0.027 C 
ATOM      3  C   UNL     1      -3.216 -11.353  26.412  1.00  0.00     0.039 C 
ENDROOT
BRANCH   2   4
ATOM      4  C   UNL     1      -3.027 -10.526  30.207  1.00  0.00     0.032 C 
BRANCH   4   5
ATOM      5  C   UNL     1      -1.728 -10.726  30.995  1.00  0.00     0.034 C 
BRANCH   5   6
ATOM      6  C   UNL     1      -1.317 -12.183  31.074  1.00  0.00    -0.077 C 
ATOM      7  C   UNL     1       0.136 -12.536  30.870  1.00  0.00     0.039 C 
ATOM      8  C   UNL     1      -2.171 -13.188  31.390  1.00  0.00    -0.023 CG0
ATOM      9  G   UNL     1      -3.675 -13.096  31.582  1.00  0.00     0.000 G0
ENDBRANCH   5   6
ENDBRANCH   4   5
ENDBRANCH   2   4
BRANCH   1  10
ATOM     10  C   UNL     1      -4.687 -12.286  28.340  1.00  0.00     0.111 C 
BRANCH  10  11
ATOM     11  C   UNL     1      -4.206 -13.511  29.081  1.00  0.00     0.163 C 
ATOM     12  O   UNL     1      -3.481 -14.320  28.443  1.00  0.00    -0.294 OA
BRANCH  11  13
ATOM     13  C   UNL     1      -4.524 -13.794  30.520  1.00  0.00    -0.002 C 
ATOM     14  C   UNL     1      -5.446 -14.750  30.854  1.00  0.00    -0.069 C 
ATOM     15  C   UNL     1      -5.626 -15.227  32.277  1.00  0.00     0.039 C 
ATOM     16  C   UNL     1      -6.373 -15.347  29.820  1.00  0.00     0.039 C 
BRANCH  13  17
ATOM     17  C   UNL     1      -3.664 -13.121  31.586  1.00  0.00     0.066 CG0
ATOM     18  G   UNL     1      -2.161 -13.198  31.388  1.00  0.00     0.000 G0
ENDBRANCH  13  17
ENDBRANCH  11  13
ENDBRANCH  10  11
ENDBRANCH   1  10
TORSDOF 0
ENDMDL
MODEL 2
REMARK VINA RESULT:    -5.423      1.615      3.992
REMARK INTER + INTRA:          -7.063
REMARK INTER:                  -7.178
REMARK INTRA:                   0.115
REMARK UNBOUND:                 0.579
REMARK SMILES CC1=CCC(=C(C)C)C(=O)CC(C)=CCC1
REMARK SMILES IDX 12 1 14 2 13 3 15 4 16 5 2 6 1 7 3 8 11 10 9 11 10 12 5 13
REMARK SMILES IDX 6 14 7 15 8 16 4 17
REMARK H PARENT
REMARK Flexibility Score: 60.00
ROOT
ATOM      1  C   UNL     1      -4.246 -14.009  27.321  1.00  0.00    -0.070 C 
ATOM      2  C   UNL     1      -5.417 -14.200  27.972  1.00  0.00    -0.027 C 
ATOM      3  C   UNL     1      -4.298 -13.606  25.870  1.00  0.00     0.039 C 
ENDROOT
BRANCH   2   4
ATOM      4  C   UNL     1      -5.548 -14.743  29.372  1.00  0.00     0.032 C 
BRANCH   4   5
ATOM      5  C   UNL     1      -5.351 -13.614  30.390  1.00  0.00     0.034 C 
BRANCH   5   6
ATOM      6  C   UNL     1      -4.591 -14.068  31.619  1.00  0.00    -0.077 C 
ATOM      7  C   UNL     1      -5.199 -15.140  32.491  1.00  0.00     0.039 C 
ATOM      8  C   UNL     1      -3.355 -13.616  31.947  1.00  0.00    -0.023 CG0
ATOM      9  G   UNL     1      -2.567 -12.510  31.268  1.00  0.00     0.000 G0
ENDBRANCH   5   6
ENDBRANCH   4   5
ENDBRANCH   2   4
BRANCH   1  10
ATOM     10  C   UNL     1      -2.890 -14.162  27.982  1.00  0.00     0.111 C 
BRANCH  10  11
ATOM     11  C   UNL     1      -2.470 -12.903  28.703  1.00  0.00     0.163 C 
ATOM     12  O   UNL     1      -2.753 -11.805  28.152  1.00  0.00    -0.294 OA
BRANCH  11  13
ATOM     13  C   UNL     1      -1.768 -12.895  30.029  1.00  0.00    -0.002 C 
ATOM     14  C   UNL     1      -0.413 -13.079  30.100  1.00  0.00    -0.069 C 
ATOM     15  C   UNL     1       0.361 -12.849  31.378  1.00  0.00     0.039 C 
ATOM     16  C   UNL     1       0.379 -13.572  28.910  1.00  0.00     0.039 C 
BRANCH  13  17
ATOM     17  C   UNL     1      -2.575 -12.498  31.261  1.00  0.00     0.066 CG0
ATOM     18  G   UNL     1      -3.352 -13.608  31.947  1.00  0.00     0.000 G0
ENDBRANCH  13  17
ENDBRANCH  11  13
ENDBRANCH  10  11
ENDBRANCH   1  10
TORSDOF 0
ENDMDL
MODEL 3
REMARK VINA RESULT:    -5.135      1.220      1.790
REMARK INTER + INTRA:          -6.657
REMARK INTER:                  -7.317
REMARK INTRA:                   0.661
REMARK UNBOUND:                 0.579
REMARK SMILES CC1=CCC(=C(C)C)C(=O)CC(C)=CCC1
REMARK SMILES IDX 12 1 14 2 13 3 15 4 16 5 2 6 1 7 3 8 11 10 9 11 10 12 5 13
REMARK SMILES IDX 6 14 7 15 8 16 4 17
REMARK H PARENT
REMARK Flexibility Score: 60.00
ROOT
ATOM      1  C   UNL     1      -2.211 -12.926  28.156  1.00  0.00    -0.070 C 
ATOM      2  C   UNL     1      -1.088 -12.692  28.874  1.00  0.00    -0.027 C 
ATOM      3  C   UNL     1      -2.488 -12.048  26.964  1.00  0.00     0.039 C 
ENDROOT
BRANCH   2   4
ATOM      4  C   UNL     1      -0.734 -13.373  30.171  1.00  0.00     0.032 C 
BRANCH   4   5
ATOM      5  C   UNL     1      -0.795 -12.363  31.322  1.00  0.00     0.034 C 
BRANCH   5   6
ATOM      6  C   UNL     1      -1.942 -11.383  31.174  1.00  0.00    -0.077 C 
ATOM      7  C   UNL     1      -1.632  -9.962  30.774  1.00  0.00     0.039 C 
ATOM      8  C   UNL     1      -3.247 -11.729  31.310  1.00  0.00    -0.023 CG0
ATOM      9  G   UNL     1      -3.805 -13.068  31.759  1.00  0.00     0.000 G0
ENDBRANCH   5   6
ENDBRANCH   4   5
ENDBRANCH   2   4
BRANCH   1  10
ATOM     10  C   UNL     1      -3.192 -14.037  28.480  1.00  0.00     0.111 C 
BRANCH  10  11
ATOM     11  C   UNL     1      -4.390 -13.525  29.243  1.00  0.00     0.163 C 
ATOM     12  O   UNL     1      -5.220 -12.823  28.605  1.00  0.00    -0.294 OA
BRANCH  11  13
ATOM     13  C   UNL     1      -4.649 -13.827  30.691  1.00  0.00    -0.002 C 
ATOM     14  C   UNL     1      -5.481 -14.852  31.050  1.00  0.00    -0.069 C 
ATOM     15  C   UNL     1      -5.587 -15.335  32.479  1.00  0.00     0.039 C 
ATOM     16  C   UNL     1      -6.381 -15.528  30.041  1.00  0.00     0.039 C 
BRANCH  13  17
ATOM     17  C   UNL     1      -3.821 -13.080  31.732  1.00  0.00     0.066 CG0
ATOM     18  G   UNL     1      -3.251 -11.738  31.308  1.00  0.00     0.000 G0
ENDBRANCH  13  17
ENDBRANCH  11  13
ENDBRANCH  10  11
ENDBRANCH   1  10
TORSDOF 0
ENDMDL
MODEL 4
REMARK VINA RESULT:    -4.995      2.097      3.553
REMARK INTER + INTRA:          -6.460
REMARK INTER:                  -7.096
REMARK INTRA:                   0.636
REMARK UNBOUND:                 0.579
REMARK SMILES CC1=CCC(=C(C)C)C(=O)CC(C)=CCC1
REMARK SMILES IDX 12 1 14 2 13 3 15 4 16 5 2 6 1 7 3 8 11 10 9 11 10 12 5 13
REMARK SMILES IDX 6 14 7 15 8 16 4 17
REMARK H PARENT
REMARK Flexibility Score: 60.00
ROOT
ATOM      1  C   UNL     1      -3.571 -13.002  31.208  1.00  0.00    -0.070 C 
ATOM      2  C   UNL     1      -2.352 -13.365  31.669  1.00  0.00    -0.027 C 
ATOM      3  C   UNL     1      -4.645 -14.056  31.133  1.00  0.00     0.039 C 
ENDROOT
BRANCH   2   4
ATOM      4  C   UNL     1      -1.130 -12.482  31.673  1.00  0.00     0.032 C 
BRANCH   4   5
ATOM      5  C   UNL     1      -0.901 -11.905  30.271  1.00  0.00     0.034 C 
BRANCH   5   6
ATOM      6  C   UNL     1      -0.709 -12.984  29.225  1.00  0.00    -0.077 C 
ATOM      7  C   UNL     1       0.374 -14.013  29.437  1.00  0.00     0.039 C 
ATOM      8  C   UNL     1      -1.506 -13.124  28.136  1.00  0.00    -0.023 CG0
ATOM      9  G   UNL     1      -2.615 -12.193  27.678  1.00  0.00     0.000 G0
ENDBRANCH   5   6
ENDBRANCH   4   5
ENDBRANCH   2   4
BRANCH   1  10
ATOM     10  C   UNL     1      -3.914 -11.586  30.784  1.00  0.00     0.111 C 
BRANCH  10  11
ATOM     11  C   UNL     1      -4.453 -11.536  29.375  1.00  0.00     0.163 C 
ATOM     12  O   UNL     1      -5.323 -10.659  29.124  1.00  0.00    -0.294 OA
BRANCH  11  13
ATOM     13  C   UNL     1      -3.996 -12.447  28.273  1.00  0.00    -0.002 C 
ATOM     14  C   UNL     1      -4.854 -13.361  27.724  1.00  0.00    -0.069 C 
ATOM     15  C   UNL     1      -4.511 -14.129  26.469  1.00  0.00     0.039 C 
ATOM     16  C   UNL     1      -6.179 -13.689  28.375  1.00  0.00     0.039 C 
BRANCH  13  17
ATOM     17  C   UNL     1      -2.618 -12.197  27.669  1.00  0.00     0.066 CG0
ATOM     18  G   UNL     1      -1.502 -13.122  28.124  1.00  0.00     0.000 G0
ENDBRANCH  13  17
ENDBRANCH  11  13
ENDBRANCH  10  11
ENDBRANCH   1  10
TORSDOF 0
ENDMDL
MODEL 5
REMARK VINA RESULT:    -4.984      2.223      4.337
REMARK INTER + INTRA:          -6.444
REMARK INTER:                  -7.032
REMARK INTRA:                   0.588
REMARK UNBOUND:                 0.579
REMARK SMILES CC1=CCC(=C(C)C)C(=O)CC(C)=CCC1
REMARK SMILES IDX 12 1 14 2 13 3 15 4 16 5 2 6 1 7 3 8 11 10 9 11 10 12 5 13
REMARK SMILES IDX 6 14 7 15 8 16 4 17
REMARK H PARENT
REMARK Flexibility Score: 60.00
ROOT
ATOM      1  C   UNL     1      -3.167 -10.739  30.507  1.00  0.00    -0.070 C 
ATOM      2  C   UNL     1      -3.824 -10.084  29.522  1.00  0.00    -0.027 C 
ATOM      3  C   UNL     1      -1.857 -10.171  30.987  1.00  0.00     0.039 C 
ENDROOT
BRANCH   2   4
ATOM      4  C   UNL     1      -5.063 -10.587  28.826  1.00  0.00     0.032 C 
BRANCH   4   5
ATOM      5  C   UNL     1      -4.862 -12.044  28.395  1.00  0.00     0.034 C 
BRANCH   5   6
ATOM      6  C   UNL     1      -3.757 -12.199  27.369  1.00  0.00    -0.077 C 
ATOM      7  C   UNL     1      -3.813 -11.362  26.115  1.00  0.00     0.039 C 
ATOM      8  C   UNL     1      -2.676 -12.998  27.545  1.00  0.00    -0.023 CG0
ATOM      9  G   UNL     1      -2.422 -13.970  28.684  1.00  0.00     0.000 G0
ENDBRANCH   5   6
ENDBRANCH   4   5
ENDBRANCH   2   4
BRANCH   1  10
ATOM     10  C   UNL     1      -3.694 -12.001  31.164  1.00  0.00     0.111 C 
BRANCH  10  11
ATOM     11  C   UNL     1      -2.682 -13.120  31.125  1.00  0.00     0.163 C 
ATOM     12  O   UNL     1      -2.613 -13.868  32.138  1.00  0.00    -0.294 OA
BRANCH  11  13
ATOM     13  C   UNL     1      -1.787 -13.396  29.952  1.00  0.00    -0.002 C 
ATOM     14  C   UNL     1      -0.428 -13.286  30.072  1.00  0.00    -0.069 C 
ATOM     15  C   UNL     1       0.514 -13.774  28.995  1.00  0.00     0.039 C 
ATOM     16  C   UNL     1       0.206 -12.621  31.273  1.00  0.00     0.039 C 
BRANCH  13  17
ATOM     17  C   UNL     1      -2.423 -13.973  28.691  1.00  0.00     0.066 CG0
ATOM     18  G   UNL     1      -2.661 -13.002  27.548  1.00  0.00     0.000 G0
ENDBRANCH  13  17
ENDBRANCH  11  13
ENDBRANCH  10  11
ENDBRANCH   1  10
TORSDOF 0
ENDMDL
MODEL 6
REMARK VINA RESULT:    -4.979      1.505      4.032
REMARK INTER + INTRA:          -6.437
REMARK INTER:                  -6.467
REMARK INTRA:                   0.030
REMARK UNBOUND:                 0.579
REMARK SMILES CC1=CCC(=C(C)C)C(=O)CC(C)=CCC1
REMARK SMILES IDX 12 1 14 2 13 3 15 4 16 5 2 6 1 7 3 8 11 10 9 11 10 12 5 13
REMARK SMILES IDX 6 14 7 15 8 16 4 17
REMARK H PARENT
REMARK Flexibility Score: 60.00
ROOT
ATOM      1  C   UNL     1      -5.246 -14.684  30.425  1.00  0.00    -0.070 C 
ATOM      2  C   UNL     1      -4.876 -14.334  31.678  1.00  0.00    -0.027 C 
ATOM      3  C   UNL     1      -6.581 -15.358  30.239  1.00  0.00     0.039 C 
ENDROOT
BRANCH   2   4
ATOM      4  C   UNL     1      -3.524 -13.790  32.061  1.00  0.00     0.032 C 
BRANCH   4   5
ATOM      5  C   UNL     1      -3.463 -12.288  31.761  1.00  0.00     0.034 C 
BRANCH   5   6
ATOM      6  C   UNL     1      -2.185 -11.889  31.052  1.00  0.00    -0.077 C 
ATOM      7  C   UNL     1      -0.868 -12.123  31.750  1.00  0.00     0.039 C 
ATOM      8  C   UNL     1      -2.150 -11.397  29.788  1.00  0.00    -0.023 CG0
ATOM      9  G   UNL     1      -3.332 -11.024  28.910  1.00  0.00     0.000 G0
ENDBRANCH   5   6
ENDBRANCH   4   5
ENDBRANCH   2   4
BRANCH   1  10
ATOM     10  C   UNL     1      -4.395 -14.412  29.199  1.00  0.00     0.111 C 
BRANCH  10  11
ATOM     11  C   UNL     1      -4.799 -13.134  28.504  1.00  0.00     0.163 C 
ATOM     12  O   UNL     1      -6.034 -12.900  28.406  1.00  0.00    -0.294 OA
BRANCH  11  13
ATOM     13  C   UNL     1      -3.821 -12.136  27.957  1.00  0.00    -0.002 C 
ATOM     14  C   UNL     1      -3.516 -12.120  26.623  1.00  0.00    -0.069 C 
ATOM     15  C   UNL     1      -2.723 -10.997  25.995  1.00  0.00     0.039 C 
ATOM     16  C   UNL     1      -3.914 -13.258  25.710  1.00  0.00     0.039 C 
BRANCH  13  17
ATOM     17  C   UNL     1      -3.327 -11.037  28.892  1.00  0.00     0.066 CG0
ATOM     18  G   UNL     1      -2.151 -11.389  29.787  1.00  0.00     0.000 G0
ENDBRANCH  13  17
ENDBRANCH  11  13
ENDBRANCH  10  11
ENDBRANCH   1  10
TORSDOF 0
ENDMDL
MODEL 7
REMARK VINA RESULT:    -4.840      2.211      4.818
REMARK INTER + INTRA:          -6.241
REMARK INTER:                  -7.085
REMARK INTRA:                   0.844
REMARK UNBOUND:                 0.579
REMARK SMILES CC1=CCC(=C(C)C)C(=O)CC(C)=CCC1
REMARK SMILES IDX 12 1 14 2 13 3 15 4 16 5 2 6 1 7 3 8 11 10 9 11 10 12 5 13
REMARK SMILES IDX 6 14 7 15 8 16 4 17
REMARK H PARENT
REMARK Flexibility Score: 60.00
ROOT
ATOM      1  C   UNL     1      -4.224 -13.438  31.106  1.00  0.00    -0.070 C 
ATOM      2  C   UNL     1      -4.835 -14.317  30.279  1.00  0.00    -0.027 C 
ATOM      3  C   UNL     1      -3.547 -13.976  32.339  1.00  0.00     0.039 C 
ENDROOT
BRANCH   2   4
ATOM      4  C   UNL     1      -5.681 -13.940  29.089  1.00  0.00     0.032 C 
BRANCH   4   5
ATOM      5  C   UNL     1      -5.024 -12.782  28.330  1.00  0.00     0.034 C 
BRANCH   5   6
ATOM      6  C   UNL     1      -3.947 -13.252  27.374  1.00  0.00    -0.077 C 
ATOM      7  C   UNL     1      -4.269 -14.372  26.416  1.00  0.00     0.039 C 
ATOM      8  C   UNL     1      -2.724 -12.672  27.277  1.00  0.00    -0.023 CG0
ATOM      9  G   UNL     1      -2.148 -11.579  28.159  1.00  0.00     0.000 G0
ENDBRANCH   5   6
ENDBRANCH   4   5
ENDBRANCH   2   4
BRANCH   1  10
ATOM     10  C   UNL     1      -4.170 -11.945  30.843  1.00  0.00     0.111 C 
BRANCH  10  11
ATOM     11  C   UNL     1      -2.752 -11.453  30.680  1.00  0.00     0.163 C 
ATOM     12  O   UNL     1      -2.342 -10.599  31.510  1.00  0.00    -0.294 OA
BRANCH  11  13
ATOM     13  C   UNL     1      -1.817 -11.941  29.611  1.00  0.00    -0.002 C 
ATOM     14  C   UNL     1      -0.814 -12.821  29.913  1.00  0.00    -0.069 C 
ATOM     15  C   UNL     1      -0.003 -13.512  28.840  1.00  0.00     0.039 C 
ATOM     16  C   UNL     1      -0.425 -13.113  31.345  1.00  0.00     0.039 C 
BRANCH  13  17
ATOM     17  C   UNL     1      -2.134 -11.572  28.165  1.00  0.00     0.066 CG0
ATOM     18  G   UNL     1      -2.707 -12.678  27.295  1.00  0.00     0.000 G0
ENDBRANCH  13  17
ENDBRANCH  11  13
ENDBRANCH  10  11
ENDBRANCH   1  10
TORSDOF 0
ENDMDL
MODEL 8
REMARK VINA RESULT:    -4.805      1.600      3.969
REMARK INTER + INTRA:          -6.193
REMARK INTER:                  -6.429
REMARK INTRA:                   0.236
REMARK UNBOUND:                 0.579
REMARK SMILES CC1=CCC(=C(C)C)C(=O)CC(C)=CCC1
REMARK SMILES IDX 12 1 14 2 13 3 15 4 16 5 2 6 1 7 3 8 11 10 9 11 10 12 5 13
REMARK SMILES IDX 6 14 7 15 8 16 4 17
REMARK H PARENT
REMARK Flexibility Score: 60.00
ROOT
ATOM      1  C   UNL     1      -3.345 -12.369  26.464  1.00  0.00    -0.070 C 
ATOM      2  C   UNL     1      -4.516 -13.037  26.353  1.00  0.00    -0.027 C 
ATOM      3  C   UNL     1      -3.017 -11.331  25.421  1.00  0.00     0.039 C 
ENDROOT
BRANCH   2   4
ATOM      4  C   UNL     1      -4.932 -14.201  27.216  1.00  0.00     0.032 C 
BRANCH   4   5
ATOM      5  C   UNL     1      -5.777 -13.700  28.392  1.00  0.00     0.034 C 
BRANCH   5   6
ATOM      6  C   UNL     1      -5.659 -14.592  29.612  1.00  0.00    -0.077 C 
ATOM      7  C   UNL     1      -6.380 -15.918  29.610  1.00  0.00     0.039 C 
ATOM      8  C   UNL     1      -4.881 -14.300  30.683  1.00  0.00    -0.023 CG0
ATOM      9  G   UNL     1      -4.112 -13.016  30.943  1.00  0.00     0.000 G0
ENDBRANCH   5   6
ENDBRANCH   4   5
ENDBRANCH   2   4
BRANCH   1  10
ATOM     10  C   UNL     1      -2.358 -12.599  27.592  1.00  0.00     0.111 C 
BRANCH  10  11
ATOM     11  C   UNL     1      -2.859 -12.037  28.901  1.00  0.00     0.163 C 
ATOM     12  O   UNL     1      -3.371 -10.886  28.873  1.00  0.00    -0.294 OA
BRANCH  11  13
ATOM     13  C   UNL     1      -2.799 -12.779  30.205  1.00  0.00    -0.002 C 
ATOM     14  C   UNL     1      -1.594 -13.104  30.766  1.00  0.00    -0.069 C 
ATOM     15  C   UNL     1      -1.484 -13.638  32.176  1.00  0.00     0.039 C 
ATOM     16  C   UNL     1      -0.304 -12.992  29.984  1.00  0.00     0.039 C 
BRANCH  13  17
ATOM     17  C   UNL     1      -4.106 -12.992  30.963  1.00  0.00     0.066 CG0
ATOM     18  G   UNL     1      -4.843 -14.291  30.686  1.00  0.00     0.000 G0
ENDBRANCH  13  17
ENDBRANCH  11  13
ENDBRANCH  10  11
ENDBRANCH   1  10
TORSDOF 0
ENDMDL
MODEL 9
REMARK VINA RESULT:    -4.321      1.897      3.356
REMARK INTER + INTRA:          -5.510
REMARK INTER:                  -6.110
REMARK INTRA:                   0.600
REMARK UNBOUND:                 0.579
REMARK SMILES CC1=CCC(=C(C)C)C(=O)CC(C)=CCC1
REMARK SMILES IDX 12 1 14 2 13 3 15 4 16 5 2 6 1 7 3 8 11 10 9 11 10 12 5 13
REMARK SMILES IDX 6 14 7 15 8 16 4 17
REMARK H PARENT
REMARK Flexibility Score: 60.00
ROOT
ATOM      1  C   UNL     1      -1.191 -13.331  29.213  1.00  0.00    -0.070 C 
ATOM      2  C   UNL     1      -1.094 -13.701  30.510  1.00  0.00    -0.027 C 
ATOM      3  C   UNL     1      -0.901 -14.364  28.155  1.00  0.00     0.039 C 
ENDROOT
BRANCH   2   4
ATOM      4  C   UNL     1      -1.203 -12.766  31.687  1.00  0.00     0.032 C 
BRANCH   4   5
ATOM      5  C   UNL     1      -2.619 -12.182  31.758  1.00  0.00     0.034 C 
BRANCH   5   6
ATOM      6  C   UNL     1      -3.691 -13.241  31.602  1.00  0.00    -0.077 C 
ATOM      7  C   UNL     1      -3.750 -14.364  32.608  1.00  0.00     0.039 C 
ATOM      8  C   UNL     1      -4.653 -13.201  30.647  1.00  0.00    -0.023 CG0
ATOM      9  G   UNL     1      -4.772 -12.215  29.498  1.00  0.00     0.000 G0
ENDBRANCH   5   6
ENDBRANCH   4   5
ENDBRANCH   2   4
BRANCH   1  10
ATOM     10  C   UNL     1      -1.594 -11.936  28.772  1.00  0.00     0.111 C 
BRANCH  10  11
ATOM     11  C   UNL     1      -2.783 -11.963  27.842  1.00  0.00     0.163 C 
ATOM     12  O   UNL     1      -2.638 -11.425  26.710  1.00  0.00    -0.294 OA
BRANCH  11  13
ATOM     13  C   UNL     1      -4.096 -12.606  28.182  1.00  0.00    -0.002 C 
ATOM     14  C   UNL     1      -4.586 -13.632  27.420  1.00  0.00    -0.069 C 
ATOM     15  C   UNL     1      -5.777 -14.455  27.855  1.00  0.00     0.039 C 
ATOM     16  C   UNL     1      -3.992 -13.965  26.070  1.00  0.00     0.039 C 
BRANCH  13  17
ATOM     17  C   UNL     1      -4.765 -12.208  29.494  1.00  0.00     0.066 CG0
ATOM     18  G   UNL     1      -4.654 -13.201  30.637  1.00  0.00     0.000 G0
ENDBRANCH  13  17
ENDBRANCH  11  13
ENDBRANCH  10  11
ENDBRANCH   1  10
TORSDOF 0
ENDMDL
