MODEL 1
REMARK VINA RESULT:    -4.056      0.000      0.000
REMARK INTER + INTRA:          -5.730
REMARK INTER:                  -5.716
REMARK INTRA:                  -0.015
REMARK UNBOUND:                -0.015
REMARK SMILES CC1=CCC(=C(C)C)C(=O)CC(C)=CCC1
REMARK SMILES IDX 12 1 14 2 13 3 15 4 16 5 2 6 1 7 3 8 11 10 9 11 10 12 5 13
REMARK SMILES IDX 6 14 7 15 8 16 4 17
REMARK H PARENT
REMARK Flexibility Score: 60.00
ROOT
ATOM      1  C   UNL     1      19.447 -19.099  22.515  1.00  0.00    -0.070 C 
ATOM      2  C   UNL     1      18.105 -19.093  22.350  1.00  0.00    -0.027 C 
ATOM      3  C   UNL     1      20.295 -18.432  21.462  1.00  0.00     0.039 C 
ENDROOT
BRANCH   2   4
ATOM      4  C   UNL     1      17.107 -19.580  23.370  1.00  0.00     0.032 C 
BRANCH   4   5
ATOM      5  C   UNL     1      16.591 -20.968  22.971  1.00  0.00     0.034 C 
BRANCH   5   6
ATOM      6  C   UNL     1      16.672 -21.966  24.109  1.00  0.00    -0.077 C 
ATOM      7  C   UNL     1      15.552 -22.004  25.118  1.00  0.00     0.039 C 
ATOM      8  C   UNL     1      17.735 -22.783  24.315  1.00  0.00    -0.023 CG0
ATOM      9  G   UNL     1      18.945 -22.967  23.417  1.00  0.00     0.000 G0
ENDBRANCH   5   6
ENDBRANCH   4   5
ENDBRANCH   2   4
BRANCH   1  10
ATOM     10  C   UNL     1      20.140 -19.760  23.690  1.00  0.00     0.111 C 
BRANCH  10  11
ATOM     11  C   UNL     1      20.735 -21.096  23.314  1.00  0.00     0.163 C 
ATOM     12  O   UNL     1      21.652 -21.091  22.449  1.00  0.00    -0.294 OA
BRANCH  11  13
ATOM     13  C   UNL     1      20.281 -22.404  23.893  1.00  0.00    -0.002 C 
ATOM     14  C   UNL     1      21.109 -23.129  24.707  1.00  0.00    -0.069 C 
ATOM     15  C   UNL     1      20.787 -24.547  25.120  1.00  0.00     0.039 C 
ATOM     16  C   UNL     1      22.372 -22.529  25.284  1.00  0.00     0.039 C 
BRANCH  13  17
ATOM     17  C   UNL     1      18.957 -22.979  23.401  1.00  0.00     0.066 CG0
ATOM     18  G   UNL     1      17.756 -22.781  24.307  1.00  0.00     0.000 G0
ENDBRANCH  13  17
ENDBRANCH  11  13
ENDBRANCH  10  11
ENDBRANCH   1  10
TORSDOF 0
ENDMDL
MODEL 2
REMARK VINA RESULT:    -3.924     10.405     12.128
REMARK INTER + INTRA:          -5.545
REMARK INTER:                  -5.713
REMARK INTRA:                   0.168
REMARK UNBOUND:                -0.015
REMARK SMILES CC1=CCC(=C(C)C)C(=O)CC(C)=CCC1
REMARK SMILES IDX 12 1 14 2 13 3 15 4 16 5 2 6 1 7 3 8 11 10 9 11 10 12 5 13
REMARK SMILES IDX 6 14 7 15 8 16 4 17
REMARK H PARENT
REMARK Flexibility Score: 60.00
ROOT
ATOM      1  C   UNL     1       7.397 -18.779  24.297  1.00  0.00    -0.070 C 
ATOM      2  C   UNL     1       7.339 -19.823  23.438  1.00  0.00    -0.027 C 
ATOM      3  C   UNL     1       8.355 -18.868  25.458  1.00  0.00     0.039 C 
ENDROOT
BRANCH   2   4
ATOM      4  C   UNL     1       6.552 -19.841  22.153  1.00  0.00     0.032 C 
BRANCH   4   5
ATOM      5  C   UNL     1       7.471 -19.495  20.975  1.00  0.00     0.034 C 
BRANCH   5   6
ATOM      6  C   UNL     1       8.938 -19.534  21.354  1.00  0.00    -0.077 C 
ATOM      7  C   UNL     1       9.636 -20.869  21.407  1.00  0.00     0.039 C 
ATOM      8  C   UNL     1       9.647 -18.436  21.720  1.00  0.00    -0.023 CG0
ATOM      9  G   UNL     1       9.187 -16.990  21.693  1.00  0.00     0.000 G0
ENDBRANCH   5   6
ENDBRANCH   4   5
ENDBRANCH   2   4
BRANCH   1  10
ATOM     10  C   UNL     1       6.536 -17.539  24.162  1.00  0.00     0.111 C 
BRANCH  10  11
ATOM     11  C   UNL     1       7.156 -16.522  23.233  1.00  0.00     0.163 C 
ATOM     12  O   UNL     1       6.367 -15.758  22.613  1.00  0.00    -0.294 OA
BRANCH  11  13
ATOM     13  C   UNL     1       8.633 -16.397  22.998  1.00  0.00    -0.002 C 
ATOM     14  C   UNL     1       9.410 -15.653  23.846  1.00  0.00    -0.069 C 
ATOM     15  C   UNL     1      10.846 -15.309  23.521  1.00  0.00     0.039 C 
ATOM     16  C   UNL     1       8.887 -15.174  25.182  1.00  0.00     0.039 C 
BRANCH  13  17
ATOM     17  C   UNL     1       9.199 -16.964  21.702  1.00  0.00     0.066 CG0
ATOM     18  G   UNL     1       9.626 -18.421  21.731  1.00  0.00     0.000 G0
ENDBRANCH  13  17
ENDBRANCH  11  13
ENDBRANCH  10  11
ENDBRANCH   1  10
TORSDOF 0
ENDMDL
MODEL 3
REMARK VINA RESULT:    -3.787     10.764     12.338
REMARK INTER + INTRA:          -5.351
REMARK INTER:                  -5.542
REMARK INTRA:                   0.191
REMARK UNBOUND:                -0.015
REMARK SMILES CC1=CCC(=C(C)C)C(=O)CC(C)=CCC1
REMARK SMILES IDX 12 1 14 2 13 3 15 4 16 5 2 6 1 7 3 8 11 10 9 11 10 12 5 13
REMARK SMILES IDX 6 14 7 15 8 16 4 17
REMARK H PARENT
REMARK Flexibility Score: 60.00
ROOT
ATOM      1  C   UNL     1       7.568 -18.644  24.469  1.00  0.00    -0.070 C 
ATOM      2  C   UNL     1       6.760 -19.458  23.754  1.00  0.00    -0.027 C 
ATOM      3  C   UNL     1       6.934 -17.735  25.493  1.00  0.00     0.039 C 
ENDROOT
BRANCH   2   4
ATOM      4  C   UNL     1       7.234 -20.527  22.802  1.00  0.00     0.032 C 
BRANCH   4   5
ATOM      5  C   UNL     1       6.822 -20.168  21.369  1.00  0.00     0.034 C 
BRANCH   5   6
ATOM      6  C   UNL     1       7.986 -19.662  20.541  1.00  0.00    -0.077 C 
ATOM      7  C   UNL     1       8.761 -20.649  19.705  1.00  0.00     0.039 C 
ATOM      8  C   UNL     1       8.419 -18.377  20.562  1.00  0.00    -0.023 CG0
ATOM      9  G   UNL     1       7.778 -17.199  21.273  1.00  0.00     0.000 G0
ENDBRANCH   5   6
ENDBRANCH   4   5
ENDBRANCH   2   4
BRANCH   1  10
ATOM     10  C   UNL     1       9.070 -18.583  24.280  1.00  0.00     0.111 C 
BRANCH  10  11
ATOM     11  C   UNL     1       9.463 -17.592  23.210  1.00  0.00     0.163 C 
ATOM     12  O   UNL     1      10.684 -17.536  22.901  1.00  0.00    -0.294 OA
BRANCH  11  13
ATOM     13  C   UNL     1       8.492 -16.672  22.528  1.00  0.00    -0.002 C 
ATOM     14  C   UNL     1       8.143 -15.480  23.104  1.00  0.00    -0.069 C 
ATOM     15  C   UNL     1       7.005 -14.638  22.574  1.00  0.00     0.039 C 
ATOM     16  C   UNL     1       8.912 -14.914  24.276  1.00  0.00     0.039 C 
BRANCH  13  17
ATOM     17  C   UNL     1       7.780 -17.186  21.283  1.00  0.00     0.066 CG0
ATOM     18  G   UNL     1       8.424 -18.362  20.572  1.00  0.00     0.000 G0
ENDBRANCH  13  17
ENDBRANCH  11  13
ENDBRANCH  10  11
ENDBRANCH   1  10
TORSDOF 0
ENDMDL
MODEL 4
REMARK VINA RESULT:    -3.767      1.911      3.817
REMARK INTER + INTRA:          -5.324
REMARK INTER:                  -5.248
REMARK INTRA:                  -0.076
REMARK UNBOUND:                -0.015
REMARK SMILES CC1=CCC(=C(C)C)C(=O)CC(C)=CCC1
REMARK SMILES IDX 12 1 14 2 13 3 15 4 16 5 2 6 1 7 3 8 11 10 9 11 10 12 5 13
REMARK SMILES IDX 6 14 7 15 8 16 4 17
REMARK H PARENT
REMARK Flexibility Score: 60.00
ROOT
ATOM      1  C   UNL     1      16.671 -20.456  23.361  1.00  0.00    -0.070 C 
ATOM      2  C   UNL     1      17.311 -19.327  22.982  1.00  0.00    -0.027 C 
ATOM      3  C   UNL     1      15.292 -20.326  23.955  1.00  0.00     0.039 C 
ENDROOT
BRANCH   2   4
ATOM      4  C   UNL     1      18.623 -19.284  22.241  1.00  0.00     0.032 C 
BRANCH   4   5
ATOM      5  C   UNL     1      19.785 -19.247  23.241  1.00  0.00     0.034 C 
BRANCH   5   6
ATOM      6  C   UNL     1      20.898 -20.207  22.873  1.00  0.00    -0.077 C 
ATOM      7  C   UNL     1      21.749 -19.899  21.666  1.00  0.00     0.039 C 
ATOM      8  C   UNL     1      21.131 -21.372  23.528  1.00  0.00    -0.023 CG0
ATOM      9  G   UNL     1      20.455 -21.871  24.792  1.00  0.00     0.000 G0
ENDBRANCH   5   6
ENDBRANCH   4   5
ENDBRANCH   2   4
BRANCH   1  10
ATOM     10  C   UNL     1      17.278 -21.840  23.238  1.00  0.00     0.111 C 
BRANCH  10  11
ATOM     11  C   UNL     1      17.921 -22.289  24.528  1.00  0.00     0.163 C 
ATOM     12  O   UNL     1      17.243 -22.156  25.583  1.00  0.00    -0.294 OA
BRANCH  11  13
ATOM     13  C   UNL     1      19.309 -22.853  24.616  1.00  0.00    -0.002 C 
ATOM     14  C   UNL     1      19.505 -24.206  24.700  1.00  0.00    -0.069 C 
ATOM     15  C   UNL     1      20.857 -24.800  25.023  1.00  0.00     0.039 C 
ATOM     16  C   UNL     1      18.387 -25.185  24.423  1.00  0.00     0.039 C 
BRANCH  13  17
ATOM     17  C   UNL     1      20.465 -21.876  24.793  1.00  0.00     0.066 CG0
ATOM     18  G   UNL     1      21.120 -21.366  23.522  1.00  0.00     0.000 G0
ENDBRANCH  13  17
ENDBRANCH  11  13
ENDBRANCH  10  11
ENDBRANCH   1  10
TORSDOF 0
ENDMDL
MODEL 5
REMARK VINA RESULT:    -3.750      4.073      7.148
REMARK INTER + INTRA:          -5.299
REMARK INTER:                  -5.171
REMARK INTRA:                  -0.128
REMARK UNBOUND:                -0.015
REMARK SMILES CC1=CCC(=C(C)C)C(=O)CC(C)=CCC1
REMARK SMILES IDX 12 1 14 2 13 3 15 4 16 5 2 6 1 7 3 8 11 10 9 11 10 12 5 13
REMARK SMILES IDX 6 14 7 15 8 16 4 17
REMARK H PARENT
REMARK Flexibility Score: 60.00
ROOT
ATOM      1  C   UNL     1      13.251 -19.938  26.950  1.00  0.00    -0.070 C 
ATOM      2  C   UNL     1      14.102 -20.988  27.001  1.00  0.00    -0.027 C 
ATOM      3  C   UNL     1      12.057 -19.946  27.871  1.00  0.00     0.039 C 
ENDROOT
BRANCH   2   4
ATOM      4  C   UNL     1      15.413 -21.074  26.262  1.00  0.00     0.032 C 
BRANCH   4   5
ATOM      5  C   UNL     1      15.297 -22.078  25.109  1.00  0.00     0.034 C 
BRANCH   5   6
ATOM      6  C   UNL     1      15.995 -21.600  23.852  1.00  0.00    -0.077 C 
ATOM      7  C   UNL     1      17.458 -21.918  23.672  1.00  0.00     0.039 C 
ATOM      8  C   UNL     1      15.394 -20.836  22.905  1.00  0.00    -0.023 CG0
ATOM      9  G   UNL     1      13.932 -20.436  22.833  1.00  0.00     0.000 G0
ENDBRANCH   5   6
ENDBRANCH   4   5
ENDBRANCH   2   4
BRANCH   1  10
ATOM     10  C   UNL     1      13.426 -18.768  26.002  1.00  0.00     0.111 C 
BRANCH  10  11
ATOM     11  C   UNL     1      12.780 -19.029  24.662  1.00  0.00     0.163 C 
ATOM     12  O   UNL     1      11.536 -19.237  24.656  1.00  0.00    -0.294 OA
BRANCH  11  13
ATOM     13  C   UNL     1      13.536 -19.074  23.366  1.00  0.00    -0.002 C 
ATOM     14  C   UNL     1      13.724 -17.934  22.631  1.00  0.00    -0.069 C 
ATOM     15  C   UNL     1      14.270 -17.971  21.222  1.00  0.00     0.039 C 
ATOM     16  C   UNL     1      13.442 -16.566  23.210  1.00  0.00     0.039 C 
BRANCH  13  17
ATOM     17  C   UNL     1      13.921 -20.442  22.813  1.00  0.00     0.066 CG0
ATOM     18  G   UNL     1      15.386 -20.825  22.917  1.00  0.00     0.000 G0
ENDBRANCH  13  17
ENDBRANCH  11  13
ENDBRANCH  10  11
ENDBRANCH   1  10
TORSDOF 0
ENDMDL
MODEL 6
REMARK VINA RESULT:    -3.721      7.800     10.308
REMARK INTER + INTRA:          -5.258
REMARK INTER:                  -5.104
REMARK INTRA:                  -0.154
REMARK UNBOUND:                -0.015
REMARK SMILES CC1=CCC(=C(C)C)C(=O)CC(C)=CCC1
REMARK SMILES IDX 12 1 14 2 13 3 15 4 16 5 2 6 1 7 3 8 11 10 9 11 10 12 5 13
REMARK SMILES IDX 6 14 7 15 8 16 4 17
REMARK H PARENT
REMARK Flexibility Score: 60.00
ROOT
ATOM      1  C   UNL     1       9.333 -15.456  23.206  1.00  0.00    -0.070 C 
ATOM      2  C   UNL     1      10.624 -15.103  23.399  1.00  0.00    -0.027 C 
ATOM      3  C   UNL     1       8.275 -14.747  24.012  1.00  0.00     0.039 C 
ENDROOT
BRANCH   2   4
ATOM      4  C   UNL     1      11.788 -15.601  22.580  1.00  0.00     0.032 C 
BRANCH   4   5
ATOM      5  C   UNL     1      12.566 -16.660  23.370  1.00  0.00     0.034 C 
BRANCH   5   6
ATOM      6  C   UNL     1      12.980 -17.837  22.511  1.00  0.00    -0.077 C 
ATOM      7  C   UNL     1      14.242 -17.728  21.694  1.00  0.00     0.039 C 
ATOM      8  C   UNL     1      12.238 -18.966  22.378  1.00  0.00    -0.023 CG0
ATOM      9  G   UNL     1      10.972 -19.332  23.131  1.00  0.00     0.000 G0
ENDBRANCH   5   6
ENDBRANCH   4   5
ENDBRANCH   2   4
BRANCH   1  10
ATOM     10  C   UNL     1       8.900 -16.540  22.239  1.00  0.00     0.111 C 
BRANCH  10  11
ATOM     11  C   UNL     1       8.836 -17.895  22.903  1.00  0.00     0.163 C 
ATOM     12  O   UNL     1       8.076 -18.007  23.902  1.00  0.00    -0.294 OA
BRANCH  11  13
ATOM     13  C   UNL     1       9.636 -19.083  22.454  1.00  0.00    -0.002 C 
ATOM     14  C   UNL     1       9.106 -19.983  21.569  1.00  0.00    -0.069 C 
ATOM     15  C   UNL     1       9.778 -21.304  21.271  1.00  0.00     0.039 C 
ATOM     16  C   UNL     1       7.841 -19.680  20.797  1.00  0.00     0.039 C 
BRANCH  13  17
ATOM     17  C   UNL     1      10.967 -19.349  23.149  1.00  0.00     0.066 CG0
ATOM     18  G   UNL     1      12.219 -18.968  22.381  1.00  0.00     0.000 G0
ENDBRANCH  13  17
ENDBRANCH  11  13
ENDBRANCH  10  11
ENDBRANCH   1  10
TORSDOF 0
ENDMDL
MODEL 7
REMARK VINA RESULT:    -3.693      8.467     10.639
REMARK INTER + INTRA:          -5.218
REMARK INTER:                  -5.097
REMARK INTRA:                  -0.121
REMARK UNBOUND:                -0.015
REMARK SMILES CC1=CCC(=C(C)C)C(=O)CC(C)=CCC1
REMARK SMILES IDX 12 1 14 2 13 3 15 4 16 5 2 6 1 7 3 8 11 10 9 11 10 12 5 13
REMARK SMILES IDX 6 14 7 15 8 16 4 17
REMARK H PARENT
REMARK Flexibility Score: 60.00
ROOT
ATOM      1  C   UNL     1       8.548 -21.066  21.191  1.00  0.00    -0.070 C 
ATOM      2  C   UNL     1       7.358 -20.961  21.824  1.00  0.00    -0.027 C 
ATOM      3  C   UNL     1       8.947 -22.415  20.649  1.00  0.00     0.039 C 
ENDROOT
BRANCH   2   4
ATOM      4  C   UNL     1       6.740 -19.668  22.294  1.00  0.00     0.032 C 
BRANCH   4   5
ATOM      5  C   UNL     1       6.985 -19.491  23.797  1.00  0.00     0.034 C 
BRANCH   5   6
ATOM      6  C   UNL     1       7.450 -18.092  24.148  1.00  0.00    -0.077 C 
ATOM      7  C   UNL     1       6.423 -16.993  24.252  1.00  0.00     0.039 C 
ATOM      8  C   UNL     1       8.755 -17.753  24.305  1.00  0.00    -0.023 CG0
ATOM      9  G   UNL     1       9.956 -18.681  24.305  1.00  0.00     0.000 G0
ENDBRANCH   5   6
ENDBRANCH   4   5
ENDBRANCH   2   4
BRANCH   1  10
ATOM     10  C   UNL     1       9.507 -19.905  21.020  1.00  0.00     0.111 C 
BRANCH  10  11
ATOM     11  C   UNL     1      10.567 -19.887  22.096  1.00  0.00     0.163 C 
ATOM     12  O   UNL     1      11.278 -20.920  22.217  1.00  0.00    -0.294 OA
BRANCH  11  13
ATOM     13  C   UNL     1      10.792 -18.730  23.025  1.00  0.00    -0.002 C 
ATOM     14  C   UNL     1      11.822 -17.853  22.806  1.00  0.00    -0.069 C 
ATOM     15  C   UNL     1      12.226 -16.821  23.834  1.00  0.00     0.039 C 
ATOM     16  C   UNL     1      12.580 -17.837  21.498  1.00  0.00     0.039 C 
BRANCH  13  17
ATOM     17  C   UNL     1       9.964 -18.671  24.303  1.00  0.00     0.066 CG0
ATOM     18  G   UNL     1       8.760 -17.747  24.287  1.00  0.00     0.000 G0
ENDBRANCH  13  17
ENDBRANCH  11  13
ENDBRANCH  10  11
ENDBRANCH   1  10
TORSDOF 0
ENDMDL
MODEL 8
REMARK VINA RESULT:    -3.672      9.701     11.260
REMARK INTER + INTRA:          -5.189
REMARK INTER:                  -5.034
REMARK INTRA:                  -0.155
REMARK UNBOUND:                -0.015
REMARK SMILES CC1=CCC(=C(C)C)C(=O)CC(C)=CCC1
REMARK SMILES IDX 12 1 14 2 13 3 15 4 16 5 2 6 1 7 3 8 11 10 9 11 10 12 5 13
REMARK SMILES IDX 6 14 7 15 8 16 4 17
REMARK H PARENT
REMARK Flexibility Score: 60.00
ROOT
ATOM      1  C   UNL     1      11.859 -16.337  21.709  1.00  0.00    -0.070 C 
ATOM      2  C   UNL     1      11.660 -15.354  22.617  1.00  0.00    -0.027 C 
ATOM      3  C   UNL     1      12.779 -16.054  20.548  1.00  0.00     0.039 C 
ENDROOT
BRANCH   2   4
ATOM      4  C   UNL     1      10.895 -15.512  23.906  1.00  0.00     0.032 C 
BRANCH   4   5
ATOM      5  C   UNL     1       9.461 -15.000  23.728  1.00  0.00     0.034 C 
BRANCH   5   6
ATOM      6  C   UNL     1       8.437 -15.904  24.382  1.00  0.00    -0.077 C 
ATOM      7  C   UNL     1       8.260 -15.834  25.878  1.00  0.00     0.039 C 
ATOM      8  C   UNL     1       7.714 -16.831  23.704  1.00  0.00    -0.023 CG0
ATOM      9  G   UNL     1       7.673 -17.053  22.203  1.00  0.00     0.000 G0
ENDBRANCH   5   6
ENDBRANCH   4   5
ENDBRANCH   2   4
BRANCH   1  10
ATOM     10  C   UNL     1      11.191 -17.695  21.789  1.00  0.00     0.111 C 
BRANCH  10  11
ATOM     11  C   UNL     1       9.881 -17.722  21.038  1.00  0.00     0.163 C 
ATOM     12  O   UNL     1       9.902 -17.342  19.836  1.00  0.00    -0.294 OA
BRANCH  11  13
ATOM     13  C   UNL     1       8.578 -18.150  21.648  1.00  0.00    -0.002 C 
ATOM     14  C   UNL     1       8.163 -19.451  21.559  1.00  0.00    -0.069 C 
ATOM     15  C   UNL     1       6.765 -19.875  21.949  1.00  0.00     0.039 C 
ATOM     16  C   UNL     1       9.100 -20.550  21.110  1.00  0.00     0.039 C 
BRANCH  13  17
ATOM     17  C   UNL     1       7.661 -17.065  22.200  1.00  0.00     0.066 CG0
ATOM     18  G   UNL     1       7.708 -16.838  23.700  1.00  0.00     0.000 G0
ENDBRANCH  13  17
ENDBRANCH  11  13
ENDBRANCH  10  11
ENDBRANCH   1  10
TORSDOF 0
ENDMDL
MODEL 9
REMARK VINA RESULT:    -3.648      2.076      3.104
REMARK INTER + INTRA:          -5.155
REMARK INTER:                  -5.155
REMARK INTRA:                  -0.000
REMARK UNBOUND:                -0.015
REMARK SMILES CC1=CCC(=C(C)C)C(=O)CC(C)=CCC1
REMARK SMILES IDX 12 1 14 2 13 3 15 4 16 5 2 6 1 7 3 8 11 10 9 11 10 12 5 13
REMARK SMILES IDX 6 14 7 15 8 16 4 17
REMARK H PARENT
REMARK Flexibility Score: 60.00
ROOT
ATOM      1  C   UNL     1      20.093 -21.521  24.006  1.00  0.00    -0.070 C 
ATOM      2  C   UNL     1      18.809 -21.770  23.663  1.00  0.00    -0.027 C 
ATOM      3  C   UNL     1      20.837 -20.454  23.243  1.00  0.00     0.039 C 
ENDROOT
BRANCH   2   4
ATOM      4  C   UNL     1      17.879 -22.691  24.410  1.00  0.00     0.032 C 
BRANCH   4   5
ATOM      5  C   UNL     1      17.772 -24.033  23.674  1.00  0.00     0.034 C 
BRANCH   5   6
ATOM      6  C   UNL     1      17.999 -25.217  24.592  1.00  0.00    -0.077 C 
ATOM      7  C   UNL     1      16.846 -25.719  25.423  1.00  0.00     0.039 C 
ATOM      8  C   UNL     1      19.207 -25.811  24.764  1.00  0.00    -0.023 CG0
ATOM      9  G   UNL     1      20.492 -25.526  24.009  1.00  0.00     0.000 G0
ENDBRANCH   5   6
ENDBRANCH   4   5
ENDBRANCH   2   4
BRANCH   1  10
ATOM     10  C   UNL     1      20.825 -22.272  25.100  1.00  0.00     0.111 C 
BRANCH  10  11
ATOM     11  C   UNL     1      21.756 -23.319  24.537  1.00  0.00     0.163 C 
ATOM     12  O   UNL     1      22.704 -22.913  23.812  1.00  0.00    -0.294 OA
BRANCH  11  13
ATOM     13  C   UNL     1      21.597 -24.792  24.777  1.00  0.00    -0.002 C 
ATOM     14  C   UNL     1      22.513 -25.477  25.531  1.00  0.00    -0.069 C 
ATOM     15  C   UNL     1      22.521 -26.987  25.604  1.00  0.00     0.039 C 
ATOM     16  C   UNL     1      23.539 -24.754  26.375  1.00  0.00     0.039 C 
BRANCH  13  17
ATOM     17  C   UNL     1      20.500 -25.523  24.012  1.00  0.00     0.066 CG0
ATOM     18  G   UNL     1      19.223 -25.819  24.777  1.00  0.00     0.000 G0
ENDBRANCH  13  17
ENDBRANCH  11  13
ENDBRANCH  10  11
ENDBRANCH   1  10
TORSDOF 0
ENDMDL
