MODEL 1
REMARK VINA RESULT:    -0.222      0.000      0.000
REMARK INTER + INTRA:          -0.600
REMARK INTER:                  -0.267
REMARK INTRA:                  -0.333
REMARK UNBOUND:                -0.333
REMARK SMILES O=c1c(O)c(-c2ccc(O)c(O)c2)oc2cc(O)cc(O)c12
REMARK SMILES IDX 5 1 3 2 2 3 1 4 22 5 20 6 19 7 17 8 16 9 15 10 14 11 6 12
REMARK SMILES IDX 7 13 8 14 9 15 13 16 11 17 10 18 12 20 4 22 21 24 18 26
REMARK H PARENT 10 19 12 21 4 23 21 25 18 27
REMARK Flexibility Score: inf
ROOT
ATOM      1  C   UNL     1      67.292  34.303  39.373  1.00  0.00     0.180 A 
ATOM      2  C   UNL     1      68.534  33.792  38.957  1.00  0.00     0.208 A 
ATOM      3  C   UNL     1      68.566  32.595  38.222  1.00  0.00     0.238 A 
ATOM      4  O   UNL     1      69.676  32.171  37.806  1.00  0.00    -0.285 OA
ATOM      5  C   UNL     1      67.359  31.918  37.928  1.00  0.00     0.111 A 
ATOM      6  C   UNL     1      67.277  30.678  37.226  1.00  0.00     0.134 A 
ATOM      7  C   UNL     1      66.022  30.163  36.876  1.00  0.00     0.093 A 
ATOM      8  C   UNL     1      64.848  30.808  37.259  1.00  0.00     0.123 A 
ATOM      9  C   UNL     1      64.915  31.991  37.998  1.00  0.00     0.094 A 
ATOM     10  C   UNL     1      66.153  32.548  38.331  1.00  0.00     0.146 A 
ATOM     11  O   UNL     1      66.174  33.679  39.025  1.00  0.00    -0.452 OA
ENDROOT
BRANCH   1  12
ATOM     12  C   UNL     1      67.180  35.545  40.172  1.00  0.00     0.025 A 
ATOM     13  C   UNL     1      67.263  35.523  41.574  1.00  0.00     0.016 A 
ATOM     14  C   UNL     1      67.130  36.705  42.309  1.00  0.00     0.051 A 
ATOM     15  C   UNL     1      66.899  37.922  41.653  1.00  0.00     0.157 A 
ATOM     16  C   UNL     1      66.928  36.765  39.521  1.00  0.00     0.062 A 
ATOM     17  C   UNL     1      66.795  37.951  40.257  1.00  0.00     0.158 A 
BRANCH  15  18
ATOM     18  O   UNL     1      66.767  39.103  42.382  1.00  0.00    -0.504 OA
ATOM     19  H   UNL     1      66.309  39.918  41.992  1.00  0.00     0.293 HD
ENDBRANCH  15  18
BRANCH  17  20
ATOM     20  O   UNL     1      66.559  39.162  39.608  1.00  0.00    -0.504 OA
ATOM     21  H   UNL     1      66.170  39.194  38.673  1.00  0.00     0.293 HD
ENDBRANCH  17  20
ENDBRANCH   1  12
BRANCH   2  22
ATOM     22  O   UNL     1      69.712  34.489  39.239  1.00  0.00    -0.502 OA
ATOM     23  H   UNL     1      70.037  35.263  38.672  1.00  0.00     0.293 HD
ENDBRANCH   2  22
BRANCH   6  24
ATOM     24  O   UNL     1      68.387  29.904  36.875  1.00  0.00    -0.507 OA
ATOM     25  H   UNL     1      68.817  29.212  37.472  1.00  0.00     0.293 HD
ENDBRANCH   6  24
BRANCH   8  26
ATOM     26  O   UNL     1      63.615  30.260  36.908  1.00  0.00    -0.508 OA
ATOM     27  H   UNL     1      63.412  29.980  35.956  1.00  0.00     0.293 HD
ENDBRANCH   8  26
TORSDOF 6
ENDMDL
MODEL 2
REMARK VINA RESULT:    -0.190      0.704      1.451
REMARK INTER + INTRA:          -0.561
REMARK INTER:                  -0.238
REMARK INTRA:                  -0.323
REMARK UNBOUND:                -0.333
REMARK SMILES O=c1c(O)c(-c2ccc(O)c(O)c2)oc2cc(O)cc(O)c12
REMARK SMILES IDX 5 1 3 2 2 3 1 4 22 5 20 6 19 7 17 8 16 9 15 10 14 11 6 12
REMARK SMILES IDX 7 13 8 14 9 15 13 16 11 17 10 18 12 20 4 22 21 24 18 26
REMARK H PARENT 10 19 12 21 4 23 21 25 18 27
REMARK Flexibility Score: inf
ROOT
ATOM      1  C   UNL     1      67.165  34.566  39.058  1.00  0.00     0.180 A 
ATOM      2  C   UNL     1      68.458  34.166  38.678  1.00  0.00     0.208 A 
ATOM      3  C   UNL     1      68.631  32.911  38.072  1.00  0.00     0.238 A 
ATOM      4  O   UNL     1      69.783  32.581  37.685  1.00  0.00    -0.285 OA
ATOM      5  C   UNL     1      67.514  32.067  37.868  1.00  0.00     0.111 A 
ATOM      6  C   UNL     1      67.579  30.759  37.300  1.00  0.00     0.134 A 
ATOM      7  C   UNL     1      66.395  30.064  37.025  1.00  0.00     0.093 A 
ATOM      8  C   UNL     1      65.152  30.602  37.357  1.00  0.00     0.123 A 
ATOM      9  C   UNL     1      65.079  31.855  37.968  1.00  0.00     0.094 A 
ATOM     10  C   UNL     1      66.242  32.587  38.222  1.00  0.00     0.146 A 
ATOM     11  O   UNL     1      66.128  33.780  38.794  1.00  0.00    -0.452 OA
ENDROOT
BRANCH   1  12
ATOM     12  C   UNL     1      66.906  35.863  39.725  1.00  0.00     0.025 A 
ATOM     13  C   UNL     1      66.647  37.028  38.984  1.00  0.00     0.016 A 
ATOM     14  C   UNL     1      66.429  38.246  39.634  1.00  0.00     0.051 A 
ATOM     15  C   UNL     1      66.481  38.319  41.033  1.00  0.00     0.157 A 
ATOM     16  C   UNL     1      66.978  35.946  41.125  1.00  0.00     0.062 A 
ATOM     17  C   UNL     1      66.759  37.167  41.779  1.00  0.00     0.158 A 
BRANCH  15  18
ATOM     18  O   UNL     1      66.264  39.531  41.685  1.00  0.00    -0.504 OA
ATOM     19  H   UNL     1      65.329  39.889  41.841  1.00  0.00     0.293 HD
ENDBRANCH  15  18
BRANCH  17  20
ATOM     20  O   UNL     1      66.818  37.244  43.169  1.00  0.00    -0.504 OA
ATOM     21  H   UNL     1      67.290  36.536  43.720  1.00  0.00     0.293 HD
ENDBRANCH  17  20
ENDBRANCH   1  12
BRANCH   2  22
ATOM     22  O   UNL     1      69.544  35.024  38.868  1.00  0.00    -0.502 OA
ATOM     23  H   UNL     1      69.458  35.917  39.338  1.00  0.00     0.293 HD
ENDBRANCH   2  22
BRANCH   6  24
ATOM     24  O   UNL     1      68.774  30.090  37.015  1.00  0.00    -0.507 OA
ATOM     25  H   UNL     1      68.866  29.335  36.352  1.00  0.00     0.293 HD
ENDBRANCH   6  24
BRANCH   8  26
ATOM     26  O   UNL     1      63.994  29.877  37.084  1.00  0.00    -0.508 OA
ATOM     27  H   UNL     1      63.678  29.133  37.695  1.00  0.00     0.293 HD
ENDBRANCH   8  26
TORSDOF 6
ENDMDL
MODEL 3
REMARK VINA RESULT:    -0.156      2.363      3.052
REMARK INTER + INTRA:          -0.521
REMARK INTER:                  -0.198
REMARK INTRA:                  -0.324
REMARK UNBOUND:                -0.333
REMARK SMILES O=c1c(O)c(-c2ccc(O)c(O)c2)oc2cc(O)cc(O)c12
REMARK SMILES IDX 5 1 3 2 2 3 1 4 22 5 20 6 19 7 17 8 16 9 15 10 14 11 6 12
REMARK SMILES IDX 7 13 8 14 9 15 13 16 11 17 10 18 12 20 4 22 21 24 18 26
REMARK H PARENT 10 19 12 21 4 23 21 25 18 27
REMARK Flexibility Score: inf
ROOT
ATOM      1  C   UNL     1      67.767  33.132  40.926  1.00  0.00     0.180 A 
ATOM      2  C   UNL     1      68.903  32.493  40.397  1.00  0.00     0.208 A 
ATOM      3  C   UNL     1      68.763  31.701  39.245  1.00  0.00     0.238 A 
ATOM      4  O   UNL     1      69.791  31.175  38.745  1.00  0.00    -0.285 OA
ATOM      5  C   UNL     1      67.489  31.545  38.648  1.00  0.00     0.111 A 
ATOM      6  C   UNL     1      67.224  30.735  37.503  1.00  0.00     0.134 A 
ATOM      7  C   UNL     1      65.952  30.757  36.919  1.00  0.00     0.093 A 
ATOM      8  C   UNL     1      64.918  31.509  37.475  1.00  0.00     0.123 A 
ATOM      9  C   UNL     1      65.149  32.259  38.630  1.00  0.00     0.094 A 
ATOM     10  C   UNL     1      66.418  32.285  39.214  1.00  0.00     0.146 A 
ATOM     11  O   UNL     1      66.599  33.019  40.306  1.00  0.00    -0.452 OA
ENDROOT
BRANCH   1  12
ATOM     12  C   UNL     1      67.831  33.962  42.151  1.00  0.00     0.025 A 
ATOM     13  C   UNL     1      68.100  35.339  42.089  1.00  0.00     0.016 A 
ATOM     14  C   UNL     1      68.179  36.097  43.260  1.00  0.00     0.051 A 
ATOM     15  C   UNL     1      68.003  35.487  44.510  1.00  0.00     0.157 A 
ATOM     16  C   UNL     1      67.676  33.351  43.407  1.00  0.00     0.062 A 
ATOM     17  C   UNL     1      67.754  34.112  44.583  1.00  0.00     0.158 A 
BRANCH  15  18
ATOM     18  O   UNL     1      68.080  36.241  45.680  1.00  0.00    -0.504 OA
ATOM     19  H   UNL     1      67.920  37.241  45.678  1.00  0.00     0.293 HD
ENDBRANCH  15  18
BRANCH  17  20
ATOM     20  O   UNL     1      67.586  33.506  45.827  1.00  0.00    -0.504 OA
ATOM     21  H   UNL     1      66.674  33.436  46.264  1.00  0.00     0.293 HD
ENDBRANCH  17  20
ENDBRANCH   1  12
BRANCH   2  22
ATOM     22  O   UNL     1      70.155  32.678  40.989  1.00  0.00    -0.502 OA
ATOM     23  H   UNL     1      71.021  32.457  40.513  1.00  0.00     0.293 HD
ENDBRANCH   2  22
BRANCH   6  24
ATOM     24  O   UNL     1      68.161  29.875  36.922  1.00  0.00    -0.507 OA
ATOM     25  H   UNL     1      68.394  28.957  37.272  1.00  0.00     0.293 HD
ENDBRANCH   6  24
BRANCH   8  26
ATOM     26  O   UNL     1      63.660  31.496  36.877  1.00  0.00    -0.508 OA
ATOM     27  H   UNL     1      62.916  32.107  37.195  1.00  0.00     0.293 HD
ENDBRANCH   8  26
TORSDOF 6
ENDMDL
MODEL 4
REMARK VINA RESULT:    -0.126      2.295      6.683
REMARK INTER + INTRA:          -0.485
REMARK INTER:                  -0.152
REMARK INTRA:                  -0.332
REMARK UNBOUND:                -0.333
REMARK SMILES O=c1c(O)c(-c2ccc(O)c(O)c2)oc2cc(O)cc(O)c12
REMARK SMILES IDX 5 1 3 2 2 3 1 4 22 5 20 6 19 7 17 8 16 9 15 10 14 11 6 12
REMARK SMILES IDX 7 13 8 14 9 15 13 16 11 17 10 18 12 20 4 22 21 24 18 26
REMARK H PARENT 10 19 12 21 4 23 21 25 18 27
REMARK Flexibility Score: inf
ROOT
ATOM      1  C   UNL     1      67.740  33.801  39.254  1.00  0.00     0.180 A 
ATOM      2  C   UNL     1      68.491  33.563  40.419  1.00  0.00     0.208 A 
ATOM      3  C   UNL     1      69.302  34.591  40.928  1.00  0.00     0.238 A 
ATOM      4  O   UNL     1      69.929  34.390  42.001  1.00  0.00    -0.285 OA
ATOM      5  C   UNL     1      69.364  35.836  40.258  1.00  0.00     0.111 A 
ATOM      6  C   UNL     1      70.183  36.933  40.661  1.00  0.00     0.134 A 
ATOM      7  C   UNL     1      70.068  38.162  39.999  1.00  0.00     0.093 A 
ATOM      8  C   UNL     1      69.214  38.314  38.909  1.00  0.00     0.123 A 
ATOM      9  C   UNL     1      68.451  37.231  38.467  1.00  0.00     0.094 A 
ATOM     10  C   UNL     1      68.518  36.003  39.130  1.00  0.00     0.146 A 
ATOM     11  O   UNL     1      67.770  35.000  38.685  1.00  0.00    -0.452 OA
ENDROOT
BRANCH   1  12
ATOM     12  C   UNL     1      66.883  32.759  38.644  1.00  0.00     0.025 A 
ATOM     13  C   UNL     1      67.400  31.832  37.724  1.00  0.00     0.016 A 
ATOM     14  C   UNL     1      66.567  30.872  37.143  1.00  0.00     0.051 A 
ATOM     15  C   UNL     1      65.202  30.835  37.462  1.00  0.00     0.157 A 
ATOM     16  C   UNL     1      65.511  32.731  38.944  1.00  0.00     0.062 A 
ATOM     17  C   UNL     1      64.673  31.768  38.362  1.00  0.00     0.158 A 
BRANCH  15  18
ATOM     18  O   UNL     1      64.368  29.879  36.885  1.00  0.00    -0.504 OA
ATOM     19  H   UNL     1      63.416  30.099  36.617  1.00  0.00     0.293 HD
ENDBRANCH  15  18
BRANCH  17  20
ATOM     20  O   UNL     1      63.315  31.733  38.672  1.00  0.00    -0.504 OA
ATOM     21  H   UNL     1      62.926  31.012  39.268  1.00  0.00     0.293 HD
ENDBRANCH  17  20
ENDBRANCH   1  12
BRANCH   2  22
ATOM     22  O   UNL     1      68.397  32.335  41.078  1.00  0.00    -0.502 OA
ATOM     23  H   UNL     1      68.632  32.221  42.057  1.00  0.00     0.293 HD
ENDBRANCH   2  22
BRANCH   6  24
ATOM     24  O   UNL     1      71.138  36.862  41.680  1.00  0.00    -0.507 OA
ATOM     25  H   UNL     1      71.289  37.576  42.378  1.00  0.00     0.293 HD
ENDBRANCH   6  24
BRANCH   8  26
ATOM     26  O   UNL     1      69.135  39.547  38.263  1.00  0.00    -0.508 OA
ATOM     27  H   UNL     1      69.907  39.908  37.715  1.00  0.00     0.293 HD
ENDBRANCH   8  26
TORSDOF 6
ENDMDL
MODEL 5
REMARK VINA RESULT:    -0.123      1.956      2.109
REMARK INTER + INTRA:          -0.481
REMARK INTER:                  -0.152
REMARK INTRA:                  -0.329
REMARK UNBOUND:                -0.333
REMARK SMILES O=c1c(O)c(-c2ccc(O)c(O)c2)oc2cc(O)cc(O)c12
REMARK SMILES IDX 5 1 3 2 2 3 1 4 22 5 20 6 19 7 17 8 16 9 15 10 14 11 6 12
REMARK SMILES IDX 7 13 8 14 9 15 13 16 11 17 10 18 12 20 4 22 21 24 18 26
REMARK H PARENT 10 19 12 21 4 23 21 25 18 27
REMARK Flexibility Score: inf
ROOT
ATOM      1  C   UNL     1      65.674  34.828  40.264  1.00  0.00     0.180 A 
ATOM      2  C   UNL     1      67.061  34.652  40.123  1.00  0.00     0.208 A 
ATOM      3  C   UNL     1      67.536  33.566  39.370  1.00  0.00     0.238 A 
ATOM      4  O   UNL     1      68.778  33.444  39.201  1.00  0.00    -0.285 OA
ATOM      5  C   UNL     1      66.619  32.661  38.783  1.00  0.00     0.111 A 
ATOM      6  C   UNL     1      66.990  31.504  38.034  1.00  0.00     0.134 A 
ATOM      7  C   UNL     1      66.000  30.752  37.388  1.00  0.00     0.093 A 
ATOM      8  C   UNL     1      64.651  31.077  37.518  1.00  0.00     0.123 A 
ATOM      9  C   UNL     1      64.272  32.172  38.297  1.00  0.00     0.094 A 
ATOM     10  C   UNL     1      65.239  32.962  38.924  1.00  0.00     0.146 A 
ATOM     11  O   UNL     1      64.839  34.000  39.647  1.00  0.00    -0.452 OA
ENDROOT
BRANCH   1  12
ATOM     12  C   UNL     1      65.098  35.934  41.063  1.00  0.00     0.025 A 
ATOM     13  C   UNL     1      64.922  35.819  42.452  1.00  0.00     0.016 A 
ATOM     14  C   UNL     1      64.354  36.867  43.183  1.00  0.00     0.051 A 
ATOM     15  C   UNL     1      63.942  38.039  42.533  1.00  0.00     0.157 A 
ATOM     16  C   UNL     1      64.664  37.102  40.414  1.00  0.00     0.062 A 
ATOM     17  C   UNL     1      64.095  38.155  41.146  1.00  0.00     0.158 A 
BRANCH  15  18
ATOM     18  O   UNL     1      63.377  39.086  43.257  1.00  0.00    -0.504 OA
ATOM     19  H   UNL     1      62.451  39.011  43.663  1.00  0.00     0.293 HD
ENDBRANCH  15  18
BRANCH  17  20
ATOM     20  O   UNL     1      63.678  39.318  40.501  1.00  0.00    -0.504 OA
ATOM     21  H   UNL     1      63.926  39.507  39.537  1.00  0.00     0.293 HD
ENDBRANCH  17  20
ENDBRANCH   1  12
BRANCH   2  22
ATOM     22  O   UNL     1      67.949  35.570  40.692  1.00  0.00    -0.502 OA
ATOM     23  H   UNL     1      68.694  35.290  41.318  1.00  0.00     0.293 HD
ENDBRANCH   2  22
BRANCH   6  24
ATOM     24  O   UNL     1      68.302  31.038  37.916  1.00  0.00    -0.507 OA
ATOM     25  H   UNL     1      68.804  30.947  37.045  1.00  0.00     0.293 HD
ENDBRANCH   6  24
BRANCH   8  26
ATOM     26  O   UNL     1      63.691  30.298  36.875  1.00  0.00    -0.508 OA
ATOM     27  H   UNL     1      63.238  30.611  36.024  1.00  0.00     0.293 HD
ENDBRANCH   8  26
TORSDOF 6
ENDMDL
MODEL 6
REMARK VINA RESULT:    -0.113      2.183      3.427
REMARK INTER + INTRA:          -0.469
REMARK INTER:                  -0.150
REMARK INTRA:                  -0.318
REMARK UNBOUND:                -0.333
REMARK SMILES O=c1c(O)c(-c2ccc(O)c(O)c2)oc2cc(O)cc(O)c12
REMARK SMILES IDX 5 1 3 2 2 3 1 4 22 5 20 6 19 7 17 8 16 9 15 10 14 11 6 12
REMARK SMILES IDX 7 13 8 14 9 15 13 16 11 17 10 18 12 20 4 22 21 24 18 26
REMARK H PARENT 10 19 12 21 4 23 21 25 18 27
REMARK Flexibility Score: inf
ROOT
ATOM      1  C   UNL     1      68.181  35.167  38.460  1.00  0.00     0.180 A 
ATOM      2  C   UNL     1      66.814  34.838  38.473  1.00  0.00     0.208 A 
ATOM      3  C   UNL     1      66.423  33.541  38.100  1.00  0.00     0.238 A 
ATOM      4  O   UNL     1      65.203  33.237  38.165  1.00  0.00    -0.285 OA
ATOM      5  C   UNL     1      67.400  32.597  37.705  1.00  0.00     0.111 A 
ATOM      6  C   UNL     1      67.113  31.268  37.270  1.00  0.00     0.134 A 
ATOM      7  C   UNL     1      68.166  30.377  37.027  1.00  0.00     0.093 A 
ATOM      8  C   UNL     1      69.494  30.785  37.140  1.00  0.00     0.123 A 
ATOM      9  C   UNL     1      69.787  32.100  37.507  1.00  0.00     0.094 A 
ATOM     10  C   UNL     1      68.758  33.001  37.791  1.00  0.00     0.146 A 
ATOM     11  O   UNL     1      69.078  34.239  38.147  1.00  0.00    -0.452 OA
ENDROOT
BRANCH   1  12
ATOM     12  C   UNL     1      68.669  36.520  38.814  1.00  0.00     0.025 A 
ATOM     13  C   UNL     1      69.062  36.835  40.126  1.00  0.00     0.016 A 
ATOM     14  C   UNL     1      69.496  38.125  40.442  1.00  0.00     0.051 A 
ATOM     15  C   UNL     1      69.531  39.121  39.456  1.00  0.00     0.157 A 
ATOM     16  C   UNL     1      68.685  37.526  37.835  1.00  0.00     0.062 A 
ATOM     17  C   UNL     1      69.122  38.821  38.151  1.00  0.00     0.158 A 
BRANCH  15  18
ATOM     18  O   UNL     1      69.964  40.408  39.768  1.00  0.00    -0.504 OA
ATOM     19  H   UNL     1      70.829  40.782  39.395  1.00  0.00     0.293 HD
ENDBRANCH  15  18
BRANCH  17  20
ATOM     20  O   UNL     1      69.150  39.815  37.174  1.00  0.00    -0.504 OA
ATOM     21  H   UNL     1      69.798  40.592  37.229  1.00  0.00     0.293 HD
ENDBRANCH  17  20
ENDBRANCH   1  12
BRANCH   2  22
ATOM     22  O   UNL     1      65.868  35.779  38.888  1.00  0.00    -0.502 OA
ATOM     23  H   UNL     1      65.385  36.388  38.239  1.00  0.00     0.293 HD
ENDBRANCH   2  22
BRANCH   6  24
ATOM     24  O   UNL     1      65.822  30.785  37.035  1.00  0.00    -0.507 OA
ATOM     25  H   UNL     1      65.410  30.665  36.121  1.00  0.00     0.293 HD
ENDBRANCH   6  24
BRANCH   8  26
ATOM     26  O   UNL     1      70.517  29.878  36.876  1.00  0.00    -0.508 OA
ATOM     27  H   UNL     1      71.265  30.096  36.227  1.00  0.00     0.293 HD
ENDBRANCH   8  26
TORSDOF 6
ENDMDL
MODEL 7
REMARK VINA RESULT:    -0.111      2.993      4.387
REMARK INTER + INTRA:          -0.467
REMARK INTER:                  -0.136
REMARK INTRA:                  -0.331
REMARK UNBOUND:                -0.333
REMARK SMILES O=c1c(O)c(-c2ccc(O)c(O)c2)oc2cc(O)cc(O)c12
REMARK SMILES IDX 5 1 3 2 2 3 1 4 22 5 20 6 19 7 17 8 16 9 15 10 14 11 6 12
REMARK SMILES IDX 7 13 8 14 9 15 13 16 11 17 10 18 12 20 4 22 21 24 18 26
REMARK H PARENT 10 19 12 21 4 23 21 25 18 27
REMARK Flexibility Score: inf
ROOT
ATOM      1  C   UNL     1      66.256  33.986  41.271  1.00  0.00     0.180 A 
ATOM      2  C   UNL     1      65.177  34.778  40.840  1.00  0.00     0.208 A 
ATOM      3  C   UNL     1      64.549  34.468  39.622  1.00  0.00     0.238 A 
ATOM      4  O   UNL     1      63.550  35.148  39.268  1.00  0.00    -0.285 OA
ATOM      5  C   UNL     1      65.017  33.382  38.845  1.00  0.00     0.111 A 
ATOM      6  C   UNL     1      64.482  33.003  37.578  1.00  0.00     0.134 A 
ATOM      7  C   UNL     1      64.936  31.832  36.957  1.00  0.00     0.093 A 
ATOM      8  C   UNL     1      65.950  31.063  37.527  1.00  0.00     0.123 A 
ATOM      9  C   UNL     1      66.522  31.456  38.738  1.00  0.00     0.094 A 
ATOM     10  C   UNL     1      66.066  32.600  39.398  1.00  0.00     0.146 A 
ATOM     11  O   UNL     1      66.629  32.935  40.552  1.00  0.00    -0.452 OA
ENDROOT
BRANCH   1  12
ATOM     12  C   UNL     1      66.984  34.266  42.530  1.00  0.00     0.025 A 
ATOM     13  C   UNL     1      68.095  35.125  42.557  1.00  0.00     0.016 A 
ATOM     14  C   UNL     1      68.782  35.356  43.752  1.00  0.00     0.051 A 
ATOM     15  C   UNL     1      68.376  34.721  44.934  1.00  0.00     0.157 A 
ATOM     16  C   UNL     1      66.594  33.616  43.713  1.00  0.00     0.062 A 
ATOM     17  C   UNL     1      67.282  33.847  44.913  1.00  0.00     0.158 A 
BRANCH  15  18
ATOM     18  O   UNL     1      69.057  34.949  46.128  1.00  0.00    -0.504 OA
ATOM     19  H   UNL     1      69.008  34.294  46.900  1.00  0.00     0.293 HD
ENDBRANCH  15  18
BRANCH  17  20
ATOM     20  O   UNL     1      66.884  33.211  46.088  1.00  0.00    -0.504 OA
ATOM     21  H   UNL     1      66.805  32.202  46.143  1.00  0.00     0.293 HD
ENDBRANCH  17  20
ENDBRANCH   1  12
BRANCH   2  22
ATOM     22  O   UNL     1      64.717  35.833  41.633  1.00  0.00    -0.502 OA
ATOM     23  H   UNL     1      65.339  36.415  42.180  1.00  0.00     0.293 HD
ENDBRANCH   2  22
BRANCH   6  24
ATOM     24  O   UNL     1      63.531  33.750  36.877  1.00  0.00    -0.507 OA
ATOM     25  H   UNL     1      63.745  34.517  36.257  1.00  0.00     0.293 HD
ENDBRANCH   6  24
BRANCH   8  26
ATOM     26  O   UNL     1      66.389  29.912  36.875  1.00  0.00    -0.508 OA
ATOM     27  H   UNL     1      66.120  29.709  35.919  1.00  0.00     0.293 HD
ENDBRANCH   8  26
TORSDOF 6
ENDMDL
MODEL 8
REMARK VINA RESULT:    -0.107      2.766      7.083
REMARK INTER + INTRA:          -0.462
REMARK INTER:                  -0.130
REMARK INTRA:                  -0.331
REMARK UNBOUND:                -0.333
REMARK SMILES O=c1c(O)c(-c2ccc(O)c(O)c2)oc2cc(O)cc(O)c12
REMARK SMILES IDX 5 1 3 2 2 3 1 4 22 5 20 6 19 7 17 8 16 9 15 10 14 11 6 12
REMARK SMILES IDX 7 13 8 14 9 15 13 16 11 17 10 18 12 20 4 22 21 24 18 26
REMARK H PARENT 10 19 12 21 4 23 21 25 18 27
REMARK Flexibility Score: inf
ROOT
ATOM      1  C   UNL     1      68.725  33.001  40.445  1.00  0.00     0.180 A 
ATOM      2  C   UNL     1      69.659  32.432  41.329  1.00  0.00     0.208 A 
ATOM      3  C   UNL     1      70.408  33.278  42.164  1.00  0.00     0.238 A 
ATOM      4  O   UNL     1      71.203  32.759  42.991  1.00  0.00    -0.285 OA
ATOM      5  C   UNL     1      70.226  34.679  42.093  1.00  0.00     0.111 A 
ATOM      6  C   UNL     1      70.960  35.632  42.863  1.00  0.00     0.134 A 
ATOM      7  C   UNL     1      70.606  36.986  42.807  1.00  0.00     0.093 A 
ATOM      8  C   UNL     1      69.591  37.430  41.961  1.00  0.00     0.123 A 
ATOM      9  C   UNL     1      68.906  36.515  41.159  1.00  0.00     0.094 A 
ATOM     10  C   UNL     1      69.212  35.153  41.220  1.00  0.00     0.146 A 
ATOM     11  O   UNL     1      68.531  34.314  40.449  1.00  0.00    -0.452 OA
ENDROOT
BRANCH   1  12
ATOM     12  C   UNL     1      67.917  32.177  39.517  1.00  0.00     0.025 A 
ATOM     13  C   UNL     1      68.382  31.855  38.231  1.00  0.00     0.016 A 
ATOM     14  C   UNL     1      67.592  31.097  37.363  1.00  0.00     0.051 A 
ATOM     15  C   UNL     1      66.321  30.661  37.763  1.00  0.00     0.157 A 
ATOM     16  C   UNL     1      66.634  31.757  39.905  1.00  0.00     0.062 A 
ATOM     17  C   UNL     1      65.840  30.995  39.036  1.00  0.00     0.158 A 
BRANCH  15  18
ATOM     18  O   UNL     1      65.530  29.904  36.901  1.00  0.00    -0.504 OA
ATOM     19  H   UNL     1      64.537  29.783  37.061  1.00  0.00     0.293 HD
ENDBRANCH  15  18
BRANCH  17  20
ATOM     20  O   UNL     1      64.573  30.567  39.428  1.00  0.00    -0.504 OA
ATOM     21  H   UNL     1      63.757  30.728  38.849  1.00  0.00     0.293 HD
ENDBRANCH  17  20
ENDBRANCH   1  12
BRANCH   2  22
ATOM     22  O   UNL     1      69.807  31.045  41.399  1.00  0.00    -0.502 OA
ATOM     23  H   UNL     1      69.081  30.437  41.760  1.00  0.00     0.293 HD
ENDBRANCH   2  22
BRANCH   6  24
ATOM     24  O   UNL     1      72.053  35.306  43.671  1.00  0.00    -0.507 OA
ATOM     25  H   UNL     1      72.045  34.601  44.393  1.00  0.00     0.293 HD
ENDBRANCH   6  24
BRANCH   8  26
ATOM     26  O   UNL     1      69.276  38.786  41.919  1.00  0.00    -0.508 OA
ATOM     27  H   UNL     1      69.650  39.395  41.200  1.00  0.00     0.293 HD
ENDBRANCH   8  26
TORSDOF 6
ENDMDL
MODEL 9
REMARK VINA RESULT:    -0.106      2.729      7.163
REMARK INTER + INTRA:          -0.461
REMARK INTER:                  -0.130
REMARK INTRA:                  -0.331
REMARK UNBOUND:                -0.333
REMARK SMILES O=c1c(O)c(-c2ccc(O)c(O)c2)oc2cc(O)cc(O)c12
REMARK SMILES IDX 5 1 3 2 2 3 1 4 22 5 20 6 19 7 17 8 16 9 15 10 14 11 6 12
REMARK SMILES IDX 7 13 8 14 9 15 13 16 11 17 10 18 12 20 4 22 21 24 18 26
REMARK H PARENT 10 19 12 21 4 23 21 25 18 27
REMARK Flexibility Score: inf
ROOT
ATOM      1  C   UNL     1      67.150  33.572  40.896  1.00  0.00     0.180 A 
ATOM      2  C   UNL     1      67.136  34.972  40.759  1.00  0.00     0.208 A 
ATOM      3  C   UNL     1      67.633  35.763  41.807  1.00  0.00     0.238 A 
ATOM      4  O   UNL     1      67.667  37.013  41.657  1.00  0.00    -0.285 OA
ATOM      5  C   UNL     1      68.122  35.148  42.984  1.00  0.00     0.111 A 
ATOM      6  C   UNL     1      68.612  35.853  44.124  1.00  0.00     0.134 A 
ATOM      7  C   UNL     1      69.192  35.142  45.181  1.00  0.00     0.093 A 
ATOM      8  C   UNL     1      69.242  33.749  45.169  1.00  0.00     0.123 A 
ATOM      9  C   UNL     1      68.713  33.045  44.085  1.00  0.00     0.094 A 
ATOM     10  C   UNL     1      68.159  33.729  43.000  1.00  0.00     0.146 A 
ATOM     11  O   UNL     1      67.675  33.023  41.985  1.00  0.00    -0.452 OA
ENDROOT
BRANCH   1  12
ATOM     12  C   UNL     1      66.620  32.673  39.846  1.00  0.00     0.025 A 
ATOM     13  C   UNL     1      65.274  32.269  39.839  1.00  0.00     0.016 A 
ATOM     14  C   UNL     1      64.802  31.400  38.851  1.00  0.00     0.051 A 
ATOM     15  C   UNL     1      65.671  30.912  37.865  1.00  0.00     0.157 A 
ATOM     16  C   UNL     1      67.492  32.164  38.868  1.00  0.00     0.062 A 
ATOM     17  C   UNL     1      67.019  31.293  37.876  1.00  0.00     0.158 A 
BRANCH  15  18
ATOM     18  O   UNL     1      65.204  30.047  36.878  1.00  0.00    -0.504 OA
ATOM     19  H   UNL     1      65.797  29.745  36.114  1.00  0.00     0.293 HD
ENDBRANCH  15  18
BRANCH  17  20
ATOM     20  O   UNL     1      67.882  30.801  36.899  1.00  0.00    -0.504 OA
ATOM     21  H   UNL     1      68.220  29.845  36.923  1.00  0.00     0.293 HD
ENDBRANCH  17  20
ENDBRANCH   1  12
BRANCH   2  22
ATOM     22  O   UNL     1      66.669  35.558  39.580  1.00  0.00    -0.502 OA
ATOM     23  H   UNL     1      67.130  35.430  38.687  1.00  0.00     0.293 HD
ENDBRANCH   2  22
BRANCH   6  24
ATOM     24  O   UNL     1      68.527  37.240  44.279  1.00  0.00    -0.507 OA
ATOM     25  H   UNL     1      68.587  37.908  43.524  1.00  0.00     0.293 HD
ENDBRANCH   6  24
BRANCH   8  26
ATOM     26  O   UNL     1      69.813  33.071  46.244  1.00  0.00    -0.508 OA
ATOM     27  H   UNL     1      70.257  32.168  46.126  1.00  0.00     0.293 HD
ENDBRANCH   8  26
TORSDOF 6
ENDMDL
