MODEL 1
REMARK VINA RESULT:    -3.492      0.000      0.000
REMARK INTER + INTRA:          -4.435
REMARK INTER:                  -4.921
REMARK INTRA:                   0.487
REMARK UNBOUND:                 0.487
REMARK SMILES CC1=CCC(=C(C)C)CCC(C)=CCC1
REMARK SMILES IDX 5 1 6 2 7 3 8 4 9 5 10 6 11 7 12 8 13 9 4 11 3 12 2 13 1 14
REMARK SMILES IDX 15 15 14 16
REMARK H PARENT
REMARK Flexibility Score: 60.00
ROOT
ATOM      1  C   UNL     1      29.269  26.841  11.893  1.00  0.00    -0.067 C 
ATOM      2  C   UNL     1      28.838  28.117  11.628  1.00  0.00    -0.077 C 
ATOM      3  C   UNL     1      27.362  28.460  11.542  1.00  0.00     0.039 C 
ATOM      4  C   UNL     1      29.827  29.239  11.381  1.00  0.00     0.039 C 
ENDROOT
BRANCH   1   5
ATOM      5  C   UNL     1      28.257  25.729  12.190  1.00  0.00     0.035 C 
BRANCH   5   6
ATOM      6  C   UNL     1      28.764  24.331  11.770  1.00  0.00     0.035 C 
BRANCH   6   7
ATOM      7  C   UNL     1      29.012  23.416  12.958  1.00  0.00    -0.077 C 
ATOM      8  C   UNL     1      27.990  23.374  14.065  1.00  0.00     0.039 C 
ATOM      9  C   UNL     1      30.115  22.644  13.083  1.00  0.00    -0.028 CG0
ATOM     10  G   UNL     1      31.207  22.504  12.049  1.00  0.00     0.000 G0
ENDBRANCH   6   7
ENDBRANCH   5   6
ENDBRANCH   1   5
BRANCH   1  11
ATOM     11  C   UNL     1      30.770  26.535  11.844  1.00  0.00     0.058 C 
BRANCH  11  12
ATOM     12  C   UNL     1      31.231  25.775  10.624  1.00  0.00    -0.024 C 
ATOM     13  C   UNL     1      31.776  24.537  10.632  1.00  0.00    -0.077 C 
ATOM     14  C   UNL     1      32.124  23.913   9.304  1.00  0.00     0.039 C 
BRANCH  13  15
ATOM     15  C   UNL     1      32.061  23.758  11.908  1.00  0.00     0.034 C 
BRANCH  15  16
ATOM     16  C   UNL     1      31.211  22.487  12.048  1.00  0.00     0.032 CG0
ATOM     17  G   UNL     1      30.130  22.657  13.089  1.00  0.00     0.000 G0
ENDBRANCH  15  16
ENDBRANCH  13  15
ENDBRANCH  11  12
ENDBRANCH   1  11
TORSDOF 0
ENDMDL
MODEL 2
REMARK VINA RESULT:    -3.429      1.329      1.988
REMARK INTER + INTRA:          -4.345
REMARK INTER:                  -4.808
REMARK INTRA:                   0.462
REMARK UNBOUND:                 0.487
REMARK SMILES CC1=CCC(=C(C)C)CCC(C)=CCC1
REMARK SMILES IDX 5 1 6 2 7 3 8 4 9 5 10 6 11 7 12 8 13 9 4 11 3 12 2 13 1 14
REMARK SMILES IDX 15 15 14 16
REMARK H PARENT
REMARK Flexibility Score: 60.00
ROOT
ATOM      1  C   UNL     1      30.656  26.628  11.638  1.00  0.00    -0.067 C 
ATOM      2  C   UNL     1      30.828  27.989  11.676  1.00  0.00    -0.077 C 
ATOM      3  C   UNL     1      29.784  28.942  11.126  1.00  0.00     0.039 C 
ATOM      4  C   UNL     1      32.092  28.600  12.249  1.00  0.00     0.039 C 
ENDROOT
BRANCH   1   5
ATOM      5  C   UNL     1      29.352  26.028  11.102  1.00  0.00     0.035 C 
BRANCH   5   6
ATOM      6  C   UNL     1      28.319  25.746  12.216  1.00  0.00     0.035 C 
BRANCH   6   7
ATOM      7  C   UNL     1      28.035  24.264  12.389  1.00  0.00    -0.077 C 
ATOM      8  C   UNL     1      26.816  23.678  11.724  1.00  0.00     0.039 C 
ATOM      9  C   UNL     1      28.815  23.439  13.125  1.00  0.00    -0.028 CG0
ATOM     10  G   UNL     1      30.106  23.830  13.804  1.00  0.00     0.000 G0
ENDBRANCH   6   7
ENDBRANCH   5   6
ENDBRANCH   1   5
BRANCH   1  11
ATOM     11  C   UNL     1      31.800  25.718  12.097  1.00  0.00     0.058 C 
BRANCH  11  12
ATOM     12  C   UNL     1      31.913  24.406  11.359  1.00  0.00    -0.024 C 
ATOM     13  C   UNL     1      31.664  23.186  11.887  1.00  0.00    -0.077 C 
ATOM     14  C   UNL     1      31.774  21.989  10.977  1.00  0.00     0.039 C 
BRANCH  13  15
ATOM     15  C   UNL     1      31.292  22.968  13.347  1.00  0.00     0.034 C 
BRANCH  15  16
ATOM     16  C   UNL     1      30.103  23.825  13.806  1.00  0.00     0.032 CG0
ATOM     17  G   UNL     1      28.829  23.427  13.099  1.00  0.00     0.000 G0
ENDBRANCH  15  16
ENDBRANCH  13  15
ENDBRANCH  11  12
ENDBRANCH   1  11
TORSDOF 0
ENDMDL
MODEL 3
REMARK VINA RESULT:    -3.301      1.152      3.233
REMARK INTER + INTRA:          -4.166
REMARK INTER:                  -4.677
REMARK INTRA:                   0.512
REMARK UNBOUND:                 0.487
REMARK SMILES CC1=CCC(=C(C)C)CCC(C)=CCC1
REMARK SMILES IDX 5 1 6 2 7 3 8 4 9 5 10 6 11 7 12 8 13 9 4 11 3 12 2 13 1 14
REMARK SMILES IDX 15 15 14 16
REMARK H PARENT
REMARK Flexibility Score: 60.00
ROOT
ATOM      1  C   UNL     1      30.204  27.032  11.323  1.00  0.00    -0.067 C 
ATOM      2  C   UNL     1      30.589  28.349  11.332  1.00  0.00    -0.077 C 
ATOM      3  C   UNL     1      31.780  28.839  10.529  1.00  0.00     0.039 C 
ATOM      4  C   UNL     1      29.853  29.372  12.175  1.00  0.00     0.039 C 
ENDROOT
BRANCH   1   5
ATOM      5  C   UNL     1      30.927  26.020  10.428  1.00  0.00     0.035 C 
BRANCH   5   6
ATOM      6  C   UNL     1      31.836  25.058  11.225  1.00  0.00     0.035 C 
BRANCH   6   7
ATOM      7  C   UNL     1      31.349  23.619  11.178  1.00  0.00    -0.077 C 
ATOM      8  C   UNL     1      31.782  22.745  10.030  1.00  0.00     0.039 C 
ATOM      9  C   UNL     1      30.530  23.082  12.111  1.00  0.00    -0.028 CG0
ATOM     10  G   UNL     1      30.051  23.781  13.362  1.00  0.00     0.000 G0
ENDBRANCH   6   7
ENDBRANCH   5   6
ENDBRANCH   1   5
BRANCH   1  11
ATOM     11  C   UNL     1      29.071  26.580  12.251  1.00  0.00     0.058 C 
BRANCH  11  12
ATOM     12  C   UNL     1      28.130  25.555  11.665  1.00  0.00    -0.024 C 
ATOM     13  C   UNL     1      27.855  24.345  12.204  1.00  0.00    -0.077 C 
ATOM     14  C   UNL     1      26.841  23.477  11.503  1.00  0.00     0.039 C 
BRANCH  13  15
ATOM     15  C   UNL     1      28.524  23.822  13.467  1.00  0.00     0.034 C 
BRANCH  15  16
ATOM     16  C   UNL     1      30.057  23.786  13.374  1.00  0.00     0.032 CG0
ATOM     17  G   UNL     1      30.518  23.092  12.114  1.00  0.00     0.000 G0
ENDBRANCH  15  16
ENDBRANCH  13  15
ENDBRANCH  11  12
ENDBRANCH   1  11
TORSDOF 0
ENDMDL
MODEL 4
REMARK VINA RESULT:    -3.236      2.037      5.440
REMARK INTER + INTRA:          -4.074
REMARK INTER:                  -4.150
REMARK INTRA:                   0.076
REMARK UNBOUND:                 0.487
REMARK SMILES CC1=CCC(=C(C)C)CCC(C)=CCC1
REMARK SMILES IDX 5 1 6 2 7 3 8 4 9 5 10 6 11 7 12 8 13 9 4 11 3 12 2 13 1 14
REMARK SMILES IDX 15 15 14 16
REMARK H PARENT
REMARK Flexibility Score: 60.00
ROOT
ATOM      1  C   UNL     1      31.119  22.889  13.096  1.00  0.00    -0.067 C 
ATOM      2  C   UNL     1      31.204  21.530  12.928  1.00  0.00    -0.077 C 
ATOM      3  C   UNL     1      32.068  20.912  11.845  1.00  0.00     0.039 C 
ATOM      4  C   UNL     1      30.408  20.583  13.805  1.00  0.00     0.039 C 
ENDROOT
BRANCH   1   5
ATOM      5  C   UNL     1      31.967  23.831  12.234  1.00  0.00     0.035 C 
BRANCH   5   6
ATOM      6  C   UNL     1      31.347  24.091  10.843  1.00  0.00     0.035 C 
BRANCH   6   7
ATOM      7  C   UNL     1      31.018  25.556  10.613  1.00  0.00    -0.077 C 
ATOM      8  C   UNL     1      32.125  26.488  10.190  1.00  0.00     0.039 C 
ATOM      9  C   UNL     1      29.781  26.076  10.782  1.00  0.00    -0.028 CG0
ATOM     10  G   UNL     1      28.541  25.287  11.133  1.00  0.00     0.000 G0
ENDBRANCH   6   7
ENDBRANCH   5   6
ENDBRANCH   1   5
BRANCH   1  11
ATOM     11  C   UNL     1      30.133  23.453  14.126  1.00  0.00     0.058 C 
BRANCH  11  12
ATOM     12  C   UNL     1      28.679  23.153  13.855  1.00  0.00    -0.024 C 
ATOM     13  C   UNL     1      27.831  23.945  13.160  1.00  0.00    -0.077 C 
ATOM     14  C   UNL     1      26.424  23.450  12.941  1.00  0.00     0.039 C 
BRANCH  13  15
ATOM     15  C   UNL     1      28.227  25.306  12.604  1.00  0.00     0.034 C 
BRANCH  15  16
ATOM     16  C   UNL     1      28.557  25.278  11.105  1.00  0.00     0.032 CG0
ATOM     17  G   UNL     1      29.775  26.114  10.791  1.00  0.00     0.000 G0
ENDBRANCH  15  16
ENDBRANCH  13  15
ENDBRANCH  11  12
ENDBRANCH   1  11
TORSDOF 0
ENDMDL
MODEL 5
REMARK VINA RESULT:    -3.074      1.697      3.428
REMARK INTER + INTRA:          -3.845
REMARK INTER:                  -5.234
REMARK INTRA:                   1.389
REMARK UNBOUND:                 0.487
REMARK SMILES CC1=CCC(=C(C)C)CCC(C)=CCC1
REMARK SMILES IDX 5 1 6 2 7 3 8 4 9 5 10 6 11 7 12 8 13 9 4 11 3 12 2 13 1 14
REMARK SMILES IDX 15 15 14 16
REMARK H PARENT
REMARK Flexibility Score: 60.00
ROOT
ATOM      1  C   UNL     1      29.503  25.816  11.270  1.00  0.00    -0.067 C 
ATOM      2  C   UNL     1      29.143  27.127  11.082  1.00  0.00    -0.077 C 
ATOM      3  C   UNL     1      29.874  28.023  10.100  1.00  0.00     0.039 C 
ATOM      4  C   UNL     1      28.009  27.747  11.875  1.00  0.00     0.039 C 
ENDROOT
BRANCH   1   5
ATOM      5  C   UNL     1      30.619  25.191  10.425  1.00  0.00     0.035 C 
BRANCH   5   6
ATOM      6  C   UNL     1      32.003  25.271  11.108  1.00  0.00     0.035 C 
BRANCH   6   7
ATOM      7  C   UNL     1      32.001  26.170  12.333  1.00  0.00    -0.077 C 
ATOM      8  C   UNL     1      31.932  27.662  12.136  1.00  0.00     0.039 C 
ATOM      9  C   UNL     1      32.071  25.700  13.600  1.00  0.00    -0.028 CG0
ATOM     10  G   UNL     1      32.077  24.242  13.993  1.00  0.00     0.000 G0
ENDBRANCH   6   7
ENDBRANCH   5   6
ENDBRANCH   1   5
BRANCH   1  11
ATOM     11  C   UNL     1      28.806  25.000  12.364  1.00  0.00     0.058 C 
BRANCH  11  12
ATOM     12  C   UNL     1      29.174  23.537  12.408  1.00  0.00    -0.024 C 
ATOM     13  C   UNL     1      29.982  22.960  13.327  1.00  0.00    -0.077 C 
ATOM     14  C   UNL     1      30.188  21.468  13.244  1.00  0.00     0.039 C 
BRANCH  13  15
ATOM     15  C   UNL     1      30.694  23.741  14.422  1.00  0.00     0.034 C 
BRANCH  15  16
ATOM     16  C   UNL     1      32.090  24.232  14.011  1.00  0.00     0.032 CG0
ATOM     17  G   UNL     1      32.069  25.690  13.617  1.00  0.00     0.000 G0
ENDBRANCH  15  16
ENDBRANCH  13  15
ENDBRANCH  11  12
ENDBRANCH   1  11
TORSDOF 0
ENDMDL
MODEL 6
REMARK VINA RESULT:    -2.865      1.622      3.559
REMARK INTER + INTRA:          -3.551
REMARK INTER:                  -4.015
REMARK INTRA:                   0.464
REMARK UNBOUND:                 0.487
REMARK SMILES CC1=CCC(=C(C)C)CCC(C)=CCC1
REMARK SMILES IDX 5 1 6 2 7 3 8 4 9 5 10 6 11 7 12 8 13 9 4 11 3 12 2 13 1 14
REMARK SMILES IDX 15 15 14 16
REMARK H PARENT
REMARK Flexibility Score: 60.00
ROOT
ATOM      1  C   UNL     1      29.611  27.171  12.369  1.00  0.00    -0.067 C 
ATOM      2  C   UNL     1      28.984  28.315  11.946  1.00  0.00    -0.077 C 
ATOM      3  C   UNL     1      29.559  29.691  12.225  1.00  0.00     0.039 C 
ATOM      4  C   UNL     1      27.665  28.253  11.201  1.00  0.00     0.039 C 
ENDROOT
BRANCH   1   5
ATOM      5  C   UNL     1      30.968  27.249  13.077  1.00  0.00     0.035 C 
BRANCH   5   6
ATOM      6  C   UNL     1      32.098  26.555  12.284  1.00  0.00     0.035 C 
BRANCH   6   7
ATOM      7  C   UNL     1      31.973  26.761  10.784  1.00  0.00    -0.077 C 
ATOM      8  C   UNL     1      31.948  28.169  10.247  1.00  0.00     0.039 C 
ATOM      9  C   UNL     1      31.869  25.743   9.900  1.00  0.00    -0.028 CG0
ATOM     10  G   UNL     1      31.944  24.274  10.244  1.00  0.00     0.000 G0
ENDBRANCH   6   7
ENDBRANCH   5   6
ENDBRANCH   1   5
BRANCH   1  11
ATOM     11  C   UNL     1      28.917  25.820  12.164  1.00  0.00     0.058 C 
BRANCH  11  12
ATOM     12  C   UNL     1      29.599  24.641  12.816  1.00  0.00    -0.024 C 
ATOM     13  C   UNL     1      30.354  23.720  12.175  1.00  0.00    -0.077 C 
ATOM     14  C   UNL     1      31.005  22.643  13.005  1.00  0.00     0.039 C 
BRANCH  13  15
ATOM     15  C   UNL     1      30.566  23.716  10.667  1.00  0.00     0.034 C 
BRANCH  15  16
ATOM     16  C   UNL     1      31.936  24.265  10.243  1.00  0.00     0.032 CG0
ATOM     17  G   UNL     1      31.858  25.731   9.889  1.00  0.00     0.000 G0
ENDBRANCH  15  16
ENDBRANCH  13  15
ENDBRANCH  11  12
ENDBRANCH   1  11
TORSDOF 0
ENDMDL
MODEL 7
REMARK VINA RESULT:    -2.780      1.510      3.688
REMARK INTER + INTRA:          -3.431
REMARK INTER:                  -4.126
REMARK INTRA:                   0.694
REMARK UNBOUND:                 0.487
REMARK SMILES CC1=CCC(=C(C)C)CCC(C)=CCC1
REMARK SMILES IDX 5 1 6 2 7 3 8 4 9 5 10 6 11 7 12 8 13 9 4 11 3 12 2 13 1 14
REMARK SMILES IDX 15 15 14 16
REMARK H PARENT
REMARK Flexibility Score: 60.00
ROOT
ATOM      1  C   UNL     1      29.395  24.680  12.666  1.00  0.00    -0.067 C 
ATOM      2  C   UNL     1      28.446  25.324  11.914  1.00  0.00    -0.077 C 
ATOM      3  C   UNL     1      28.687  26.707  11.336  1.00  0.00     0.039 C 
ATOM      4  C   UNL     1      27.094  24.689  11.651  1.00  0.00     0.039 C 
ENDROOT
BRANCH   1   5
ATOM      5  C   UNL     1      30.774  25.313  12.881  1.00  0.00     0.035 C 
BRANCH   5   6
ATOM      6  C   UNL     1      31.930  24.412  12.393  1.00  0.00     0.035 C 
BRANCH   6   7
ATOM      7  C   UNL     1      31.818  24.064  10.918  1.00  0.00    -0.077 C 
ATOM      8  C   UNL     1      31.630  25.179   9.923  1.00  0.00     0.039 C 
ATOM      9  C   UNL     1      31.864  22.796  10.449  1.00  0.00    -0.028 CG0
ATOM     10  G   UNL     1      32.114  21.562  11.284  1.00  0.00     0.000 G0
ENDBRANCH   6   7
ENDBRANCH   5   6
ENDBRANCH   1   5
BRANCH   1  11
ATOM     11  C   UNL     1      29.043  23.340  13.323  1.00  0.00     0.058 C 
BRANCH  11  12
ATOM     12  C   UNL     1      30.168  22.684  14.087  1.00  0.00    -0.024 C 
ATOM     13  C   UNL     1      31.023  21.764  13.585  1.00  0.00    -0.077 C 
ATOM     14  C   UNL     1      32.124  21.262  14.485  1.00  0.00     0.039 C 
BRANCH  13  15
ATOM     15  C   UNL     1      30.918  21.209  12.172  1.00  0.00     0.034 C 
BRANCH  15  16
ATOM     16  C   UNL     1      32.124  21.561  11.289  1.00  0.00     0.032 CG0
ATOM     17  G   UNL     1      31.857  22.789  10.452  1.00  0.00     0.000 G0
ENDBRANCH  15  16
ENDBRANCH  13  15
ENDBRANCH  11  12
ENDBRANCH   1  11
TORSDOF 0
ENDMDL
MODEL 8
REMARK VINA RESULT:    -2.725      2.090      4.231
REMARK INTER + INTRA:          -3.354
REMARK INTER:                  -4.333
REMARK INTRA:                   0.979
REMARK UNBOUND:                 0.487
REMARK SMILES CC1=CCC(=C(C)C)CCC(C)=CCC1
REMARK SMILES IDX 5 1 6 2 7 3 8 4 9 5 10 6 11 7 12 8 13 9 4 11 3 12 2 13 1 14
REMARK SMILES IDX 15 15 14 16
REMARK H PARENT
REMARK Flexibility Score: 60.00
ROOT
ATOM      1  C   UNL     1      30.900  23.695  12.234  1.00  0.00    -0.067 C 
ATOM      2  C   UNL     1      30.940  23.490  13.590  1.00  0.00    -0.077 C 
ATOM      3  C   UNL     1      29.812  22.792  14.326  1.00  0.00     0.039 C 
ATOM      4  C   UNL     1      32.110  23.982  14.420  1.00  0.00     0.039 C 
ENDROOT
BRANCH   1   5
ATOM      5  C   UNL     1      29.735  23.147  11.403  1.00  0.00     0.035 C 
BRANCH   5   6
ATOM      6  C   UNL     1      28.836  24.263  10.824  1.00  0.00     0.035 C 
BRANCH   6   7
ATOM      7  C   UNL     1      28.028  24.977  11.894  1.00  0.00    -0.077 C 
ATOM      8  C   UNL     1      27.218  24.152  12.861  1.00  0.00     0.039 C 
ATOM      9  C   UNL     1      27.984  26.324  12.017  1.00  0.00    -0.028 CG0
ATOM     10  G   UNL     1      28.778  27.304  11.188  1.00  0.00     0.000 G0
ENDBRANCH   6   7
ENDBRANCH   5   6
ENDBRANCH   1   5
BRANCH   1  11
ATOM     11  C   UNL     1      32.013  24.514  11.570  1.00  0.00     0.058 C 
BRANCH  11  12
ATOM     12  C   UNL     1      32.104  25.953  12.015  1.00  0.00    -0.024 C 
ATOM     13  C   UNL     1      31.245  26.938  11.663  1.00  0.00    -0.077 C 
ATOM     14  C   UNL     1      31.464  28.307  12.256  1.00  0.00     0.039 C 
BRANCH  13  15
ATOM     15  C   UNL     1      30.087  26.731  10.697  1.00  0.00     0.034 C 
BRANCH  15  16
ATOM     16  C   UNL     1      28.763  27.327  11.197  1.00  0.00     0.032 CG0
ATOM     17  G   UNL     1      27.992  26.335  12.034  1.00  0.00     0.000 G0
ENDBRANCH  15  16
ENDBRANCH  13  15
ENDBRANCH  11  12
ENDBRANCH   1  11
TORSDOF 0
ENDMDL
MODEL 9
REMARK VINA RESULT:    -2.599      2.033      5.023
REMARK INTER + INTRA:          -3.176
REMARK INTER:                  -4.052
REMARK INTRA:                   0.875
REMARK UNBOUND:                 0.487
REMARK SMILES CC1=CCC(=C(C)C)CCC(C)=CCC1
REMARK SMILES IDX 5 1 6 2 7 3 8 4 9 5 10 6 11 7 12 8 13 9 4 11 3 12 2 13 1 14
REMARK SMILES IDX 15 15 14 16
REMARK H PARENT
REMARK Flexibility Score: 60.00
ROOT
ATOM      1  C   UNL     1      31.094  24.796  12.189  1.00  0.00    -0.067 C 
ATOM      2  C   UNL     1      31.437  24.053  11.087  1.00  0.00    -0.077 C 
ATOM      3  C   UNL     1      32.125  24.676   9.887  1.00  0.00     0.039 C 
ATOM      4  C   UNL     1      31.114  22.574  11.011  1.00  0.00     0.039 C 
ENDROOT
BRANCH   1   5
ATOM      5  C   UNL     1      31.472  26.279  12.271  1.00  0.00     0.035 C 
BRANCH   5   6
ATOM      6  C   UNL     1      30.970  27.092  11.057  1.00  0.00     0.035 C 
BRANCH   6   7
ATOM      7  C   UNL     1      29.864  28.068  11.422  1.00  0.00    -0.077 C 
ATOM      8  C   UNL     1      30.221  29.515  11.648  1.00  0.00     0.039 C 
ATOM      9  C   UNL     1      28.570  27.703  11.570  1.00  0.00    -0.028 CG0
ATOM     10  G   UNL     1      28.017  26.320  11.318  1.00  0.00     0.000 G0
ENDBRANCH   6   7
ENDBRANCH   5   6
ENDBRANCH   1   5
BRANCH   1  11
ATOM     11  C   UNL     1      30.291  24.134  13.315  1.00  0.00     0.058 C 
BRANCH  11  12
ATOM     12  C   UNL     1      29.011  23.462  12.881  1.00  0.00    -0.024 C 
ATOM     13  C   UNL     1      27.865  24.100  12.550  1.00  0.00    -0.077 C 
ATOM     14  C   UNL     1      26.702  23.261  12.083  1.00  0.00     0.039 C 
BRANCH  13  15
ATOM     15  C   UNL     1      27.695  25.610  12.635  1.00  0.00     0.034 C 
BRANCH  15  16
ATOM     16  C   UNL     1      28.010  26.334  11.318  1.00  0.00     0.032 CG0
ATOM     17  G   UNL     1      28.547  27.723  11.565  1.00  0.00     0.000 G0
ENDBRANCH  15  16
ENDBRANCH  13  15
ENDBRANCH  11  12
ENDBRANCH   1  11
TORSDOF 0
ENDMDL
