MODEL 1
REMARK VINA RESULT:    -4.856      0.000      0.000
REMARK INTER + INTRA:         -10.176
REMARK INTER:                  -8.831
REMARK INTRA:                  -1.344
REMARK UNBOUND:                -1.344
REMARK SMILES CCCCCCCCCCCCCCCC(=O)[O-]
REMARK SMILES IDX 9 1 10 2 11 3 12 4 13 5 14 6 15 7 16 8 17 9 18 10 8 11 7 12
REMARK SMILES IDX 6 13 5 14 4 15 3 16 2 17 1 18
REMARK H PARENT
REMARK Flexibility Score: inf
ROOT
ATOM      1  C   UNL     1      43.144  53.978  17.037  1.00  0.00     0.000 C 
ENDROOT
BRANCH   1   2
ATOM      2  C   UNL     1      42.749  55.455  17.203  1.00  0.00     0.000 C 
BRANCH   2   3
ATOM      3  C   UNL     1      41.249  55.695  16.957  1.00  0.00     0.000 C 
BRANCH   3   4
ATOM      4  C   UNL     1      40.458  55.935  18.256  1.00  0.00     0.000 C 
BRANCH   4   5
ATOM      5  C   UNL     1      39.326  56.972  18.149  1.00  0.00     0.000 C 
BRANCH   5   6
ATOM      6  C   UNL     1      38.268  56.600  17.095  1.00  0.00     0.006 C 
BRANCH   6   7
ATOM      7  C   UNL     1      36.968  57.393  17.275  1.00  0.00     0.053 C 
BRANCH   7   8
ATOM      8  C   UNL     1      36.000  57.133  16.162  1.00  0.00     0.041 C 
ATOM      9  O   UNL     1      34.763  57.091  16.395  1.00  0.00    -0.550 OA
ATOM     10  O   UNL     1      36.466  56.901  14.875  1.00  0.00    -0.550 OA
ENDBRANCH   7   8
ENDBRANCH   6   7
ENDBRANCH   5   6
ENDBRANCH   4   5
ENDBRANCH   3   4
ENDBRANCH   2   3
ENDBRANCH   1   2
BRANCH   1  11
ATOM     11  C   UNL     1      42.686  53.389  15.695  1.00  0.00     0.000 C 
BRANCH  11  12
ATOM     12  C   UNL     1      43.593  53.858  14.551  1.00  0.00    -0.000 C 
BRANCH  12  13
ATOM     13  C   UNL     1      44.981  53.205  14.645  1.00  0.00    -0.000 C 
BRANCH  13  14
ATOM     14  C   UNL     1      46.124  54.204  14.408  1.00  0.00    -0.000 C 
BRANCH  14  15
ATOM     15  C   UNL     1      45.652  55.667  14.463  1.00  0.00    -0.000 C 
BRANCH  15  16
ATOM     16  C   UNL     1      46.369  56.477  15.556  1.00  0.00    -0.000 C 
BRANCH  16  17
ATOM     17  C   UNL     1      46.435  55.733  16.898  1.00  0.00    -0.003 C 
ATOM     18  C   UNL     1      47.835  55.809  17.499  1.00  0.00     0.004 C 
ENDBRANCH  16  17
ENDBRANCH  15  16
ENDBRANCH  14  15
ENDBRANCH  13  14
ENDBRANCH  12  13
ENDBRANCH  11  12
ENDBRANCH   1  11
TORSDOF 14
ENDMDL
MODEL 2
REMARK VINA RESULT:    -4.775      1.695      3.324
REMARK INTER + INTRA:         -10.027
REMARK INTER:                  -9.527
REMARK INTRA:                  -0.501
REMARK UNBOUND:                -1.344
REMARK SMILES CCCCCCCCCCCCCCCC(=O)[O-]
REMARK SMILES IDX 9 1 10 2 11 3 12 4 13 5 14 6 15 7 16 8 17 9 18 10 8 11 7 12
REMARK SMILES IDX 6 13 5 14 4 15 3 16 2 17 1 18
REMARK H PARENT
REMARK Flexibility Score: inf
ROOT
ATOM      1  C   UNL     1      40.064  56.042  18.353  1.00  0.00     0.000 C 
ENDROOT
BRANCH   1   2
ATOM      2  C   UNL     1      38.950  57.066  18.080  1.00  0.00     0.000 C 
BRANCH   2   3
ATOM      3  C   UNL     1      38.045  56.652  16.906  1.00  0.00     0.000 C 
BRANCH   3   4
ATOM      4  C   UNL     1      36.597  57.152  17.060  1.00  0.00     0.000 C 
BRANCH   4   5
ATOM      5  C   UNL     1      35.999  57.817  15.808  1.00  0.00     0.000 C 
BRANCH   5   6
ATOM      6  C   UNL     1      34.864  56.994  15.175  1.00  0.00     0.006 C 
BRANCH   6   7
ATOM      7  C   UNL     1      34.098  56.169  16.216  1.00  0.00     0.053 C 
BRANCH   7   8
ATOM      8  C   UNL     1      32.615  56.275  16.028  1.00  0.00     0.041 C 
ATOM      9  O   UNL     1      31.913  56.897  16.867  1.00  0.00    -0.550 OA
ATOM     10  O   UNL     1      32.006  55.656  14.944  1.00  0.00    -0.550 OA
ENDBRANCH   7   8
ENDBRANCH   6   7
ENDBRANCH   5   6
ENDBRANCH   4   5
ENDBRANCH   3   4
ENDBRANCH   2   3
ENDBRANCH   1   2
BRANCH   1  11
ATOM     11  C   UNL     1      41.079  55.947  17.204  1.00  0.00     0.000 C 
BRANCH  11  12
ATOM     12  C   UNL     1      42.409  55.360  17.693  1.00  0.00    -0.000 C 
BRANCH  12  13
ATOM     13  C   UNL     1      42.879  54.221  16.775  1.00  0.00    -0.000 C 
BRANCH  13  14
ATOM     14  C   UNL     1      44.125  54.594  15.957  1.00  0.00    -0.000 C 
BRANCH  14  15
ATOM     15  C   UNL     1      44.999  55.648  16.658  1.00  0.00    -0.000 C 
BRANCH  15  16
ATOM     16  C   UNL     1      46.466  55.597  16.200  1.00  0.00    -0.000 C 
BRANCH  16  17
ATOM     17  C   UNL     1      47.457  55.730  17.366  1.00  0.00    -0.003 C 
ATOM     18  C   UNL     1      48.032  57.142  17.438  1.00  0.00     0.004 C 
ENDBRANCH  16  17
ENDBRANCH  15  16
ENDBRANCH  14  15
ENDBRANCH  13  14
ENDBRANCH  12  13
ENDBRANCH  11  12
ENDBRANCH   1  11
TORSDOF 14
ENDMDL
MODEL 3
REMARK VINA RESULT:    -4.760      4.256      8.768
REMARK INTER + INTRA:         -10.000
REMARK INTER:                  -9.177
REMARK INTRA:                  -0.823
REMARK UNBOUND:                -1.344
REMARK SMILES CCCCCCCCCCCCCCCC(=O)[O-]
REMARK SMILES IDX 9 1 10 2 11 3 12 4 13 5 14 6 15 7 16 8 17 9 18 10 8 11 7 12
REMARK SMILES IDX 6 13 5 14 4 15 3 16 2 17 1 18
REMARK H PARENT
REMARK Flexibility Score: inf
ROOT
ATOM      1  C   UNL     1      42.506  55.506  17.663  1.00  0.00     0.000 C 
ENDROOT
BRANCH   1   2
ATOM      2  C   UNL     1      42.888  54.061  17.299  1.00  0.00     0.000 C 
BRANCH   2   3
ATOM      3  C   UNL     1      42.756  53.779  15.792  1.00  0.00     0.000 C 
BRANCH   3   4
ATOM      4  C   UNL     1      44.113  53.533  15.107  1.00  0.00     0.000 C 
BRANCH   4   5
ATOM      5  C   UNL     1      44.907  54.804  14.757  1.00  0.00     0.000 C 
BRANCH   5   6
ATOM      6  C   UNL     1      46.260  54.886  15.485  1.00  0.00     0.006 C 
BRANCH   6   7
ATOM      7  C   UNL     1      46.398  56.175  16.305  1.00  0.00     0.053 C 
BRANCH   7   8
ATOM      8  C   UNL     1      47.606  56.143  17.191  1.00  0.00     0.041 C 
ATOM      9  O   UNL     1      47.993  57.190  17.772  1.00  0.00    -0.550 OA
ATOM     10  O   UNL     1      48.324  54.965  17.345  1.00  0.00    -0.550 OA
ENDBRANCH   7   8
ENDBRANCH   6   7
ENDBRANCH   5   6
ENDBRANCH   4   5
ENDBRANCH   3   4
ENDBRANCH   2   3
ENDBRANCH   1   2
BRANCH   1  11
ATOM     11  C   UNL     1      41.113  55.899  17.150  1.00  0.00     0.000 C 
BRANCH  11  12
ATOM     12  C   UNL     1      40.119  56.035  18.310  1.00  0.00    -0.000 C 
BRANCH  12  13
ATOM     13  C   UNL     1      39.065  57.111  18.008  1.00  0.00    -0.000 C 
BRANCH  13  14
ATOM     14  C   UNL     1      37.955  56.608  17.071  1.00  0.00    -0.000 C 
BRANCH  14  15
ATOM     15  C   UNL     1      36.838  57.647  16.868  1.00  0.00    -0.000 C 
BRANCH  15  16
ATOM     16  C   UNL     1      35.509  57.006  16.436  1.00  0.00    -0.000 C 
BRANCH  16  17
ATOM     17  C   UNL     1      35.342  56.957  14.910  1.00  0.00    -0.003 C 
ATOM     18  C   UNL     1      36.151  58.061  14.234  1.00  0.00     0.004 C 
ENDBRANCH  16  17
ENDBRANCH  15  16
ENDBRANCH  14  15
ENDBRANCH  13  14
ENDBRANCH  12  13
ENDBRANCH  11  12
ENDBRANCH   1  11
TORSDOF 14
ENDMDL
MODEL 4
REMARK VINA RESULT:    -4.760      2.424      5.686
REMARK INTER + INTRA:          -9.999
REMARK INTER:                  -9.060
REMARK INTRA:                  -0.940
REMARK UNBOUND:                -1.344
REMARK SMILES CCCCCCCCCCCCCCCC(=O)[O-]
REMARK SMILES IDX 9 1 10 2 11 3 12 4 13 5 14 6 15 7 16 8 17 9 18 10 8 11 7 12
REMARK SMILES IDX 6 13 5 14 4 15 3 16 2 17 1 18
REMARK H PARENT
REMARK Flexibility Score: inf
ROOT
ATOM      1  C   UNL     1      36.466  57.089  16.921  1.00  0.00     0.000 C 
ENDROOT
BRANCH   1   2
ATOM      2  C   UNL     1      36.024  58.127  15.876  1.00  0.00     0.000 C 
BRANCH   2   3
ATOM      3  C   UNL     1      36.276  57.654  14.433  1.00  0.00     0.000 C 
BRANCH   3   4
ATOM      4  C   UNL     1      35.363  56.486  14.017  1.00  0.00     0.000 C 
BRANCH   4   5
ATOM      5  C   UNL     1      33.863  56.701  14.288  1.00  0.00     0.000 C 
BRANCH   5   6
ATOM      6  C   UNL     1      33.261  55.631  15.215  1.00  0.00     0.006 C 
BRANCH   6   7
ATOM      7  C   UNL     1      32.756  56.228  16.534  1.00  0.00     0.053 C 
BRANCH   7   8
ATOM      8  C   UNL     1      31.316  56.632  16.445  1.00  0.00     0.041 C 
ATOM      9  O   UNL     1      30.861  57.530  17.202  1.00  0.00    -0.550 OA
ATOM     10  O   UNL     1      30.467  55.991  15.552  1.00  0.00    -0.550 OA
ENDBRANCH   7   8
ENDBRANCH   6   7
ENDBRANCH   5   6
ENDBRANCH   4   5
ENDBRANCH   3   4
ENDBRANCH   2   3
ENDBRANCH   1   2
BRANCH   1  11
ATOM     11  C   UNL     1      37.935  56.672  16.760  1.00  0.00     0.000 C 
BRANCH  11  12
ATOM     12  C   UNL     1      38.761  57.086  17.984  1.00  0.00    -0.000 C 
BRANCH  12  13
ATOM     13  C   UNL     1      39.868  56.061  18.274  1.00  0.00    -0.000 C 
BRANCH  13  14
ATOM     14  C   UNL     1      40.900  55.965  17.139  1.00  0.00    -0.000 C 
BRANCH  14  15
ATOM     15  C   UNL     1      42.313  55.634  17.653  1.00  0.00    -0.000 C 
BRANCH  15  16
ATOM     16  C   UNL     1      42.846  54.305  17.094  1.00  0.00    -0.000 C 
BRANCH  16  17
ATOM     17  C   UNL     1      43.877  54.503  15.972  1.00  0.00    -0.003 C 
ATOM     18  C   UNL     1      44.932  55.531  16.374  1.00  0.00     0.004 C 
ENDBRANCH  16  17
ENDBRANCH  15  16
ENDBRANCH  14  15
ENDBRANCH  13  14
ENDBRANCH  12  13
ENDBRANCH  11  12
ENDBRANCH   1  11
TORSDOF 14
ENDMDL
MODEL 5
REMARK VINA RESULT:    -4.739      3.911      9.754
REMARK INTER + INTRA:          -9.961
REMARK INTER:                  -9.465
REMARK INTRA:                  -0.497
REMARK UNBOUND:                -1.344
REMARK SMILES CCCCCCCCCCCCCCCC(=O)[O-]
REMARK SMILES IDX 9 1 10 2 11 3 12 4 13 5 14 6 15 7 16 8 17 9 18 10 8 11 7 12
REMARK SMILES IDX 6 13 5 14 4 15 3 16 2 17 1 18
REMARK H PARENT
REMARK Flexibility Score: inf
ROOT
ATOM      1  C   UNL     1      38.704  57.200  17.952  1.00  0.00     0.000 C 
ENDROOT
BRANCH   1   2
ATOM      2  C   UNL     1      39.782  56.190  18.382  1.00  0.00     0.000 C 
BRANCH   2   3
ATOM      3  C   UNL     1      40.845  55.963  17.293  1.00  0.00     0.000 C 
BRANCH   3   4
ATOM      4  C   UNL     1      42.218  55.571  17.867  1.00  0.00     0.000 C 
BRANCH   4   5
ATOM      5  C   UNL     1      42.937  54.432  17.122  1.00  0.00     0.000 C 
BRANCH   5   6
ATOM      6  C   UNL     1      42.645  54.425  15.611  1.00  0.00     0.006 C 
BRANCH   6   7
ATOM      7  C   UNL     1      43.256  53.206  14.910  1.00  0.00     0.053 C 
BRANCH   7   8
ATOM      8  C   UNL     1      44.722  53.387  14.659  1.00  0.00     0.041 C 
ATOM      9  O   UNL     1      45.489  52.389  14.638  1.00  0.00    -0.550 OA
ATOM     10  O   UNL     1      45.245  54.661  14.484  1.00  0.00    -0.550 OA
ENDBRANCH   7   8
ENDBRANCH   6   7
ENDBRANCH   5   6
ENDBRANCH   4   5
ENDBRANCH   3   4
ENDBRANCH   2   3
ENDBRANCH   1   2
BRANCH   1  11
ATOM     11  C   UNL     1      37.875  56.708  16.756  1.00  0.00     0.000 C 
BRANCH  11  12
ATOM     12  C   UNL     1      36.374  56.891  17.016  1.00  0.00    -0.000 C 
BRANCH  12  13
ATOM     13  C   UNL     1      35.682  57.542  15.809  1.00  0.00    -0.000 C 
BRANCH  13  14
ATOM     14  C   UNL     1      34.481  56.727  15.302  1.00  0.00    -0.000 C 
BRANCH  14  15
ATOM     15  C   UNL     1      33.498  56.360  16.428  1.00  0.00    -0.000 C 
BRANCH  15  16
ATOM     16  C   UNL     1      32.034  56.381  15.961  1.00  0.00    -0.000 C 
BRANCH  16  17
ATOM     17  C   UNL     1      31.067  56.848  17.061  1.00  0.00    -0.003 C 
ATOM     18  C   UNL     1      30.645  55.681  17.949  1.00  0.00     0.004 C 
ENDBRANCH  16  17
ENDBRANCH  15  16
ENDBRANCH  14  15
ENDBRANCH  13  14
ENDBRANCH  12  13
ENDBRANCH  11  12
ENDBRANCH   1  11
TORSDOF 14
ENDMDL
MODEL 6
REMARK VINA RESULT:    -4.704      4.163      9.853
REMARK INTER + INTRA:          -9.899
REMARK INTER:                  -9.407
REMARK INTRA:                  -0.491
REMARK UNBOUND:                -1.344
REMARK SMILES CCCCCCCCCCCCCCCC(=O)[O-]
REMARK SMILES IDX 9 1 10 2 11 3 12 4 13 5 14 6 15 7 16 8 17 9 18 10 8 11 7 12
REMARK SMILES IDX 6 13 5 14 4 15 3 16 2 17 1 18
REMARK H PARENT
REMARK Flexibility Score: inf
ROOT
ATOM      1  C   UNL     1      38.759  57.238  18.003  1.00  0.00     0.000 C 
ENDROOT
BRANCH   1   2
ATOM      2  C   UNL     1      39.905  56.269  18.339  1.00  0.00     0.000 C 
BRANCH   2   3
ATOM      3  C   UNL     1      40.816  55.993  17.129  1.00  0.00     0.000 C 
BRANCH   3   4
ATOM      4  C   UNL     1      42.226  55.525  17.534  1.00  0.00     0.000 C 
BRANCH   4   5
ATOM      5  C   UNL     1      42.739  54.280  16.790  1.00  0.00     0.000 C 
BRANCH   5   6
ATOM      6  C   UNL     1      44.101  54.506  16.110  1.00  0.00     0.006 C 
BRANCH   6   7
ATOM      7  C   UNL     1      44.839  55.722  16.684  1.00  0.00     0.053 C 
BRANCH   7   8
ATOM      8  C   UNL     1      46.309  55.663  16.402  1.00  0.00     0.041 C 
ATOM      9  O   UNL     1      47.124  56.259  17.154  1.00  0.00    -0.550 OA
ATOM     10  O   UNL     1      46.777  54.979  15.287  1.00  0.00    -0.550 OA
ENDBRANCH   7   8
ENDBRANCH   6   7
ENDBRANCH   5   6
ENDBRANCH   4   5
ENDBRANCH   3   4
ENDBRANCH   2   3
ENDBRANCH   1   2
BRANCH   1  11
ATOM     11  C   UNL     1      37.843  56.712  16.888  1.00  0.00     0.000 C 
BRANCH  11  12
ATOM     12  C   UNL     1      36.390  57.143  17.121  1.00  0.00    -0.000 C 
BRANCH  12  13
ATOM     13  C   UNL     1      35.793  57.774  15.855  1.00  0.00    -0.000 C 
BRANCH  13  14
ATOM     14  C   UNL     1      34.733  56.882  15.189  1.00  0.00    -0.000 C 
BRANCH  14  15
ATOM     15  C   UNL     1      33.687  56.361  16.190  1.00  0.00    -0.000 C 
BRANCH  15  16
ATOM     16  C   UNL     1      32.256  56.429  15.634  1.00  0.00    -0.000 C 
BRANCH  16  17
ATOM     17  C   UNL     1      31.210  56.713  16.724  1.00  0.00    -0.003 C 
ATOM     18  C   UNL     1      31.211  55.615  17.784  1.00  0.00     0.004 C 
ENDBRANCH  16  17
ENDBRANCH  15  16
ENDBRANCH  14  15
ENDBRANCH  13  14
ENDBRANCH  12  13
ENDBRANCH  11  12
ENDBRANCH   1  11
TORSDOF 14
ENDMDL
MODEL 7
REMARK VINA RESULT:    -4.700      3.724      9.595
REMARK INTER + INTRA:          -9.891
REMARK INTER:                  -9.308
REMARK INTRA:                  -0.582
REMARK UNBOUND:                -1.344
REMARK SMILES CCCCCCCCCCCCCCCC(=O)[O-]
REMARK SMILES IDX 9 1 10 2 11 3 12 4 13 5 14 6 15 7 16 8 17 9 18 10 8 11 7 12
REMARK SMILES IDX 6 13 5 14 4 15 3 16 2 17 1 18
REMARK H PARENT
REMARK Flexibility Score: inf
ROOT
ATOM      1  C   UNL     1      37.928  56.717  16.912  1.00  0.00     0.000 C 
ENDROOT
BRANCH   1   2
ATOM      2  C   UNL     1      38.944  57.134  17.988  1.00  0.00     0.000 C 
BRANCH   2   3
ATOM      3  C   UNL     1      40.002  56.048  18.252  1.00  0.00     0.000 C 
BRANCH   3   4
ATOM      4  C   UNL     1      41.034  55.928  17.116  1.00  0.00     0.000 C 
BRANCH   4   5
ATOM      5  C   UNL     1      42.441  55.487  17.557  1.00  0.00     0.000 C 
BRANCH   5   6
ATOM      6  C   UNL     1      42.711  53.994  17.301  1.00  0.00     0.006 C 
BRANCH   6   7
ATOM      7  C   UNL     1      42.806  53.672  15.805  1.00  0.00     0.053 C 
BRANCH   7   8
ATOM      8  C   UNL     1      44.214  53.774  15.303  1.00  0.00     0.041 C 
ATOM      9  O   UNL     1      44.803  54.886  15.289  1.00  0.00    -0.550 OA
ATOM     10  O   UNL     1      44.862  52.646  14.817  1.00  0.00    -0.550 OA
ENDBRANCH   7   8
ENDBRANCH   6   7
ENDBRANCH   5   6
ENDBRANCH   4   5
ENDBRANCH   3   4
ENDBRANCH   2   3
ENDBRANCH   1   2
BRANCH   1  11
ATOM     11  C   UNL     1      36.564  57.402  17.086  1.00  0.00     0.000 C 
BRANCH  11  12
ATOM     12  C   UNL     1      36.048  57.948  15.749  1.00  0.00    -0.000 C 
BRANCH  12  13
ATOM     13  C   UNL     1      35.691  56.805  14.788  1.00  0.00    -0.000 C 
BRANCH  13  14
ATOM     14  C   UNL     1      34.211  56.817  14.374  1.00  0.00    -0.000 C 
BRANCH  14  15
ATOM     15  C   UNL     1      33.365  55.816  15.181  1.00  0.00    -0.000 C 
BRANCH  15  16
ATOM     16  C   UNL     1      32.791  56.432  16.467  1.00  0.00    -0.000 C 
BRANCH  16  17
ATOM     17  C   UNL     1      31.261  56.316  16.550  1.00  0.00    -0.003 C 
ATOM     18  C   UNL     1      30.826  55.760  17.903  1.00  0.00     0.004 C 
ENDBRANCH  16  17
ENDBRANCH  15  16
ENDBRANCH  14  15
ENDBRANCH  13  14
ENDBRANCH  12  13
ENDBRANCH  11  12
ENDBRANCH   1  11
TORSDOF 14
ENDMDL
MODEL 8
REMARK VINA RESULT:    -4.578      3.885      9.167
REMARK INTER + INTRA:          -9.669
REMARK INTER:                  -8.820
REMARK INTRA:                  -0.849
REMARK UNBOUND:                -1.344
REMARK SMILES CCCCCCCCCCCCCCCC(=O)[O-]
REMARK SMILES IDX 9 1 10 2 11 3 12 4 13 5 14 6 15 7 16 8 17 9 18 10 8 11 7 12
REMARK SMILES IDX 6 13 5 14 4 15 3 16 2 17 1 18
REMARK H PARENT
REMARK Flexibility Score: inf
ROOT
ATOM      1  C   UNL     1      38.661  57.136  18.013  1.00  0.00     0.000 C 
ENDROOT
BRANCH   1   2
ATOM      2  C   UNL     1      39.809  56.173  18.361  1.00  0.00     0.000 C 
BRANCH   2   3
ATOM      3  C   UNL     1      40.806  56.002  17.201  1.00  0.00     0.000 C 
BRANCH   3   4
ATOM      4  C   UNL     1      42.225  55.642  17.678  1.00  0.00     0.000 C 
BRANCH   4   5
ATOM      5  C   UNL     1      42.748  54.276  17.199  1.00  0.00     0.000 C 
BRANCH   5   6
ATOM      6  C   UNL     1      42.920  54.201  15.671  1.00  0.00     0.006 C 
BRANCH   6   7
ATOM      7  C   UNL     1      43.676  52.940  15.236  1.00  0.00     0.053 C 
BRANCH   7   8
ATOM      8  C   UNL     1      45.062  53.259  14.765  1.00  0.00     0.041 C 
ATOM      9  O   UNL     1      45.448  54.455  14.692  1.00  0.00    -0.550 OA
ATOM     10  O   UNL     1      45.916  52.236  14.372  1.00  0.00    -0.550 OA
ENDBRANCH   7   8
ENDBRANCH   6   7
ENDBRANCH   5   6
ENDBRANCH   4   5
ENDBRANCH   3   4
ENDBRANCH   2   3
ENDBRANCH   1   2
BRANCH   1  11
ATOM     11  C   UNL     1      37.894  56.714  16.752  1.00  0.00     0.000 C 
BRANCH  11  12
ATOM     12  C   UNL     1      36.407  57.071  16.868  1.00  0.00    -0.000 C 
BRANCH  12  13
ATOM     13  C   UNL     1      36.032  58.197  15.893  1.00  0.00    -0.000 C 
BRANCH  13  14
ATOM     14  C   UNL     1      35.998  57.728  14.430  1.00  0.00    -0.000 C 
BRANCH  14  15
ATOM     15  C   UNL     1      35.195  56.428  14.245  1.00  0.00    -0.000 C 
BRANCH  15  16
ATOM     16  C   UNL     1      33.685  56.683  14.107  1.00  0.00    -0.000 C 
BRANCH  16  17
ATOM     17  C   UNL     1      32.844  55.769  15.011  1.00  0.00    -0.003 C 
ATOM     18  C   UNL     1      32.746  56.336  16.425  1.00  0.00     0.004 C 
ENDBRANCH  16  17
ENDBRANCH  15  16
ENDBRANCH  14  15
ENDBRANCH  13  14
ENDBRANCH  12  13
ENDBRANCH  11  12
ENDBRANCH   1  11
TORSDOF 14
ENDMDL
