MODEL 1
REMARK VINA RESULT:    -4.302      0.000      0.000
REMARK INTER + INTRA:          -5.677
REMARK INTER:                  -5.308
REMARK INTRA:                  -0.369
REMARK UNBOUND:                -0.369
REMARK SMILES CCCCC=CC(C)=O
REMARK SMILES IDX 4 1 3 2 2 3 1 4 5 5 6 6 7 7 9 8 8 9
REMARK H PARENT
REMARK Flexibility Score: inf
ROOT
ATOM      1  C   UNL     1     -26.749  20.596 -34.031  1.00  0.00     0.027 C 
ENDROOT
BRANCH   1   2
ATOM      2  C   UNL     1     -28.028  19.750 -33.964  1.00  0.00     0.004 C 
BRANCH   2   3
ATOM      3  C   UNL     1     -27.790  18.370 -33.340  1.00  0.00    -0.003 C 
ATOM      4  C   UNL     1     -28.871  17.380 -33.763  1.00  0.00     0.004 C 
ENDBRANCH   2   3
ENDBRANCH   1   2
BRANCH   1   5
ATOM      5  C   UNL     1     -25.771  20.050 -35.040  1.00  0.00    -0.023 C 
ATOM      6  C   UNL     1     -24.496  19.689 -34.814  1.00  0.00     0.042 C 
BRANCH   6   7
ATOM      7  C   UNL     1     -23.756  19.772 -33.534  1.00  0.00     0.152 C 
ATOM      8  O   UNL     1     -23.082  20.787 -33.220  1.00  0.00    -0.295 OA
ATOM      9  C   UNL     1     -23.735  18.583 -32.628  1.00  0.00     0.093 C 
ENDBRANCH   6   7
ENDBRANCH   1   5
TORSDOF 4
ENDMDL
MODEL 2
REMARK VINA RESULT:    -4.145      1.156      2.056
REMARK INTER + INTRA:          -5.484
REMARK INTER:                  -5.282
REMARK INTRA:                  -0.202
REMARK UNBOUND:                -0.369
REMARK SMILES CCCCC=CC(C)=O
REMARK SMILES IDX 4 1 3 2 2 3 1 4 5 5 6 6 7 7 9 8 8 9
REMARK H PARENT
REMARK Flexibility Score: inf
ROOT
ATOM      1  C   UNL     1     -26.456  19.103 -33.702  1.00  0.00     0.027 C 
ENDROOT
BRANCH   1   2
ATOM      2  C   UNL     1     -27.830  19.752 -33.915  1.00  0.00     0.004 C 
BRANCH   2   3
ATOM      3  C   UNL     1     -27.731  21.167 -34.498  1.00  0.00    -0.003 C 
ATOM      4  C   UNL     1     -27.697  22.218 -33.393  1.00  0.00     0.004 C 
ENDBRANCH   2   3
ENDBRANCH   1   2
BRANCH   1   5
ATOM      5  C   UNL     1     -25.461  19.548 -34.743  1.00  0.00    -0.023 C 
ATOM      6  C   UNL     1     -24.190  19.934 -34.532  1.00  0.00     0.042 C 
BRANCH   6   7
ATOM      7  C   UNL     1     -23.491  20.039 -33.231  1.00  0.00     0.152 C 
ATOM      8  O   UNL     1     -23.020  21.129 -32.815  1.00  0.00    -0.295 OA
ATOM      9  C   UNL     1     -23.260  18.798 -32.428  1.00  0.00     0.093 C 
ENDBRANCH   6   7
ENDBRANCH   1   5
TORSDOF 4
ENDMDL
MODEL 3
REMARK VINA RESULT:    -3.971      1.907      4.422
REMARK INTER + INTRA:          -5.270
REMARK INTER:                  -5.021
REMARK INTRA:                  -0.249
REMARK UNBOUND:                -0.369
REMARK SMILES CCCCC=CC(C)=O
REMARK SMILES IDX 4 1 3 2 2 3 1 4 5 5 6 6 7 7 9 8 8 9
REMARK H PARENT
REMARK Flexibility Score: inf
ROOT
ATOM      1  C   UNL     1     -25.022  18.904 -33.424  1.00  0.00     0.027 C 
ENDROOT
BRANCH   1   2
ATOM      2  C   UNL     1     -23.542  19.000 -33.032  1.00  0.00     0.004 C 
BRANCH   2   3
ATOM      3  C   UNL     1     -22.870  20.269 -33.570  1.00  0.00    -0.003 C 
ATOM      4  C   UNL     1     -23.029  21.432 -32.596  1.00  0.00     0.004 C 
ENDBRANCH   2   3
ENDBRANCH   1   2
BRANCH   1   5
ATOM      5  C   UNL     1     -25.313  19.652 -34.699  1.00  0.00    -0.023 C 
ATOM      6  C   UNL     1     -26.403  20.390 -34.972  1.00  0.00     0.042 C 
BRANCH   6   7
ATOM      7  C   UNL     1     -27.575  20.612 -34.095  1.00  0.00     0.152 C 
ATOM      8  O   UNL     1     -27.731  21.681 -33.450  1.00  0.00    -0.295 OA
ATOM      9  C   UNL     1     -28.557  19.501 -33.899  1.00  0.00     0.093 C 
ENDBRANCH   6   7
ENDBRANCH   1   5
TORSDOF 4
ENDMDL
MODEL 4
REMARK VINA RESULT:    -3.839      7.256      8.838
REMARK INTER + INTRA:          -5.106
REMARK INTER:                  -4.625
REMARK INTRA:                  -0.482
REMARK UNBOUND:                -0.369
REMARK SMILES CCCCC=CC(C)=O
REMARK SMILES IDX 4 1 3 2 2 3 1 4 5 5 6 6 7 7 9 8 8 9
REMARK H PARENT
REMARK Flexibility Score: inf
ROOT
ATOM      1  C   UNL     1     -28.218  11.329 -28.407  1.00  0.00     0.027 C 
ENDROOT
BRANCH   1   2
ATOM      2  C   UNL     1     -29.392  12.282 -28.670  1.00  0.00     0.004 C 
BRANCH   2   3
ATOM      3  C   UNL     1     -30.070  12.025 -30.021  1.00  0.00    -0.003 C 
ATOM      4  C   UNL     1     -30.125  13.298 -30.860  1.00  0.00     0.004 C 
ENDBRANCH   2   3
ENDBRANCH   1   2
BRANCH   1   5
ATOM      5  C   UNL     1     -27.732  10.678 -29.677  1.00  0.00    -0.023 C 
ATOM      6  C   UNL     1     -26.709  11.082 -30.450  1.00  0.00     0.042 C 
BRANCH   6   7
ATOM      7  C   UNL     1     -25.849  12.271 -30.247  1.00  0.00     0.152 C 
ATOM      8  O   UNL     1     -24.713  12.186 -29.710  1.00  0.00    -0.295 OA
ATOM      9  C   UNL     1     -26.378  13.622 -30.607  1.00  0.00     0.093 C 
ENDBRANCH   6   7
ENDBRANCH   1   5
TORSDOF 4
ENDMDL
MODEL 5
REMARK VINA RESULT:    -3.790      8.109      9.564
REMARK INTER + INTRA:          -5.045
REMARK INTER:                  -4.507
REMARK INTRA:                  -0.538
REMARK UNBOUND:                -0.369
REMARK SMILES CCCCC=CC(C)=O
REMARK SMILES IDX 4 1 3 2 2 3 1 4 5 5 6 6 7 7 9 8 8 9
REMARK H PARENT
REMARK Flexibility Score: inf
ROOT
ATOM      1  C   UNL     1     -28.352  12.155 -28.370  1.00  0.00     0.027 C 
ENDROOT
BRANCH   1   2
ATOM      2  C   UNL     1     -29.738  11.822 -28.940  1.00  0.00     0.004 C 
BRANCH   2   3
ATOM      3  C   UNL     1     -29.847  12.122 -30.439  1.00  0.00    -0.003 C 
ATOM      4  C   UNL     1     -28.882  13.230 -30.851  1.00  0.00     0.004 C 
ENDBRANCH   2   3
ENDBRANCH   1   2
BRANCH   1   5
ATOM      5  C   UNL     1     -27.580  10.911 -28.014  1.00  0.00    -0.023 C 
ATOM      6  C   UNL     1     -26.634  10.308 -28.756  1.00  0.00     0.042 C 
BRANCH   6   7
ATOM      7  C   UNL     1     -26.158  10.712 -30.098  1.00  0.00     0.152 C 
ATOM      8  O   UNL     1     -26.509  10.100 -31.140  1.00  0.00    -0.295 OA
ATOM      9  C   UNL     1     -25.163  11.822 -30.213  1.00  0.00     0.093 C 
ENDBRANCH   6   7
ENDBRANCH   1   5
TORSDOF 4
ENDMDL
MODEL 6
REMARK VINA RESULT:    -3.778      1.965      4.425
REMARK INTER + INTRA:          -5.031
REMARK INTER:                  -4.824
REMARK INTRA:                  -0.207
REMARK UNBOUND:                -0.369
REMARK SMILES CCCCC=CC(C)=O
REMARK SMILES IDX 4 1 3 2 2 3 1 4 5 5 6 6 7 7 9 8 8 9
REMARK H PARENT
REMARK Flexibility Score: inf
ROOT
ATOM      1  C   UNL     1     -26.294  20.052 -34.949  1.00  0.00     0.027 C 
ENDROOT
BRANCH   1   2
ATOM      2  C   UNL     1     -25.119  20.130 -33.966  1.00  0.00     0.004 C 
BRANCH   2   3
ATOM      3  C   UNL     1     -23.821  19.562 -34.552  1.00  0.00    -0.003 C 
ATOM      4  C   UNL     1     -22.604  20.052 -33.773  1.00  0.00     0.004 C 
ENDBRANCH   2   3
ENDBRANCH   1   2
BRANCH   1   5
ATOM      5  C   UNL     1     -27.599  20.423 -34.291  1.00  0.00    -0.023 C 
ATOM      6  C   UNL     1     -28.388  19.622 -33.555  1.00  0.00     0.042 C 
BRANCH   6   7
ATOM      7  C   UNL     1     -28.171  18.190 -33.248  1.00  0.00     0.152 C 
ATOM      8  O   UNL     1     -27.245  17.806 -32.486  1.00  0.00    -0.295 OA
ATOM      9  C   UNL     1     -29.017  17.163 -33.930  1.00  0.00     0.093 C 
ENDBRANCH   6   7
ENDBRANCH   1   5
TORSDOF 4
ENDMDL
MODEL 7
REMARK VINA RESULT:    -3.700     11.058     12.324
REMARK INTER + INTRA:          -4.935
REMARK INTER:                  -4.306
REMARK INTRA:                  -0.629
REMARK UNBOUND:                -0.369
REMARK SMILES CCCCC=CC(C)=O
REMARK SMILES IDX 4 1 3 2 2 3 1 4 5 5 6 6 7 7 9 8 8 9
REMARK H PARENT
REMARK Flexibility Score: inf
ROOT
ATOM      1  C   UNL     1     -16.883  13.277 -32.314  1.00  0.00     0.027 C 
ENDROOT
BRANCH   1   2
ATOM      2  C   UNL     1     -15.577  12.531 -32.618  1.00  0.00     0.004 C 
BRANCH   2   3
ATOM      3  C   UNL     1     -14.405  13.017 -31.758  1.00  0.00    -0.003 C 
ATOM      4  C   UNL     1     -14.583  14.479 -31.360  1.00  0.00     0.004 C 
ENDBRANCH   2   3
ENDBRANCH   1   2
BRANCH   1   5
ATOM      5  C   UNL     1     -17.889  12.387 -31.630  1.00  0.00    -0.023 C 
ATOM      6  C   UNL     1     -18.033  12.200 -30.306  1.00  0.00     0.042 C 
BRANCH   6   7
ATOM      7  C   UNL     1     -17.221  12.802 -29.224  1.00  0.00     0.152 C 
ATOM      8  O   UNL     1     -17.339  14.012 -28.899  1.00  0.00    -0.295 OA
ATOM      9  C   UNL     1     -16.168  11.974 -28.559  1.00  0.00     0.093 C 
ENDBRANCH   6   7
ENDBRANCH   1   5
TORSDOF 4
ENDMDL
MODEL 8
REMARK VINA RESULT:    -3.608      7.587      9.612
REMARK INTER + INTRA:          -4.821
REMARK INTER:                  -4.345
REMARK INTRA:                  -0.476
REMARK UNBOUND:                -0.369
REMARK SMILES CCCCC=CC(C)=O
REMARK SMILES IDX 4 1 3 2 2 3 1 4 5 5 6 6 7 7 9 8 8 9
REMARK H PARENT
REMARK Flexibility Score: inf
ROOT
ATOM      1  C   UNL     1     -26.854  11.131 -29.420  1.00  0.00     0.027 C 
ENDROOT
BRANCH   1   2
ATOM      2  C   UNL     1     -25.854  12.273 -29.647  1.00  0.00     0.004 C 
BRANCH   2   3
ATOM      3  C   UNL     1     -26.262  13.192 -30.805  1.00  0.00    -0.003 C 
ATOM      4  C   UNL     1     -25.898  14.644 -30.511  1.00  0.00     0.004 C 
ENDBRANCH   2   3
ENDBRANCH   1   2
BRANCH   1   5
ATOM      5  C   UNL     1     -27.950  11.529 -28.465  1.00  0.00    -0.023 C 
ATOM      6  C   UNL     1     -29.222  11.831 -28.778  1.00  0.00     0.042 C 
BRANCH   6   7
ATOM      7  C   UNL     1     -29.827  11.868 -30.129  1.00  0.00     0.152 C 
ATOM      8  O   UNL     1     -30.123  10.816 -30.754  1.00  0.00    -0.295 OA
ATOM      9  C   UNL     1     -30.009  13.187 -30.808  1.00  0.00     0.093 C 
ENDBRANCH   6   7
ENDBRANCH   1   5
TORSDOF 4
ENDMDL
MODEL 9
REMARK VINA RESULT:    -3.592     11.921     14.182
REMARK INTER + INTRA:          -4.801
REMARK INTER:                  -4.470
REMARK INTRA:                  -0.331
REMARK UNBOUND:                -0.369
REMARK SMILES CCCCC=CC(C)=O
REMARK SMILES IDX 4 1 3 2 2 3 1 4 5 5 6 6 7 7 9 8 8 9
REMARK H PARENT
REMARK Flexibility Score: inf
ROOT
ATOM      1  C   UNL     1     -12.863  14.019 -31.218  1.00  0.00     0.027 C 
ENDROOT
BRANCH   1   2
ATOM      2  C   UNL     1     -12.633  13.877 -32.729  1.00  0.00     0.004 C 
BRANCH   2   3
ATOM      3  C   UNL     1     -11.147  13.761 -33.091  1.00  0.00    -0.003 C 
ATOM      4  C   UNL     1     -10.263  14.306 -31.973  1.00  0.00     0.004 C 
ENDBRANCH   2   3
ENDBRANCH   1   2
BRANCH   1   5
ATOM      5  C   UNL     1     -14.011  14.946 -30.913  1.00  0.00    -0.023 C 
ATOM      6  C   UNL     1     -15.308  14.613 -30.793  1.00  0.00     0.042 C 
BRANCH   6   7
ATOM      7  C   UNL     1     -15.905  13.268 -30.961  1.00  0.00     0.152 C 
ATOM      8  O   UNL     1     -15.929  12.429 -30.024  1.00  0.00    -0.295 OA
ATOM      9  C   UNL     1     -16.413  12.861 -32.307  1.00  0.00     0.093 C 
ENDBRANCH   6   7
ENDBRANCH   1   5
TORSDOF 4
ENDMDL
