MODEL 1
REMARK VINA RESULT:    -3.467      0.000      0.000
REMARK INTER + INTRA:          -5.719
REMARK INTER:                  -4.886
REMARK INTRA:                  -0.833
REMARK UNBOUND:                -0.833
REMARK SMILES CCCCCCCCC(=O)[O-]
REMARK SMILES IDX 6 1 7 2 8 3 9 4 10 5 11 6 5 7 4 8 3 9 2 10 1 11
REMARK H PARENT
REMARK Flexibility Score: inf
ROOT
ATOM      1  C   UNL     1     -23.345 120.352  -0.502  1.00  0.00     0.000 C 
ENDROOT
BRANCH   1   2
ATOM      2  C   UNL     1     -23.484 118.846  -0.784  1.00  0.00     0.006 C 
BRANCH   2   3
ATOM      3  C   UNL     1     -23.530 118.017   0.506  1.00  0.00     0.053 C 
BRANCH   3   4
ATOM      4  C   UNL     1     -22.158 117.637   0.975  1.00  0.00     0.041 C 
ATOM      5  O   UNL     1     -21.545 118.370   1.794  1.00  0.00    -0.550 OA
ATOM      6  O   UNL     1     -21.571 116.459   0.532  1.00  0.00    -0.550 OA
ENDBRANCH   3   4
ENDBRANCH   2   3
ENDBRANCH   1   2
BRANCH   1   7
ATOM      7  C   UNL     1     -22.304 121.032  -1.407  1.00  0.00     0.000 C 
BRANCH   7   8
ATOM      8  C   UNL     1     -20.884 120.979  -0.819  1.00  0.00    -0.000 C 
BRANCH   8   9
ATOM      9  C   UNL     1     -19.878 120.307  -1.769  1.00  0.00    -0.000 C 
BRANCH   9  10
ATOM     10  C   UNL     1     -19.737 118.800  -1.512  1.00  0.00    -0.003 C 
ATOM     11  C   UNL     1     -20.428 117.990  -2.605  1.00  0.00     0.004 C 
ENDBRANCH   9  10
ENDBRANCH   8   9
ENDBRANCH   7   8
ENDBRANCH   1   7
TORSDOF 7
ENDMDL
MODEL 2
REMARK VINA RESULT:    -3.341      1.249      2.877
REMARK INTER + INTRA:          -5.541
REMARK INTER:                  -4.839
REMARK INTRA:                  -0.703
REMARK UNBOUND:                -0.833
REMARK SMILES CCCCCCCCC(=O)[O-]
REMARK SMILES IDX 6 1 7 2 8 3 9 4 10 5 11 6 5 7 4 8 3 9 2 10 1 11
REMARK H PARENT
REMARK Flexibility Score: inf
ROOT
ATOM      1  C   UNL     1     -21.169 116.656  -2.131  1.00  0.00     0.000 C 
ENDROOT
BRANCH   1   2
ATOM      2  C   UNL     1     -20.803 116.402  -0.658  1.00  0.00     0.006 C 
BRANCH   2   3
ATOM      3  C   UNL     1     -22.045 116.285   0.236  1.00  0.00     0.053 C 
BRANCH   3   4
ATOM      4  C   UNL     1     -22.433 117.606   0.827  1.00  0.00     0.041 C 
ATOM      5  O   UNL     1     -23.555 118.113   0.562  1.00  0.00    -0.550 OA
ATOM      6  O   UNL     1     -21.569 118.262   1.694  1.00  0.00    -0.550 OA
ENDBRANCH   3   4
ENDBRANCH   2   3
ENDBRANCH   1   2
BRANCH   1   7
ATOM      7  C   UNL     1     -20.694 118.030  -2.632  1.00  0.00     0.000 C 
BRANCH   7   8
ATOM      8  C   UNL     1     -19.786 118.747  -1.619  1.00  0.00    -0.000 C 
BRANCH   8   9
ATOM      9  C   UNL     1     -19.877 120.278  -1.725  1.00  0.00    -0.000 C 
BRANCH   9  10
ATOM     10  C   UNL     1     -20.678 120.906  -0.575  1.00  0.00    -0.003 C 
ATOM     11  C   UNL     1     -22.150 121.054  -0.949  1.00  0.00     0.004 C 
ENDBRANCH   9  10
ENDBRANCH   8   9
ENDBRANCH   7   8
ENDBRANCH   1   7
TORSDOF 7
ENDMDL
MODEL 3
REMARK VINA RESULT:    -3.327      1.332      2.783
REMARK INTER + INTRA:          -5.522
REMARK INTER:                  -4.665
REMARK INTRA:                  -0.857
REMARK UNBOUND:                -0.833
REMARK SMILES CCCCCCCCC(=O)[O-]
REMARK SMILES IDX 6 1 7 2 8 3 9 4 10 5 11 6 5 7 4 8 3 9 2 10 1 11
REMARK H PARENT
REMARK Flexibility Score: inf
ROOT
ATOM      1  C   UNL     1     -20.240 118.100  -1.931  1.00  0.00     0.000 C 
ENDROOT
BRANCH   1   2
ATOM      2  C   UNL     1     -20.727 117.223  -0.765  1.00  0.00     0.006 C 
BRANCH   2   3
ATOM      3  C   UNL     1     -22.257 117.187  -0.666  1.00  0.00     0.053 C 
BRANCH   3   4
ATOM      4  C   UNL     1     -22.748 117.785   0.618  1.00  0.00     0.041 C 
ATOM      5  O   UNL     1     -23.973 118.030   0.775  1.00  0.00    -0.550 OA
ATOM      6  O   UNL     1     -21.857 118.041   1.652  1.00  0.00    -0.550 OA
ENDBRANCH   3   4
ENDBRANCH   2   3
ENDBRANCH   1   2
BRANCH   1   7
ATOM      7  C   UNL     1     -19.623 119.427  -1.458  1.00  0.00     0.000 C 
BRANCH   7   8
ATOM      8  C   UNL     1     -20.460 120.649  -1.873  1.00  0.00    -0.000 C 
BRANCH   8   9
ATOM      9  C   UNL     1     -21.499 121.040  -0.809  1.00  0.00    -0.000 C 
BRANCH   9  10
ATOM     10  C   UNL     1     -22.935 121.042  -1.356  1.00  0.00    -0.003 C 
ATOM     11  C   UNL     1     -22.988 120.443  -2.759  1.00  0.00     0.004 C 
ENDBRANCH   9  10
ENDBRANCH   8   9
ENDBRANCH   7   8
ENDBRANCH   1   7
TORSDOF 7
ENDMDL
MODEL 4
REMARK VINA RESULT:    -3.322      1.422      2.478
REMARK INTER + INTRA:          -5.515
REMARK INTER:                  -4.703
REMARK INTRA:                  -0.812
REMARK UNBOUND:                -0.833
REMARK SMILES CCCCCCCCC(=O)[O-]
REMARK SMILES IDX 6 1 7 2 8 3 9 4 10 5 11 6 5 7 4 8 3 9 2 10 1 11
REMARK H PARENT
REMARK Flexibility Score: inf
ROOT
ATOM      1  C   UNL     1     -22.456 117.735  -2.646  1.00  0.00     0.000 C 
ENDROOT
BRANCH   1   2
ATOM      2  C   UNL     1     -22.381 116.869  -1.377  1.00  0.00     0.006 C 
BRANCH   2   3
ATOM      3  C   UNL     1     -21.506 117.508  -0.290  1.00  0.00     0.053 C 
BRANCH   3   4
ATOM      4  C   UNL     1     -22.289 117.805   0.953  1.00  0.00     0.041 C 
ATOM      5  O   UNL     1     -23.544 117.894   0.904  1.00  0.00    -0.550 OA
ATOM      6  O   UNL     1     -21.636 117.954   2.169  1.00  0.00    -0.550 OA
ENDBRANCH   3   4
ENDBRANCH   2   3
ENDBRANCH   1   2
BRANCH   1   7
ATOM      7  C   UNL     1     -23.325 118.990  -2.457  1.00  0.00     0.000 C 
BRANCH   7   8
ATOM      8  C   UNL     1     -22.524 120.293  -2.617  1.00  0.00    -0.000 C 
BRANCH   8   9
ATOM      9  C   UNL     1     -22.346 121.043  -1.286  1.00  0.00    -0.000 C 
BRANCH   9  10
ATOM     10  C   UNL     1     -20.877 121.132  -0.848  1.00  0.00    -0.003 C 
ATOM     11  C   UNL     1     -19.941 120.722  -1.981  1.00  0.00     0.004 C 
ENDBRANCH   9  10
ENDBRANCH   8   9
ENDBRANCH   7   8
ENDBRANCH   1   7
TORSDOF 7
ENDMDL
MODEL 5
REMARK VINA RESULT:    -3.300      2.706      4.053
REMARK INTER + INTRA:          -5.483
REMARK INTER:                  -4.794
REMARK INTRA:                  -0.690
REMARK UNBOUND:                -0.833
REMARK SMILES CCCCCCCCC(=O)[O-]
REMARK SMILES IDX 6 1 7 2 8 3 9 4 10 5 11 6 5 7 4 8 3 9 2 10 1 11
REMARK H PARENT
REMARK Flexibility Score: inf
ROOT
ATOM      1  C   UNL     1     -20.277 120.510  -0.954  1.00  0.00     0.000 C 
ENDROOT
BRANCH   1   2
ATOM      2  C   UNL     1     -21.495 121.450  -0.994  1.00  0.00     0.006 C 
BRANCH   2   3
ATOM      3  C   UNL     1     -22.798 120.726  -0.634  1.00  0.00     0.053 C 
BRANCH   3   4
ATOM      4  C   UNL     1     -23.890 121.018  -1.619  1.00  0.00     0.041 C 
ATOM      5  O   UNL     1     -23.641 121.029  -2.853  1.00  0.00    -0.550 OA
ATOM      6  O   UNL     1     -25.185 121.249  -1.176  1.00  0.00    -0.550 OA
ENDBRANCH   3   4
ENDBRANCH   2   3
ENDBRANCH   1   2
BRANCH   1   7
ATOM      7  C   UNL     1     -20.365 119.382  -1.995  1.00  0.00     0.000 C 
BRANCH   7   8
ATOM      8  C   UNL     1     -20.138 117.991  -1.380  1.00  0.00    -0.000 C 
BRANCH   8   9
ATOM      9  C   UNL     1     -21.455 117.289  -1.008  1.00  0.00    -0.000 C 
BRANCH   9  10
ATOM     10  C   UNL     1     -21.449 116.738   0.425  1.00  0.00    -0.003 C 
ATOM     11  C   UNL     1     -21.806 117.826   1.433  1.00  0.00     0.004 C 
ENDBRANCH   9  10
ENDBRANCH   8   9
ENDBRANCH   7   8
ENDBRANCH   1   7
TORSDOF 7
ENDMDL
MODEL 6
REMARK VINA RESULT:    -3.259      2.966      4.251
REMARK INTER + INTRA:          -5.426
REMARK INTER:                  -4.879
REMARK INTRA:                  -0.547
REMARK UNBOUND:                -0.833
REMARK SMILES CCCCCCCCC(=O)[O-]
REMARK SMILES IDX 6 1 7 2 8 3 9 4 10 5 11 6 5 7 4 8 3 9 2 10 1 11
REMARK H PARENT
REMARK Flexibility Score: inf
ROOT
ATOM      1  C   UNL     1     -21.690 115.851  -0.341  1.00  0.00     0.000 C 
ENDROOT
BRANCH   1   2
ATOM      2  C   UNL     1     -20.789 114.783  -0.984  1.00  0.00     0.006 C 
BRANCH   2   3
ATOM      3  C   UNL     1     -19.367 114.800  -0.406  1.00  0.00     0.053 C 
BRANCH   3   4
ATOM      4  C   UNL     1     -18.367 115.311  -1.399  1.00  0.00     0.041 C 
ATOM      5  O   UNL     1     -18.720 115.558  -2.582  1.00  0.00    -0.550 OA
ATOM      6  O   UNL     1     -17.054 115.542  -1.009  1.00  0.00    -0.550 OA
ENDBRANCH   3   4
ENDBRANCH   2   3
ENDBRANCH   1   2
BRANCH   1   7
ATOM      7  C   UNL     1     -21.787 117.132  -1.187  1.00  0.00     0.000 C 
BRANCH   7   8
ATOM      8  C   UNL     1     -20.958 118.289  -0.605  1.00  0.00    -0.000 C 
BRANCH   8   9
ATOM      9  C   UNL     1     -19.883 118.794  -1.582  1.00  0.00    -0.000 C 
BRANCH   9  10
ATOM     10  C   UNL     1     -19.769 120.325  -1.598  1.00  0.00    -0.003 C 
ATOM     11  C   UNL     1     -21.009 120.974  -0.990  1.00  0.00     0.004 C 
ENDBRANCH   9  10
ENDBRANCH   8   9
ENDBRANCH   7   8
ENDBRANCH   1   7
TORSDOF 7
ENDMDL
MODEL 7
REMARK VINA RESULT:    -3.218      1.921      3.822
REMARK INTER + INTRA:          -5.368
REMARK INTER:                  -4.575
REMARK INTRA:                  -0.793
REMARK UNBOUND:                -0.833
REMARK SMILES CCCCCCCCC(=O)[O-]
REMARK SMILES IDX 6 1 7 2 8 3 9 4 10 5 11 6 5 7 4 8 3 9 2 10 1 11
REMARK H PARENT
REMARK Flexibility Score: inf
ROOT
ATOM      1  C   UNL     1     -20.847 121.049  -0.960  1.00  0.00     0.000 C 
ENDROOT
BRANCH   1   2
ATOM      2  C   UNL     1     -19.888 120.221  -1.833  1.00  0.00     0.006 C 
BRANCH   2   3
ATOM      3  C   UNL     1     -19.913 118.731  -1.468  1.00  0.00     0.053 C 
BRANCH   3   4
ATOM      4  C   UNL     1     -20.395 117.885  -2.608  1.00  0.00     0.041 C 
ATOM      5  O   UNL     1     -20.006 116.693  -2.719  1.00  0.00    -0.550 OA
ATOM      6  O   UNL     1     -21.295 118.404  -3.529  1.00  0.00    -0.550 OA
ENDBRANCH   3   4
ENDBRANCH   2   3
ENDBRANCH   1   2
BRANCH   1   7
ATOM      7  C   UNL     1     -22.294 121.023  -1.480  1.00  0.00     0.000 C 
BRANCH   7   8
ATOM      8  C   UNL     1     -23.297 120.551  -0.413  1.00  0.00    -0.000 C 
BRANCH   8   9
ATOM      9  C   UNL     1     -24.183 119.395  -0.907  1.00  0.00    -0.000 C 
BRANCH   9  10
ATOM     10  C   UNL     1     -23.531 118.020  -0.703  1.00  0.00    -0.003 C 
ATOM     11  C   UNL     1     -22.848 117.933   0.659  1.00  0.00     0.004 C 
ENDBRANCH   9  10
ENDBRANCH   8   9
ENDBRANCH   7   8
ENDBRANCH   1   7
TORSDOF 7
ENDMDL
MODEL 8
REMARK VINA RESULT:    -3.209      3.285      4.774
REMARK INTER + INTRA:          -5.355
REMARK INTER:                  -4.637
REMARK INTRA:                  -0.718
REMARK UNBOUND:                -0.833
REMARK SMILES CCCCCCCCC(=O)[O-]
REMARK SMILES IDX 6 1 7 2 8 3 9 4 10 5 11 6 5 7 4 8 3 9 2 10 1 11
REMARK H PARENT
REMARK Flexibility Score: inf
ROOT
ATOM      1  C   UNL     1     -21.259 116.261  -1.496  1.00  0.00     0.000 C 
ENDROOT
BRANCH   1   2
ATOM      2  C   UNL     1     -20.904 117.572  -0.773  1.00  0.00     0.006 C 
BRANCH   2   3
ATOM      3  C   UNL     1     -19.982 118.466  -1.612  1.00  0.00     0.053 C 
BRANCH   3   4
ATOM      4  C   UNL     1     -20.163 119.918  -1.284  1.00  0.00     0.041 C 
ATOM      5  O   UNL     1     -20.766 120.258  -0.233  1.00  0.00    -0.550 OA
ATOM      6  O   UNL     1     -19.639 120.891  -2.124  1.00  0.00    -0.550 OA
ENDBRANCH   3   4
ENDBRANCH   2   3
ENDBRANCH   1   2
BRANCH   1   7
ATOM      7  C   UNL     1     -20.938 115.014  -0.656  1.00  0.00     0.000 C 
BRANCH   7   8
ATOM      8  C   UNL     1     -19.710 114.250  -1.177  1.00  0.00    -0.000 C 
BRANCH   8   9
ATOM      9  C   UNL     1     -18.416 114.643  -0.445  1.00  0.00    -0.000 C 
BRANCH   9  10
ATOM     10  C   UNL     1     -17.541 115.604  -1.263  1.00  0.00    -0.003 C 
ATOM     11  C   UNL     1     -17.786 115.430  -2.760  1.00  0.00     0.004 C 
ENDBRANCH   9  10
ENDBRANCH   8   9
ENDBRANCH   7   8
ENDBRANCH   1   7
TORSDOF 7
ENDMDL
MODEL 9
REMARK VINA RESULT:    -3.196      1.971      2.886
REMARK INTER + INTRA:          -5.337
REMARK INTER:                  -4.583
REMARK INTRA:                  -0.754
REMARK UNBOUND:                -0.833
REMARK SMILES CCCCCCCCC(=O)[O-]
REMARK SMILES IDX 6 1 7 2 8 3 9 4 10 5 11 6 5 7 4 8 3 9 2 10 1 11
REMARK H PARENT
REMARK Flexibility Score: inf
ROOT
ATOM      1  C   UNL     1     -21.909 118.244   0.852  1.00  0.00     0.000 C 
ENDROOT
BRANCH   1   2
ATOM      2  C   UNL     1     -21.424 116.908   0.265  1.00  0.00     0.006 C 
BRANCH   2   3
ATOM      3  C   UNL     1     -21.586 116.852  -1.260  1.00  0.00     0.053 C 
BRANCH   3   4
ATOM      4  C   UNL     1     -20.298 116.508  -1.946  1.00  0.00     0.041 C 
ATOM      5  O   UNL     1     -19.260 117.182  -1.717  1.00  0.00    -0.550 OA
ATOM      6  O   UNL     1     -20.239 115.425  -2.813  1.00  0.00    -0.550 OA
ENDBRANCH   3   4
ENDBRANCH   2   3
ENDBRANCH   1   2
BRANCH   1   7
ATOM      7  C   UNL     1     -22.775 119.046  -0.133  1.00  0.00     0.000 C 
BRANCH   7   8
ATOM      8  C   UNL     1     -22.190 120.435  -0.440  1.00  0.00    -0.000 C 
BRANCH   8   9
ATOM      9  C   UNL     1     -20.658 120.470  -0.318  1.00  0.00    -0.000 C 
BRANCH   9  10
ATOM     10  C   UNL     1     -19.958 120.632  -1.675  1.00  0.00    -0.003 C 
ATOM     11  C   UNL     1     -20.903 120.287  -2.823  1.00  0.00     0.004 C 
ENDBRANCH   9  10
ENDBRANCH   8   9
ENDBRANCH   7   8
ENDBRANCH   1   7
TORSDOF 7
ENDMDL
