MODEL 1
REMARK VINA RESULT:    -4.583      0.000      0.000
REMARK INTER + INTRA:          -5.068
REMARK INTER:                  -4.851
REMARK INTRA:                  -0.217
REMARK UNBOUND:                -0.217
REMARK SMILES C=C(C)[C@H]1CC=C(C)C(=O)C1
REMARK SMILES IDX 8 1 7 2 6 3 5 4 4 5 11 6 9 7 10 8 2 9 1 10 3 11
REMARK H PARENT
REMARK Flexibility Score: inf
ROOT
ATOM      1  C   UNL     1     -29.683 -12.500  21.606  1.00  0.00     0.048 C 
ATOM      2  C   UNL     1     -29.221 -12.245  23.014  1.00  0.00    -0.012 C 
ATOM      3  C   UNL     1     -30.125 -12.003  23.976  1.00  0.00    -0.019 C 
ATOM      4  C   UNL     1     -29.735 -11.774  25.411  1.00  0.00     0.036 C 
ATOM      5  C   UNL     1     -28.337 -11.142  25.577  1.00  0.00     0.025 C 
ATOM      6  C   UNL     1     -27.283 -11.843  24.696  1.00  0.00     0.089 C 
ATOM      7  C   UNL     1     -27.774 -12.111  23.301  1.00  0.00     0.158 C 
ATOM      8  O   UNL     1     -26.931 -12.258  22.376  1.00  0.00    -0.295 OA
ENDROOT
BRANCH   5   9
ATOM      9  C   UNL     1     -28.348  -9.622  25.404  1.00  0.00    -0.077 C 
ATOM     10  C   UNL     1     -29.413  -8.870  25.733  1.00  0.00     0.008 C 
ATOM     11  C   UNL     1     -27.135  -8.922  24.846  1.00  0.00     0.039 C 
ENDBRANCH   5   9
TORSDOF 1
ENDMDL
MODEL 2
REMARK VINA RESULT:    -4.286      1.546      2.452
REMARK INTER + INTRA:          -4.753
REMARK INTER:                  -4.723
REMARK INTRA:                  -0.031
REMARK UNBOUND:                -0.217
REMARK SMILES C=C(C)[C@H]1CC=C(C)C(=O)C1
REMARK SMILES IDX 8 1 7 2 6 3 5 4 4 5 11 6 9 7 10 8 2 9 1 10 3 11
REMARK H PARENT
REMARK Flexibility Score: inf
ROOT
ATOM      1  C   UNL     1     -29.045 -14.863  22.021  1.00  0.00     0.048 C 
ATOM      2  C   UNL     1     -28.317 -13.704  22.645  1.00  0.00    -0.012 C 
ATOM      3  C   UNL     1     -27.529 -13.911  23.711  1.00  0.00    -0.019 C 
ATOM      4  C   UNL     1     -26.746 -12.805  24.364  1.00  0.00     0.036 C 
ATOM      5  C   UNL     1     -27.409 -11.418  24.231  1.00  0.00     0.025 C 
ATOM      6  C   UNL     1     -27.886 -11.146  22.790  1.00  0.00     0.089 C 
ATOM      7  C   UNL     1     -28.589 -12.325  22.176  1.00  0.00     0.158 C 
ATOM      8  O   UNL     1     -29.393 -12.129  21.226  1.00  0.00    -0.295 OA
ENDROOT
BRANCH   5   9
ATOM      9  C   UNL     1     -28.498 -11.178  25.279  1.00  0.00    -0.077 C 
ATOM     10  C   UNL     1     -28.904 -12.140  26.125  1.00  0.00     0.008 C 
ATOM     11  C   UNL     1     -29.153  -9.823  25.383  1.00  0.00     0.039 C 
ENDBRANCH   5   9
TORSDOF 1
ENDMDL
MODEL 3
REMARK VINA RESULT:    -4.226      1.881      4.051
REMARK INTER + INTRA:          -4.690
REMARK INTER:                  -4.470
REMARK INTRA:                  -0.220
REMARK UNBOUND:                -0.217
REMARK SMILES C=C(C)[C@H]1CC=C(C)C(=O)C1
REMARK SMILES IDX 8 1 7 2 6 3 5 4 4 5 11 6 9 7 10 8 2 9 1 10 3 11
REMARK H PARENT
REMARK Flexibility Score: inf
ROOT
ATOM      1  C   UNL     1     -27.277  -9.205  25.655  1.00  0.00     0.048 C 
ATOM      2  C   UNL     1     -27.937 -10.550  25.521  1.00  0.00    -0.012 C 
ATOM      3  C   UNL     1     -27.180 -11.652  25.406  1.00  0.00    -0.019 C 
ATOM      4  C   UNL     1     -27.772 -13.031  25.303  1.00  0.00     0.036 C 
ATOM      5  C   UNL     1     -29.166 -13.056  24.640  1.00  0.00     0.025 C 
ATOM      6  C   UNL     1     -30.093 -11.966  25.215  1.00  0.00     0.089 C 
ATOM      7  C   UNL     1     -29.408 -10.636  25.364  1.00  0.00     0.158 C 
ATOM      8  O   UNL     1     -30.108  -9.589  25.391  1.00  0.00    -0.295 OA
ENDROOT
BRANCH   5   9
ATOM      9  C   UNL     1     -29.097 -13.041  23.112  1.00  0.00    -0.077 C 
ATOM     10  C   UNL     1     -30.047 -12.463  22.357  1.00  0.00     0.008 C 
ATOM     11  C   UNL     1     -27.933 -13.692  22.408  1.00  0.00     0.039 C 
ENDBRANCH   5   9
TORSDOF 1
ENDMDL
MODEL 4
REMARK VINA RESULT:    -4.219      1.921      4.123
REMARK INTER + INTRA:          -4.683
REMARK INTER:                  -4.653
REMARK INTRA:                  -0.030
REMARK UNBOUND:                -0.217
REMARK SMILES C=C(C)[C@H]1CC=C(C)C(=O)C1
REMARK SMILES IDX 8 1 7 2 6 3 5 4 4 5 11 6 9 7 10 8 2 9 1 10 3 11
REMARK H PARENT
REMARK Flexibility Score: inf
ROOT
ATOM      1  C   UNL     1     -27.749  -9.619  24.587  1.00  0.00     0.048 C 
ATOM      2  C   UNL     1     -27.591 -10.997  24.005  1.00  0.00    -0.012 C 
ATOM      3  C   UNL     1     -27.874 -11.208  22.711  1.00  0.00    -0.019 C 
ATOM      4  C   UNL     1     -27.706 -12.553  22.056  1.00  0.00     0.036 C 
ATOM      5  C   UNL     1     -27.894 -13.739  23.025  1.00  0.00     0.025 C 
ATOM      6  C   UNL     1     -27.121 -13.530  24.343  1.00  0.00     0.089 C 
ATOM      7  C   UNL     1     -27.272 -12.139  24.894  1.00  0.00     0.158 C 
ATOM      8  O   UNL     1     -27.086 -11.948  26.125  1.00  0.00    -0.295 OA
ENDROOT
BRANCH   5   9
ATOM      9  C   UNL     1     -29.365 -14.100  23.243  1.00  0.00    -0.077 C 
ATOM     10  C   UNL     1     -30.120 -14.645  22.275  1.00  0.00     0.008 C 
ATOM     11  C   UNL     1     -30.009 -13.844  24.582  1.00  0.00     0.039 C 
ENDBRANCH   5   9
TORSDOF 1
ENDMDL
MODEL 5
REMARK VINA RESULT:    -4.198      1.952      4.349
REMARK INTER + INTRA:          -4.661
REMARK INTER:                  -4.600
REMARK INTRA:                  -0.061
REMARK UNBOUND:                -0.217
REMARK SMILES C=C(C)[C@H]1CC=C(C)C(=O)C1
REMARK SMILES IDX 8 1 7 2 6 3 5 4 4 5 11 6 9 7 10 8 2 9 1 10 3 11
REMARK H PARENT
REMARK Flexibility Score: inf
ROOT
ATOM      1  C   UNL     1     -27.157 -11.847  26.125  1.00  0.00     0.048 C 
ATOM      2  C   UNL     1     -28.263 -12.259  25.192  1.00  0.00    -0.012 C 
ATOM      3  C   UNL     1     -28.960 -13.378  25.442  1.00  0.00    -0.019 C 
ATOM      4  C   UNL     1     -30.100 -13.831  24.570  1.00  0.00     0.036 C 
ATOM      5  C   UNL     1     -29.960 -13.397  23.096  1.00  0.00     0.025 C 
ATOM      6  C   UNL     1     -29.564 -11.911  22.971  1.00  0.00     0.089 C 
ATOM      7  C   UNL     1     -28.475 -11.515  23.929  1.00  0.00     0.158 C 
ATOM      8  O   UNL     1     -27.763 -10.511  23.660  1.00  0.00    -0.295 OA
ENDROOT
BRANCH   5   9
ATOM      9  C   UNL     1     -29.056 -14.328  22.286  1.00  0.00    -0.077 C 
ATOM     10  C   UNL     1     -27.884 -13.920  21.769  1.00  0.00     0.008 C 
ATOM     11  C   UNL     1     -29.474 -15.757  22.047  1.00  0.00     0.039 C 
ENDBRANCH   5   9
TORSDOF 1
ENDMDL
MODEL 6
REMARK VINA RESULT:    -3.978      1.894      2.503
REMARK INTER + INTRA:          -4.427
REMARK INTER:                  -4.219
REMARK INTRA:                  -0.209
REMARK UNBOUND:                -0.217
REMARK SMILES C=C(C)[C@H]1CC=C(C)C(=O)C1
REMARK SMILES IDX 8 1 7 2 6 3 5 4 4 5 11 6 9 7 10 8 2 9 1 10 3 11
REMARK H PARENT
REMARK Flexibility Score: inf
ROOT
ATOM      1  C   UNL     1     -29.876 -12.252  21.228  1.00  0.00     0.048 C 
ATOM      2  C   UNL     1     -29.852 -12.511  22.709  1.00  0.00    -0.012 C 
ATOM      3  C   UNL     1     -30.098 -11.505  23.563  1.00  0.00    -0.019 C 
ATOM      4  C   UNL     1     -30.124 -11.700  25.055  1.00  0.00     0.036 C 
ATOM      5  C   UNL     1     -29.201 -12.837  25.545  1.00  0.00     0.025 C 
ATOM      6  C   UNL     1     -29.364 -14.113  24.695  1.00  0.00     0.089 C 
ATOM      7  C   UNL     1     -29.410 -13.830  23.219  1.00  0.00     0.158 C 
ATOM      8  O   UNL     1     -29.102 -14.747  22.413  1.00  0.00    -0.295 OA
ENDROOT
BRANCH   5   9
ATOM      9  C   UNL     1     -27.743 -12.396  25.692  1.00  0.00    -0.077 C 
ATOM     10  C   UNL     1     -27.405 -11.169  26.122  1.00  0.00     0.008 C 
ATOM     11  C   UNL     1     -26.632 -13.355  25.346  1.00  0.00     0.039 C 
ENDBRANCH   5   9
TORSDOF 1
ENDMDL
MODEL 7
REMARK VINA RESULT:    -3.356      2.337      3.317
REMARK INTER + INTRA:          -3.770
REMARK INTER:                  -3.592
REMARK INTRA:                  -0.178
REMARK UNBOUND:                -0.217
REMARK SMILES C=C(C)[C@H]1CC=C(C)C(=O)C1
REMARK SMILES IDX 8 1 7 2 6 3 5 4 4 5 11 6 9 7 10 8 2 9 1 10 3 11
REMARK H PARENT
REMARK Flexibility Score: inf
ROOT
ATOM      1  C   UNL     1     -29.577 -15.959  22.128  1.00  0.00     0.048 C 
ATOM      2  C   UNL     1     -29.726 -14.599  22.751  1.00  0.00    -0.012 C 
ATOM      3  C   UNL     1     -29.488 -13.502  22.015  1.00  0.00    -0.019 C 
ATOM      4  C   UNL     1     -29.650 -12.110  22.565  1.00  0.00     0.036 C 
ATOM      5  C   UNL     1     -29.396 -12.013  24.084  1.00  0.00     0.025 C 
ATOM      6  C   UNL     1     -30.123 -13.132  24.858  1.00  0.00     0.089 C 
ATOM      7  C   UNL     1     -29.983 -14.479  24.205  1.00  0.00     0.158 C 
ATOM      8  O   UNL     1     -30.125 -15.515  24.908  1.00  0.00    -0.295 OA
ENDROOT
BRANCH   5   9
ATOM      9  C   UNL     1     -27.910 -11.910  24.433  1.00  0.00    -0.077 C 
ATOM     10  C   UNL     1     -27.067 -11.119  23.748  1.00  0.00     0.008 C 
ATOM     11  C   UNL     1     -27.352 -12.714  25.580  1.00  0.00     0.039 C 
ENDBRANCH   5   9
TORSDOF 1
ENDMDL
MODEL 8
REMARK VINA RESULT:    -3.345      2.701      4.203
REMARK INTER + INTRA:          -3.758
REMARK INTER:                  -3.998
REMARK INTRA:                   0.240
REMARK UNBOUND:                -0.217
REMARK SMILES C=C(C)[C@H]1CC=C(C)C(=O)C1
REMARK SMILES IDX 8 1 7 2 6 3 5 4 4 5 11 6 9 7 10 8 2 9 1 10 3 11
REMARK H PARENT
REMARK Flexibility Score: inf
ROOT
ATOM      1  C   UNL     1     -26.467 -12.923  25.815  1.00  0.00     0.048 C 
ATOM      2  C   UNL     1     -27.472 -13.361  24.786  1.00  0.00    -0.012 C 
ATOM      3  C   UNL     1     -27.048 -13.859  23.614  1.00  0.00    -0.019 C 
ATOM      4  C   UNL     1     -27.998 -14.347  22.553  1.00  0.00     0.036 C 
ATOM      5  C   UNL     1     -29.361 -13.624  22.564  1.00  0.00     0.025 C 
ATOM      6  C   UNL     1     -29.940 -13.515  23.990  1.00  0.00     0.089 C 
ATOM      7  C   UNL     1     -28.914 -13.101  25.007  1.00  0.00     0.158 C 
ATOM      8  O   UNL     1     -29.300 -12.558  26.076  1.00  0.00    -0.295 OA
ENDROOT
BRANCH   5   9
ATOM      9  C   UNL     1     -29.327 -12.283  21.827  1.00  0.00    -0.077 C 
ATOM     10  C   UNL     1     -28.606 -11.239  22.269  1.00  0.00     0.008 C 
ATOM     11  C   UNL     1     -30.124 -12.105  20.559  1.00  0.00     0.039 C 
ENDBRANCH   5   9
TORSDOF 1
ENDMDL
