MODEL 1
REMARK VINA RESULT:    -2.349      0.000      0.000
REMARK INTER + INTRA:          -4.969
REMARK INTER:                  -4.271
REMARK INTRA:                  -0.698
REMARK UNBOUND:                -0.698
REMARK SMILES CCCCCC=CCC=CCCCCCCCC(=O)[O-]
REMARK SMILES IDX 11 1 12 2 13 3 14 4 15 5 16 6 17 7 18 8 19 9 20 10 10 11
REMARK SMILES IDX 9 12 8 13 7 14 6 15 5 16 4 17 3 18 2 19 1 20
REMARK H PARENT
REMARK Flexibility Score: inf
ROOT
ATOM      1  C   UNL     1     149.419 143.718 146.420  1.00  0.00     0.027 C 
ENDROOT
BRANCH   1   2
ATOM      2  C   UNL     1     149.355 143.077 147.812  1.00  0.00     0.004 C 
BRANCH   2   3
ATOM      3  C   UNL     1     149.692 141.584 147.744  1.00  0.00     0.000 C 
BRANCH   3   4
ATOM      4  C   UNL     1     151.088 141.307 148.324  1.00  0.00     0.000 C 
BRANCH   4   5
ATOM      5  C   UNL     1     151.020 140.553 149.669  1.00  0.00     0.000 C 
BRANCH   5   6
ATOM      6  C   UNL     1     151.117 141.475 150.897  1.00  0.00     0.006 C 
BRANCH   6   7
ATOM      7  C   UNL     1     152.518 141.495 151.520  1.00  0.00     0.053 C 
BRANCH   7   8
ATOM      8  C   UNL     1     153.262 142.720 151.096  1.00  0.00     0.041 C 
ATOM      9  O   UNL     1     152.953 143.844 151.571  1.00  0.00    -0.550 OA
ATOM     10  O   UNL     1     154.330 142.616 150.212  1.00  0.00    -0.550 OA
ENDBRANCH   7   8
ENDBRANCH   6   7
ENDBRANCH   5   6
ENDBRANCH   4   5
ENDBRANCH   3   4
ENDBRANCH   2   3
ENDBRANCH   1   2
BRANCH   1  11
ATOM     11  C   UNL     1     148.837 145.109 146.431  1.00  0.00    -0.031 C 
ATOM     12  C   UNL     1     148.542 145.831 145.333  1.00  0.00    -0.027 C 
BRANCH  12  13
ATOM     13  C   UNL     1     148.734 145.371 143.909  1.00  0.00     0.054 C 
BRANCH  13  14
ATOM     14  C   UNL     1     147.439 144.801 143.388  1.00  0.00    -0.027 C 
ATOM     15  C   UNL     1     146.345 145.519 143.069  1.00  0.00    -0.031 C 
BRANCH  15  16
ATOM     16  C   UNL     1     146.239 147.019 143.166  1.00  0.00     0.027 C 
BRANCH  16  17
ATOM     17  C   UNL     1     145.915 147.463 144.601  1.00  0.00     0.004 C 
BRANCH  17  18
ATOM     18  C   UNL     1     144.760 146.664 145.227  1.00  0.00     0.000 C 
BRANCH  18  19
ATOM     19  C   UNL     1     143.833 147.481 146.144  1.00  0.00    -0.003 C 
ATOM     20  C   UNL     1     143.659 148.928 145.681  1.00  0.00     0.004 C 
ENDBRANCH  18  19
ENDBRANCH  17  18
ENDBRANCH  16  17
ENDBRANCH  15  16
ENDBRANCH  13  14
ENDBRANCH  12  13
ENDBRANCH   1  11
TORSDOF 14
ENDMDL
MODEL 2
REMARK VINA RESULT:    -2.302      1.452      3.085
REMARK INTER + INTRA:          -4.884
REMARK INTER:                  -3.823
REMARK INTRA:                  -1.062
REMARK UNBOUND:                -0.698
REMARK SMILES CCCCCC=CCC=CCCCCCCCC(=O)[O-]
REMARK SMILES IDX 11 1 12 2 13 3 14 4 15 5 16 6 17 7 18 8 19 9 20 10 10 11
REMARK SMILES IDX 9 12 8 13 7 14 6 15 5 16 4 17 3 18 2 19 1 20
REMARK H PARENT
REMARK Flexibility Score: inf
ROOT
ATOM      1  C   UNL     1     150.827 141.483 147.878  1.00  0.00     0.027 C 
ENDROOT
BRANCH   1   2
ATOM      2  C   UNL     1     151.455 140.756 149.074  1.00  0.00     0.004 C 
BRANCH   2   3
ATOM      3  C   UNL     1     150.845 141.241 150.393  1.00  0.00     0.000 C 
BRANCH   3   4
ATOM      4  C   UNL     1     151.940 141.555 151.424  1.00  0.00     0.000 C 
BRANCH   4   5
ATOM      5  C   UNL     1     152.875 142.690 150.954  1.00  0.00     0.000 C 
BRANCH   5   6
ATOM      6  C   UNL     1     154.305 142.219 150.642  1.00  0.00     0.006 C 
BRANCH   6   7
ATOM      7  C   UNL     1     154.952 142.997 149.490  1.00  0.00     0.053 C 
BRANCH   7   8
ATOM      8  C   UNL     1     155.177 142.101 148.315  1.00  0.00     0.041 C 
ATOM      9  O   UNL     1     154.202 141.716 147.617  1.00  0.00    -0.550 OA
ATOM     10  O   UNL     1     156.469 141.729 147.959  1.00  0.00    -0.550 OA
ENDBRANCH   7   8
ENDBRANCH   6   7
ENDBRANCH   5   6
ENDBRANCH   4   5
ENDBRANCH   3   4
ENDBRANCH   2   3
ENDBRANCH   1   2
BRANCH   1  11
ATOM     11  C   UNL     1     149.475 142.050 148.230  1.00  0.00    -0.031 C 
ATOM     12  C   UNL     1     148.906 143.115 147.633  1.00  0.00    -0.027 C 
BRANCH  12  13
ATOM     13  C   UNL     1     149.515 143.913 146.508  1.00  0.00     0.054 C 
BRANCH  13  14
ATOM     14  C   UNL     1     149.069 145.349 146.613  1.00  0.00    -0.027 C 
ATOM     15  C   UNL     1     148.389 146.024 145.665  1.00  0.00    -0.031 C 
BRANCH  15  16
ATOM     16  C   UNL     1     147.947 145.448 144.344  1.00  0.00     0.027 C 
BRANCH  16  17
ATOM     17  C   UNL     1     146.629 146.081 143.873  1.00  0.00     0.004 C 
BRANCH  17  18
ATOM     18  C   UNL     1     146.049 147.080 144.889  1.00  0.00     0.000 C 
BRANCH  18  19
ATOM     19  C   UNL     1     144.666 146.703 145.446  1.00  0.00    -0.003 C 
ATOM     20  C   UNL     1     143.827 147.919 145.840  1.00  0.00     0.004 C 
ENDBRANCH  18  19
ENDBRANCH  17  18
ENDBRANCH  16  17
ENDBRANCH  15  16
ENDBRANCH  13  14
ENDBRANCH  12  13
ENDBRANCH   1  11
TORSDOF 14
ENDMDL
MODEL 3
REMARK VINA RESULT:    -2.288      6.288      9.106
REMARK INTER + INTRA:          -4.859
REMARK INTER:                  -3.270
REMARK INTRA:                  -1.589
REMARK UNBOUND:                -0.698
REMARK SMILES CCCCCC=CCC=CCCCCCCCC(=O)[O-]
REMARK SMILES IDX 11 1 12 2 13 3 14 4 15 5 16 6 17 7 18 8 19 9 20 10 10 11
REMARK SMILES IDX 9 12 8 13 7 14 6 15 5 16 4 17 3 18 2 19 1 20
REMARK H PARENT
REMARK Flexibility Score: inf
ROOT
ATOM      1  C   UNL     1     156.036 141.972 149.602  1.00  0.00     0.027 C 
ENDROOT
BRANCH   1   2
ATOM      2  C   UNL     1     157.210 142.394 148.710  1.00  0.00     0.004 C 
BRANCH   2   3
ATOM      3  C   UNL     1     157.554 141.297 147.698  1.00  0.00     0.000 C 
BRANCH   3   4
ATOM      4  C   UNL     1     158.046 141.901 146.374  1.00  0.00     0.000 C 
BRANCH   4   5
ATOM      5  C   UNL     1     156.956 142.740 145.676  1.00  0.00     0.000 C 
BRANCH   5   6
ATOM      6  C   UNL     1     157.468 143.522 144.454  1.00  0.00     0.006 C 
BRANCH   6   7
ATOM      7  C   UNL     1     157.758 142.621 143.248  1.00  0.00     0.053 C 
BRANCH   7   8
ATOM      8  C   UNL     1     156.668 141.614 143.073  1.00  0.00     0.041 C 
ATOM      9  O   UNL     1     155.483 141.992 142.875  1.00  0.00    -0.550 OA
ATOM     10  O   UNL     1     156.965 140.256 143.079  1.00  0.00    -0.550 OA
ENDBRANCH   7   8
ENDBRANCH   6   7
ENDBRANCH   5   6
ENDBRANCH   4   5
ENDBRANCH   3   4
ENDBRANCH   2   3
ENDBRANCH   1   2
BRANCH   1  11
ATOM     11  C   UNL     1     154.985 143.050 149.672  1.00  0.00    -0.031 C 
ATOM     12  C   UNL     1     153.918 143.037 150.493  1.00  0.00    -0.027 C 
BRANCH  12  13
ATOM     13  C   UNL     1     153.598 141.949 151.488  1.00  0.00     0.054 C 
BRANCH  13  14
ATOM     14  C   UNL     1     152.160 142.077 151.924  1.00  0.00    -0.027 C 
ATOM     15  C   UNL     1     151.111 141.465 151.339  1.00  0.00    -0.031 C 
BRANCH  15  16
ATOM     16  C   UNL     1     151.204 140.536 150.156  1.00  0.00     0.027 C 
BRANCH  16  17
ATOM     17  C   UNL     1     150.326 141.025 148.993  1.00  0.00     0.004 C 
BRANCH  17  18
ATOM     18  C   UNL     1     151.144 141.408 147.747  1.00  0.00     0.000 C 
BRANCH  18  19
ATOM     19  C   UNL     1     152.638 141.046 147.821  1.00  0.00    -0.003 C 
ATOM     20  C   UNL     1     153.509 141.916 146.914  1.00  0.00     0.004 C 
ENDBRANCH  18  19
ENDBRANCH  17  18
ENDBRANCH  16  17
ENDBRANCH  15  16
ENDBRANCH  13  14
ENDBRANCH  12  13
ENDBRANCH   1  11
TORSDOF 14
ENDMDL
MODEL 4
REMARK VINA RESULT:    -2.238      3.834      8.947
REMARK INTER + INTRA:          -4.767
REMARK INTER:                  -3.851
REMARK INTRA:                  -0.916
REMARK UNBOUND:                -0.698
REMARK SMILES CCCCCC=CCC=CCCCCCCCC(=O)[O-]
REMARK SMILES IDX 11 1 12 2 13 3 14 4 15 5 16 6 17 7 18 8 19 9 20 10 10 11
REMARK SMILES IDX 9 12 8 13 7 14 6 15 5 16 4 17 3 18 2 19 1 20
REMARK H PARENT
REMARK Flexibility Score: inf
ROOT
ATOM      1  C   UNL     1     148.695 144.580 144.119  1.00  0.00     0.027 C 
ENDROOT
BRANCH   1   2
ATOM      2  C   UNL     1     148.123 145.339 142.915  1.00  0.00     0.004 C 
BRANCH   2   3
ATOM      3  C   UNL     1     148.409 146.840 143.027  1.00  0.00     0.000 C 
BRANCH   3   4
ATOM      4  C   UNL     1     147.119 147.661 142.875  1.00  0.00     0.000 C 
BRANCH   4   5
ATOM      5  C   UNL     1     145.893 146.933 143.465  1.00  0.00     0.000 C 
BRANCH   5   6
ATOM      6  C   UNL     1     145.851 146.945 145.003  1.00  0.00     0.006 C 
BRANCH   6   7
ATOM      7  C   UNL     1     144.443 146.717 145.564  1.00  0.00     0.053 C 
BRANCH   7   8
ATOM      8  C   UNL     1     143.850 148.008 146.028  1.00  0.00     0.041 C 
ATOM      9  O   UNL     1     143.468 148.137 147.221  1.00  0.00    -0.550 OA
ATOM     10  O   UNL     1     143.760 149.088 145.156  1.00  0.00    -0.550 OA
ENDBRANCH   7   8
ENDBRANCH   6   7
ENDBRANCH   5   6
ENDBRANCH   4   5
ENDBRANCH   3   4
ENDBRANCH   2   3
ENDBRANCH   1   2
BRANCH   1  11
ATOM     11  C   UNL     1     148.554 145.380 145.389  1.00  0.00    -0.031 C 
ATOM     12  C   UNL     1     149.115 145.059 146.570  1.00  0.00    -0.027 C 
BRANCH  12  13
ATOM     13  C   UNL     1     149.984 143.852 146.823  1.00  0.00     0.054 C 
BRANCH  13  14
ATOM     14  C   UNL     1     149.207 142.832 147.616  1.00  0.00    -0.027 C 
ATOM     15  C   UNL     1     149.698 141.666 148.078  1.00  0.00    -0.031 C 
BRANCH  15  16
ATOM     16  C   UNL     1     151.116 141.192 147.890  1.00  0.00     0.027 C 
BRANCH  16  17
ATOM     17  C   UNL     1     151.721 140.705 149.215  1.00  0.00     0.004 C 
BRANCH  17  18
ATOM     18  C   UNL     1     150.923 141.173 150.444  1.00  0.00     0.000 C 
BRANCH  18  19
ATOM     19  C   UNL     1     151.782 141.616 151.641  1.00  0.00    -0.003 C 
ATOM     20  C   UNL     1     152.879 142.609 151.254  1.00  0.00     0.004 C 
ENDBRANCH  18  19
ENDBRANCH  17  18
ENDBRANCH  16  17
ENDBRANCH  15  16
ENDBRANCH  13  14
ENDBRANCH  12  13
ENDBRANCH   1  11
TORSDOF 14
ENDMDL
MODEL 5
REMARK VINA RESULT:    -2.210      5.016      6.711
REMARK INTER + INTRA:          -4.717
REMARK INTER:                  -3.561
REMARK INTRA:                  -1.156
REMARK UNBOUND:                -0.698
REMARK SMILES CCCCCC=CCC=CCCCCCCCC(=O)[O-]
REMARK SMILES IDX 11 1 12 2 13 3 14 4 15 5 16 6 17 7 18 8 19 9 20 10 10 11
REMARK SMILES IDX 9 12 8 13 7 14 6 15 5 16 4 17 3 18 2 19 1 20
REMARK H PARENT
REMARK Flexibility Score: inf
ROOT
ATOM      1  C   UNL     1     148.386 146.873 146.450  1.00  0.00     0.027 C 
ENDROOT
BRANCH   1   2
ATOM      2  C   UNL     1     148.715 147.447 147.834  1.00  0.00     0.004 C 
BRANCH   2   3
ATOM      3  C   UNL     1     149.003 148.949 147.752  1.00  0.00     0.000 C 
BRANCH   3   4
ATOM      4  C   UNL     1     149.491 149.493 149.104  1.00  0.00     0.000 C 
BRANCH   4   5
ATOM      5  C   UNL     1     148.397 150.298 149.836  1.00  0.00     0.000 C 
BRANCH   5   6
ATOM      6  C   UNL     1     147.016 150.212 149.164  1.00  0.00     0.006 C 
BRANCH   6   7
ATOM      7  C   UNL     1     145.885 149.920 150.158  1.00  0.00     0.053 C 
BRANCH   7   8
ATOM      8  C   UNL     1     144.558 149.983 149.474  1.00  0.00     0.041 C 
ATOM      9  O   UNL     1     144.265 149.143 148.582  1.00  0.00    -0.550 OA
ATOM     10  O   UNL     1     143.623 150.940 149.852  1.00  0.00    -0.550 OA
ENDBRANCH   7   8
ENDBRANCH   6   7
ENDBRANCH   5   6
ENDBRANCH   4   5
ENDBRANCH   3   4
ENDBRANCH   2   3
ENDBRANCH   1   2
BRANCH   1  11
ATOM     11  C   UNL     1     148.835 145.439 146.331  1.00  0.00    -0.031 C 
ATOM     12  C   UNL     1     149.014 144.781 145.170  1.00  0.00    -0.027 C 
BRANCH  12  13
ATOM     13  C   UNL     1     148.806 145.365 143.795  1.00  0.00     0.054 C 
BRANCH  13  14
ATOM     14  C   UNL     1     147.474 144.912 143.255  1.00  0.00    -0.027 C 
ATOM     15  C   UNL     1     146.469 145.727 142.876  1.00  0.00    -0.031 C 
BRANCH  15  16
ATOM     16  C   UNL     1     146.518 147.233 142.916  1.00  0.00     0.027 C 
BRANCH  16  17
ATOM     17  C   UNL     1     145.740 147.784 144.121  1.00  0.00     0.004 C 
BRANCH  17  18
ATOM     18  C   UNL     1     145.091 146.676 144.970  1.00  0.00     0.000 C 
BRANCH  18  19
ATOM     19  C   UNL     1     144.089 147.177 146.025  1.00  0.00    -0.003 C 
ATOM     20  C   UNL     1     143.514 148.555 145.697  1.00  0.00     0.004 C 
ENDBRANCH  18  19
ENDBRANCH  17  18
ENDBRANCH  16  17
ENDBRANCH  15  16
ENDBRANCH  13  14
ENDBRANCH  12  13
ENDBRANCH   1  11
TORSDOF 14
ENDMDL
MODEL 6
REMARK VINA RESULT:    -2.067      4.951      7.834
REMARK INTER + INTRA:          -4.456
REMARK INTER:                  -2.812
REMARK INTRA:                  -1.644
REMARK UNBOUND:                -0.698
REMARK SMILES CCCCCC=CCC=CCCCCCCCC(=O)[O-]
REMARK SMILES IDX 11 1 12 2 13 3 14 4 15 5 16 6 17 7 18 8 19 9 20 10 10 11
REMARK SMILES IDX 9 12 8 13 7 14 6 15 5 16 4 17 3 18 2 19 1 20
REMARK H PARENT
REMARK Flexibility Score: inf
ROOT
ATOM      1  C   UNL     1     146.370 147.231 143.110  1.00  0.00     0.027 C 
ENDROOT
BRANCH   1   2
ATOM      2  C   UNL     1     145.612 147.736 144.344  1.00  0.00     0.004 C 
BRANCH   2   3
ATOM      3  C   UNL     1     144.955 146.575 145.097  1.00  0.00     0.000 C 
BRANCH   3   4
ATOM      4  C   UNL     1     143.948 147.090 146.136  1.00  0.00     0.000 C 
BRANCH   4   5
ATOM      5  C   UNL     1     143.470 148.524 145.823  1.00  0.00     0.000 C 
BRANCH   5   6
ATOM      6  C   UNL     1     143.490 149.460 147.043  1.00  0.00     0.006 C 
BRANCH   6   7
ATOM      7  C   UNL     1     144.552 149.070 148.078  1.00  0.00     0.053 C 
BRANCH   7   8
ATOM      8  C   UNL     1     144.480 149.971 149.268  1.00  0.00     0.041 C 
ATOM      9  O   UNL     1     143.484 150.726 149.431  1.00  0.00    -0.550 OA
ATOM     10  O   UNL     1     145.488 149.946 150.225  1.00  0.00    -0.550 OA
ENDBRANCH   7   8
ENDBRANCH   6   7
ENDBRANCH   5   6
ENDBRANCH   4   5
ENDBRANCH   3   4
ENDBRANCH   2   3
ENDBRANCH   1   2
BRANCH   1  11
ATOM     11  C   UNL     1     146.336 145.727 143.023  1.00  0.00    -0.031 C 
ATOM     12  C   UNL     1     147.366 144.913 143.323  1.00  0.00    -0.027 C 
BRANCH  12  13
ATOM     13  C   UNL     1     148.723 145.365 143.804  1.00  0.00     0.054 C 
BRANCH  13  14
ATOM     14  C   UNL     1     148.887 144.999 145.257  1.00  0.00    -0.027 C 
ATOM     15  C   UNL     1     148.696 145.834 146.297  1.00  0.00    -0.031 C 
BRANCH  15  16
ATOM     16  C   UNL     1     148.270 147.275 146.179  1.00  0.00     0.027 C 
BRANCH  16  17
ATOM     17  C   UNL     1     148.203 147.951 147.557  1.00  0.00     0.004 C 
BRANCH  17  18
ATOM     18  C   UNL     1     149.586 148.102 148.216  1.00  0.00     0.000 C 
BRANCH  18  19
ATOM     19  C   UNL     1     149.750 149.359 149.088  1.00  0.00    -0.003 C 
ATOM     20  C   UNL     1     148.460 150.169 149.218  1.00  0.00     0.004 C 
ENDBRANCH  18  19
ENDBRANCH  17  18
ENDBRANCH  16  17
ENDBRANCH  15  16
ENDBRANCH  13  14
ENDBRANCH  12  13
ENDBRANCH   1  11
TORSDOF 14
ENDMDL
MODEL 7
REMARK VINA RESULT:    -1.689      6.408      9.286
REMARK INTER + INTRA:          -3.770
REMARK INTER:                  -2.938
REMARK INTRA:                  -0.832
REMARK UNBOUND:                -0.698
REMARK SMILES CCCCCC=CCC=CCCCCCCCC(=O)[O-]
REMARK SMILES IDX 11 1 12 2 13 3 14 4 15 5 16 6 17 7 18 8 19 9 20 10 10 11
REMARK SMILES IDX 9 12 8 13 7 14 6 15 5 16 4 17 3 18 2 19 1 20
REMARK H PARENT
REMARK Flexibility Score: inf
ROOT
ATOM      1  C   UNL     1     156.407 143.025 149.519  1.00  0.00     0.027 C 
ENDROOT
BRANCH   1   2
ATOM      2  C   UNL     1     154.878 142.977 149.394  1.00  0.00     0.004 C 
BRANCH   2   3
ATOM      3  C   UNL     1     154.259 142.159 150.531  1.00  0.00     0.000 C 
BRANCH   3   4
ATOM      4  C   UNL     1     152.962 142.810 151.037  1.00  0.00     0.000 C 
BRANCH   4   5
ATOM      5  C   UNL     1     152.209 141.907 152.036  1.00  0.00     0.000 C 
BRANCH   5   6
ATOM      6  C   UNL     1     151.093 141.069 151.387  1.00  0.00     0.006 C 
BRANCH   6   7
ATOM      7  C   UNL     1     150.667 141.603 150.015  1.00  0.00     0.053 C 
BRANCH   7   8
ATOM      8  C   UNL     1     151.435 140.923 148.927  1.00  0.00     0.041 C 
ATOM      9  O   UNL     1     152.102 139.885 149.178  1.00  0.00    -0.550 OA
ATOM     10  O   UNL     1     151.376 141.407 147.625  1.00  0.00    -0.550 OA
ENDBRANCH   7   8
ENDBRANCH   6   7
ENDBRANCH   5   6
ENDBRANCH   4   5
ENDBRANCH   3   4
ENDBRANCH   2   3
ENDBRANCH   1   2
BRANCH   1  11
ATOM     11  C   UNL     1     157.025 141.689 149.191  1.00  0.00    -0.031 C 
ATOM     12  C   UNL     1     157.584 141.367 148.010  1.00  0.00    -0.027 C 
BRANCH  12  13
ATOM     13  C   UNL     1     157.696 142.286 146.819  1.00  0.00     0.054 C 
BRANCH  13  14
ATOM     14  C   UNL     1     156.369 142.345 146.105  1.00  0.00    -0.027 C 
ATOM     15  C   UNL     1     156.145 142.960 144.927  1.00  0.00    -0.031 C 
BRANCH  15  16
ATOM     16  C   UNL     1     157.193 143.681 144.117  1.00  0.00     0.027 C 
BRANCH  16  17
ATOM     17  C   UNL     1     157.629 142.847 142.903  1.00  0.00     0.004 C 
BRANCH  17  18
ATOM     18  C   UNL     1     156.987 141.449 142.876  1.00  0.00     0.000 C 
BRANCH  18  19
ATOM     19  C   UNL     1     157.988 140.280 142.875  1.00  0.00    -0.003 C 
ATOM     20  C   UNL     1     157.312 138.914 142.999  1.00  0.00     0.004 C 
ENDBRANCH  18  19
ENDBRANCH  17  18
ENDBRANCH  16  17
ENDBRANCH  15  16
ENDBRANCH  13  14
ENDBRANCH  12  13
ENDBRANCH   1  11
TORSDOF 14
ENDMDL
MODEL 8
REMARK VINA RESULT:    -1.645      1.296      2.386
REMARK INTER + INTRA:          -3.689
REMARK INTER:                  -3.010
REMARK INTRA:                  -0.679
REMARK UNBOUND:                -0.698
REMARK SMILES CCCCCC=CCC=CCCCCCCCC(=O)[O-]
REMARK SMILES IDX 11 1 12 2 13 3 14 4 15 5 16 6 17 7 18 8 19 9 20 10 10 11
REMARK SMILES IDX 9 12 8 13 7 14 6 15 5 16 4 17 3 18 2 19 1 20
REMARK H PARENT
REMARK Flexibility Score: inf
ROOT
ATOM      1  C   UNL     1     148.393 145.587 145.618  1.00  0.00     0.027 C 
ENDROOT
BRANCH   1   2
ATOM      2  C   UNL     1     149.195 144.945 146.757  1.00  0.00     0.004 C 
BRANCH   2   3
ATOM      3  C   UNL     1     149.107 143.417 146.698  1.00  0.00     0.000 C 
BRANCH   3   4
ATOM      4  C   UNL     1     149.322 142.796 148.087  1.00  0.00     0.000 C 
BRANCH   4   5
ATOM      5  C   UNL     1     150.224 141.546 148.032  1.00  0.00     0.000 C 
BRANCH   5   6
ATOM      6  C   UNL     1     150.583 140.985 149.419  1.00  0.00     0.006 C 
BRANCH   6   7
ATOM      7  C   UNL     1     152.045 141.237 149.805  1.00  0.00     0.053 C 
BRANCH   7   8
ATOM      8  C   UNL     1     152.124 141.981 151.099  1.00  0.00     0.041 C 
ATOM      9  O   UNL     1     152.902 142.963 151.218  1.00  0.00    -0.550 OA
ATOM     10  O   UNL     1     151.303 141.620 152.162  1.00  0.00    -0.550 OA
ENDBRANCH   7   8
ENDBRANCH   6   7
ENDBRANCH   5   6
ENDBRANCH   4   5
ENDBRANCH   3   4
ENDBRANCH   2   3
ENDBRANCH   1   2
BRANCH   1  11
ATOM     11  C   UNL     1     148.759 144.986 144.285  1.00  0.00    -0.031 C 
ATOM     12  C   UNL     1     147.932 144.898 143.225  1.00  0.00    -0.027 C 
BRANCH  12  13
ATOM     13  C   UNL     1     146.508 145.392 143.187  1.00  0.00     0.054 C 
BRANCH  13  14
ATOM     14  C   UNL     1     146.496 146.896 143.294  1.00  0.00    -0.027 C 
ATOM     15  C   UNL     1     145.796 147.607 144.200  1.00  0.00    -0.031 C 
BRANCH  15  16
ATOM     16  C   UNL     1     144.917 147.012 145.271  1.00  0.00     0.027 C 
BRANCH  16  17
ATOM     17  C   UNL     1     143.836 148.007 145.721  1.00  0.00     0.004 C 
BRANCH  17  18
ATOM     18  C   UNL     1     143.857 148.266 147.237  1.00  0.00     0.000 C 
BRANCH  18  19
ATOM     19  C   UNL     1     143.818 149.752 147.638  1.00  0.00    -0.003 C 
ATOM     20  C   UNL     1     144.245 149.991 149.086  1.00  0.00     0.004 C 
ENDBRANCH  18  19
ENDBRANCH  17  18
ENDBRANCH  16  17
ENDBRANCH  15  16
ENDBRANCH  13  14
ENDBRANCH  12  13
ENDBRANCH   1  11
TORSDOF 14
ENDMDL
MODEL 9
REMARK VINA RESULT:    -1.585      3.120      4.241
REMARK INTER + INTRA:          -3.580
REMARK INTER:                  -2.735
REMARK INTRA:                  -0.845
REMARK UNBOUND:                -0.698
REMARK SMILES CCCCCC=CCC=CCCCCCCCC(=O)[O-]
REMARK SMILES IDX 11 1 12 2 13 3 14 4 15 5 16 6 17 7 18 8 19 9 20 10 10 11
REMARK SMILES IDX 9 12 8 13 7 14 6 15 5 16 4 17 3 18 2 19 1 20
REMARK H PARENT
REMARK Flexibility Score: inf
ROOT
ATOM      1  C   UNL     1     150.815 141.375 147.816  1.00  0.00     0.027 C 
ENDROOT
BRANCH   1   2
ATOM      2  C   UNL     1     151.583 140.789 149.007  1.00  0.00     0.004 C 
BRANCH   2   3
ATOM      3  C   UNL     1     152.856 141.593 149.290  1.00  0.00     0.000 C 
BRANCH   3   4
ATOM      4  C   UNL     1     153.784 141.607 148.066  1.00  0.00     0.000 C 
BRANCH   4   5
ATOM      5  C   UNL     1     155.139 142.279 148.371  1.00  0.00     0.000 C 
BRANCH   5   6
ATOM      6  C   UNL     1     156.354 141.413 147.994  1.00  0.00     0.006 C 
BRANCH   6   7
ATOM      7  C   UNL     1     157.494 142.224 147.367  1.00  0.00     0.053 C 
BRANCH   7   8
ATOM      8  C   UNL     1     157.358 142.255 145.879  1.00  0.00     0.041 C 
ATOM      9  O   UNL     1     156.817 143.241 145.313  1.00  0.00    -0.550 OA
ATOM     10  O   UNL     1     157.872 141.216 145.111  1.00  0.00    -0.550 OA
ENDBRANCH   7   8
ENDBRANCH   6   7
ENDBRANCH   5   6
ENDBRANCH   4   5
ENDBRANCH   3   4
ENDBRANCH   2   3
ENDBRANCH   1   2
BRANCH   1  11
ATOM     11  C   UNL     1     149.520 142.007 148.257  1.00  0.00    -0.031 C 
ATOM     12  C   UNL     1     148.970 143.107 147.707  1.00  0.00    -0.027 C 
BRANCH  12  13
ATOM     13  C   UNL     1     149.550 143.887 146.553  1.00  0.00     0.054 C 
BRANCH  13  14
ATOM     14  C   UNL     1     149.025 145.300 146.590  1.00  0.00    -0.027 C 
ATOM     15  C   UNL     1     148.411 145.929 145.569  1.00  0.00    -0.031 C 
BRANCH  15  16
ATOM     16  C   UNL     1     148.132 145.316 144.220  1.00  0.00     0.027 C 
BRANCH  16  17
ATOM     17  C   UNL     1     146.778 145.784 143.665  1.00  0.00     0.004 C 
BRANCH  17  18
ATOM     18  C   UNL     1     146.119 146.869 144.534  1.00  0.00     0.000 C 
BRANCH  18  19
ATOM     19  C   UNL     1     144.815 146.437 145.227  1.00  0.00    -0.003 C 
ATOM     20  C   UNL     1     144.130 147.579 145.977  1.00  0.00     0.004 C 
ENDBRANCH  18  19
ENDBRANCH  17  18
ENDBRANCH  16  17
ENDBRANCH  15  16
ENDBRANCH  13  14
ENDBRANCH  12  13
ENDBRANCH   1  11
TORSDOF 14
ENDMDL
