MODEL 1
REMARK VINA RESULT:    -1.929      0.000      0.000
REMARK INTER + INTRA:          -1.929
REMARK INTER:                  -1.929
REMARK INTRA:                   0.000
REMARK UNBOUND:                 0.000
REMARK SMILES CC(=O)[O-]
REMARK SMILES IDX 1 1 2 2 3 3 4 4
REMARK H PARENT
REMARK Flexibility Score: inf
ROOT
ATOM      1  C   UNL     1      58.929  18.054  48.983  1.00  0.00     0.063 C 
ATOM      2  C   UNL     1      57.753  17.452  49.673  1.00  0.00     0.038 C 
ATOM      3  O   UNL     1      57.835  16.298  50.170  1.00  0.00    -0.550 OA
ATOM      4  O   UNL     1      56.548  18.138  49.723  1.00  0.00    -0.550 OA
ENDROOT
TORSDOF 0
ENDMDL
MODEL 2
REMARK VINA RESULT:    -1.890     22.329     22.639
REMARK INTER + INTRA:          -1.890
REMARK INTER:                  -1.890
REMARK INTRA:                   0.000
REMARK UNBOUND:                 0.000
REMARK SMILES CC(=O)[O-]
REMARK SMILES IDX 1 1 2 2 3 3 4 4
REMARK H PARENT
REMARK Flexibility Score: inf
ROOT
ATOM      1  C   UNL     1      62.652  35.759  61.182  1.00  0.00     0.063 C 
ATOM      2  C   UNL     1      63.863  35.385  61.967  1.00  0.00     0.038 C 
ATOM      3  O   UNL     1      63.963  35.727  63.174  1.00  0.00    -0.550 OA
ATOM      4  O   UNL     1      64.907  34.705  61.355  1.00  0.00    -0.550 OA
ENDROOT
TORSDOF 0
ENDMDL
MODEL 3
REMARK VINA RESULT:    -1.866      1.374      1.675
REMARK INTER + INTRA:          -1.866
REMARK INTER:                  -1.866
REMARK INTRA:                   0.000
REMARK UNBOUND:                 0.000
REMARK SMILES CC(=O)[O-]
REMARK SMILES IDX 1 1 2 2 3 3 4 4
REMARK H PARENT
REMARK Flexibility Score: inf
ROOT
ATOM      1  C   UNL     1      58.162  16.381  50.478  1.00  0.00     0.063 C 
ATOM      2  C   UNL     1      57.862  17.562  49.619  1.00  0.00     0.038 C 
ATOM      3  O   UNL     1      58.750  18.032  48.861  1.00  0.00    -0.550 OA
ATOM      4  O   UNL     1      56.620  18.178  49.690  1.00  0.00    -0.550 OA
ENDROOT
TORSDOF 0
ENDMDL
MODEL 4
REMARK VINA RESULT:    -1.834     22.260     22.434
REMARK INTER + INTRA:          -1.834
REMARK INTER:                  -1.834
REMARK INTRA:                   0.000
REMARK UNBOUND:                 0.000
REMARK SMILES CC(=O)[O-]
REMARK SMILES IDX 1 1 2 2 3 3 4 4
REMARK H PARENT
REMARK Flexibility Score: inf
ROOT
ATOM      1  C   UNL     1      73.125  29.495  62.774  1.00  0.00     0.063 C 
ATOM      2  C   UNL     1      72.340  29.548  61.508  1.00  0.00     0.038 C 
ATOM      3  O   UNL     1      71.381  28.752  61.326  1.00  0.00    -0.550 OA
ATOM      4  O   UNL     1      72.696  30.437  60.504  1.00  0.00    -0.550 OA
ENDROOT
TORSDOF 0
ENDMDL
MODEL 5
REMARK VINA RESULT:    -1.801      1.688      1.988
REMARK INTER + INTRA:          -1.801
REMARK INTER:                  -1.801
REMARK INTRA:                   0.000
REMARK UNBOUND:                 0.000
REMARK SMILES CC(=O)[O-]
REMARK SMILES IDX 1 1 2 2 3 3 4 4
REMARK H PARENT
REMARK Flexibility Score: inf
ROOT
ATOM      1  C   UNL     1      57.740  17.175  49.395  1.00  0.00     0.063 C 
ATOM      2  C   UNL     1      56.838  18.121  50.111  1.00  0.00     0.038 C 
ATOM      3  O   UNL     1      55.634  18.234  49.759  1.00  0.00    -0.550 OA
ATOM      4  O   UNL     1      57.335  18.919  51.132  1.00  0.00    -0.550 OA
ENDROOT
TORSDOF 0
ENDMDL
MODEL 6
REMARK VINA RESULT:    -1.798      9.532     10.093
REMARK INTER + INTRA:          -1.798
REMARK INTER:                  -1.798
REMARK INTRA:                   0.000
REMARK UNBOUND:                 0.000
REMARK SMILES CC(=O)[O-]
REMARK SMILES IDX 1 1 2 2 3 3 4 4
REMARK H PARENT
REMARK Flexibility Score: inf
ROOT
ATOM      1  C   UNL     1      58.896  28.331  48.639  1.00  0.00     0.063 C 
ATOM      2  C   UNL     1      59.812  27.157  48.729  1.00  0.00     0.038 C 
ATOM      3  O   UNL     1      61.059  27.324  48.670  1.00  0.00    -0.550 OA
ATOM      4  O   UNL     1      59.292  25.874  48.823  1.00  0.00    -0.550 OA
ENDROOT
TORSDOF 0
ENDMDL
MODEL 7
REMARK VINA RESULT:    -1.773     22.476     22.704
REMARK INTER + INTRA:          -1.773
REMARK INTER:                  -1.773
REMARK INTRA:                   0.000
REMARK UNBOUND:                 0.000
REMARK SMILES CC(=O)[O-]
REMARK SMILES IDX 1 1 2 2 3 3 4 4
REMARK H PARENT
REMARK Flexibility Score: inf
ROOT
ATOM      1  C   UNL     1      72.330  30.466  60.650  1.00  0.00     0.063 C 
ATOM      2  C   UNL     1      72.739  29.489  61.700  1.00  0.00     0.038 C 
ATOM      3  O   UNL     1      73.120  29.898  62.828  1.00  0.00    -0.550 OA
ATOM      4  O   UNL     1      72.751  28.130  61.420  1.00  0.00    -0.550 OA
ENDROOT
TORSDOF 0
ENDMDL
MODEL 8
REMARK VINA RESULT:    -1.740      1.948      2.717
REMARK INTER + INTRA:          -1.740
REMARK INTER:                  -1.740
REMARK INTRA:                   0.000
REMARK UNBOUND:                 0.000
REMARK SMILES CC(=O)[O-]
REMARK SMILES IDX 1 1 2 2 3 3 4 4
REMARK H PARENT
REMARK Flexibility Score: inf
ROOT
ATOM      1  C   UNL     1      56.499  18.475  51.634  1.00  0.00     0.063 C 
ATOM      2  C   UNL     1      56.232  18.180  50.197  1.00  0.00     0.038 C 
ATOM      3  O   UNL     1      55.130  18.503  49.681  1.00  0.00    -0.550 OA
ATOM      4  O   UNL     1      57.176  17.503  49.438  1.00  0.00    -0.550 OA
ENDROOT
TORSDOF 0
ENDMDL
MODEL 9
REMARK VINA RESULT:    -1.719     22.274     22.540
REMARK INTER + INTRA:          -1.719
REMARK INTER:                  -1.719
REMARK INTRA:                   0.000
REMARK UNBOUND:                 0.000
REMARK SMILES CC(=O)[O-]
REMARK SMILES IDX 1 1 2 2 3 3 4 4
REMARK H PARENT
REMARK Flexibility Score: inf
ROOT
ATOM      1  C   UNL     1      70.859  31.967  58.447  1.00  0.00     0.063 C 
ATOM      2  C   UNL     1      71.317  32.249  59.838  1.00  0.00     0.038 C 
ATOM      3  O   UNL     1      71.221  33.412  60.310  1.00  0.00    -0.550 OA
ATOM      4  O   UNL     1      71.898  31.243  60.597  1.00  0.00    -0.550 OA
ENDROOT
TORSDOF 0
ENDMDL
