MODEL 1
REMARK VINA RESULT:    -4.229      0.000      0.000
REMARK INTER + INTRA:          -6.362
REMARK INTER:                  -6.083
REMARK INTRA:                  -0.280
REMARK UNBOUND:                -0.280
REMARK SMILES CCCCCCCCCO
REMARK SMILES IDX 6 1 5 2 4 3 3 4 2 5 1 6 7 7 8 8 9 9 10 10
REMARK H PARENT 10 11
REMARK Flexibility Score: inf
ROOT
ATOM      1  C   UNL     1      21.489 -12.116 -49.701  1.00  0.00     0.000 C 
ENDROOT
BRANCH   1   2
ATOM      2  C   UNL     1      22.291 -13.422 -49.546  1.00  0.00     0.000 C 
BRANCH   2   3
ATOM      3  C   UNL     1      22.289 -14.026 -48.130  1.00  0.00    -0.000 C 
BRANCH   3   4
ATOM      4  C   UNL     1      22.763 -15.487 -48.100  1.00  0.00    -0.000 C 
BRANCH   4   5
ATOM      5  C   UNL     1      24.205 -15.584 -47.587  1.00  0.00    -0.003 C 
ATOM      6  C   UNL     1      25.175 -15.893 -48.723  1.00  0.00     0.004 C 
ENDBRANCH   4   5
ENDBRANCH   3   4
ENDBRANCH   2   3
ENDBRANCH   1   2
BRANCH   1   7
ATOM      7  C   UNL     1      20.848 -11.647 -48.385  1.00  0.00     0.002 C 
BRANCH   7   8
ATOM      8  C   UNL     1      20.423 -10.169 -48.430  1.00  0.00     0.028 C 
BRANCH   8   9
ATOM      9  C   UNL     1      20.953  -9.437 -49.666  1.00  0.00     0.156 C 
BRANCH   9  10
ATOM     10  O   UNL     1      21.311  -8.130 -49.312  1.00  0.00    -0.396 OA
ATOM     11  H   UNL     1      21.632  -8.175 -48.374  1.00  0.00     0.210 HD
ENDBRANCH   9  10
ENDBRANCH   8   9
ENDBRANCH   7   8
ENDBRANCH   1   7
TORSDOF 8
ENDMDL
MODEL 2
REMARK VINA RESULT:    -4.204      2.899      5.677
REMARK INTER + INTRA:          -6.326
REMARK INTER:                  -5.909
REMARK INTRA:                  -0.417
REMARK UNBOUND:                -0.280
REMARK SMILES CCCCCCCCCO
REMARK SMILES IDX 6 1 5 2 4 3 3 4 2 5 1 6 7 7 8 8 9 9 10 10
REMARK H PARENT 10 11
REMARK Flexibility Score: inf
ROOT
ATOM      1  C   UNL     1      21.759 -13.508 -48.003  1.00  0.00     0.000 C 
ENDROOT
BRANCH   1   2
ATOM      2  C   UNL     1      22.124 -12.986 -49.405  1.00  0.00     0.000 C 
BRANCH   2   3
ATOM      3  C   UNL     1      21.378 -11.713 -49.845  1.00  0.00    -0.000 C 
BRANCH   3   4
ATOM      4  C   UNL     1      20.274 -11.295 -48.862  1.00  0.00    -0.000 C 
BRANCH   4   5
ATOM      5  C   UNL     1      20.610  -9.954 -48.199  1.00  0.00    -0.003 C 
ATOM      6  C   UNL     1      20.889 -10.129 -46.709  1.00  0.00     0.004 C 
ENDBRANCH   4   5
ENDBRANCH   3   4
ENDBRANCH   2   3
ENDBRANCH   1   2
BRANCH   1   7
ATOM      7  C   UNL     1      22.503 -14.802 -47.633  1.00  0.00     0.002 C 
BRANCH   7   8
ATOM      8  C   UNL     1      23.438 -15.285 -48.755  1.00  0.00     0.028 C 
BRANCH   8   9
ATOM      9  C   UNL     1      24.769 -15.826 -48.228  1.00  0.00     0.156 C 
BRANCH   9  10
ATOM     10  O   UNL     1      24.757 -15.803 -46.827  1.00  0.00    -0.396 OA
ATOM     11  H   UNL     1      23.810 -15.918 -46.557  1.00  0.00     0.210 HD
ENDBRANCH   9  10
ENDBRANCH   8   9
ENDBRANCH   7   8
ENDBRANCH   1   7
TORSDOF 8
ENDMDL
MODEL 3
REMARK VINA RESULT:    -4.160     12.298     14.541
REMARK INTER + INTRA:          -6.264
REMARK INTER:                  -5.894
REMARK INTRA:                  -0.370
REMARK UNBOUND:                -0.280
REMARK SMILES CCCCCCCCCO
REMARK SMILES IDX 6 1 5 2 4 3 3 4 2 5 1 6 7 7 8 8 9 9 10 10
REMARK H PARENT 10 11
REMARK Flexibility Score: inf
ROOT
ATOM      1  C   UNL     1      14.230   0.645 -47.105  1.00  0.00     0.000 C 
ENDROOT
BRANCH   1   2
ATOM      2  C   UNL     1      14.489   0.775 -48.618  1.00  0.00     0.000 C 
BRANCH   2   3
ATOM      3  C   UNL     1      14.737  -0.554 -49.356  1.00  0.00    -0.000 C 
BRANCH   3   4
ATOM      4  C   UNL     1      16.155  -1.103 -49.141  1.00  0.00    -0.000 C 
BRANCH   4   5
ATOM      5  C   UNL     1      16.265  -2.548 -49.645  1.00  0.00    -0.003 C 
ATOM      6  C   UNL     1      14.960  -3.308 -49.429  1.00  0.00     0.004 C 
ENDBRANCH   4   5
ENDBRANCH   3   4
ENDBRANCH   2   3
ENDBRANCH   1   2
BRANCH   1   7
ATOM      7  C   UNL     1      14.891   1.767 -46.287  1.00  0.00     0.002 C 
BRANCH   7   8
ATOM      8  C   UNL     1      16.262   1.356 -45.723  1.00  0.00     0.028 C 
BRANCH   8   9
ATOM      9  C   UNL     1      17.428   1.831 -46.594  1.00  0.00     0.156 C 
BRANCH   9  10
ATOM     10  O   UNL     1      18.637   1.482 -45.979  1.00  0.00    -0.396 OA
ATOM     11  H   UNL     1      19.352   1.929 -46.501  1.00  0.00     0.210 HD
ENDBRANCH   9  10
ENDBRANCH   8   9
ENDBRANCH   7   8
ENDBRANCH   1   7
TORSDOF 8
ENDMDL
MODEL 4
REMARK VINA RESULT:    -4.136      2.580      5.556
REMARK INTER + INTRA:          -6.229
REMARK INTER:                  -5.930
REMARK INTRA:                  -0.299
REMARK UNBOUND:                -0.280
REMARK SMILES CCCCCCCCCO
REMARK SMILES IDX 6 1 5 2 4 3 3 4 2 5 1 6 7 7 8 8 9 9 10 10
REMARK H PARENT 10 11
REMARK Flexibility Score: inf
ROOT
ATOM      1  C   UNL     1      21.230 -12.292 -49.062  1.00  0.00     0.000 C 
ENDROOT
BRANCH   1   2
ATOM      2  C   UNL     1      21.010 -10.900 -49.683  1.00  0.00     0.000 C 
BRANCH   2   3
ATOM      3  C   UNL     1      20.832  -9.753 -48.671  1.00  0.00    -0.000 C 
BRANCH   3   4
ATOM      4  C   UNL     1      20.926 -10.220 -47.211  1.00  0.00    -0.000 C 
BRANCH   4   5
ATOM      5  C   UNL     1      19.719  -9.732 -46.400  1.00  0.00    -0.003 C 
ATOM      6  C   UNL     1      18.410 -10.044 -47.119  1.00  0.00     0.004 C 
ENDBRANCH   4   5
ENDBRANCH   3   4
ENDBRANCH   2   3
ENDBRANCH   1   2
BRANCH   1   7
ATOM      7  C   UNL     1      22.327 -13.100 -49.776  1.00  0.00     0.002 C 
BRANCH   7   8
ATOM      8  C   UNL     1      22.821 -14.292 -48.939  1.00  0.00     0.028 C 
BRANCH   8   9
ATOM      9  C   UNL     1      21.741 -14.852 -48.009  1.00  0.00     0.156 C 
BRANCH   9  10
ATOM     10  O   UNL     1      22.011 -14.455 -46.693  1.00  0.00    -0.396 OA
ATOM     11  H   UNL     1      21.991 -15.282 -46.145  1.00  0.00     0.210 HD
ENDBRANCH   9  10
ENDBRANCH   8   9
ENDBRANCH   7   8
ENDBRANCH   1   7
TORSDOF 8
ENDMDL
MODEL 5
REMARK VINA RESULT:    -4.107     11.874     13.992
REMARK INTER + INTRA:          -6.187
REMARK INTER:                  -5.869
REMARK INTRA:                  -0.318
REMARK UNBOUND:                -0.280
REMARK SMILES CCCCCCCCCO
REMARK SMILES IDX 6 1 5 2 4 3 3 4 2 5 1 6 7 7 8 8 9 9 10 10
REMARK H PARENT 10 11
REMARK Flexibility Score: inf
ROOT
ATOM      1  C   UNL     1      15.015   0.387 -47.866  1.00  0.00     0.000 C 
ENDROOT
BRANCH   1   2
ATOM      2  C   UNL     1      15.056  -0.458 -49.153  1.00  0.00     0.000 C 
BRANCH   2   3
ATOM      3  C   UNL     1      16.295  -1.359 -49.305  1.00  0.00    -0.000 C 
BRANCH   3   4
ATOM      4  C   UNL     1      15.942  -2.806 -49.682  1.00  0.00    -0.000 C 
BRANCH   4   5
ATOM      5  C   UNL     1      14.478  -3.118 -49.348  1.00  0.00    -0.003 C 
ATOM      6  C   UNL     1      14.217  -4.621 -49.368  1.00  0.00     0.004 C 
ENDBRANCH   4   5
ENDBRANCH   3   4
ENDBRANCH   2   3
ENDBRANCH   1   2
BRANCH   1   7
ATOM      7  C   UNL     1      15.678   1.764 -48.033  1.00  0.00     0.002 C 
BRANCH   7   8
ATOM      8  C   UNL     1      17.015   1.870 -47.281  1.00  0.00     0.028 C 
BRANCH   8   9
ATOM      9  C   UNL     1      16.857   1.727 -45.765  1.00  0.00     0.156 C 
BRANCH   9  10
ATOM     10  O   UNL     1      17.586   0.615 -45.325  1.00  0.00    -0.396 OA
ATOM     11  H   UNL     1      18.176   0.941 -44.598  1.00  0.00     0.210 HD
ENDBRANCH   9  10
ENDBRANCH   8   9
ENDBRANCH   7   8
ENDBRANCH   1   7
TORSDOF 8
ENDMDL
MODEL 6
REMARK VINA RESULT:    -4.056     17.515     19.273
REMARK INTER + INTRA:          -6.114
REMARK INTER:                  -5.643
REMARK INTRA:                  -0.472
REMARK UNBOUND:                -0.280
REMARK SMILES CCCCCCCCCO
REMARK SMILES IDX 6 1 5 2 4 3 3 4 2 5 1 6 7 7 8 8 9 9 10 10
REMARK H PARENT 10 11
REMARK Flexibility Score: inf
ROOT
ATOM      1  C   UNL     1      16.118  -4.957 -33.846  1.00  0.00     0.000 C 
ENDROOT
BRANCH   1   2
ATOM      2  C   UNL     1      15.878  -6.377 -34.393  1.00  0.00     0.000 C 
BRANCH   2   3
ATOM      3  C   UNL     1      14.659  -7.109 -33.801  1.00  0.00    -0.000 C 
BRANCH   3   4
ATOM      4  C   UNL     1      13.373  -6.272 -33.854  1.00  0.00    -0.000 C 
BRANCH   4   5
ATOM      5  C   UNL     1      12.572  -6.415 -32.554  1.00  0.00    -0.003 C 
ATOM      6  C   UNL     1      13.449  -6.938 -31.421  1.00  0.00     0.004 C 
ENDBRANCH   4   5
ENDBRANCH   3   4
ENDBRANCH   2   3
ENDBRANCH   1   2
BRANCH   1   7
ATOM      7  C   UNL     1      16.509  -4.947 -32.359  1.00  0.00     0.002 C 
BRANCH   7   8
ATOM      8  C   UNL     1      17.839  -4.217 -32.105  1.00  0.00     0.028 C 
BRANCH   8   9
ATOM      9  C   UNL     1      18.102  -3.961 -30.619  1.00  0.00     0.156 C 
BRANCH   9  10
ATOM     10  O   UNL     1      19.054  -4.876 -30.151  1.00  0.00    -0.396 OA
ATOM     11  H   UNL     1      19.936  -4.435 -30.257  1.00  0.00     0.210 HD
ENDBRANCH   9  10
ENDBRANCH   8   9
ENDBRANCH   7   8
ENDBRANCH   1   7
TORSDOF 8
ENDMDL
MODEL 7
REMARK VINA RESULT:    -4.041     14.118     15.835
REMARK INTER + INTRA:          -6.092
REMARK INTER:                  -5.408
REMARK INTRA:                  -0.684
REMARK UNBOUND:                -0.280
REMARK SMILES CCCCCCCCCO
REMARK SMILES IDX 6 1 5 2 4 3 3 4 2 5 1 6 7 7 8 8 9 9 10 10
REMARK H PARENT 10 11
REMARK Flexibility Score: inf
ROOT
ATOM      1  C   UNL     1      16.151  -0.292 -48.608  1.00  0.00     0.000 C 
ENDROOT
BRANCH   1   2
ATOM      2  C   UNL     1      14.712  -0.710 -48.254  1.00  0.00     0.000 C 
BRANCH   2   3
ATOM      3  C   UNL     1      13.748  -0.817 -49.450  1.00  0.00    -0.000 C 
BRANCH   3   4
ATOM      4  C   UNL     1      13.384   0.549 -50.051  1.00  0.00    -0.000 C 
BRANCH   4   5
ATOM      5  C   UNL     1      12.940   1.529 -48.958  1.00  0.00    -0.003 C 
ATOM      6  C   UNL     1      13.381   2.953 -49.282  1.00  0.00     0.004 C 
ENDBRANCH   4   5
ENDBRANCH   3   4
ENDBRANCH   2   3
ENDBRANCH   1   2
BRANCH   1   7
ATOM      7  C   UNL     1      16.524   1.095 -48.057  1.00  0.00     0.002 C 
BRANCH   7   8
ATOM      8  C   UNL     1      16.054   1.299 -46.607  1.00  0.00     0.028 C 
BRANCH   8   9
ATOM      9  C   UNL     1      17.173   1.785 -45.682  1.00  0.00     0.156 C 
BRANCH   9  10
ATOM     10  O   UNL     1      18.411   1.585 -46.306  1.00  0.00    -0.396 OA
ATOM     11  H   UNL     1      18.588   2.403 -46.839  1.00  0.00     0.210 HD
ENDBRANCH   9  10
ENDBRANCH   8   9
ENDBRANCH   7   8
ENDBRANCH   1   7
TORSDOF 8
ENDMDL
MODEL 8
REMARK VINA RESULT:    -4.022     12.573     15.235
REMARK INTER + INTRA:          -6.066
REMARK INTER:                  -5.515
REMARK INTRA:                  -0.550
REMARK UNBOUND:                -0.280
REMARK SMILES CCCCCCCCCO
REMARK SMILES IDX 6 1 5 2 4 3 3 4 2 5 1 6 7 7 8 8 9 9 10 10
REMARK H PARENT 10 11
REMARK Flexibility Score: inf
ROOT
ATOM      1  C   UNL     1      13.474   0.811 -48.432  1.00  0.00     0.000 C 
ENDROOT
BRANCH   1   2
ATOM      2  C   UNL     1      13.946   0.699 -46.970  1.00  0.00     0.000 C 
BRANCH   2   3
ATOM      3  C   UNL     1      14.813   1.869 -46.471  1.00  0.00    -0.000 C 
BRANCH   3   4
ATOM      4  C   UNL     1      16.081   1.406 -45.737  1.00  0.00    -0.000 C 
BRANCH   4   5
ATOM      5  C   UNL     1      17.339   1.756 -46.541  1.00  0.00    -0.003 C 
ATOM      6  C   UNL     1      16.978   2.296 -47.922  1.00  0.00     0.004 C 
ENDBRANCH   4   5
ENDBRANCH   3   4
ENDBRANCH   2   3
ENDBRANCH   1   2
BRANCH   1   7
ATOM      7  C   UNL     1      14.149  -0.213 -49.360  1.00  0.00     0.002 C 
BRANCH   7   8
ATOM      8  C   UNL     1      15.230  -1.036 -48.640  1.00  0.00     0.028 C 
BRANCH   8   9
ATOM      9  C   UNL     1      15.820  -2.141 -49.521  1.00  0.00     0.156 C 
BRANCH   9  10
ATOM     10  O   UNL     1      17.183  -2.284 -49.235  1.00  0.00    -0.396 OA
ATOM     11  H   UNL     1      17.411  -1.557 -48.600  1.00  0.00     0.210 HD
ENDBRANCH   9  10
ENDBRANCH   8   9
ENDBRANCH   7   8
ENDBRANCH   1   7
TORSDOF 8
ENDMDL
MODEL 9
REMARK VINA RESULT:    -3.935     14.556     15.929
REMARK INTER + INTRA:          -5.940
REMARK INTER:                  -5.561
REMARK INTRA:                  -0.378
REMARK UNBOUND:                -0.280
REMARK SMILES CCCCCCCCCO
REMARK SMILES IDX 6 1 5 2 4 3 3 4 2 5 1 6 7 7 8 8 9 9 10 10
REMARK H PARENT 10 11
REMARK Flexibility Score: inf
ROOT
ATOM      1  C   UNL     1      14.152  -0.622 -49.284  1.00  0.00     0.000 C 
ENDROOT
BRANCH   1   2
ATOM      2  C   UNL     1      15.663  -0.394 -49.090  1.00  0.00     0.000 C 
BRANCH   2   3
ATOM      3  C   UNL     1      16.058   0.274 -47.760  1.00  0.00    -0.000 C 
BRANCH   3   4
ATOM      4  C   UNL     1      16.672   1.669 -47.948  1.00  0.00    -0.000 C 
BRANCH   4   5
ATOM      5  C   UNL     1      17.550   2.048 -46.749  1.00  0.00    -0.003 C 
ATOM      6  C   UNL     1      16.873   1.682 -45.432  1.00  0.00     0.004 C 
ENDBRANCH   4   5
ENDBRANCH   3   4
ENDBRANCH   2   3
ENDBRANCH   1   2
BRANCH   1   7
ATOM      7  C   UNL     1      13.441   0.585 -49.919  1.00  0.00     0.002 C 
BRANCH   7   8
ATOM      8  C   UNL     1      12.937   1.591 -48.870  1.00  0.00     0.028 C 
BRANCH   8   9
ATOM      9  C   UNL     1      13.386   3.025 -49.158  1.00  0.00     0.156 C 
BRANCH   9  10
ATOM     10  O   UNL     1      13.494   3.729 -47.952  1.00  0.00    -0.396 OA
ATOM     11  H   UNL     1      12.663   3.537 -47.444  1.00  0.00     0.210 HD
ENDBRANCH   9  10
ENDBRANCH   8   9
ENDBRANCH   7   8
ENDBRANCH   1   7
TORSDOF 8
ENDMDL
