MODEL 1
REMARK VINA RESULT:    -4.209      0.000      0.000
REMARK INTER + INTRA:          -4.301
REMARK INTER:                  -4.702
REMARK INTRA:                   0.401
REMARK UNBOUND:                 0.401
REMARK SMILES CC1(C)CC[C@@]2(C(=O)[O-])[C@H](O)C[C@]3(C)C(=CC[C@H]4[C@@]5(C)CC[C@@H](O)C(C)(C)[C@@H]5CC[C@@]43C)[C@H]2C1
REMARK SMILES IDX 6 1 5 2 33 3 10 4 4 5 34 6 15 7 12 8 2 9 16 10 13 11 1 12
REMARK SMILES IDX 3 13 17 14 31 15 14 16 18 17 30 18 32 19 19 20 29 21 21 22
REMARK SMILES IDX 20 23 28 24 22 25 25 26 23 27 26 28 27 29 7 30 8 31 9 32
REMARK SMILES IDX 11 33 24 35
REMARK H PARENT 11 34 24 36
REMARK Flexibility Score: inf
ROOT
ATOM      1  C   UNL     1     -13.512  66.313   7.392  1.00  0.00     0.042 C 
ATOM      2  C   UNL     1     -13.203  67.642   6.625  1.00  0.00     0.017 C 
ATOM      3  C   UNL     1     -12.297  65.913   8.279  1.00  0.00     0.030 C 
ATOM      4  C   UNL     1     -13.831  65.147   6.370  1.00  0.00     0.127 C 
ATOM      5  C   UNL     1     -11.864  67.674   5.875  1.00  0.00     0.007 C 
ATOM      6  C   UNL     1     -10.963  65.940   7.468  1.00  0.00     0.015 C 
ATOM      7  C   UNL     1     -12.454  64.532   8.943  1.00  0.00    -0.063 C 
ATOM      8  C   UNL     1     -13.490  63.691   6.838  1.00  0.00     0.044 C 
ATOM      9  C   UNL     1     -10.669  67.287   6.768  1.00  0.00    -0.035 C 
ATOM     10  C   UNL     1     -11.458  64.221   9.808  1.00  0.00    -0.027 C 
ATOM     11  C   UNL     1     -13.433  63.445   8.386  1.00  0.00    -0.003 C 
ATOM     12  C   UNL     1     -10.363  68.397   7.803  1.00  0.00     0.011 C 
ATOM     13  C   UNL     1      -9.420  67.117   5.875  1.00  0.00     0.011 C 
ATOM     14  C   UNL     1     -10.799  62.873   9.850  1.00  0.00     0.032 C 
ATOM     15  C   UNL     1     -12.942  61.946   8.815  1.00  0.00    -0.020 C 
ATOM     16  C   UNL     1     -14.880  63.643   8.934  1.00  0.00     0.017 C 
ATOM     17  C   UNL     1     -11.361  61.917   8.774  1.00  0.00     0.006 C 
ATOM     18  C   UNL     1     -13.591  60.814   7.905  1.00  0.00     0.008 C 
ATOM     19  C   UNL     1     -13.383  61.645  10.300  1.00  0.00     0.012 C 
ATOM     20  C   UNL     1     -10.596  60.504   8.702  1.00  0.00    -0.025 C 
ATOM     21  C   UNL     1     -12.600  59.816   7.294  1.00  0.00     0.005 C 
ATOM     22  C   UNL     1      -9.876  60.106  10.028  1.00  0.00     0.010 C 
ATOM     23  C   UNL     1      -9.498  60.677   7.599  1.00  0.00     0.012 C 
ATOM     24  C   UNL     1     -11.621  59.361   8.390  1.00  0.00     0.003 C 
ATOM     25  C   UNL     1      -9.243  58.697   9.987  1.00  0.00     0.033 C 
ATOM     26  C   UNL     1     -11.050  57.894   8.293  1.00  0.00    -0.006 C 
ATOM     27  C   UNL     1     -10.246  57.590   9.609  1.00  0.00     0.120 C 
ATOM     28  C   UNL     1     -10.165  57.655   7.039  1.00  0.00     0.014 C 
ATOM     29  C   UNL     1     -12.225  56.875   8.206  1.00  0.00     0.014 C 
ENDROOT
BRANCH   1  30
ATOM     30  C   UNL     1     -14.709  66.662   8.282  1.00  0.00     0.051 C 
ATOM     31  O   UNL     1     -14.679  66.412   9.517  1.00  0.00    -0.549 OA
ATOM     32  O   UNL     1     -15.879  67.190   7.745  1.00  0.00    -0.549 OA
ENDBRANCH   1  30
BRANCH   4  33
ATOM     33  O   UNL     1     -15.173  65.194   5.945  1.00  0.00    -0.392 OA
ATOM     34  H   UNL     1     -15.671  65.753   6.597  1.00  0.00     0.210 HD
ENDBRANCH   4  33
BRANCH  27  35
ATOM     35  O   UNL     1     -11.124  57.419  10.699  1.00  0.00    -0.393 OA
ATOM     36  H   UNL     1     -12.050  57.426  10.343  1.00  0.00     0.210 HD
ENDBRANCH  27  35
TORSDOF 3
ENDMDL
MODEL 2
REMARK VINA RESULT:    -3.784      1.796      7.899
REMARK INTER + INTRA:          -3.826
REMARK INTER:                  -3.899
REMARK INTRA:                   0.073
REMARK UNBOUND:                 0.401
REMARK SMILES CC1(C)CC[C@@]2(C(=O)[O-])[C@H](O)C[C@]3(C)C(=CC[C@H]4[C@@]5(C)CC[C@@H](O)C(C)(C)[C@@H]5CC[C@@]43C)[C@H]2C1
REMARK SMILES IDX 6 1 5 2 33 3 10 4 4 5 34 6 15 7 12 8 2 9 16 10 13 11 1 12
REMARK SMILES IDX 3 13 17 14 31 15 14 16 18 17 30 18 32 19 19 20 29 21 21 22
REMARK SMILES IDX 20 23 28 24 22 25 25 26 23 27 26 28 27 29 7 30 8 31 9 32
REMARK SMILES IDX 11 33 24 35
REMARK H PARENT 11 34 24 36
REMARK Flexibility Score: inf
ROOT
ATOM      1  C   UNL     1     -11.101  59.646   9.938  1.00  0.00     0.042 C 
ATOM      2  C   UNL     1     -10.402  58.344   9.426  1.00  0.00     0.017 C 
ATOM      3  C   UNL     1     -12.567  59.708   9.417  1.00  0.00     0.030 C 
ATOM      4  C   UNL     1     -10.309  60.926   9.450  1.00  0.00     0.127 C 
ATOM      5  C   UNL     1     -10.524  58.079   7.919  1.00  0.00     0.007 C 
ATOM      6  C   UNL     1     -12.637  59.454   7.879  1.00  0.00     0.015 C 
ATOM      7  C   UNL     1     -13.275  61.036   9.742  1.00  0.00    -0.063 C 
ATOM      8  C   UNL     1     -11.146  62.236   9.249  1.00  0.00     0.044 C 
ATOM      9  C   UNL     1     -11.982  58.132   7.419  1.00  0.00    -0.035 C 
ATOM     10  C   UNL     1     -14.585  61.060   9.396  1.00  0.00    -0.027 C 
ATOM     11  C   UNL     1     -12.483  62.348  10.063  1.00  0.00    -0.003 C 
ATOM     12  C   UNL     1     -12.787  56.908   7.918  1.00  0.00     0.011 C 
ATOM     13  C   UNL     1     -11.975  58.094   5.875  1.00  0.00     0.011 C 
ATOM     14  C   UNL     1     -15.232  62.227   8.708  1.00  0.00     0.032 C 
ATOM     15  C   UNL     1     -13.379  63.669   9.714  1.00  0.00    -0.020 C 
ATOM     16  C   UNL     1     -12.093  62.426  11.572  1.00  0.00     0.017 C 
ATOM     17  C   UNL     1     -14.222  63.359   8.412  1.00  0.00     0.006 C 
ATOM     18  C   UNL     1     -12.490  64.979   9.560  1.00  0.00     0.008 C 
ATOM     19  C   UNL     1     -14.399  63.946  10.885  1.00  0.00     0.012 C 
ATOM     20  C   UNL     1     -14.846  64.575   7.564  1.00  0.00    -0.025 C 
ATOM     21  C   UNL     1     -12.722  65.782   8.274  1.00  0.00     0.005 C 
ATOM     22  C   UNL     1     -16.396  64.708   7.695  1.00  0.00     0.010 C 
ATOM     23  C   UNL     1     -14.522  64.253   6.066  1.00  0.00     0.012 C 
ATOM     24  C   UNL     1     -14.238  65.933   8.056  1.00  0.00     0.003 C 
ATOM     25  C   UNL     1     -16.971  65.947   6.973  1.00  0.00     0.033 C 
ATOM     26  C   UNL     1     -14.745  67.245   7.344  1.00  0.00    -0.006 C 
ATOM     27  C   UNL     1     -16.315  67.270   7.414  1.00  0.00     0.120 C 
ATOM     28  C   UNL     1     -14.257  67.380   5.875  1.00  0.00     0.014 C 
ATOM     29  C   UNL     1     -14.214  68.497   8.103  1.00  0.00     0.014 C 
ENDROOT
BRANCH   1  30
ATOM     30  C   UNL     1     -11.100  59.498  11.463  1.00  0.00     0.051 C 
ATOM     31  O   UNL     1     -10.018  59.330  12.087  1.00  0.00    -0.549 OA
ATOM     32  O   UNL     1     -12.289  59.469  12.187  1.00  0.00    -0.549 OA
ENDBRANCH   1  30
BRANCH   4  33
ATOM     33  O   UNL     1      -9.214  61.202  10.292  1.00  0.00    -0.392 OA
ATOM     34  H   UNL     1      -8.926  60.341  10.696  1.00  0.00     0.210 HD
ENDBRANCH   4  33
BRANCH  27  35
ATOM     35  O   UNL     1     -16.750  67.544   8.727  1.00  0.00    -0.393 OA
ATOM     36  H   UNL     1     -17.530  66.959   8.914  1.00  0.00     0.210 HD
ENDBRANCH  27  35
TORSDOF 3
ENDMDL
MODEL 3
REMARK VINA RESULT:    -3.362      3.332      8.827
REMARK INTER + INTRA:          -3.355
REMARK INTER:                  -3.312
REMARK INTRA:                  -0.043
REMARK UNBOUND:                 0.401
REMARK SMILES CC1(C)CC[C@@]2(C(=O)[O-])[C@H](O)C[C@]3(C)C(=CC[C@H]4[C@@]5(C)CC[C@@H](O)C(C)(C)[C@@H]5CC[C@@]43C)[C@H]2C1
REMARK SMILES IDX 6 1 5 2 33 3 10 4 4 5 34 6 15 7 12 8 2 9 16 10 13 11 1 12
REMARK SMILES IDX 3 13 17 14 31 15 14 16 18 17 30 18 32 19 19 20 29 21 21 22
REMARK SMILES IDX 20 23 28 24 22 25 25 26 23 27 26 28 27 29 7 30 8 31 9 32
REMARK SMILES IDX 11 33 24 35
REMARK H PARENT 11 34 24 36
REMARK Flexibility Score: inf
ROOT
ATOM      1  C   UNL     1     -13.524  63.251   8.158  1.00  0.00     0.042 C 
ATOM      2  C   UNL     1     -12.193  62.643   8.711  1.00  0.00     0.017 C 
ATOM      3  C   UNL     1     -13.215  64.463   7.231  1.00  0.00     0.030 C 
ATOM      4  C   UNL     1     -14.455  63.718   9.350  1.00  0.00     0.127 C 
ATOM      5  C   UNL     1     -11.215  63.651   9.331  1.00  0.00     0.007 C 
ATOM      6  C   UNL     1     -12.235  65.468   7.913  1.00  0.00     0.015 C 
ATOM      7  C   UNL     1     -14.476  65.219   6.773  1.00  0.00    -0.063 C 
ATOM      8  C   UNL     1     -15.432  64.906   9.054  1.00  0.00     0.044 C 
ATOM      9  C   UNL     1     -10.909  64.840   8.398  1.00  0.00    -0.035 C 
ATOM     10  C   UNL     1     -14.231  66.204   5.875  1.00  0.00    -0.027 C 
ATOM     11  C   UNL     1     -15.831  65.131   7.553  1.00  0.00    -0.003 C 
ATOM     12  C   UNL     1     -10.032  64.397   7.202  1.00  0.00     0.011 C 
ATOM     13  C   UNL     1     -10.121  65.901   9.195  1.00  0.00     0.011 C 
ATOM     14  C   UNL     1     -14.860  67.564   5.957  1.00  0.00     0.032 C 
ATOM     15  C   UNL     1     -16.741  66.462   7.287  1.00  0.00    -0.020 C 
ATOM     16  C   UNL     1     -16.666  63.891   7.111  1.00  0.00     0.017 C 
ATOM     17  C   UNL     1     -15.773  67.709   7.195  1.00  0.00     0.006 C 
ATOM     18  C   UNL     1     -17.869  66.654   8.393  1.00  0.00     0.008 C 
ATOM     19  C   UNL     1     -17.481  66.334   5.900  1.00  0.00     0.012 C 
ATOM     20  C   UNL     1     -16.367  69.191   7.389  1.00  0.00    -0.025 C 
ATOM     21  C   UNL     1     -17.919  68.041   9.044  1.00  0.00     0.005 C 
ATOM     22  C   UNL     1     -16.434  70.024   6.071  1.00  0.00     0.010 C 
ATOM     23  C   UNL     1     -15.377  69.918   8.361  1.00  0.00     0.012 C 
ATOM     24  C   UNL     1     -17.832  69.107   7.939  1.00  0.00     0.003 C 
ATOM     25  C   UNL     1     -17.113  71.401   6.245  1.00  0.00     0.033 C 
ATOM     26  C   UNL     1     -18.586  70.471   8.181  1.00  0.00    -0.006 C 
ATOM     27  C   UNL     1     -18.526  71.310   6.853  1.00  0.00     0.120 C 
ATOM     28  C   UNL     1     -18.019  71.289   9.374  1.00  0.00     0.014 C 
ATOM     29  C   UNL     1     -20.084  70.197   8.504  1.00  0.00     0.014 C 
ENDROOT
BRANCH   1  30
ATOM     30  C   UNL     1     -14.143  62.116   7.336  1.00  0.00     0.051 C 
ATOM     31  O   UNL     1     -14.571  61.076   7.906  1.00  0.00    -0.549 OA
ATOM     32  O   UNL     1     -14.180  62.167   5.946  1.00  0.00    -0.549 OA
ENDBRANCH   1  30
BRANCH   4  33
ATOM     33  O   UNL     1     -15.187  62.638   9.879  1.00  0.00    -0.392 OA
ATOM     34  H   UNL     1     -15.414  62.865  10.819  1.00  0.00     0.210 HD
ENDBRANCH   4  33
BRANCH  27  35
ATOM     35  O   UNL     1     -19.376  70.754   5.875  1.00  0.00    -0.393 OA
ATOM     36  H   UNL     1     -19.830  69.970   6.282  1.00  0.00     0.210 HD
ENDBRANCH  27  35
TORSDOF 3
ENDMDL
MODEL 4
REMARK VINA RESULT:    -3.330      1.960      7.879
REMARK INTER + INTRA:          -3.318
REMARK INTER:                  -3.385
REMARK INTRA:                   0.067
REMARK UNBOUND:                 0.401
REMARK SMILES CC1(C)CC[C@@]2(C(=O)[O-])[C@H](O)C[C@]3(C)C(=CC[C@H]4[C@@]5(C)CC[C@@H](O)C(C)(C)[C@@H]5CC[C@@]43C)[C@H]2C1
REMARK SMILES IDX 6 1 5 2 33 3 10 4 4 5 34 6 15 7 12 8 2 9 16 10 13 11 1 12
REMARK SMILES IDX 3 13 17 14 31 15 14 16 18 17 30 18 32 19 19 20 29 21 21 22
REMARK SMILES IDX 20 23 28 24 22 25 25 26 23 27 26 28 27 29 7 30 8 31 9 32
REMARK SMILES IDX 11 33 24 35
REMARK H PARENT 11 34 24 36
REMARK Flexibility Score: inf
ROOT
ATOM      1  C   UNL     1     -11.404  58.030   8.452  1.00  0.00     0.042 C 
ATOM      2  C   UNL     1     -11.013  56.875   9.432  1.00  0.00     0.017 C 
ATOM      3  C   UNL     1     -10.681  59.347   8.861  1.00  0.00     0.030 C 
ATOM      4  C   UNL     1     -12.970  58.258   8.464  1.00  0.00     0.127 C 
ATOM      5  C   UNL     1     -11.145  57.204  10.925  1.00  0.00     0.007 C 
ATOM      6  C   UNL     1     -10.863  59.649  10.382  1.00  0.00     0.015 C 
ATOM      7  C   UNL     1     -11.137  60.572   8.046  1.00  0.00    -0.063 C 
ATOM      8  C   UNL     1     -13.472  59.707   8.140  1.00  0.00     0.044 C 
ATOM      9  C   UNL     1     -10.415  58.504  11.319  1.00  0.00    -0.035 C 
ATOM     10  C   UNL     1     -10.435  61.701   8.312  1.00  0.00    -0.027 C 
ATOM     11  C   UNL     1     -12.509  60.612   7.295  1.00  0.00    -0.003 C 
ATOM     12  C   UNL     1      -8.879  58.316  11.275  1.00  0.00     0.011 C 
ATOM     13  C   UNL     1     -10.805  58.869  12.768  1.00  0.00     0.011 C 
ATOM     14  C   UNL     1     -11.080  63.043   8.500  1.00  0.00     0.032 C 
ATOM     15  C   UNL     1     -13.022  62.151   7.102  1.00  0.00    -0.020 C 
ATOM     16  C   UNL     1     -12.404  59.967   5.878  1.00  0.00     0.017 C 
ATOM     17  C   UNL     1     -12.620  62.968   8.395  1.00  0.00     0.006 C 
ATOM     18  C   UNL     1     -14.582  62.235   6.796  1.00  0.00     0.008 C 
ATOM     19  C   UNL     1     -12.282  62.811   5.875  1.00  0.00     0.012 C 
ATOM     20  C   UNL     1     -13.358  64.361   8.715  1.00  0.00    -0.025 C 
ATOM     21  C   UNL     1     -15.374  63.198   7.688  1.00  0.00     0.005 C 
ATOM     22  C   UNL     1     -12.461  65.618   8.488  1.00  0.00     0.010 C 
ATOM     23  C   UNL     1     -13.722  64.305  10.237  1.00  0.00     0.012 C 
ATOM     24  C   UNL     1     -14.605  64.527   7.780  1.00  0.00     0.003 C 
ATOM     25  C   UNL     1     -13.213  66.954   8.684  1.00  0.00     0.033 C 
ATOM     26  C   UNL     1     -15.450  65.849   7.943  1.00  0.00    -0.006 C 
ATOM     27  C   UNL     1     -14.477  67.076   7.812  1.00  0.00     0.120 C 
ATOM     28  C   UNL     1     -16.246  65.916   9.276  1.00  0.00     0.014 C 
ATOM     29  C   UNL     1     -16.500  65.948   6.796  1.00  0.00     0.014 C 
ENDROOT
BRANCH   1  30
ATOM     30  C   UNL     1     -10.887  57.559   7.089  1.00  0.00     0.051 C 
ATOM     31  O   UNL     1     -11.625  56.877   6.329  1.00  0.00    -0.549 OA
ATOM     32  O   UNL     1      -9.577  57.804   6.689  1.00  0.00    -0.549 OA
ENDBRANCH   1  30
BRANCH   4  33
ATOM     33  O   UNL     1     -13.626  57.342   7.620  1.00  0.00    -0.392 OA
ATOM     34  H   UNL     1     -14.603  57.470   7.744  1.00  0.00     0.210 HD
ENDBRANCH   4  33
BRANCH  27  35
ATOM     35  O   UNL     1     -14.059  67.239   6.476  1.00  0.00    -0.393 OA
ATOM     36  H   UNL     1     -13.275  66.647   6.331  1.00  0.00     0.210 HD
ENDBRANCH  27  35
TORSDOF 3
ENDMDL
MODEL 5
REMARK VINA RESULT:    -3.271      1.431      1.900
REMARK INTER + INTRA:          -3.252
REMARK INTER:                  -3.250
REMARK INTRA:                  -0.003
REMARK UNBOUND:                 0.401
REMARK SMILES CC1(C)CC[C@@]2(C(=O)[O-])[C@H](O)C[C@]3(C)C(=CC[C@H]4[C@@]5(C)CC[C@@H](O)C(C)(C)[C@@H]5CC[C@@]43C)[C@H]2C1
REMARK SMILES IDX 6 1 5 2 33 3 10 4 4 5 34 6 15 7 12 8 2 9 16 10 13 11 1 12
REMARK SMILES IDX 3 13 17 14 31 15 14 16 18 17 30 18 32 19 19 20 29 21 21 22
REMARK SMILES IDX 20 23 28 24 22 25 25 26 23 27 26 28 27 29 7 30 8 31 9 32
REMARK SMILES IDX 11 33 24 35
REMARK H PARENT 11 34 24 36
REMARK Flexibility Score: inf
ROOT
ATOM      1  C   UNL     1     -15.417  66.683   7.367  1.00  0.00     0.042 C 
ATOM      2  C   UNL     1     -15.550  68.074   6.662  1.00  0.00     0.017 C 
ATOM      3  C   UNL     1     -14.122  66.642   8.230  1.00  0.00     0.030 C 
ATOM      4  C   UNL     1     -15.377  65.522   6.293  1.00  0.00     0.127 C 
ATOM      5  C   UNL     1     -14.301  68.554   5.910  1.00  0.00     0.007 C 
ATOM      6  C   UNL     1     -12.878  67.118   7.416  1.00  0.00     0.015 C 
ATOM      7  C   UNL     1     -13.831  65.253   8.829  1.00  0.00    -0.063 C 
ATOM      8  C   UNL     1     -14.593  64.225   6.690  1.00  0.00     0.044 C 
ATOM      9  C   UNL     1     -13.028  68.518   6.780  1.00  0.00    -0.035 C 
ATOM     10  C   UNL     1     -12.772  65.230   9.675  1.00  0.00    -0.027 C 
ATOM     11  C   UNL     1     -14.434  63.941   8.225  1.00  0.00    -0.003 C 
ATOM     12  C   UNL     1     -13.063  69.622   7.864  1.00  0.00     0.011 C 
ATOM     13  C   UNL     1     -11.805  68.785   5.875  1.00  0.00     0.011 C 
ATOM     14  C   UNL     1     -11.727  64.153   9.651  1.00  0.00     0.032 C 
ATOM     15  C   UNL     1     -13.495  62.652   8.582  1.00  0.00    -0.020 C 
ATOM     16  C   UNL     1     -15.862  63.656   8.786  1.00  0.00     0.017 C 
ATOM     17  C   UNL     1     -11.984  63.117   8.533  1.00  0.00     0.006 C 
ATOM     18  C   UNL     1     -13.777  61.415   7.622  1.00  0.00     0.008 C 
ATOM     19  C   UNL     1     -13.794  62.164  10.052  1.00  0.00     0.012 C 
ATOM     20  C   UNL     1     -10.820  62.017   8.392  1.00  0.00    -0.025 C 
ATOM     21  C   UNL     1     -12.536  60.802   6.960  1.00  0.00     0.005 C 
ATOM     22  C   UNL     1      -9.988  61.805   9.695  1.00  0.00     0.010 C 
ATOM     23  C   UNL     1      -9.850  62.570   7.294  1.00  0.00     0.012 C 
ATOM     24  C   UNL     1     -11.445  60.627   8.030  1.00  0.00     0.003 C 
ATOM     25  C   UNL     1      -8.950  60.665   9.586  1.00  0.00     0.033 C 
ATOM     26  C   UNL     1     -10.449  59.415   7.862  1.00  0.00    -0.006 C 
ATOM     27  C   UNL     1      -9.567  59.319   9.160  1.00  0.00     0.120 C 
ATOM     28  C   UNL     1      -9.556  59.518   6.595  1.00  0.00     0.014 C 
ATOM     29  C   UNL     1     -11.251  58.086   7.732  1.00  0.00     0.014 C 
ENDROOT
BRANCH   1  30
ATOM     30  C   UNL     1     -16.647  66.604   8.277  1.00  0.00     0.051 C 
ATOM     31  O   UNL     1     -17.806  66.614   7.782  1.00  0.00    -0.549 OA
ATOM     32  O   UNL     1     -16.522  66.596   9.663  1.00  0.00    -0.549 OA
ENDBRANCH   1  30
BRANCH   4  33
ATOM     33  O   UNL     1     -16.675  65.168   5.875  1.00  0.00    -0.392 OA
ATOM     34  H   UNL     1     -16.649  65.059   4.888  1.00  0.00     0.210 HD
ENDBRANCH   4  33
BRANCH  27  35
ATOM     35  O   UNL     1     -10.328  58.837  10.244  1.00  0.00    -0.393 OA
ATOM     36  H   UNL     1     -10.951  58.149   9.891  1.00  0.00     0.210 HD
ENDBRANCH  27  35
TORSDOF 3
ENDMDL
MODEL 6
REMARK VINA RESULT:    -2.448      1.949      3.912
REMARK INTER + INTRA:          -2.334
REMARK INTER:                  -2.530
REMARK INTRA:                   0.197
REMARK UNBOUND:                 0.401
REMARK SMILES CC1(C)CC[C@@]2(C(=O)[O-])[C@H](O)C[C@]3(C)C(=CC[C@H]4[C@@]5(C)CC[C@@H](O)C(C)(C)[C@@H]5CC[C@@]43C)[C@H]2C1
REMARK SMILES IDX 6 1 5 2 33 3 10 4 4 5 34 6 15 7 12 8 2 9 16 10 13 11 1 12
REMARK SMILES IDX 3 13 17 14 31 15 14 16 18 17 30 18 32 19 19 20 29 21 21 22
REMARK SMILES IDX 20 23 28 24 22 25 25 26 23 27 26 28 27 29 7 30 8 31 9 32
REMARK SMILES IDX 11 33 24 35
REMARK H PARENT 11 34 24 36
REMARK Flexibility Score: inf
ROOT
ATOM      1  C   UNL     1     -12.840  66.052   7.930  1.00  0.00     0.042 C 
ATOM      2  C   UNL     1     -14.055  67.029   8.057  1.00  0.00     0.017 C 
ATOM      3  C   UNL     1     -13.164  64.924   6.906  1.00  0.00     0.030 C 
ATOM      4  C   UNL     1     -12.497  65.411   9.336  1.00  0.00     0.127 C 
ATOM      5  C   UNL     1     -15.416  66.361   8.297  1.00  0.00     0.007 C 
ATOM      6  C   UNL     1     -14.545  64.262   7.205  1.00  0.00     0.015 C 
ATOM      7  C   UNL     1     -12.083  63.829   6.842  1.00  0.00    -0.063 C 
ATOM      8  C   UNL     1     -11.844  63.987   9.318  1.00  0.00     0.044 C 
ATOM      9  C   UNL     1     -15.729  65.254   7.269  1.00  0.00    -0.035 C 
ATOM     10  C   UNL     1     -12.295  62.904   5.875  1.00  0.00    -0.027 C 
ATOM     11  C   UNL     1     -11.073  63.583   8.012  1.00  0.00    -0.003 C 
ATOM     12  C   UNL     1     -16.028  65.857   5.875  1.00  0.00     0.011 C 
ATOM     13  C   UNL     1     -16.989  64.492   7.734  1.00  0.00     0.011 C 
ATOM     14  C   UNL     1     -12.125  61.429   6.099  1.00  0.00     0.032 C 
ATOM     15  C   UNL     1     -10.529  62.042   7.997  1.00  0.00    -0.020 C 
ATOM     16  C   UNL     1      -9.833  64.523   7.906  1.00  0.00     0.017 C 
ATOM     17  C   UNL     1     -11.724  61.104   7.556  1.00  0.00     0.006 C 
ATOM     18  C   UNL     1      -9.905  61.607   9.394  1.00  0.00     0.008 C 
ATOM     19  C   UNL     1      -9.386  61.890   6.921  1.00  0.00     0.012 C 
ATOM     20  C   UNL     1     -11.654  59.529   7.871  1.00  0.00    -0.025 C 
ATOM     21  C   UNL     1     -10.447  60.295   9.975  1.00  0.00     0.005 C 
ATOM     22  C   UNL     1     -11.409  58.642   6.610  1.00  0.00     0.010 C 
ATOM     23  C   UNL     1     -13.059  59.152   8.450  1.00  0.00     0.012 C 
ATOM     24  C   UNL     1     -10.473  59.237   8.858  1.00  0.00     0.003 C 
ATOM     25  C   UNL     1     -11.226  57.143   6.936  1.00  0.00     0.033 C 
ATOM     26  C   UNL     1     -10.241  57.733   9.273  1.00  0.00    -0.006 C 
ATOM     27  C   UNL     1     -10.109  56.875   7.963  1.00  0.00     0.120 C 
ATOM     28  C   UNL     1     -11.356  57.166  10.193  1.00  0.00     0.014 C 
ATOM     29  C   UNL     1      -8.905  57.604  10.064  1.00  0.00     0.014 C 
ENDROOT
BRANCH   1  30
ATOM     30  C   UNL     1     -11.706  66.930   7.390  1.00  0.00     0.051 C 
ATOM     31  O   UNL     1     -10.853  67.422   8.176  1.00  0.00    -0.549 OA
ATOM     32  O   UNL     1     -11.632  67.267   6.042  1.00  0.00    -0.549 OA
ENDBRANCH   1  30
BRANCH   4  33
ATOM     33  O   UNL     1     -11.701  66.275  10.111  1.00  0.00    -0.392 OA
ATOM     34  H   UNL     1     -10.937  66.563   9.545  1.00  0.00     0.210 HD
ENDBRANCH   4  33
BRANCH  27  35
ATOM     35  O   UNL     1      -8.876  57.126   7.326  1.00  0.00    -0.393 OA
ATOM     36  H   UNL     1      -8.519  56.256   7.008  1.00  0.00     0.210 HD
ENDBRANCH  27  35
TORSDOF 3
ENDMDL
MODEL 7
REMARK VINA RESULT:    -1.917      2.908      8.266
REMARK INTER + INTRA:          -1.740
REMARK INTER:                  -1.799
REMARK INTRA:                   0.059
REMARK UNBOUND:                 0.401
REMARK SMILES CC1(C)CC[C@@]2(C(=O)[O-])[C@H](O)C[C@]3(C)C(=CC[C@H]4[C@@]5(C)CC[C@@H](O)C(C)(C)[C@@H]5CC[C@@]43C)[C@H]2C1
REMARK SMILES IDX 6 1 5 2 33 3 10 4 4 5 34 6 15 7 12 8 2 9 16 10 13 11 1 12
REMARK SMILES IDX 3 13 17 14 31 15 14 16 18 17 30 18 32 19 19 20 29 21 21 22
REMARK SMILES IDX 20 23 28 24 22 25 25 26 23 27 26 28 27 29 7 30 8 31 9 32
REMARK SMILES IDX 11 33 24 35
REMARK H PARENT 11 34 24 36
REMARK Flexibility Score: inf
ROOT
ATOM      1  C   UNL     1     -12.479  62.687   8.400  1.00  0.00     0.042 C 
ATOM      2  C   UNL     1     -11.049  62.234   8.843  1.00  0.00     0.017 C 
ATOM      3  C   UNL     1     -12.377  63.780   7.296  1.00  0.00     0.030 C 
ATOM      4  C   UNL     1     -13.286  63.255   9.637  1.00  0.00     0.127 C 
ATOM      5  C   UNL     1     -10.078  63.368   9.197  1.00  0.00     0.007 C 
ATOM      6  C   UNL     1     -11.396  64.921   7.711  1.00  0.00     0.015 C 
ATOM      7  C   UNL     1     -13.738  64.396   6.919  1.00  0.00    -0.063 C 
ATOM      8  C   UNL     1     -14.377  64.336   9.328  1.00  0.00     0.044 C 
ATOM      9  C   UNL     1      -9.978  64.438   8.090  1.00  0.00    -0.035 C 
ATOM     10  C   UNL     1     -13.678  65.265   5.881  1.00  0.00    -0.027 C 
ATOM     11  C   UNL     1     -14.974  64.337   7.877  1.00  0.00    -0.003 C 
ATOM     12  C   UNL     1      -9.226  63.890   6.853  1.00  0.00     0.011 C 
ATOM     13  C   UNL     1      -9.176  65.639   8.637  1.00  0.00     0.011 C 
ATOM     14  C   UNL     1     -14.390  66.587   5.875  1.00  0.00     0.032 C 
ATOM     15  C   UNL     1     -16.006  65.567   7.571  1.00  0.00    -0.020 C 
ATOM     16  C   UNL     1     -15.766  63.004   7.708  1.00  0.00     0.017 C 
ATOM     17  C   UNL     1     -15.150  66.844   7.196  1.00  0.00     0.006 C 
ATOM     18  C   UNL     1     -16.998  65.841   8.784  1.00  0.00     0.008 C 
ATOM     19  C   UNL     1     -16.901  65.214   6.321  1.00  0.00     0.012 C 
ATOM     20  C   UNL     1     -15.822  68.302   7.282  1.00  0.00    -0.025 C 
ATOM     21  C   UNL     1     -17.068  67.298   9.259  1.00  0.00     0.005 C 
ATOM     22  C   UNL     1     -16.113  68.947   5.890  1.00  0.00     0.010 C 
ATOM     23  C   UNL     1     -14.774  69.206   8.014  1.00  0.00     0.012 C 
ATOM     24  C   UNL     1     -17.197  68.210   8.027  1.00  0.00     0.003 C 
ATOM     25  C   UNL     1     -16.864  70.295   5.980  1.00  0.00     0.033 C 
ATOM     26  C   UNL     1     -18.012  69.550   8.195  1.00  0.00    -0.006 C 
ATOM     27  C   UNL     1     -18.180  70.206   6.777  1.00  0.00     0.120 C 
ATOM     28  C   UNL     1     -17.362  70.549   9.191  1.00  0.00     0.014 C 
ATOM     29  C   UNL     1     -19.434  69.237   8.747  1.00  0.00     0.014 C 
ENDROOT
BRANCH   1  30
ATOM     30  C   UNL     1     -13.111  61.419   7.816  1.00  0.00     0.051 C 
ATOM     31  O   UNL     1     -13.131  61.235   6.569  1.00  0.00    -0.549 OA
ATOM     32  O   UNL     1     -13.740  60.483   8.631  1.00  0.00    -0.549 OA
ENDBRANCH   1  30
BRANCH   4  33
ATOM     33  O   UNL     1     -13.866  62.215  10.390  1.00  0.00    -0.392 OA
ATOM     34  H   UNL     1     -14.247  62.621  11.212  1.00  0.00     0.210 HD
ENDBRANCH   4  33
BRANCH  27  35
ATOM     35  O   UNL     1     -19.102  69.478   5.998  1.00  0.00    -0.393 OA
ATOM     36  H   UNL     1     -20.002  69.863   6.159  1.00  0.00     0.210 HD
ENDBRANCH  27  35
TORSDOF 3
ENDMDL
