MODEL 1
REMARK VINA RESULT:    -3.099      0.000      0.000
REMARK INTER + INTRA:          -3.303
REMARK INTER:                  -3.280
REMARK INTRA:                  -0.022
REMARK UNBOUND:                -0.022
REMARK SMILES O=C([O-])c1cccnc1
REMARK SMILES IDX 4 1 5 2 9 3 6 4 8 5 7 6 2 7 1 8 3 9
REMARK H PARENT
REMARK Flexibility Score: inf
ROOT
ATOM      1  C   UNL     1      52.653  52.958  49.494  1.00  0.00     0.016 A 
ATOM      2  C   UNL     1      52.892  52.194  48.339  1.00  0.00     0.013 A 
ATOM      3  C   UNL     1      52.932  54.335  49.454  1.00  0.00     0.120 A 
ATOM      4  C   UNL     1      53.394  52.804  47.188  1.00  0.00     0.021 A 
ATOM      5  N   UNL     1      53.422  54.903  48.319  1.00  0.00    -0.264 NA
ATOM      6  C   UNL     1      53.656  54.174  47.197  1.00  0.00     0.111 A 
ENDROOT
BRANCH   1   7
ATOM      7  C   UNL     1      52.121  52.332  50.724  1.00  0.00     0.073 C 
ATOM      8  O   UNL     1      51.537  53.029  51.596  1.00  0.00    -0.545 OA
ATOM      9  O   UNL     1      52.259  50.966  50.935  1.00  0.00    -0.545 OA
ENDBRANCH   1   7
TORSDOF 1
ENDMDL
MODEL 2
REMARK VINA RESULT:    -3.078     13.065     13.886
REMARK INTER + INTRA:          -3.280
REMARK INTER:                  -3.259
REMARK INTRA:                  -0.021
REMARK UNBOUND:                -0.022
REMARK SMILES O=C([O-])c1cccnc1
REMARK SMILES IDX 4 1 5 2 9 3 6 4 8 5 7 6 2 7 1 8 3 9
REMARK H PARENT
REMARK Flexibility Score: inf
ROOT
ATOM      1  C   UNL     1      50.538  50.933  62.621  1.00  0.00     0.016 A 
ATOM      2  C   UNL     1      50.349  51.906  61.626  1.00  0.00     0.013 A 
ATOM      3  C   UNL     1      51.201  51.307  63.803  1.00  0.00     0.120 A 
ATOM      4  C   UNL     1      50.813  53.208  61.822  1.00  0.00     0.021 A 
ATOM      5  N   UNL     1      51.644  52.582  63.968  1.00  0.00    -0.264 NA
ATOM      6  C   UNL     1      51.465  53.531  63.012  1.00  0.00     0.111 A 
ENDROOT
BRANCH   1   7
ATOM      7  C   UNL     1      50.055  49.548  62.434  1.00  0.00     0.073 C 
ATOM      8  O   UNL     1      49.683  48.860  63.422  1.00  0.00    -0.545 OA
ATOM      9  O   UNL     1      50.004  48.986  61.165  1.00  0.00    -0.545 OA
ENDBRANCH   1   7
TORSDOF 1
ENDMDL
MODEL 3
REMARK VINA RESULT:    -3.012      2.828      3.770
REMARK INTER + INTRA:          -3.211
REMARK INTER:                  -3.189
REMARK INTRA:                  -0.022
REMARK UNBOUND:                -0.022
REMARK SMILES O=C([O-])c1cccnc1
REMARK SMILES IDX 4 1 5 2 9 3 6 4 8 5 7 6 2 7 1 8 3 9
REMARK H PARENT
REMARK Flexibility Score: inf
ROOT
ATOM      1  C   UNL     1      53.002  51.339  50.138  1.00  0.00     0.016 A 
ATOM      2  C   UNL     1      52.640  50.270  50.975  1.00  0.00     0.013 A 
ATOM      3  C   UNL     1      54.094  51.167  49.271  1.00  0.00     0.120 A 
ATOM      4  C   UNL     1      53.356  49.073  50.933  1.00  0.00     0.021 A 
ATOM      5  N   UNL     1      54.776  49.990  49.250  1.00  0.00    -0.264 NA
ATOM      6  C   UNL     1      54.433  48.950  50.054  1.00  0.00     0.111 A 
ENDROOT
BRANCH   1   7
ATOM      7  C   UNL     1      52.256  52.616  50.167  1.00  0.00     0.073 C 
ATOM      8  O   UNL     1      52.211  53.354  49.148  1.00  0.00    -0.545 OA
ATOM      9  O   UNL     1      51.595  53.019  51.321  1.00  0.00    -0.545 OA
ENDBRANCH   1   7
TORSDOF 1
ENDMDL
MODEL 4
REMARK VINA RESULT:    -2.983      2.613      3.676
REMARK INTER + INTRA:          -3.180
REMARK INTER:                  -3.159
REMARK INTRA:                  -0.021
REMARK UNBOUND:                -0.022
REMARK SMILES O=C([O-])c1cccnc1
REMARK SMILES IDX 4 1 5 2 9 3 6 4 8 5 7 6 2 7 1 8 3 9
REMARK H PARENT
REMARK Flexibility Score: inf
ROOT
ATOM      1  C   UNL     1      52.823  53.586  49.002  1.00  0.00     0.016 A 
ATOM      2  C   UNL     1      52.343  52.392  49.565  1.00  0.00     0.013 A 
ATOM      3  C   UNL     1      52.958  54.710  49.834  1.00  0.00     0.120 A 
ATOM      4  C   UNL     1      52.012  52.340  50.921  1.00  0.00     0.021 A 
ATOM      5  N   UNL     1      52.627  54.633  51.152  1.00  0.00    -0.264 NA
ATOM      6  C   UNL     1      52.163  53.483  51.707  1.00  0.00     0.111 A 
ENDROOT
BRANCH   1   7
ATOM      7  C   UNL     1      53.179  53.662  47.568  1.00  0.00     0.073 C 
ATOM      8  O   UNL     1      53.718  52.682  46.989  1.00  0.00    -0.545 OA
ATOM      9  O   UNL     1      52.925  54.818  46.841  1.00  0.00    -0.545 OA
ENDBRANCH   1   7
TORSDOF 1
ENDMDL
MODEL 5
REMARK VINA RESULT:    -2.936      3.992      4.693
REMARK INTER + INTRA:          -3.131
REMARK INTER:                  -3.114
REMARK INTRA:                  -0.016
REMARK UNBOUND:                -0.022
REMARK SMILES O=C([O-])c1cccnc1
REMARK SMILES IDX 4 1 5 2 9 3 6 4 8 5 7 6 2 7 1 8 3 9
REMARK H PARENT
REMARK Flexibility Score: inf
ROOT
ATOM      1  C   UNL     1      53.238  55.335  46.272  1.00  0.00     0.016 A 
ATOM      2  C   UNL     1      53.088  54.282  47.190  1.00  0.00     0.013 A 
ATOM      3  C   UNL     1      54.363  55.331  45.430  1.00  0.00     0.120 A 
ATOM      4  C   UNL     1      54.041  53.263  47.250  1.00  0.00     0.021 A 
ATOM      5  N   UNL     1      55.278  54.327  45.510  1.00  0.00    -0.264 NA
ATOM      6  C   UNL     1      55.141  53.304  46.393  1.00  0.00     0.111 A 
ENDROOT
BRANCH   1   7
ATOM      7  C   UNL     1      52.239  56.423  46.192  1.00  0.00     0.073 C 
ATOM      8  O   UNL     1      52.302  57.409  46.974  1.00  0.00    -0.545 OA
ATOM      9  O   UNL     1      51.217  56.372  45.252  1.00  0.00    -0.545 OA
ENDBRANCH   1   7
TORSDOF 1
ENDMDL
MODEL 6
REMARK VINA RESULT:    -2.934      4.499      5.409
REMARK INTER + INTRA:          -3.128
REMARK INTER:                  -3.112
REMARK INTRA:                  -0.017
REMARK UNBOUND:                -0.022
REMARK SMILES O=C([O-])c1cccnc1
REMARK SMILES IDX 4 1 5 2 9 3 6 4 8 5 7 6 2 7 1 8 3 9
REMARK H PARENT
REMARK Flexibility Score: inf
ROOT
ATOM      1  C   UNL     1      52.687  56.284  46.298  1.00  0.00     0.016 A 
ATOM      2  C   UNL     1      53.014  55.051  46.888  1.00  0.00     0.013 A 
ATOM      3  C   UNL     1      52.674  57.430  47.111  1.00  0.00     0.120 A 
ATOM      4  C   UNL     1      53.317  54.984  48.250  1.00  0.00     0.021 A 
ATOM      5  N   UNL     1      52.973  57.337  48.435  1.00  0.00    -0.264 NA
ATOM      6  C   UNL     1      53.291  56.150  49.015  1.00  0.00     0.111 A 
ENDROOT
BRANCH   1   7
ATOM      7  C   UNL     1      52.363  56.376  44.858  1.00  0.00     0.073 C 
ATOM      8  O   UNL     1      53.271  56.289  43.990  1.00  0.00    -0.545 OA
ATOM      9  O   UNL     1      51.050  56.563  44.443  1.00  0.00    -0.545 OA
ENDBRANCH   1   7
TORSDOF 1
ENDMDL
MODEL 7
REMARK VINA RESULT:    -2.921     13.474     14.203
REMARK INTER + INTRA:          -3.115
REMARK INTER:                  -3.098
REMARK INTRA:                  -0.016
REMARK UNBOUND:                -0.022
REMARK SMILES O=C([O-])c1cccnc1
REMARK SMILES IDX 4 1 5 2 9 3 6 4 8 5 7 6 2 7 1 8 3 9
REMARK H PARENT
REMARK Flexibility Score: inf
ROOT
ATOM      1  C   UNL     1      50.974  47.515  61.795  1.00  0.00     0.016 A 
ATOM      2  C   UNL     1      50.539  48.613  61.034  1.00  0.00     0.013 A 
ATOM      3  C   UNL     1      50.887  47.598  63.195  1.00  0.00     0.120 A 
ATOM      4  C   UNL     1      50.036  49.751  61.668  1.00  0.00     0.021 A 
ATOM      5  N   UNL     1      50.394  48.719  63.788  1.00  0.00    -0.264 NA
ATOM      6  C   UNL     1      49.970  49.786  63.061  1.00  0.00     0.111 A 
ENDROOT
BRANCH   1   7
ATOM      7  C   UNL     1      51.509  46.301  61.143  1.00  0.00     0.073 C 
ATOM      8  O   UNL     1      50.731  45.450  60.635  1.00  0.00    -0.545 OA
ATOM      9  O   UNL     1      52.880  46.081  61.083  1.00  0.00    -0.545 OA
ENDBRANCH   1   7
TORSDOF 1
ENDMDL
MODEL 8
REMARK VINA RESULT:    -2.868      1.867      2.973
REMARK INTER + INTRA:          -3.059
REMARK INTER:                  -3.036
REMARK INTRA:                  -0.022
REMARK UNBOUND:                -0.022
REMARK SMILES O=C([O-])c1cccnc1
REMARK SMILES IDX 4 1 5 2 9 3 6 4 8 5 7 6 2 7 1 8 3 9
REMARK H PARENT
REMARK Flexibility Score: inf
ROOT
ATOM      1  C   UNL     1      52.777  53.753  49.604  1.00  0.00     0.016 A 
ATOM      2  C   UNL     1      52.327  54.009  50.911  1.00  0.00     0.013 A 
ATOM      3  C   UNL     1      53.253  54.831  48.839  1.00  0.00     0.120 A 
ATOM      4  C   UNL     1      52.361  55.308  51.421  1.00  0.00     0.021 A 
ATOM      5  N   UNL     1      53.273  56.088  49.361  1.00  0.00    -0.264 NA
ATOM      6  C   UNL     1      52.842  56.345  50.623  1.00  0.00     0.111 A 
ENDROOT
BRANCH   1   7
ATOM      7  C   UNL     1      52.751  52.384  49.044  1.00  0.00     0.073 C 
ATOM      8  O   UNL     1      52.797  51.381  49.804  1.00  0.00    -0.545 OA
ATOM      9  O   UNL     1      52.675  52.187  47.671  1.00  0.00    -0.545 OA
ENDBRANCH   1   7
TORSDOF 1
ENDMDL
MODEL 9
REMARK VINA RESULT:    -2.824      2.631      3.512
REMARK INTER + INTRA:          -3.011
REMARK INTER:                  -2.988
REMARK INTRA:                  -0.024
REMARK UNBOUND:                -0.022
REMARK SMILES O=C([O-])c1cccnc1
REMARK SMILES IDX 4 1 5 2 9 3 6 4 8 5 7 6 2 7 1 8 3 9
REMARK H PARENT
REMARK Flexibility Score: inf
ROOT
ATOM      1  C   UNL     1      52.737  54.289  50.455  1.00  0.00     0.016 A 
ATOM      2  C   UNL     1      51.994  53.379  51.226  1.00  0.00     0.013 A 
ATOM      3  C   UNL     1      53.552  53.784  49.428  1.00  0.00     0.120 A 
ATOM      4  C   UNL     1      52.075  52.009  50.964  1.00  0.00     0.021 A 
ATOM      5  N   UNL     1      53.614  52.445  49.195  1.00  0.00    -0.264 NA
ATOM      6  C   UNL     1      52.899  51.557  49.933  1.00  0.00     0.111 A 
ENDROOT
BRANCH   1   7
ATOM      7  C   UNL     1      52.665  55.743  50.715  1.00  0.00     0.073 C 
ATOM      8  O   UNL     1      53.397  56.545  50.076  1.00  0.00    -0.545 OA
ATOM      9  O   UNL     1      51.789  56.245  51.670  1.00  0.00    -0.545 OA
ENDBRANCH   1   7
TORSDOF 1
ENDMDL
