MODEL 1
REMARK VINA RESULT:    -4.232      0.000      0.000
REMARK INTER + INTRA:          -4.379
REMARK INTER:                  -5.222
REMARK INTRA:                   0.843
REMARK UNBOUND:                 0.843
REMARK SMILES CC1=CC=CC(C)(C)CC1=O
REMARK SMILES IDX 1 1 2 2 3 3 10 4 11 5 9 6 4 8 5 9 6 10 7 11 8 12
REMARK H PARENT
REMARK Flexibility Score: 80.00
ROOT
ATOM      1  C   UNL     1     -14.109 -20.076  28.624  1.00  0.00     0.048 C 
ATOM      2  C   UNL     1     -13.130 -19.347  29.514  1.00  0.00    -0.008 C 
ATOM      3  C   UNL     1     -12.971 -19.795  30.778  1.00  0.00     0.007 C 
ENDROOT
BRANCH   2   4
ATOM      4  C   UNL     1     -12.380 -18.219  28.898  1.00  0.00     0.159 C 
ATOM      5  O   UNL     1     -12.664 -17.879  27.717  1.00  0.00    -0.295 OA
BRANCH   4   6
ATOM      6  C   UNL     1     -11.268 -17.478  29.579  1.00  0.00     0.091 CG0
ATOM      7  G   UNL     1     -11.638 -16.945  30.982  1.00  0.00     0.000 G0
ENDBRANCH   4   6
ENDBRANCH   2   4
BRANCH   3   8
ATOM      8  C   UNL     1     -12.104 -19.281  31.863  1.00  0.00    -0.003 C 
ATOM      9  C   UNL     1     -11.551 -18.068  31.985  1.00  0.00    -0.020 C 
BRANCH   9  10
ATOM     10  C   UNL     1     -11.635 -16.946  30.979  1.00  0.00    -0.010 CG0
ATOM     11  C   UNL     1     -10.586 -15.876  31.360  1.00  0.00     0.016 C 
ATOM     12  C   UNL     1     -13.031 -16.282  31.032  1.00  0.00     0.016 C 
ATOM     13  G   UNL     1     -11.282 -17.486  29.575  1.00  0.00     0.000 G0
ENDBRANCH   9  10
ENDBRANCH   3   8
TORSDOF 0
ENDMDL
MODEL 2
REMARK VINA RESULT:    -4.088      1.543      2.988
REMARK INTER + INTRA:          -4.202
REMARK INTER:                  -5.055
REMARK INTRA:                   0.853
REMARK UNBOUND:                 0.843
REMARK SMILES CC1=CC=CC(C)(C)CC1=O
REMARK SMILES IDX 1 1 2 2 3 3 10 4 11 5 9 6 4 8 5 9 6 10 7 11 8 12
REMARK H PARENT
REMARK Flexibility Score: 80.00
ROOT
ATOM      1  C   UNL     1     -12.587 -15.119  28.394  1.00  0.00     0.048 C 
ATOM      2  C   UNL     1     -12.838 -16.233  29.382  1.00  0.00    -0.008 C 
ATOM      3  C   UNL     1     -13.198 -15.893  30.639  1.00  0.00     0.007 C 
ENDROOT
BRANCH   2   4
ATOM      4  C   UNL     1     -12.717 -17.623  28.866  1.00  0.00     0.159 C 
ATOM      5  O   UNL     1     -12.327 -17.794  27.678  1.00  0.00    -0.295 OA
BRANCH   4   6
ATOM      6  C   UNL     1     -13.070 -18.847  29.657  1.00  0.00     0.091 CG0
ATOM      7  G   UNL     1     -12.393 -18.914  31.045  1.00  0.00     0.000 G0
ENDBRANCH   4   6
ENDBRANCH   2   4
BRANCH   3   8
ATOM      8  C   UNL     1     -13.494 -16.756  31.805  1.00  0.00    -0.003 C 
ATOM      9  C   UNL     1     -13.140 -18.030  32.012  1.00  0.00    -0.020 C 
BRANCH   9  10
ATOM     10  C   UNL     1     -12.397 -18.916  31.041  1.00  0.00    -0.010 CG0
ATOM     11  C   UNL     1     -12.495 -20.374  31.545  1.00  0.00     0.016 C 
ATOM     12  C   UNL     1     -10.901 -18.529  30.998  1.00  0.00     0.016 C 
ATOM     13  G   UNL     1     -13.074 -18.841  29.654  1.00  0.00     0.000 G0
ENDBRANCH   9  10
ENDBRANCH   3   8
TORSDOF 0
ENDMDL
MODEL 3
REMARK VINA RESULT:    -3.986      1.951      3.059
REMARK INTER + INTRA:          -4.076
REMARK INTER:                  -4.933
REMARK INTRA:                   0.856
REMARK UNBOUND:                 0.843
REMARK SMILES CC1=CC=CC(C)(C)CC1=O
REMARK SMILES IDX 1 1 2 2 3 3 10 4 11 5 9 6 4 8 5 9 6 10 7 11 8 12
REMARK H PARENT
REMARK Flexibility Score: 80.00
ROOT
ATOM      1  C   UNL     1     -11.196 -17.281  25.986  1.00  0.00     0.048 C 
ATOM      2  C   UNL     1     -11.428 -16.792  27.397  1.00  0.00    -0.008 C 
ATOM      3  C   UNL     1     -10.406 -16.887  28.274  1.00  0.00     0.007 C 
ENDROOT
BRANCH   2   4
ATOM      4  C   UNL     1     -12.760 -16.196  27.686  1.00  0.00     0.159 C 
ATOM      5  O   UNL     1     -13.627 -16.182  26.769  1.00  0.00    -0.295 OA
BRANCH   4   6
ATOM      6  C   UNL     1     -13.132 -15.566  28.995  1.00  0.00     0.091 CG0
ATOM      7  G   UNL     1     -12.826 -16.449  30.226  1.00  0.00     0.000 G0
ENDBRANCH   4   6
ENDBRANCH   2   4
BRANCH   3   8
ATOM      8  C   UNL     1     -10.346 -16.505  29.703  1.00  0.00    -0.003 C 
ATOM      9  C   UNL     1     -11.356 -16.339  30.565  1.00  0.00    -0.020 C 
BRANCH   9  10
ATOM     10  C   UNL     1     -12.827 -16.439  30.243  1.00  0.00    -0.010 CG0
ATOM     11  C   UNL     1     -13.624 -15.866  31.437  1.00  0.00     0.016 C 
ATOM     12  C   UNL     1     -13.238 -17.919  30.065  1.00  0.00     0.016 C 
ATOM     13  G   UNL     1     -13.141 -15.578  28.998  1.00  0.00     0.000 G0
ENDBRANCH   9  10
ENDBRANCH   3   8
TORSDOF 0
ENDMDL
MODEL 4
REMARK VINA RESULT:    -3.917      1.528      2.527
REMARK INTER + INTRA:          -3.990
REMARK INTER:                  -4.847
REMARK INTRA:                   0.857
REMARK UNBOUND:                 0.843
REMARK SMILES CC1=CC=CC(C)(C)CC1=O
REMARK SMILES IDX 1 1 2 2 3 3 10 4 11 5 9 6 4 8 5 9 6 10 7 11 8 12
REMARK H PARENT
REMARK Flexibility Score: 80.00
ROOT
ATOM      1  C   UNL     1     -13.669 -19.955  28.667  1.00  0.00     0.048 C 
ATOM      2  C   UNL     1     -12.988 -18.713  29.191  1.00  0.00    -0.008 C 
ATOM      3  C   UNL     1     -12.646 -17.757  28.299  1.00  0.00     0.007 C 
ENDROOT
BRANCH   2   4
ATOM      4  C   UNL     1     -12.798 -18.626  30.663  1.00  0.00     0.159 C 
ATOM      5  O   UNL     1     -13.118 -19.619  31.373  1.00  0.00    -0.295 OA
BRANCH   4   6
ATOM      6  C   UNL     1     -12.285 -17.409  31.374  1.00  0.00     0.091 CG0
ATOM      7  G   UNL     1     -10.950 -16.871  30.812  1.00  0.00     0.000 G0
ENDBRANCH   4   6
ENDBRANCH   2   4
BRANCH   3   8
ATOM      8  C   UNL     1     -11.968 -16.459  28.517  1.00  0.00    -0.003 C 
ATOM      9  C   UNL     1     -11.221 -16.072  29.557  1.00  0.00    -0.020 C 
BRANCH   9  10
ATOM     10  C   UNL     1     -10.953 -16.873  30.808  1.00  0.00    -0.010 CG0
ATOM     11  C   UNL     1     -10.332 -15.929  31.864  1.00  0.00     0.016 C 
ATOM     12  C   UNL     1      -9.930 -17.996  30.516  1.00  0.00     0.016 C 
ATOM     13  G   UNL     1     -12.288 -17.412  31.370  1.00  0.00     0.000 G0
ENDBRANCH   9  10
ENDBRANCH   3   8
TORSDOF 0
ENDMDL
MODEL 5
REMARK VINA RESULT:    -3.913      1.989      3.752
REMARK INTER + INTRA:          -3.986
REMARK INTER:                  -4.839
REMARK INTRA:                   0.854
REMARK UNBOUND:                 0.843
REMARK SMILES CC1=CC=CC(C)(C)CC1=O
REMARK SMILES IDX 1 1 2 2 3 3 10 4 11 5 9 6 4 8 5 9 6 10 7 11 8 12
REMARK H PARENT
REMARK Flexibility Score: 80.00
ROOT
ATOM      1  C   UNL     1     -12.682 -16.709  32.555  1.00  0.00     0.048 C 
ATOM      2  C   UNL     1     -12.463 -16.498  31.075  1.00  0.00    -0.008 C 
ATOM      3  C   UNL     1     -13.268 -15.622  30.437  1.00  0.00     0.007 C 
ENDROOT
BRANCH   2   4
ATOM      4  C   UNL     1     -11.334 -17.243  30.454  1.00  0.00     0.159 C 
ATOM      5  O   UNL     1     -10.704 -18.079  31.158  1.00  0.00    -0.295 OA
BRANCH   4   6
ATOM      6  C   UNL     1     -10.864 -17.034  29.046  1.00  0.00     0.091 CG0
ATOM      7  G   UNL     1     -11.984 -17.148  27.988  1.00  0.00     0.000 G0
ENDBRANCH   4   6
ENDBRANCH   2   4
BRANCH   3   8
ATOM      8  C   UNL     1     -13.293 -15.226  29.010  1.00  0.00    -0.003 C 
ATOM      9  C   UNL     1     -12.787 -15.875  27.955  1.00  0.00    -0.020 C 
BRANCH   9  10
ATOM     10  C   UNL     1     -11.993 -17.158  27.996  1.00  0.00    -0.010 CG0
ATOM     11  C   UNL     1     -11.332 -17.363  26.614  1.00  0.00     0.016 C 
ATOM     12  C   UNL     1     -12.930 -18.361  28.256  1.00  0.00     0.016 C 
ATOM     13  G   UNL     1     -10.871 -17.036  29.052  1.00  0.00     0.000 G0
ENDBRANCH   9  10
ENDBRANCH   3   8
TORSDOF 0
ENDMDL
MODEL 6
REMARK VINA RESULT:    -3.797      2.392      3.848
REMARK INTER + INTRA:          -3.843
REMARK INTER:                  -4.682
REMARK INTRA:                   0.839
REMARK UNBOUND:                 0.843
REMARK SMILES CC1=CC=CC(C)(C)CC1=O
REMARK SMILES IDX 1 1 2 2 3 3 10 4 11 5 9 6 4 8 5 9 6 10 7 11 8 12
REMARK H PARENT
REMARK Flexibility Score: 80.00
ROOT
ATOM      1  C   UNL     1     -14.931 -14.903  32.377  1.00  0.00     0.048 C 
ATOM      2  C   UNL     1     -13.703 -15.481  31.713  1.00  0.00    -0.008 C 
ATOM      3  C   UNL     1     -13.694 -15.564  30.365  1.00  0.00     0.007 C 
ENDROOT
BRANCH   2   4
ATOM      4  C   UNL     1     -12.578 -15.865  32.608  1.00  0.00     0.159 C 
ATOM      5  O   UNL     1     -12.741 -15.770  33.856  1.00  0.00    -0.295 OA
BRANCH   4   6
ATOM      6  C   UNL     1     -11.235 -16.321  32.122  1.00  0.00     0.091 CG0
ATOM      7  G   UNL     1     -11.299 -17.477  31.098  1.00  0.00     0.000 G0
ENDBRANCH   4   6
ENDBRANCH   2   4
BRANCH   3   8
ATOM      8  C   UNL     1     -12.649 -16.088  29.456  1.00  0.00    -0.003 C 
ATOM      9  C   UNL     1     -11.640 -16.921  29.736  1.00  0.00    -0.020 C 
BRANCH   9  10
ATOM     10  C   UNL     1     -11.293 -17.472  31.098  1.00  0.00    -0.010 CG0
ATOM     11  C   UNL     1      -9.880 -18.095  31.022  1.00  0.00     0.016 C 
ATOM     12  C   UNL     1     -12.285 -18.591  31.493  1.00  0.00     0.016 C 
ATOM     13  G   UNL     1     -11.254 -16.318  32.126  1.00  0.00     0.000 G0
ENDBRANCH   9  10
ENDBRANCH   3   8
TORSDOF 0
ENDMDL
MODEL 7
REMARK VINA RESULT:    -3.738      1.797      3.292
REMARK INTER + INTRA:          -3.769
REMARK INTER:                  -4.623
REMARK INTRA:                   0.854
REMARK UNBOUND:                 0.843
REMARK SMILES CC1=CC=CC(C)(C)CC1=O
REMARK SMILES IDX 1 1 2 2 3 3 10 4 11 5 9 6 4 8 5 9 6 10 7 11 8 12
REMARK H PARENT
REMARK Flexibility Score: 80.00
ROOT
ATOM      1  C   UNL     1     -11.641 -15.434  28.664  1.00  0.00     0.048 C 
ATOM      2  C   UNL     1     -11.978 -16.853  29.060  1.00  0.00    -0.008 C 
ATOM      3  C   UNL     1     -13.023 -17.449  28.446  1.00  0.00     0.007 C 
ENDROOT
BRANCH   2   4
ATOM      4  C   UNL     1     -11.089 -17.494  30.066  1.00  0.00     0.159 C 
ATOM      5  O   UNL     1     -10.162 -16.807  30.577  1.00  0.00    -0.295 OA
BRANCH   4   6
ATOM      6  C   UNL     1     -11.196 -18.929  30.488  1.00  0.00     0.091 CG0
ATOM      7  G   UNL     1     -12.616 -19.349  30.931  1.00  0.00     0.000 G0
ENDBRANCH   4   6
ENDBRANCH   2   4
BRANCH   3   8
ATOM      8  C   UNL     1     -13.583 -18.806  28.634  1.00  0.00    -0.003 C 
ATOM      9  C   UNL     1     -13.452 -19.625  29.685  1.00  0.00    -0.020 C 
BRANCH   9  10
ATOM     10  C   UNL     1     -12.621 -19.364  30.918  1.00  0.00    -0.010 CG0
ATOM     11  C   UNL     1     -12.500 -20.687  31.708  1.00  0.00     0.016 C 
ATOM     12  C   UNL     1     -13.323 -18.330  31.829  1.00  0.00     0.016 C 
ATOM     13  G   UNL     1     -11.200 -18.923  30.498  1.00  0.00     0.000 G0
ENDBRANCH   9  10
ENDBRANCH   3   8
TORSDOF 0
ENDMDL
MODEL 8
REMARK VINA RESULT:    -3.719      2.037      3.234
REMARK INTER + INTRA:          -3.746
REMARK INTER:                  -4.591
REMARK INTRA:                   0.845
REMARK UNBOUND:                 0.843
REMARK SMILES CC1=CC=CC(C)(C)CC1=O
REMARK SMILES IDX 1 1 2 2 3 3 10 4 11 5 9 6 4 8 5 9 6 10 7 11 8 12
REMARK H PARENT
REMARK Flexibility Score: 80.00
ROOT
ATOM      1  C   UNL     1     -13.477 -15.780  33.023  1.00  0.00     0.048 C 
ATOM      2  C   UNL     1     -12.990 -16.500  31.787  1.00  0.00    -0.008 C 
ATOM      3  C   UNL     1     -12.286 -17.640  31.956  1.00  0.00     0.007 C 
ENDROOT
BRANCH   2   4
ATOM      4  C   UNL     1     -13.375 -15.911  30.476  1.00  0.00     0.159 C 
ATOM      5  O   UNL     1     -14.002 -14.816  30.468  1.00  0.00    -0.295 OA
BRANCH   4   6
ATOM      6  C   UNL     1     -13.101 -16.557  29.151  1.00  0.00     0.091 CG0
ATOM      7  G   UNL     1     -11.629 -16.981  28.953  1.00  0.00     0.000 G0
ENDBRANCH   4   6
ENDBRANCH   2   4
BRANCH   3   8
ATOM      8  C   UNL     1     -11.683 -18.538  30.946  1.00  0.00    -0.003 C 
ATOM      9  C   UNL     1     -11.363 -18.270  29.674  1.00  0.00    -0.020 C 
BRANCH   9  10
ATOM     10  C   UNL     1     -11.619 -16.971  28.948  1.00  0.00    -0.010 CG0
ATOM     11  C   UNL     1     -11.399 -17.212  27.437  1.00  0.00     0.016 C 
ATOM     12  C   UNL     1     -10.613 -15.891  29.408  1.00  0.00     0.016 C 
ATOM     13  G   UNL     1     -13.090 -16.546  29.157  1.00  0.00     0.000 G0
ENDBRANCH   9  10
ENDBRANCH   3   8
TORSDOF 0
ENDMDL
MODEL 9
REMARK VINA RESULT:    -3.600      2.115      3.850
REMARK INTER + INTRA:          -3.599
REMARK INTER:                  -4.452
REMARK INTRA:                   0.853
REMARK UNBOUND:                 0.843
REMARK SMILES CC1=CC=CC(C)(C)CC1=O
REMARK SMILES IDX 1 1 2 2 3 3 10 4 11 5 9 6 4 8 5 9 6 10 7 11 8 12
REMARK H PARENT
REMARK Flexibility Score: 80.00
ROOT
ATOM      1  C   UNL     1     -12.055 -15.162  33.874  1.00  0.00     0.048 C 
ATOM      2  C   UNL     1     -11.901 -16.083  32.688  1.00  0.00    -0.008 C 
ATOM      3  C   UNL     1     -10.660 -16.263  32.184  1.00  0.00     0.007 C 
ENDROOT
BRANCH   2   4
ATOM      4  C   UNL     1     -13.134 -16.760  32.203  1.00  0.00     0.159 C 
ATOM      5  O   UNL     1     -14.235 -16.471  32.748  1.00  0.00    -0.295 OA
BRANCH   4   6
ATOM      6  C   UNL     1     -13.152 -17.806  31.129  1.00  0.00     0.091 CG0
ATOM      7  G   UNL     1     -12.439 -17.378  29.826  1.00  0.00     0.000 G0
ENDBRANCH   4   6
ENDBRANCH   2   4
BRANCH   3   8
ATOM      8  C   UNL     1     -10.214 -17.086  31.037  1.00  0.00    -0.003 C 
ATOM      9  C   UNL     1     -10.936 -17.546  30.009  1.00  0.00    -0.020 C 
BRANCH   9  10
ATOM     10  C   UNL     1     -12.425 -17.380  29.822  1.00  0.00    -0.010 CG0
ATOM     11  C   UNL     1     -12.879 -18.329  28.689  1.00  0.00     0.016 C 
ATOM     12  C   UNL     1     -12.753 -15.932  29.388  1.00  0.00     0.016 C 
ATOM     13  G   UNL     1     -13.156 -17.795  31.119  1.00  0.00     0.000 G0
ENDBRANCH   9  10
ENDBRANCH   3   8
TORSDOF 0
ENDMDL
