MODEL 1
REMARK VINA RESULT:    -6.741      0.000      0.000
REMARK INTER + INTRA:          -8.223
REMARK INTER:                  -8.120
REMARK INTRA:                  -0.103
REMARK UNBOUND:                -0.103
REMARK SMILES O=c1c(O)c(-c2ccc(O)c(O)c2)oc2cc(O)cc(O)c12
REMARK SMILES IDX 5 1 3 2 2 3 1 4 22 5 20 6 19 7 17 8 16 9 15 10 14 11 6 12
REMARK SMILES IDX 7 13 8 14 9 15 13 16 11 17 10 18 12 20 4 22 21 24 18 26
REMARK H PARENT 10 19 12 21 4 23 21 25 18 27
REMARK Flexibility Score: inf
ROOT
ATOM      1  C   UNL     1     -21.910  34.053 -13.534  1.00  0.00     0.180 A 
ATOM      2  C   UNL     1     -21.155  35.011 -14.234  1.00  0.00     0.208 A 
ATOM      3  C   UNL     1     -19.774  34.812 -14.383  1.00  0.00     0.238 A 
ATOM      4  O   UNL     1     -19.094  35.699 -14.962  1.00  0.00    -0.285 OA
ATOM      5  C   UNL     1     -19.167  33.649 -13.847  1.00  0.00     0.111 A 
ATOM      6  C   UNL     1     -17.783  33.325 -13.975  1.00  0.00     0.134 A 
ATOM      7  C   UNL     1     -17.269  32.215 -13.293  1.00  0.00     0.093 A 
ATOM      8  C   UNL     1     -18.101  31.382 -12.543  1.00  0.00     0.123 A 
ATOM      9  C   UNL     1     -19.463  31.656 -12.461  1.00  0.00     0.094 A 
ATOM     10  C   UNL     1     -20.001  32.776 -13.100  1.00  0.00     0.146 A 
ATOM     11  O   UNL     1     -21.303  33.007 -12.987  1.00  0.00    -0.452 OA
ENDROOT
BRANCH   1  12
ATOM     12  C   UNL     1     -23.376  34.182 -13.358  1.00  0.00     0.025 A 
ATOM     13  C   UNL     1     -23.923  34.121 -12.066  1.00  0.00     0.016 A 
ATOM     14  C   UNL     1     -25.303  34.220 -11.877  1.00  0.00     0.051 A 
ATOM     15  C   UNL     1     -26.159  34.365 -12.974  1.00  0.00     0.157 A 
ATOM     16  C   UNL     1     -24.239  34.308 -14.460  1.00  0.00     0.062 A 
ATOM     17  C   UNL     1     -25.625  34.405 -14.273  1.00  0.00     0.158 A 
BRANCH  15  18
ATOM     18  O   UNL     1     -27.532  34.463 -12.754  1.00  0.00    -0.504 OA
ATOM     19  H   UNL     1     -27.966  35.320 -12.434  1.00  0.00     0.293 HD
ENDBRANCH  15  18
BRANCH  17  20
ATOM     20  O   UNL     1     -26.473  34.535 -15.371  1.00  0.00    -0.504 OA
ATOM     21  H   UNL     1     -26.317  35.241 -16.082  1.00  0.00     0.293 HD
ENDBRANCH  17  20
ENDBRANCH   1  12
BRANCH   2  22
ATOM     22  O   UNL     1     -21.769  36.162 -14.735  1.00  0.00    -0.502 OA
ATOM     23  H   UNL     1     -22.711  36.433 -14.477  1.00  0.00     0.293 HD
ENDBRANCH   2  22
BRANCH   6  24
ATOM     24  O   UNL     1     -16.885  34.038 -14.774  1.00  0.00    -0.507 OA
ATOM     25  H   UNL     1     -16.792  33.928 -15.772  1.00  0.00     0.293 HD
ENDBRANCH   6  24
BRANCH   8  26
ATOM     26  O   UNL     1     -17.583  30.270 -11.881  1.00  0.00    -0.508 OA
ATOM     27  H   UNL     1     -18.156  29.458 -11.680  1.00  0.00     0.293 HD
ENDBRANCH   8  26
TORSDOF 6
ENDMDL
MODEL 2
REMARK VINA RESULT:    -6.318      6.870      9.439
REMARK INTER + INTRA:          -7.713
REMARK INTER:                  -7.418
REMARK INTRA:                  -0.296
REMARK UNBOUND:                -0.103
REMARK SMILES O=c1c(O)c(-c2ccc(O)c(O)c2)oc2cc(O)cc(O)c12
REMARK SMILES IDX 5 1 3 2 2 3 1 4 22 5 20 6 19 7 17 8 16 9 15 10 14 11 6 12
REMARK SMILES IDX 7 13 8 14 9 15 13 16 11 17 10 18 12 20 4 22 21 24 18 26
REMARK H PARENT 10 19 12 21 4 23 21 25 18 27
REMARK Flexibility Score: inf
ROOT
ATOM      1  C   UNL     1     -26.367  29.597 -17.101  1.00  0.00     0.180 A 
ATOM      2  C   UNL     1     -27.726  29.239 -17.146  1.00  0.00     0.208 A 
ATOM      3  C   UNL     1     -28.190  28.465 -18.222  1.00  0.00     0.238 A 
ATOM      4  O   UNL     1     -29.418  28.193 -18.286  1.00  0.00    -0.285 OA
ATOM      5  C   UNL     1     -27.288  28.044 -19.229  1.00  0.00     0.111 A 
ATOM      6  C   UNL     1     -27.641  27.223 -20.342  1.00  0.00     0.134 A 
ATOM      7  C   UNL     1     -26.696  26.978 -21.346  1.00  0.00     0.093 A 
ATOM      8  C   UNL     1     -25.393  27.469 -21.243  1.00  0.00     0.123 A 
ATOM      9  C   UNL     1     -25.022  28.220 -20.132  1.00  0.00     0.094 A 
ATOM     10  C   UNL     1     -25.952  28.513 -19.131  1.00  0.00     0.146 A 
ATOM     11  O   UNL     1     -25.560  29.243 -18.094  1.00  0.00    -0.452 OA
ENDROOT
BRANCH   1  12
ATOM     12  C   UNL     1     -25.799  30.390 -15.987  1.00  0.00     0.025 A 
ATOM     13  C   UNL     1     -25.942  31.787 -15.990  1.00  0.00     0.016 A 
ATOM     14  C   UNL     1     -25.397  32.556 -14.961  1.00  0.00     0.051 A 
ATOM     15  C   UNL     1     -24.687  31.947 -13.921  1.00  0.00     0.157 A 
ATOM     16  C   UNL     1     -25.068  29.781 -14.952  1.00  0.00     0.062 A 
ATOM     17  C   UNL     1     -24.518  30.552 -13.918  1.00  0.00     0.158 A 
BRANCH  15  18
ATOM     18  O   UNL     1     -24.156  32.741 -12.905  1.00  0.00    -0.504 OA
ATOM     19  H   UNL     1     -24.465  33.693 -12.750  1.00  0.00     0.293 HD
ENDBRANCH  15  18
BRANCH  17  20
ATOM     20  O   UNL     1     -23.799  29.940 -12.893  1.00  0.00    -0.504 OA
ATOM     21  H   UNL     1     -23.274  29.087 -13.048  1.00  0.00     0.293 HD
ENDBRANCH  17  20
ENDBRANCH   1  12
BRANCH   2  22
ATOM     22  O   UNL     1     -28.604  29.683 -16.154  1.00  0.00    -0.502 OA
ATOM     23  H   UNL     1     -28.281  30.086 -15.283  1.00  0.00     0.293 HD
ENDBRANCH   2  22
BRANCH   6  24
ATOM     24  O   UNL     1     -28.887  26.608 -20.493  1.00  0.00    -0.507 OA
ATOM     25  H   UNL     1     -29.770  27.095 -20.513  1.00  0.00     0.293 HD
ENDBRANCH   6  24
BRANCH   8  26
ATOM     26  O   UNL     1     -24.454  27.205 -22.239  1.00  0.00    -0.508 OA
ATOM     27  H   UNL     1     -24.658  26.576 -23.007  1.00  0.00     0.293 HD
ENDBRANCH   8  26
TORSDOF 6
ENDMDL
MODEL 3
REMARK VINA RESULT:    -6.301      7.202     10.068
REMARK INTER + INTRA:          -7.694
REMARK INTER:                  -7.384
REMARK INTRA:                  -0.310
REMARK UNBOUND:                -0.103
REMARK SMILES O=c1c(O)c(-c2ccc(O)c(O)c2)oc2cc(O)cc(O)c12
REMARK SMILES IDX 5 1 3 2 2 3 1 4 22 5 20 6 19 7 17 8 16 9 15 10 14 11 6 12
REMARK SMILES IDX 7 13 8 14 9 15 13 16 11 17 10 18 12 20 4 22 21 24 18 26
REMARK H PARENT 10 19 12 21 4 23 21 25 18 27
REMARK Flexibility Score: inf
ROOT
ATOM      1  C   UNL     1     -25.701  29.130 -17.647  1.00  0.00     0.180 A 
ATOM      2  C   UNL     1     -27.026  29.433 -17.286  1.00  0.00     0.208 A 
ATOM      3  C   UNL     1     -28.074  28.976 -18.100  1.00  0.00     0.238 A 
ATOM      4  O   UNL     1     -29.255  29.297 -17.802  1.00  0.00    -0.285 OA
ATOM      5  C   UNL     1     -27.787  28.208 -19.254  1.00  0.00     0.111 A 
ATOM      6  C   UNL     1     -28.772  27.658 -20.129  1.00  0.00     0.134 A 
ATOM      7  C   UNL     1     -28.370  27.026 -21.311  1.00  0.00     0.093 A 
ATOM      8  C   UNL     1     -27.017  26.866 -21.618  1.00  0.00     0.123 A 
ATOM      9  C   UNL     1     -26.048  27.345 -20.742  1.00  0.00     0.094 A 
ATOM     10  C   UNL     1     -26.417  28.013 -19.572  1.00  0.00     0.146 A 
ATOM     11  O   UNL     1     -25.460  28.464 -18.770  1.00  0.00    -0.452 OA
ENDROOT
BRANCH   1  12
ATOM     12  C   UNL     1     -24.544  29.556 -16.825  1.00  0.00     0.025 A 
ATOM     13  C   UNL     1     -24.174  28.792 -15.706  1.00  0.00     0.016 A 
ATOM     14  C   UNL     1     -23.101  29.185 -14.905  1.00  0.00     0.051 A 
ATOM     15  C   UNL     1     -22.391  30.355 -15.197  1.00  0.00     0.157 A 
ATOM     16  C   UNL     1     -23.843  30.741 -17.105  1.00  0.00     0.062 A 
ATOM     17  C   UNL     1     -22.765  31.139 -16.300  1.00  0.00     0.158 A 
BRANCH  15  18
ATOM     18  O   UNL     1     -21.322  30.721 -14.379  1.00  0.00    -0.504 OA
ATOM     19  H   UNL     1     -21.262  31.636 -13.950  1.00  0.00     0.293 HD
ENDBRANCH  15  18
BRANCH  17  20
ATOM     20  O   UNL     1     -22.072  32.313 -16.588  1.00  0.00    -0.504 OA
ATOM     21  H   UNL     1     -22.126  32.752 -17.500  1.00  0.00     0.293 HD
ENDBRANCH  17  20
ENDBRANCH   1  12
BRANCH   2  22
ATOM     22  O   UNL     1     -27.286  30.212 -16.155  1.00  0.00    -0.502 OA
ATOM     23  H   UNL     1     -28.170  30.687 -16.014  1.00  0.00     0.293 HD
ENDBRANCH   2  22
BRANCH   6  24
ATOM     24  O   UNL     1     -30.145  27.683 -19.870  1.00  0.00    -0.507 OA
ATOM     25  H   UNL     1     -30.773  28.414 -20.166  1.00  0.00     0.293 HD
ENDBRANCH   6  24
BRANCH   8  26
ATOM     26  O   UNL     1     -26.626  26.220 -22.790  1.00  0.00    -0.508 OA
ATOM     27  H   UNL     1     -25.655  26.187 -23.078  1.00  0.00     0.293 HD
ENDBRANCH   8  26
TORSDOF 6
ENDMDL
MODEL 4
REMARK VINA RESULT:    -6.293      8.583      9.161
REMARK INTER + INTRA:          -7.684
REMARK INTER:                  -7.685
REMARK INTRA:                   0.001
REMARK UNBOUND:                -0.103
REMARK SMILES O=c1c(O)c(-c2ccc(O)c(O)c2)oc2cc(O)cc(O)c12
REMARK SMILES IDX 5 1 3 2 2 3 1 4 22 5 20 6 19 7 17 8 16 9 15 10 14 11 6 12
REMARK SMILES IDX 7 13 8 14 9 15 13 16 11 17 10 18 12 20 4 22 21 24 18 26
REMARK H PARENT 10 19 12 21 4 23 21 25 18 27
REMARK Flexibility Score: inf
ROOT
ATOM      1  C   UNL     1     -23.185  29.395 -20.918  1.00  0.00     0.180 A 
ATOM      2  C   UNL     1     -23.174  30.779 -20.666  1.00  0.00     0.208 A 
ATOM      3  C   UNL     1     -21.951  31.467 -20.698  1.00  0.00     0.238 A 
ATOM      4  O   UNL     1     -21.940  32.694 -20.418  1.00  0.00    -0.285 OA
ATOM      5  C   UNL     1     -20.757  30.767 -20.998  1.00  0.00     0.111 A 
ATOM      6  C   UNL     1     -19.467  31.371 -21.098  1.00  0.00     0.134 A 
ATOM      7  C   UNL     1     -18.338  30.562 -21.270  1.00  0.00     0.093 A 
ATOM      8  C   UNL     1     -18.458  29.178 -21.413  1.00  0.00     0.123 A 
ATOM      9  C   UNL     1     -19.718  28.586 -21.377  1.00  0.00     0.094 A 
ATOM     10  C   UNL     1     -20.860  29.362 -21.170  1.00  0.00     0.146 A 
ATOM     11  O   UNL     1     -22.041  28.756 -21.131  1.00  0.00    -0.452 OA
ENDROOT
BRANCH   1  12
ATOM     12  C   UNL     1     -24.439  28.607 -20.926  1.00  0.00     0.025 A 
ATOM     13  C   UNL     1     -25.292  28.655 -19.811  1.00  0.00     0.016 A 
ATOM     14  C   UNL     1     -26.469  27.904 -19.789  1.00  0.00     0.051 A 
ATOM     15  C   UNL     1     -26.805  27.081 -20.869  1.00  0.00     0.157 A 
ATOM     16  C   UNL     1     -24.768  27.764 -22.002  1.00  0.00     0.062 A 
ATOM     17  C   UNL     1     -25.949  27.008 -21.980  1.00  0.00     0.158 A 
BRANCH  15  18
ATOM     18  O   UNL     1     -27.988  26.345 -20.818  1.00  0.00    -0.504 OA
ATOM     19  H   UNL     1     -28.859  26.700 -21.193  1.00  0.00     0.293 HD
ENDBRANCH  15  18
BRANCH  17  20
ATOM     20  O   UNL     1     -26.270  26.179 -23.054  1.00  0.00    -0.504 OA
ATOM     21  H   UNL     1     -25.793  25.298 -23.207  1.00  0.00     0.293 HD
ENDBRANCH  17  20
ENDBRANCH   1  12
BRANCH   2  22
ATOM     22  O   UNL     1     -24.361  31.445 -20.350  1.00  0.00    -0.502 OA
ATOM     23  H   UNL     1     -25.037  31.715 -21.054  1.00  0.00     0.293 HD
ENDBRANCH   2  22
BRANCH   6  24
ATOM     24  O   UNL     1     -19.247  32.751 -21.061  1.00  0.00    -0.507 OA
ATOM     25  H   UNL     1     -18.762  33.236 -20.322  1.00  0.00     0.293 HD
ENDBRANCH   6  24
BRANCH   8  26
ATOM     26  O   UNL     1     -17.330  28.382 -21.601  1.00  0.00    -0.508 OA
ATOM     27  H   UNL     1     -16.638  28.601 -22.308  1.00  0.00     0.293 HD
ENDBRANCH   8  26
TORSDOF 6
ENDMDL
MODEL 5
REMARK VINA RESULT:    -6.231      5.758      7.616
REMARK INTER + INTRA:          -7.609
REMARK INTER:                  -7.312
REMARK INTRA:                  -0.297
REMARK UNBOUND:                -0.103
REMARK SMILES O=c1c(O)c(-c2ccc(O)c(O)c2)oc2cc(O)cc(O)c12
REMARK SMILES IDX 5 1 3 2 2 3 1 4 22 5 20 6 19 7 17 8 16 9 15 10 14 11 6 12
REMARK SMILES IDX 7 13 8 14 9 15 13 16 11 17 10 18 12 20 4 22 21 24 18 26
REMARK H PARENT 10 19 12 21 4 23 21 25 18 27
REMARK Flexibility Score: inf
ROOT
ATOM      1  C   UNL     1     -24.331  30.463 -17.611  1.00  0.00     0.180 A 
ATOM      2  C   UNL     1     -25.501  31.161 -17.261  1.00  0.00     0.208 A 
ATOM      3  C   UNL     1     -25.605  31.709 -15.972  1.00  0.00     0.238 A 
ATOM      4  O   UNL     1     -26.676  32.285 -15.646  1.00  0.00    -0.285 OA
ATOM      5  C   UNL     1     -24.534  31.568 -15.057  1.00  0.00     0.111 A 
ATOM      6  C   UNL     1     -24.516  32.118 -13.740  1.00  0.00     0.134 A 
ATOM      7  C   UNL     1     -23.459  31.805 -12.876  1.00  0.00     0.093 A 
ATOM      8  C   UNL     1     -22.389  31.016 -13.303  1.00  0.00     0.123 A 
ATOM      9  C   UNL     1     -22.369  30.525 -14.606  1.00  0.00     0.094 A 
ATOM     10  C   UNL     1     -23.425  30.789 -15.480  1.00  0.00     0.146 A 
ATOM     11  O   UNL     1     -23.372  30.291 -16.710  1.00  0.00    -0.452 OA
ENDROOT
BRANCH   1  12
ATOM     12  C   UNL     1     -24.138  29.879 -18.959  1.00  0.00     0.025 A 
ATOM     13  C   UNL     1     -23.751  30.711 -20.022  1.00  0.00     0.016 A 
ATOM     14  C   UNL     1     -23.583  30.186 -21.305  1.00  0.00     0.051 A 
ATOM     15  C   UNL     1     -23.813  28.828 -21.551  1.00  0.00     0.157 A 
ATOM     16  C   UNL     1     -24.387  28.519 -19.211  1.00  0.00     0.062 A 
ATOM     17  C   UNL     1     -24.221  27.991 -20.500  1.00  0.00     0.158 A 
BRANCH  15  18
ATOM     18  O   UNL     1     -23.634  28.333 -22.842  1.00  0.00    -0.504 OA
ATOM     19  H   UNL     1     -24.364  27.829 -23.330  1.00  0.00     0.293 HD
ENDBRANCH  15  18
BRANCH  17  20
ATOM     20  O   UNL     1     -24.465  26.640 -20.740  1.00  0.00    -0.504 OA
ATOM     21  H   UNL     1     -25.368  26.313 -21.064  1.00  0.00     0.293 HD
ENDBRANCH  17  20
ENDBRANCH   1  12
BRANCH   2  22
ATOM     22  O   UNL     1     -26.555  31.269 -18.171  1.00  0.00    -0.502 OA
ATOM     23  H   UNL     1     -26.727  32.111 -18.706  1.00  0.00     0.293 HD
ENDBRANCH   2  22
BRANCH   6  24
ATOM     24  O   UNL     1     -25.488  32.992 -13.246  1.00  0.00    -0.507 OA
ATOM     25  H   UNL     1     -26.301  33.297 -13.759  1.00  0.00     0.293 HD
ENDBRANCH   6  24
BRANCH   8  26
ATOM     26  O   UNL     1     -21.333  30.723 -12.442  1.00  0.00    -0.508 OA
ATOM     27  H   UNL     1     -20.378  30.665 -12.775  1.00  0.00     0.293 HD
ENDBRANCH   8  26
TORSDOF 6
ENDMDL
MODEL 6
REMARK VINA RESULT:    -6.219      5.526      7.998
REMARK INTER + INTRA:          -7.594
REMARK INTER:                  -7.454
REMARK INTRA:                  -0.140
REMARK UNBOUND:                -0.103
REMARK SMILES O=c1c(O)c(-c2ccc(O)c(O)c2)oc2cc(O)cc(O)c12
REMARK SMILES IDX 5 1 3 2 2 3 1 4 22 5 20 6 19 7 17 8 16 9 15 10 14 11 6 12
REMARK SMILES IDX 7 13 8 14 9 15 13 16 11 17 10 18 12 20 4 22 21 24 18 26
REMARK H PARENT 10 19 12 21 4 23 21 25 18 27
REMARK Flexibility Score: inf
ROOT
ATOM      1  C   UNL     1     -25.120  30.049 -16.521  1.00  0.00     0.180 A 
ATOM      2  C   UNL     1     -24.304  29.607 -15.466  1.00  0.00     0.208 A 
ATOM      3  C   UNL     1     -24.147  30.427 -14.337  1.00  0.00     0.238 A 
ATOM      4  O   UNL     1     -23.371  30.050 -13.419  1.00  0.00    -0.285 OA
ATOM      5  C   UNL     1     -24.822  31.670 -14.270  1.00  0.00     0.111 A 
ATOM      6  C   UNL     1     -24.768  32.562 -13.156  1.00  0.00     0.134 A 
ATOM      7  C   UNL     1     -25.369  33.823 -13.253  1.00  0.00     0.093 A 
ATOM      8  C   UNL     1     -26.078  34.197 -14.397  1.00  0.00     0.123 A 
ATOM      9  C   UNL     1     -26.187  33.310 -15.464  1.00  0.00     0.094 A 
ATOM     10  C   UNL     1     -25.568  32.059 -15.413  1.00  0.00     0.146 A 
ATOM     11  O   UNL     1     -25.687  31.248 -16.457  1.00  0.00    -0.452 OA
ENDROOT
BRANCH   1  12
ATOM     12  C   UNL     1     -25.354  29.229 -17.732  1.00  0.00     0.025 A 
ATOM     13  C   UNL     1     -26.641  28.732 -17.992  1.00  0.00     0.016 A 
ATOM     14  C   UNL     1     -26.880  27.940 -19.116  1.00  0.00     0.051 A 
ATOM     15  C   UNL     1     -25.836  27.617 -19.990  1.00  0.00     0.157 A 
ATOM     16  C   UNL     1     -24.302  28.887 -18.600  1.00  0.00     0.062 A 
ATOM     17  C   UNL     1     -24.540  28.090 -19.729  1.00  0.00     0.158 A 
BRANCH  15  18
ATOM     18  O   UNL     1     -26.106  26.826 -21.106  1.00  0.00    -0.504 OA
ATOM     19  H   UNL     1     -26.254  27.224 -22.025  1.00  0.00     0.293 HD
ENDBRANCH  15  18
BRANCH  17  20
ATOM     20  O   UNL     1     -23.492  27.760 -20.587  1.00  0.00    -0.504 OA
ATOM     21  H   UNL     1     -23.088  28.443 -21.218  1.00  0.00     0.293 HD
ENDBRANCH  17  20
ENDBRANCH   1  12
BRANCH   2  22
ATOM     22  O   UNL     1     -23.629  28.387 -15.562  1.00  0.00    -0.502 OA
ATOM     23  H   UNL     1     -23.295  28.018 -16.444  1.00  0.00     0.293 HD
ENDBRANCH   2  22
BRANCH   6  24
ATOM     24  O   UNL     1     -24.165  32.251 -11.935  1.00  0.00    -0.507 OA
ATOM     25  H   UNL     1     -24.520  32.526 -11.032  1.00  0.00     0.293 HD
ENDBRANCH   6  24
BRANCH   8  26
ATOM     26  O   UNL     1     -26.688  35.448 -14.478  1.00  0.00    -0.508 OA
ATOM     27  H   UNL     1     -27.589  35.570 -14.925  1.00  0.00     0.293 HD
ENDBRANCH   8  26
TORSDOF 6
ENDMDL
MODEL 7
REMARK VINA RESULT:    -6.213      6.824      8.462
REMARK INTER + INTRA:          -7.587
REMARK INTER:                  -7.253
REMARK INTRA:                  -0.334
REMARK UNBOUND:                -0.103
REMARK SMILES O=c1c(O)c(-c2ccc(O)c(O)c2)oc2cc(O)cc(O)c12
REMARK SMILES IDX 5 1 3 2 2 3 1 4 22 5 20 6 19 7 17 8 16 9 15 10 14 11 6 12
REMARK SMILES IDX 7 13 8 14 9 15 13 16 11 17 10 18 12 20 4 22 21 24 18 26
REMARK H PARENT 10 19 12 21 4 23 21 25 18 27
REMARK Flexibility Score: inf
ROOT
ATOM      1  C   UNL     1     -24.385  29.844 -17.844  1.00  0.00     0.180 A 
ATOM      2  C   UNL     1     -25.249  28.819 -18.269  1.00  0.00     0.208 A 
ATOM      3  C   UNL     1     -25.184  28.384 -19.602  1.00  0.00     0.238 A 
ATOM      4  O   UNL     1     -25.997  27.504 -19.991  1.00  0.00    -0.285 OA
ATOM      5  C   UNL     1     -24.246  28.965 -20.489  1.00  0.00     0.111 A 
ATOM      6  C   UNL     1     -24.065  28.573 -21.850  1.00  0.00     0.134 A 
ATOM      7  C   UNL     1     -23.199  29.306 -22.670  1.00  0.00     0.093 A 
ATOM      8  C   UNL     1     -22.458  30.375 -22.162  1.00  0.00     0.123 A 
ATOM      9  C   UNL     1     -22.582  30.727 -20.821  1.00  0.00     0.094 A 
ATOM     10  C   UNL     1     -23.465  30.039 -19.985  1.00  0.00     0.146 A 
ATOM     11  O   UNL     1     -23.562  30.414 -18.716  1.00  0.00    -0.452 OA
ENDROOT
BRANCH   1  12
ATOM     12  C   UNL     1     -24.377  30.338 -16.448  1.00  0.00     0.025 A 
ATOM     13  C   UNL     1     -25.136  31.471 -16.113  1.00  0.00     0.016 A 
ATOM     14  C   UNL     1     -25.128  31.968 -14.808  1.00  0.00     0.051 A 
ATOM     15  C   UNL     1     -24.351  31.352 -13.821  1.00  0.00     0.157 A 
ATOM     16  C   UNL     1     -23.581  29.733 -15.460  1.00  0.00     0.062 A 
ATOM     17  C   UNL     1     -23.570  30.231 -14.149  1.00  0.00     0.158 A 
BRANCH  15  18
ATOM     18  O   UNL     1     -24.365  31.869 -12.526  1.00  0.00    -0.504 OA
ATOM     19  H   UNL     1     -23.525  32.211 -12.075  1.00  0.00     0.293 HD
ENDBRANCH  15  18
BRANCH  17  20
ATOM     20  O   UNL     1     -22.782  29.621 -13.175  1.00  0.00    -0.504 OA
ATOM     21  H   UNL     1     -21.771  29.694 -13.187  1.00  0.00     0.293 HD
ENDBRANCH  17  20
ENDBRANCH   1  12
BRANCH   2  22
ATOM     22  O   UNL     1     -26.183  28.275 -17.383  1.00  0.00    -0.502 OA
ATOM     23  H   UNL     1     -26.040  28.263 -16.381  1.00  0.00     0.293 HD
ENDBRANCH   2  22
BRANCH   6  24
ATOM     24  O   UNL     1     -24.687  27.464 -22.431  1.00  0.00    -0.507 OA
ATOM     25  H   UNL     1     -24.689  27.258 -23.418  1.00  0.00     0.293 HD
ENDBRANCH   6  24
BRANCH   8  26
ATOM     26  O   UNL     1     -21.586  31.088 -22.982  1.00  0.00    -0.508 OA
ATOM     27  H   UNL     1     -20.921  30.618 -23.584  1.00  0.00     0.293 HD
ENDBRANCH   8  26
TORSDOF 6
ENDMDL
MODEL 8
REMARK VINA RESULT:    -6.210      6.307      8.195
REMARK INTER + INTRA:          -7.584
REMARK INTER:                  -7.411
REMARK INTRA:                  -0.173
REMARK UNBOUND:                -0.103
REMARK SMILES O=c1c(O)c(-c2ccc(O)c(O)c2)oc2cc(O)cc(O)c12
REMARK SMILES IDX 5 1 3 2 2 3 1 4 22 5 20 6 19 7 17 8 16 9 15 10 14 11 6 12
REMARK SMILES IDX 7 13 8 14 9 15 13 16 11 17 10 18 12 20 4 22 21 24 18 26
REMARK H PARENT 10 19 12 21 4 23 21 25 18 27
REMARK Flexibility Score: inf
ROOT
ATOM      1  C   UNL     1     -25.829  30.072 -17.990  1.00  0.00     0.180 A 
ATOM      2  C   UNL     1     -26.036  31.452 -18.168  1.00  0.00     0.208 A 
ATOM      3  C   UNL     1     -25.713  32.328 -17.120  1.00  0.00     0.238 A 
ATOM      4  O   UNL     1     -25.951  33.556 -17.263  1.00  0.00    -0.285 OA
ATOM      5  C   UNL     1     -25.172  31.817 -15.915  1.00  0.00     0.111 A 
ATOM      6  C   UNL     1     -24.770  32.618 -14.803  1.00  0.00     0.134 A 
ATOM      7  C   UNL     1     -24.371  31.996 -13.614  1.00  0.00     0.093 A 
ATOM      8  C   UNL     1     -24.295  30.605 -13.518  1.00  0.00     0.123 A 
ATOM      9  C   UNL     1     -24.627  29.817 -14.617  1.00  0.00     0.094 A 
ATOM     10  C   UNL     1     -25.064  30.406 -15.806  1.00  0.00     0.146 A 
ATOM     11  O   UNL     1     -25.382  29.618 -16.826  1.00  0.00    -0.452 OA
ENDROOT
BRANCH   1  12
ATOM     12  C   UNL     1     -26.122  29.089 -19.059  1.00  0.00     0.025 A 
ATOM     13  C   UNL     1     -27.454  28.858 -19.437  1.00  0.00     0.016 A 
ATOM     14  C   UNL     1     -27.755  27.920 -20.427  1.00  0.00     0.051 A 
ATOM     15  C   UNL     1     -26.735  27.189 -21.044  1.00  0.00     0.157 A 
ATOM     16  C   UNL     1     -25.099  28.339 -19.666  1.00  0.00     0.062 A 
ATOM     17  C   UNL     1     -25.400  27.396 -20.659  1.00  0.00     0.158 A 
BRANCH  15  18
ATOM     18  O   UNL     1     -27.067  26.262 -22.031  1.00  0.00    -0.504 OA
ATOM     19  H   UNL     1     -27.174  26.526 -23.003  1.00  0.00     0.293 HD
ENDBRANCH  15  18
BRANCH  17  20
ATOM     20  O   UNL     1     -24.379  26.660 -21.259  1.00  0.00    -0.504 OA
ATOM     21  H   UNL     1     -24.516  26.186 -22.144  1.00  0.00     0.293 HD
ENDBRANCH  17  20
ENDBRANCH   1  12
BRANCH   2  22
ATOM     22  O   UNL     1     -26.592  31.933 -19.356  1.00  0.00    -0.502 OA
ATOM     23  H   UNL     1     -26.029  32.162 -20.166  1.00  0.00     0.293 HD
ENDBRANCH   2  22
BRANCH   6  24
ATOM     24  O   UNL     1     -24.720  34.014 -14.824  1.00  0.00    -0.507 OA
ATOM     25  H   UNL     1     -24.822  34.580 -15.653  1.00  0.00     0.293 HD
ENDBRANCH   6  24
BRANCH   8  26
ATOM     26  O   UNL     1     -23.880  29.995 -12.336  1.00  0.00    -0.508 OA
ATOM     27  H   UNL     1     -23.393  30.513 -11.614  1.00  0.00     0.293 HD
ENDBRANCH   8  26
TORSDOF 6
ENDMDL
MODEL 9
REMARK VINA RESULT:    -6.134      6.579      7.586
REMARK INTER + INTRA:          -7.492
REMARK INTER:                  -7.176
REMARK INTRA:                  -0.315
REMARK UNBOUND:                -0.103
REMARK SMILES O=c1c(O)c(-c2ccc(O)c(O)c2)oc2cc(O)cc(O)c12
REMARK SMILES IDX 5 1 3 2 2 3 1 4 22 5 20 6 19 7 17 8 16 9 15 10 14 11 6 12
REMARK SMILES IDX 7 13 8 14 9 15 13 16 11 17 10 18 12 20 4 22 21 24 18 26
REMARK H PARENT 10 19 12 21 4 23 21 25 18 27
REMARK Flexibility Score: inf
ROOT
ATOM      1  C   UNL     1     -24.378  29.642 -18.353  1.00  0.00     0.180 A 
ATOM      2  C   UNL     1     -23.839  30.881 -18.740  1.00  0.00     0.208 A 
ATOM      3  C   UNL     1     -23.149  31.650 -17.789  1.00  0.00     0.238 A 
ATOM      4  O   UNL     1     -22.716  32.783 -18.126  1.00  0.00    -0.285 OA
ATOM      5  C   UNL     1     -22.992  31.163 -16.469  1.00  0.00     0.111 A 
ATOM      6  C   UNL     1     -22.276  31.839 -15.435  1.00  0.00     0.134 A 
ATOM      7  C   UNL     1     -22.298  31.326 -14.132  1.00  0.00     0.093 A 
ATOM      8  C   UNL     1     -22.952  30.128 -13.841  1.00  0.00     0.123 A 
ATOM      9  C   UNL     1     -23.602  29.429 -14.855  1.00  0.00     0.094 A 
ATOM     10  C   UNL     1     -23.630  29.934 -16.157  1.00  0.00     0.146 A 
ATOM     11  O   UNL     1     -24.271  29.242 -17.092  1.00  0.00    -0.452 OA
ENDROOT
BRANCH   1  12
ATOM     12  C   UNL     1     -25.096  28.764 -19.307  1.00  0.00     0.025 A 
ATOM     13  C   UNL     1     -24.362  27.903 -20.139  1.00  0.00     0.016 A 
ATOM     14  C   UNL     1     -25.017  27.082 -21.059  1.00  0.00     0.051 A 
ATOM     15  C   UNL     1     -26.410  27.118 -21.175  1.00  0.00     0.157 A 
ATOM     16  C   UNL     1     -26.495  28.814 -19.438  1.00  0.00     0.062 A 
ATOM     17  C   UNL     1     -27.153  27.992 -20.364  1.00  0.00     0.158 A 
BRANCH  15  18
ATOM     18  O   UNL     1     -27.035  26.285 -22.102  1.00  0.00    -0.504 OA
ATOM     19  H   UNL     1     -28.026  26.081 -22.059  1.00  0.00     0.293 HD
ENDBRANCH  15  18
BRANCH  17  20
ATOM     20  O   UNL     1     -28.541  28.044 -20.484  1.00  0.00    -0.504 OA
ATOM     21  H   UNL     1     -28.989  28.333 -21.346  1.00  0.00     0.293 HD
ENDBRANCH  17  20
ENDBRANCH   1  12
BRANCH   2  22
ATOM     22  O   UNL     1     -24.024  31.354 -20.042  1.00  0.00    -0.502 OA
ATOM     23  H   UNL     1     -23.498  30.997 -20.831  1.00  0.00     0.293 HD
ENDBRANCH   2  22
BRANCH   6  24
ATOM     24  O   UNL     1     -21.515  32.992 -15.640  1.00  0.00    -0.507 OA
ATOM     25  H   UNL     1     -21.449  33.490 -16.514  1.00  0.00     0.293 HD
ENDBRANCH   6  24
BRANCH   8  26
ATOM     26  O   UNL     1     -22.954  29.616 -12.544  1.00  0.00    -0.508 OA
ATOM     27  H   UNL     1     -22.182  29.781 -11.908  1.00  0.00     0.293 HD
ENDBRANCH   8  26
TORSDOF 6
ENDMDL
