MODEL 1
REMARK VINA RESULT:    -3.638      0.000      0.000
REMARK INTER + INTRA:          -4.691
REMARK INTER:                  -4.489
REMARK INTRA:                  -0.203
REMARK UNBOUND:                -0.203
REMARK SMILES CCCCCC(=O)[O-]
REMARK SMILES IDX 4 1 5 2 6 3 7 4 8 5 3 6 2 7 1 8
REMARK H PARENT
REMARK Flexibility Score: inf
ROOT
ATOM      1  C   UNL     1      39.855 -11.179  27.748  1.00  0.00     0.006 C 
ENDROOT
BRANCH   1   2
ATOM      2  C   UNL     1      40.717 -11.123  26.480  1.00  0.00     0.053 C 
BRANCH   2   3
ATOM      3  C   UNL     1      40.466  -9.851  25.734  1.00  0.00     0.041 C 
ATOM      4  O   UNL     1      41.137  -9.577  24.705  1.00  0.00    -0.550 OA
ATOM      5  O   UNL     1      39.457  -8.990  26.146  1.00  0.00    -0.550 OA
ENDBRANCH   2   3
ENDBRANCH   1   2
BRANCH   1   6
ATOM      6  C   UNL     1      38.710 -12.197  27.640  1.00  0.00     0.000 C 
BRANCH   6   7
ATOM      7  C   UNL     1      37.353 -11.609  28.055  1.00  0.00    -0.003 C 
ATOM      8  C   UNL     1      36.591 -11.078  26.844  1.00  0.00     0.004 C 
ENDBRANCH   6   7
ENDBRANCH   1   6
TORSDOF 4
ENDMDL
MODEL 2
REMARK VINA RESULT:    -3.589      2.433      4.272
REMARK INTER + INTRA:          -4.631
REMARK INTER:                  -4.551
REMARK INTRA:                  -0.081
REMARK UNBOUND:                -0.203
REMARK SMILES CCCCCC(=O)[O-]
REMARK SMILES IDX 4 1 5 2 6 3 7 4 8 5 3 6 2 7 1 8
REMARK H PARENT
REMARK Flexibility Score: inf
ROOT
ATOM      1  C   UNL     1      39.436 -10.658  27.180  1.00  0.00     0.006 C 
ENDROOT
BRANCH   1   2
ATOM      2  C   UNL     1      38.595 -11.848  27.664  1.00  0.00     0.053 C 
BRANCH   2   3
ATOM      3  C   UNL     1      37.162 -11.447  27.814  1.00  0.00     0.041 C 
ATOM      4  O   UNL     1      36.642 -11.370  28.958  1.00  0.00    -0.550 OA
ATOM      5  O   UNL     1      36.412 -11.112  26.694  1.00  0.00    -0.550 OA
ENDBRANCH   2   3
ENDBRANCH   1   2
BRANCH   1   6
ATOM      6  C   UNL     1      40.739 -11.096  26.494  1.00  0.00     0.000 C 
BRANCH   6   7
ATOM      7  C   UNL     1      41.415 -12.277  27.206  1.00  0.00    -0.003 C 
ATOM      8  C   UNL     1      42.846 -12.469  26.713  1.00  0.00     0.004 C 
ENDBRANCH   6   7
ENDBRANCH   1   6
TORSDOF 4
ENDMDL
MODEL 3
REMARK VINA RESULT:    -3.575      2.317      3.743
REMARK INTER + INTRA:          -4.613
REMARK INTER:                  -4.437
REMARK INTRA:                  -0.176
REMARK UNBOUND:                -0.203
REMARK SMILES CCCCCC(=O)[O-]
REMARK SMILES IDX 4 1 5 2 6 3 7 4 8 5 3 6 2 7 1 8
REMARK H PARENT
REMARK Flexibility Score: inf
ROOT
ATOM      1  C   UNL     1      39.660 -11.154  27.781  1.00  0.00     0.006 C 
ENDROOT
BRANCH   1   2
ATOM      2  C   UNL     1      38.524 -12.187  27.773  1.00  0.00     0.053 C 
BRANCH   2   3
ATOM      3  C   UNL     1      37.196 -11.502  27.834  1.00  0.00     0.041 C 
ATOM      4  O   UNL     1      36.589 -11.202  26.772  1.00  0.00    -0.550 OA
ATOM      5  O   UNL     1      36.604 -11.238  29.063  1.00  0.00    -0.550 OA
ENDBRANCH   2   3
ENDBRANCH   1   2
BRANCH   1   6
ATOM      6  C   UNL     1      40.587 -11.284  26.563  1.00  0.00     0.000 C 
BRANCH   6   7
ATOM      7  C   UNL     1      40.715  -9.973  25.774  1.00  0.00    -0.003 C 
ATOM      8  C   UNL     1      39.403  -9.193  25.788  1.00  0.00     0.004 C 
ENDBRANCH   6   7
ENDBRANCH   1   6
TORSDOF 4
ENDMDL
MODEL 4
REMARK VINA RESULT:    -3.447     10.744     11.821
REMARK INTER + INTRA:          -4.456
REMARK INTER:                  -4.412
REMARK INTRA:                  -0.044
REMARK UNBOUND:                -0.203
REMARK SMILES CCCCCC(=O)[O-]
REMARK SMILES IDX 4 1 5 2 6 3 7 4 8 5 3 6 2 7 1 8
REMARK H PARENT
REMARK Flexibility Score: inf
ROOT
ATOM      1  C   UNL     1      43.449  -0.583  22.335  1.00  0.00     0.006 C 
ENDROOT
BRANCH   1   2
ATOM      2  C   UNL     1      43.022  -0.407  23.799  1.00  0.00     0.053 C 
BRANCH   2   3
ATOM      3  C   UNL     1      43.934  -1.174  24.704  1.00  0.00     0.041 C 
ATOM      4  O   UNL     1      45.081  -0.731  24.970  1.00  0.00    -0.550 OA
ATOM      5  O   UNL     1      43.498  -2.355  25.292  1.00  0.00    -0.550 OA
ENDBRANCH   2   3
ENDBRANCH   1   2
BRANCH   1   6
ATOM      6  C   UNL     1      42.462   0.062  21.350  1.00  0.00     0.000 C 
BRANCH   6   7
ATOM      7  C   UNL     1      41.746  -0.971  20.467  1.00  0.00    -0.003 C 
ATOM      8  C   UNL     1      41.588  -0.457  19.039  1.00  0.00     0.004 C 
ENDBRANCH   6   7
ENDBRANCH   1   6
TORSDOF 4
ENDMDL
MODEL 5
REMARK VINA RESULT:    -3.443     15.921     17.326
REMARK INTER + INTRA:          -4.451
REMARK INTER:                  -4.216
REMARK INTRA:                  -0.235
REMARK UNBOUND:                -0.203
REMARK SMILES CCCCCC(=O)[O-]
REMARK SMILES IDX 4 1 5 2 6 3 7 4 8 5 3 6 2 7 1 8
REMARK H PARENT
REMARK Flexibility Score: inf
ROOT
ATOM      1  C   UNL     1      51.354  -1.314  20.245  1.00  0.00     0.006 C 
ENDROOT
BRANCH   1   2
ATOM      2  C   UNL     1      50.447  -0.522  21.197  1.00  0.00     0.053 C 
BRANCH   2   3
ATOM      3  C   UNL     1      49.321   0.108  20.440  1.00  0.00     0.041 C 
ATOM      4  O   UNL     1      48.128  -0.126  20.768  1.00  0.00    -0.550 OA
ATOM      5  O   UNL     1      49.588   0.992  19.402  1.00  0.00    -0.550 OA
ENDBRANCH   2   3
ENDBRANCH   1   2
BRANCH   1   6
ATOM      6  C   UNL     1      52.722  -0.646  20.039  1.00  0.00     0.000 C 
BRANCH   6   7
ATOM      7  C   UNL     1      52.999  -0.307  18.567  1.00  0.00    -0.003 C 
ATOM      8  C   UNL     1      52.018  -1.025  17.644  1.00  0.00     0.004 C 
ENDBRANCH   6   7
ENDBRANCH   1   6
TORSDOF 4
ENDMDL
MODEL 6
REMARK VINA RESULT:    -3.409      2.520      4.019
REMARK INTER + INTRA:          -4.409
REMARK INTER:                  -4.303
REMARK INTRA:                  -0.106
REMARK UNBOUND:                -0.203
REMARK SMILES CCCCCC(=O)[O-]
REMARK SMILES IDX 4 1 5 2 6 3 7 4 8 5 3 6 2 7 1 8
REMARK H PARENT
REMARK Flexibility Score: inf
ROOT
ATOM      1  C   UNL     1      39.541 -11.251  27.425  1.00  0.00     0.006 C 
ENDROOT
BRANCH   1   2
ATOM      2  C   UNL     1      38.374 -12.205  27.716  1.00  0.00     0.053 C 
BRANCH   2   3
ATOM      3  C   UNL     1      37.094 -11.440  27.845  1.00  0.00     0.041 C 
ATOM      4  O   UNL     1      36.517 -10.995  26.819  1.00  0.00    -0.550 OA
ATOM      5  O   UNL     1      36.514 -11.259  29.094  1.00  0.00    -0.550 OA
ENDBRANCH   2   3
ENDBRANCH   1   2
BRANCH   1   6
ATOM      6  C   UNL     1      40.910 -11.890  27.702  1.00  0.00     0.000 C 
BRANCH   6   7
ATOM      7  C   UNL     1      40.929 -12.706  29.003  1.00  0.00    -0.003 C 
ATOM      8  C   UNL     1      41.107 -11.798  30.218  1.00  0.00     0.004 C 
ENDBRANCH   6   7
ENDBRANCH   1   6
TORSDOF 4
ENDMDL
MODEL 7
REMARK VINA RESULT:    -3.352     11.419     12.437
REMARK INTER + INTRA:          -4.339
REMARK INTER:                  -4.228
REMARK INTRA:                  -0.111
REMARK UNBOUND:                -0.203
REMARK SMILES CCCCCC(=O)[O-]
REMARK SMILES IDX 4 1 5 2 6 3 7 4 8 5 3 6 2 7 1 8
REMARK H PARENT
REMARK Flexibility Score: inf
ROOT
ATOM      1  C   UNL     1      42.271   0.089  21.266  1.00  0.00     0.006 C 
ENDROOT
BRANCH   1   2
ATOM      2  C   UNL     1      43.415  -0.471  22.124  1.00  0.00     0.053 C 
BRANCH   2   3
ATOM      3  C   UNL     1      43.062  -0.398  23.576  1.00  0.00     0.041 C 
ATOM      4  O   UNL     1      42.331   0.533  24.004  1.00  0.00    -0.550 OA
ATOM      5  O   UNL     1      43.501  -1.385  24.449  1.00  0.00    -0.550 OA
ENDBRANCH   2   3
ENDBRANCH   1   2
BRANCH   1   6
ATOM      6  C   UNL     1      41.575  -0.995  20.429  1.00  0.00     0.000 C 
BRANCH   6   7
ATOM      7  C   UNL     1      41.542  -0.654  18.931  1.00  0.00    -0.003 C 
ATOM      8  C   UNL     1      41.685   0.848  18.706  1.00  0.00     0.004 C 
ENDBRANCH   6   7
ENDBRANCH   1   6
TORSDOF 4
ENDMDL
MODEL 8
REMARK VINA RESULT:    -3.303      1.812      2.748
REMARK INTER + INTRA:          -4.278
REMARK INTER:                  -4.154
REMARK INTRA:                  -0.124
REMARK UNBOUND:                -0.203
REMARK SMILES CCCCCC(=O)[O-]
REMARK SMILES IDX 4 1 5 2 6 3 7 4 8 5 3 6 2 7 1 8
REMARK H PARENT
REMARK Flexibility Score: inf
ROOT
ATOM      1  C   UNL     1      40.993 -11.826  26.876  1.00  0.00     0.006 C 
ENDROOT
BRANCH   1   2
ATOM      2  C   UNL     1      39.931 -10.730  27.050  1.00  0.00     0.053 C 
BRANCH   2   3
ATOM      3  C   UNL     1      40.036  -9.723  25.948  1.00  0.00     0.041 C 
ATOM      4  O   UNL     1      41.093  -9.634  25.271  1.00  0.00    -0.550 OA
ATOM      5  O   UNL     1      38.949  -8.916  25.638  1.00  0.00    -0.550 OA
ENDBRANCH   2   3
ENDBRANCH   1   2
BRANCH   1   6
ATOM      6  C   UNL     1      41.442 -12.430  28.215  1.00  0.00     0.000 C 
BRANCH   6   7
ATOM      7  C   UNL     1      40.466 -12.123  29.360  1.00  0.00    -0.003 C 
ATOM      8  C   UNL     1      41.217 -11.753  30.637  1.00  0.00     0.004 C 
ENDBRANCH   6   7
ENDBRANCH   1   6
TORSDOF 4
ENDMDL
MODEL 9
REMARK VINA RESULT:    -3.289      1.769      3.265
REMARK INTER + INTRA:          -4.260
REMARK INTER:                  -4.162
REMARK INTRA:                  -0.098
REMARK UNBOUND:                -0.203
REMARK SMILES CCCCCC(=O)[O-]
REMARK SMILES IDX 4 1 5 2 6 3 7 4 8 5 3 6 2 7 1 8
REMARK H PARENT
REMARK Flexibility Score: inf
ROOT
ATOM      1  C   UNL     1      40.404 -11.530  26.897  1.00  0.00     0.006 C 
ENDROOT
BRANCH   1   2
ATOM      2  C   UNL     1      39.535 -10.274  27.049  1.00  0.00     0.053 C 
BRANCH   2   3
ATOM      3  C   UNL     1      39.633  -9.421  25.824  1.00  0.00     0.041 C 
ATOM      4  O   UNL     1      38.612  -8.837  25.375  1.00  0.00    -0.550 OA
ATOM      5  O   UNL     1      40.862  -9.231  25.205  1.00  0.00    -0.550 OA
ENDBRANCH   2   3
ENDBRANCH   1   2
BRANCH   1   6
ATOM      6  C   UNL     1      40.756 -12.172  28.247  1.00  0.00     0.000 C 
BRANCH   6   7
ATOM      7  C   UNL     1      42.113 -12.892  28.224  1.00  0.00    -0.003 C 
ATOM      8  C   UNL     1      42.856 -12.621  26.918  1.00  0.00     0.004 C 
ENDBRANCH   6   7
ENDBRANCH   1   6
TORSDOF 4
ENDMDL
