MODEL 1
REMARK VINA RESULT:    85.473      0.000      0.000
REMARK INTER + INTRA:         128.817
REMARK INTER:                 125.446
REMARK INTRA:                   3.370
REMARK UNBOUND:                 3.370
REMARK SMILES Cc1cc2c(C(C)C)c(O)c(O)c(C=O)c2c(O)c1-c1c(C)cc2c(C(C)C)c(O)c(O)c(C=O)c2c1O
REMARK SMILES IDX 1 1 2 2 3 3 4 4 16 5 13 6 11 7 9 8 5 9 17 10 19 11 20 12
REMARK SMILES IDX 37 13 21 14 36 15 23 16 22 17 24 18 33 19 25 20 31 21 29 22
REMARK SMILES IDX 38 23 34 25 35 26 26 27 27 28 28 29 32 30 30 32 18 34 6 36
REMARK SMILES IDX 7 37 8 38 14 39 15 40 10 41 12 43
REMARK H PARENT 38 24 32 31 30 33 18 35 10 42 12 44
REMARK Flexibility Score: inf
ROOT
ATOM      1  C   UNL     1     -33.375  12.774  23.957  1.00  0.00     0.045 C 
ATOM      2  C   UNL     1     -33.729  11.354  23.589  1.00  0.00    -0.039 A 
ATOM      3  C   UNL     1     -33.684  10.359  24.568  1.00  0.00     0.013 A 
ATOM      4  C   UNL     1     -34.024   9.019  24.284  1.00  0.00    -0.006 A 
ATOM      5  C   UNL     1     -34.282   8.652  22.933  1.00  0.00     0.039 A 
ATOM      6  C   UNL     1     -34.396   7.270  22.603  1.00  0.00     0.072 A 
ATOM      7  C   UNL     1     -34.311   6.293  23.613  1.00  0.00     0.169 A 
ATOM      8  C   UNL     1     -34.120   6.671  24.957  1.00  0.00     0.162 A 
ATOM      9  C   UNL     1     -34.081   8.036  25.318  1.00  0.00     0.008 A 
ATOM     10  C   UNL     1     -34.443   9.684  21.961  1.00  0.00     0.132 A 
ATOM     11  C   UNL     1     -34.143  11.024  22.288  1.00  0.00     0.031 A 
ENDROOT
BRANCH  11  12
ATOM     12  C   UNL     1     -34.264  12.088  21.257  1.00  0.00     0.031 A 
ATOM     13  C   UNL     1     -33.740  11.883  19.963  1.00  0.00     0.132 A 
ATOM     14  C   UNL     1     -34.930  13.286  21.562  1.00  0.00    -0.039 A 
ATOM     15  C   UNL     1     -33.813  12.914  18.983  1.00  0.00     0.039 A 
ATOM     16  C   UNL     1     -35.118  14.243  20.562  1.00  0.00     0.013 A 
ATOM     17  C   UNL     1     -35.520  13.523  22.931  1.00  0.00     0.045 C 
ATOM     18  C   UNL     1     -34.553  14.099  19.275  1.00  0.00    -0.006 A 
ATOM     19  C   UNL     1     -33.218  12.775  17.698  1.00  0.00     0.072 A 
ATOM     20  C   UNL     1     -34.747  15.088  18.260  1.00  0.00     0.008 A 
ATOM     21  C   UNL     1     -33.562  13.663  16.667  1.00  0.00     0.169 A 
ATOM     22  C   UNL     1     -34.393  14.767  16.930  1.00  0.00     0.162 A 
BRANCH  13  23
ATOM     23  O   UNL     1     -33.195  10.637  19.631  1.00  0.00    -0.507 OA
ATOM     24  H   UNL     1     -32.419  10.210  20.122  1.00  0.00     0.293 HD
ENDBRANCH  13  23
BRANCH  19  25
ATOM     25  C   UNL     1     -32.166  11.777  17.399  1.00  0.00     0.264 C 
ATOM     26  O   UNL     1     -30.999  12.141  17.095  1.00  0.00    -0.298 OA
ENDBRANCH  19  25
BRANCH  20  27
ATOM     27  C   UNL     1     -35.389  16.453  18.569  1.00  0.00     0.017 C 
ATOM     28  C   UNL     1     -36.855  16.481  18.126  1.00  0.00     0.012 C 
ATOM     29  C   UNL     1     -34.609  17.653  17.998  1.00  0.00     0.012 C 
ENDBRANCH  20  27
BRANCH  21  30
ATOM     30  O   UNL     1     -33.022  13.447  15.393  1.00  0.00    -0.504 OA
ATOM     31  H   UNL     1     -33.119  14.093  14.621  1.00  0.00     0.293 HD
ENDBRANCH  21  30
BRANCH  22  32
ATOM     32  O   UNL     1     -34.883  15.553  15.884  1.00  0.00    -0.504 OA
ATOM     33  H   UNL     1     -34.653  16.529  15.751  1.00  0.00     0.293 HD
ENDBRANCH  22  32
ENDBRANCH  11  12
BRANCH  10  34
ATOM     34  O   UNL     1     -34.939   9.384  20.688  1.00  0.00    -0.507 OA
ATOM     35  H   UNL     1     -35.055  10.069  19.951  1.00  0.00     0.293 HD
ENDBRANCH  10  34
BRANCH   9  36
ATOM     36  C   UNL     1     -34.089   8.434  26.805  1.00  0.00     0.017 C 
ATOM     37  C   UNL     1     -35.419   9.088  27.194  1.00  0.00     0.012 C 
ATOM     38  C   UNL     1     -32.891   9.309  27.219  1.00  0.00     0.012 C 
ENDBRANCH   9  36
BRANCH   6  39
ATOM     39  C   UNL     1     -34.475   6.800  21.199  1.00  0.00     0.264 C 
ATOM     40  O   UNL     1     -34.675   5.586  20.931  1.00  0.00    -0.298 OA
ENDBRANCH   6  39
BRANCH   8  41
ATOM     41  O   UNL     1     -33.923   5.707  25.950  1.00  0.00    -0.504 OA
ATOM     42  H   UNL     1     -34.128   5.839  26.930  1.00  0.00     0.293 HD
ENDBRANCH   8  41
BRANCH   7  43
ATOM     43  O   UNL     1     -34.417   4.946  23.246  1.00  0.00    -0.504 OA
ATOM     44  H   UNL     1     -34.195   4.167  23.849  1.00  0.00     0.293 HD
ENDBRANCH   7  43
TORSDOF 11
ENDMDL
MODEL 2
REMARK VINA RESULT:    86.312      1.612      3.070
REMARK INTER + INTRA:         130.048
REMARK INTER:                 124.653
REMARK INTRA:                   5.395
REMARK UNBOUND:                 3.370
REMARK SMILES Cc1cc2c(C(C)C)c(O)c(O)c(C=O)c2c(O)c1-c1c(C)cc2c(C(C)C)c(O)c(O)c(C=O)c2c1O
REMARK SMILES IDX 1 1 2 2 3 3 4 4 16 5 13 6 11 7 9 8 5 9 17 10 19 11 20 12
REMARK SMILES IDX 37 13 21 14 36 15 23 16 22 17 24 18 33 19 25 20 31 21 29 22
REMARK SMILES IDX 38 23 34 25 35 26 26 27 27 28 28 29 32 30 30 32 18 34 6 36
REMARK SMILES IDX 7 37 8 38 14 39 15 40 10 41 12 43
REMARK H PARENT 38 24 32 31 30 33 18 35 10 42 12 44
REMARK Flexibility Score: inf
ROOT
ATOM      1  C   UNL     1     -35.292   9.511  20.072  1.00  0.00     0.045 C 
ATOM      2  C   UNL     1     -34.721   9.743  21.450  1.00  0.00    -0.039 A 
ATOM      3  C   UNL     1     -34.587   8.664  22.328  1.00  0.00     0.013 A 
ATOM      4  C   UNL     1     -34.042   8.820  23.621  1.00  0.00    -0.006 A 
ATOM      5  C   UNL     1     -33.754  10.135  24.086  1.00  0.00     0.039 A 
ATOM      6  C   UNL     1     -33.426  10.324  25.461  1.00  0.00     0.072 A 
ATOM      7  C   UNL     1     -33.334   9.217  26.323  1.00  0.00     0.169 A 
ATOM      8  C   UNL     1     -33.558   7.913  25.838  1.00  0.00     0.162 A 
ATOM      9  C   UNL     1     -33.808   7.693  24.465  1.00  0.00     0.008 A 
ATOM     10  C   UNL     1     -33.780  11.214  23.152  1.00  0.00     0.132 A 
ATOM     11  C   UNL     1     -34.285  11.017  21.849  1.00  0.00     0.031 A 
ENDROOT
BRANCH  11  12
ATOM     12  C   UNL     1     -34.357  12.155  20.897  1.00  0.00     0.031 A 
ATOM     13  C   UNL     1     -33.889  12.003  19.574  1.00  0.00     0.132 A 
ATOM     14  C   UNL     1     -34.922  13.374  21.305  1.00  0.00    -0.039 A 
ATOM     15  C   UNL     1     -33.916  13.102  18.668  1.00  0.00     0.039 A 
ATOM     16  C   UNL     1     -35.069  14.410  20.378  1.00  0.00     0.013 A 
ATOM     17  C   UNL     1     -35.450  13.559  22.707  1.00  0.00     0.045 C 
ATOM     18  C   UNL     1     -34.556  14.314  19.064  1.00  0.00    -0.006 A 
ATOM     19  C   UNL     1     -33.373  13.009  17.356  1.00  0.00     0.072 A 
ATOM     20  C   UNL     1     -34.707  15.383  18.125  1.00  0.00     0.008 A 
ATOM     21  C   UNL     1     -33.681  13.988  16.400  1.00  0.00     0.169 A 
ATOM     22  C   UNL     1     -34.418  15.129  16.765  1.00  0.00     0.162 A 
BRANCH  13  23
ATOM     23  O   UNL     1     -33.450  10.746  19.141  1.00  0.00    -0.507 OA
ATOM     24  H   UNL     1     -32.747  10.196  19.621  1.00  0.00     0.293 HD
ENDBRANCH  13  23
BRANCH  19  25
ATOM     25  C   UNL     1     -32.408  11.960  16.954  1.00  0.00     0.264 C 
ATOM     26  O   UNL     1     -31.169  12.189  16.954  1.00  0.00    -0.298 OA
ENDBRANCH  19  25
BRANCH  20  27
ATOM     27  C   UNL     1     -35.235  16.766  18.547  1.00  0.00     0.017 C 
ATOM     28  C   UNL     1     -36.714  16.922  18.177  1.00  0.00     0.012 C 
ATOM     29  C   UNL     1     -34.397  17.943  18.013  1.00  0.00     0.012 C 
ENDBRANCH  20  27
BRANCH  21  30
ATOM     30  O   UNL     1     -33.198  13.823  15.096  1.00  0.00    -0.504 OA
ATOM     31  H   UNL     1     -32.533  13.111  14.825  1.00  0.00     0.293 HD
ENDBRANCH  21  30
BRANCH  22  32
ATOM     32  O   UNL     1     -34.880  16.019  15.792  1.00  0.00    -0.504 OA
ATOM     33  H   UNL     1     -35.854  16.254  15.654  1.00  0.00     0.293 HD
ENDBRANCH  22  32
ENDBRANCH  11  12
BRANCH  10  34
ATOM     34  O   UNL     1     -33.267  12.466  23.506  1.00  0.00    -0.507 OA
ATOM     35  H   UNL     1     -33.252  12.824  24.453  1.00  0.00     0.293 HD
ENDBRANCH  10  34
BRANCH   9  36
ATOM     36  C   UNL     1     -33.835   6.257  23.913  1.00  0.00     0.017 C 
ATOM     37  C   UNL     1     -34.692   6.170  22.645  1.00  0.00     0.012 C 
ATOM     38  C   UNL     1     -34.262   5.202  24.952  1.00  0.00     0.012 C 
ENDBRANCH   9  36
BRANCH   6  39
ATOM     39  C   UNL     1     -33.300  11.675  26.061  1.00  0.00     0.264 C 
ATOM     40  O   UNL     1     -32.800  11.832  27.205  1.00  0.00    -0.298 OA
ENDBRANCH   6  39
BRANCH   8  41
ATOM     41  O   UNL     1     -33.578   6.819  26.708  1.00  0.00    -0.504 OA
ATOM     42  H   UNL     1     -32.843   6.132  26.788  1.00  0.00     0.293 HD
ENDBRANCH   8  41
BRANCH   7  43
ATOM     43  O   UNL     1     -33.021   9.446  27.669  1.00  0.00    -0.504 OA
ATOM     44  H   UNL     1     -32.167   9.151  28.119  1.00  0.00     0.293 HD
ENDBRANCH   7  43
TORSDOF 11
ENDMDL
MODEL 3
REMARK VINA RESULT:    87.277      0.829      8.690
REMARK INTER + INTRA:         131.465
REMARK INTER:                 127.045
REMARK INTRA:                   4.420
REMARK UNBOUND:                 3.370
REMARK SMILES Cc1cc2c(C(C)C)c(O)c(O)c(C=O)c2c(O)c1-c1c(C)cc2c(C(C)C)c(O)c(O)c(C=O)c2c1O
REMARK SMILES IDX 1 1 2 2 3 3 4 4 16 5 13 6 11 7 9 8 5 9 17 10 19 11 20 12
REMARK SMILES IDX 37 13 21 14 36 15 23 16 22 17 24 18 33 19 25 20 31 21 29 22
REMARK SMILES IDX 38 23 34 25 35 26 26 27 27 28 28 29 32 30 30 32 18 34 6 36
REMARK SMILES IDX 7 37 8 38 14 39 15 40 10 41 12 43
REMARK H PARENT 38 24 32 31 30 33 18 35 10 42 12 44
REMARK Flexibility Score: inf
ROOT
ATOM      1  C   UNL     1     -35.850  13.474  22.913  1.00  0.00     0.045 C 
ATOM      2  C   UNL     1     -35.152  13.238  21.596  1.00  0.00    -0.039 A 
ATOM      3  C   UNL     1     -35.224  14.212  20.597  1.00  0.00     0.013 A 
ATOM      4  C   UNL     1     -34.576  14.052  19.353  1.00  0.00    -0.006 A 
ATOM      5  C   UNL     1     -33.951  12.805  19.065  1.00  0.00     0.039 A 
ATOM      6  C   UNL     1     -33.499  12.551  17.737  1.00  0.00     0.072 A 
ATOM      7  C   UNL     1     -33.620  13.545  16.747  1.00  0.00     0.169 A 
ATOM      8  C   UNL     1     -34.181  14.799  17.059  1.00  0.00     0.162 A 
ATOM      9  C   UNL     1     -34.564  15.101  18.385  1.00  0.00     0.008 A 
ATOM     10  C   UNL     1     -33.777  11.864  20.123  1.00  0.00     0.132 A 
ATOM     11  C   UNL     1     -34.397  12.075  21.373  1.00  0.00     0.031 A 
ENDROOT
BRANCH  11  12
ATOM     12  C   UNL     1     -34.256  11.067  22.455  1.00  0.00     0.031 A 
ATOM     13  C   UNL     1     -34.450   9.697  22.177  1.00  0.00     0.132 A 
ATOM     14  C   UNL     1     -33.894  11.475  23.750  1.00  0.00    -0.039 A 
ATOM     15  C   UNL     1     -34.358   8.729  23.219  1.00  0.00     0.039 A 
ATOM     16  C   UNL     1     -33.674  10.514  24.739  1.00  0.00     0.013 A 
ATOM     17  C   UNL     1     -33.658  12.931  24.070  1.00  0.00     0.045 C 
ATOM     18  C   UNL     1     -33.920   9.140  24.513  1.00  0.00    -0.006 A 
ATOM     19  C   UNL     1     -34.634   7.351  22.993  1.00  0.00     0.072 A 
ATOM     20  C   UNL     1     -33.697   8.165  25.536  1.00  0.00     0.008 A 
ATOM     21  C   UNL     1     -34.245   6.394  23.943  1.00  0.00     0.169 A 
ATOM     22  C   UNL     1     -33.700   6.798  25.175  1.00  0.00     0.162 A 
BRANCH  13  23
ATOM     23  O   UNL     1     -34.680   9.289  20.858  1.00  0.00    -0.507 OA
ATOM     24  H   UNL     1     -34.536   8.343  20.526  1.00  0.00     0.293 HD
ENDBRANCH  13  23
BRANCH  19  25
ATOM     25  C   UNL     1     -35.403   6.863  21.825  1.00  0.00     0.264 C 
ATOM     26  O   UNL     1     -36.577   6.429  21.963  1.00  0.00    -0.298 OA
ENDBRANCH  19  25
BRANCH  20  27
ATOM     27  C   UNL     1     -33.390   8.568  26.989  1.00  0.00     0.017 C 
ATOM     28  C   UNL     1     -32.710   9.940  27.045  1.00  0.00     0.012 C 
ATOM     29  C   UNL     1     -32.585   7.513  27.773  1.00  0.00     0.012 C 
ENDBRANCH  20  27
BRANCH  21  30
ATOM     30  O   UNL     1     -34.457   5.041  23.651  1.00  0.00    -0.504 OA
ATOM     31  H   UNL     1     -34.771   4.359  24.328  1.00  0.00     0.293 HD
ENDBRANCH  21  30
BRANCH  22  32
ATOM     32  O   UNL     1     -33.149   5.860  26.051  1.00  0.00    -0.504 OA
ATOM     33  H   UNL     1     -33.420   5.760  27.020  1.00  0.00     0.293 HD
ENDBRANCH  22  32
ENDBRANCH  11  12
BRANCH  10  34
ATOM     34  O   UNL     1     -32.956  10.745  19.946  1.00  0.00    -0.507 OA
ATOM     35  H   UNL     1     -31.963  10.737  20.140  1.00  0.00     0.293 HD
ENDBRANCH  10  34
BRANCH   9  36
ATOM     36  C   UNL     1     -34.972  16.539  18.754  1.00  0.00     0.017 C 
ATOM     37  C   UNL     1     -36.393  16.849  18.271  1.00  0.00     0.012 C 
ATOM     38  C   UNL     1     -33.971  17.608  18.277  1.00  0.00     0.012 C 
ENDBRANCH   9  36
BRANCH   6  39
ATOM     39  C   UNL     1     -33.014  11.215  17.313  1.00  0.00     0.264 C 
ATOM     40  O   UNL     1     -33.802  10.237  17.223  1.00  0.00    -0.298 OA
ENDBRANCH   6  39
BRANCH   8  41
ATOM     41  O   UNL     1     -34.407  15.750  16.061  1.00  0.00    -0.504 OA
ATOM     42  H   UNL     1     -34.277  16.745  16.172  1.00  0.00     0.293 HD
ENDBRANCH   8  41
BRANCH   7  43
ATOM     43  O   UNL     1     -33.175  13.251  15.452  1.00  0.00    -0.504 OA
ATOM     44  H   UNL     1     -32.441  13.750  14.969  1.00  0.00     0.293 HD
ENDBRANCH   7  43
TORSDOF 11
ENDMDL
