MODEL 1
REMARK VINA RESULT:    -4.418      0.000      0.000
REMARK INTER + INTRA:         -10.062
REMARK INTER:                  -8.550
REMARK INTRA:                  -1.512
REMARK UNBOUND:                -1.512
REMARK SMILES CCCCCC=CCC=CCCCCCCCCOC(C)=O
REMARK SMILES IDX 12 1 11 2 10 3 9 4 8 5 7 6 6 7 5 8 4 9 3 10 2 11 1 12 13 13
REMARK SMILES IDX 14 14 15 15 16 16 17 17 18 18 19 19 20 20 22 21 21 22
REMARK H PARENT
REMARK Flexibility Score: inf
ROOT
ATOM      1  C   UNL     1       2.969 -16.558  31.954  1.00  0.00     0.004 C 
ENDROOT
BRANCH   1   2
ATOM      2  C   UNL     1       2.699 -15.858  33.295  1.00  0.00     0.027 C 
BRANCH   2   3
ATOM      3  C   UNL     1       1.300 -16.136  33.774  1.00  0.00    -0.031 C 
ATOM      4  C   UNL     1       0.559 -17.115  33.236  1.00  0.00    -0.027 C 
BRANCH   4   5
ATOM      5  C   UNL     1      -0.851 -17.362  33.702  1.00  0.00     0.054 C 
BRANCH   5   6
ATOM      6  C   UNL     1      -1.126 -18.833  33.850  1.00  0.00    -0.027 C 
ATOM      7  C   UNL     1      -0.140 -19.738  33.757  1.00  0.00    -0.031 C 
BRANCH   7   8
ATOM      8  C   UNL     1      -0.400 -21.215  33.898  1.00  0.00     0.027 C 
BRANCH   8   9
ATOM      9  C   UNL     1       0.491 -22.042  32.954  1.00  0.00     0.004 C 
BRANCH   9  10
ATOM     10  C   UNL     1       1.883 -21.428  32.714  1.00  0.00     0.000 C 
BRANCH  10  11
ATOM     11  C   UNL     1       2.575 -21.972  31.454  1.00  0.00    -0.003 C 
ATOM     12  C   UNL     1       3.024 -20.838  30.537  1.00  0.00     0.004 C 
ENDBRANCH  10  11
ENDBRANCH   9  10
ENDBRANCH   8   9
ENDBRANCH   7   8
ENDBRANCH   5   6
ENDBRANCH   4   5
ENDBRANCH   2   3
ENDBRANCH   1   2
BRANCH   1  13
ATOM     13  C   UNL     1       3.716 -15.659  30.957  1.00  0.00     0.000 C 
BRANCH  13  14
ATOM     14  C   UNL     1       3.392 -16.002  29.491  1.00  0.00     0.000 C 
BRANCH  14  15
ATOM     15  C   UNL     1       2.217 -15.176  28.942  1.00  0.00     0.000 C 
BRANCH  15  16
ATOM     16  C   UNL     1       1.158 -14.874  30.016  1.00  0.00     0.003 C 
BRANCH  16  17
ATOM     17  C   UNL     1      -0.032 -15.849  29.974  1.00  0.00     0.042 C 
BRANCH  17  18
ATOM     18  C   UNL     1      -0.780 -15.835  28.635  1.00  0.00     0.233 C 
BRANCH  18  19
ATOM     19  O   UNL     1      -2.174 -15.637  28.851  1.00  0.00    -0.466 OA
BRANCH  19  20
ATOM     20  C   UNL     1      -2.673 -14.860  29.901  1.00  0.00     0.302 C 
ATOM     21  O   UNL     1      -2.710 -13.603  29.812  1.00  0.00    -0.253 OA
ATOM     22  C   UNL     1      -3.125 -15.525  31.157  1.00  0.00     0.139 C 
ENDBRANCH  19  20
ENDBRANCH  18  19
ENDBRANCH  17  18
ENDBRANCH  16  17
ENDBRANCH  15  16
ENDBRANCH  14  15
ENDBRANCH  13  14
ENDBRANCH   1  13
TORSDOF 16
ENDMDL
MODEL 2
REMARK VINA RESULT:    -4.164      1.416      2.415
REMARK INTER + INTRA:          -9.571
REMARK INTER:                  -7.975
REMARK INTRA:                  -1.596
REMARK UNBOUND:                -1.512
REMARK SMILES CCCCCC=CCC=CCCCCCCCCOC(C)=O
REMARK SMILES IDX 12 1 11 2 10 3 9 4 8 5 7 6 6 7 5 8 4 9 3 10 2 11 1 12 13 13
REMARK SMILES IDX 14 14 15 15 16 16 17 17 18 18 19 19 20 20 22 21 21 22
REMARK H PARENT
REMARK Flexibility Score: inf
ROOT
ATOM      1  C   UNL     1       2.073 -16.217  34.027  1.00  0.00     0.004 C 
ENDROOT
BRANCH   1   2
ATOM      2  C   UNL     1       0.602 -15.897  33.713  1.00  0.00     0.027 C 
BRANCH   2   3
ATOM      3  C   UNL     1      -0.294 -17.033  34.125  1.00  0.00    -0.031 C 
ATOM      4  C   UNL     1      -0.202 -18.240  33.550  1.00  0.00    -0.027 C 
BRANCH   4   5
ATOM      5  C   UNL     1      -1.126 -19.358  33.950  1.00  0.00     0.054 C 
BRANCH   5   6
ATOM      6  C   UNL     1      -0.463 -20.698  33.788  1.00  0.00    -0.027 C 
ATOM      7  C   UNL     1       0.865 -20.838  33.918  1.00  0.00    -0.031 C 
BRANCH   7   8
ATOM      8  C   UNL     1       1.546 -22.171  33.754  1.00  0.00     0.027 C 
BRANCH   8   9
ATOM      9  C   UNL     1       2.902 -22.034  33.039  1.00  0.00     0.004 C 
BRANCH   9  10
ATOM     10  C   UNL     1       2.860 -22.410  31.546  1.00  0.00     0.000 C 
BRANCH  10  11
ATOM     11  C   UNL     1       3.241 -21.246  30.618  1.00  0.00    -0.003 C 
ATOM     12  C   UNL     1       2.110 -20.226  30.515  1.00  0.00     0.004 C 
ENDBRANCH  10  11
ENDBRANCH   9  10
ENDBRANCH   8   9
ENDBRANCH   7   8
ENDBRANCH   5   6
ENDBRANCH   4   5
ENDBRANCH   2   3
ENDBRANCH   1   2
BRANCH   1  13
ATOM     13  C   UNL     1       2.997 -16.002  32.819  1.00  0.00     0.000 C 
BRANCH  13  14
ATOM     14  C   UNL     1       2.650 -16.923  31.635  1.00  0.00     0.000 C 
BRANCH  14  15
ATOM     15  C   UNL     1       3.777 -16.987  30.591  1.00  0.00     0.000 C 
BRANCH  15  16
ATOM     16  C   UNL     1       4.135 -15.602  30.027  1.00  0.00     0.003 C 
BRANCH  16  17
ATOM     17  C   UNL     1       3.243 -15.190  28.842  1.00  0.00     0.042 C 
BRANCH  17  18
ATOM     18  C   UNL     1       1.915 -14.557  29.273  1.00  0.00     0.233 C 
BRANCH  18  19
ATOM     19  O   UNL     1       0.823 -15.370  28.857  1.00  0.00    -0.466 OA
BRANCH  19  20
ATOM     20  C   UNL     1      -0.280 -15.630  29.675  1.00  0.00     0.302 C 
ATOM     21  O   UNL     1      -0.239 -16.545  30.542  1.00  0.00    -0.253 OA
ATOM     22  C   UNL     1      -1.534 -14.843  29.492  1.00  0.00     0.139 C 
ENDBRANCH  19  20
ENDBRANCH  18  19
ENDBRANCH  17  18
ENDBRANCH  16  17
ENDBRANCH  15  16
ENDBRANCH  14  15
ENDBRANCH  13  14
ENDBRANCH   1  13
TORSDOF 16
ENDMDL
MODEL 3
REMARK VINA RESULT:    -4.158     13.788     16.908
REMARK INTER + INTRA:          -9.560
REMARK INTER:                  -6.858
REMARK INTRA:                  -2.702
REMARK UNBOUND:                -1.512
REMARK SMILES CCCCCC=CCC=CCCCCCCCCOC(C)=O
REMARK SMILES IDX 12 1 11 2 10 3 9 4 8 5 7 6 6 7 5 8 4 9 3 10 2 11 1 12 13 13
REMARK SMILES IDX 14 14 15 15 16 16 17 17 18 18 19 19 20 20 22 21 21 22
REMARK H PARENT
REMARK Flexibility Score: inf
ROOT
ATOM      1  C   UNL     1       3.487 -17.639  14.973  1.00  0.00     0.004 C 
ENDROOT
BRANCH   1   2
ATOM      2  C   UNL     1       3.587 -16.305  14.215  1.00  0.00     0.027 C 
BRANCH   2   3
ATOM      3  C   UNL     1       2.554 -15.329  14.708  1.00  0.00    -0.031 C 
ATOM      4  C   UNL     1       1.300 -15.339  14.234  1.00  0.00    -0.027 C 
BRANCH   4   5
ATOM      5  C   UNL     1       0.285 -14.336  14.714  1.00  0.00     0.054 C 
BRANCH   5   6
ATOM      6  C   UNL     1      -0.284 -14.732  16.049  1.00  0.00    -0.027 C 
ATOM      7  C   UNL     1      -0.557 -16.013  16.336  1.00  0.00    -0.031 C 
BRANCH   7   8
ATOM      8  C   UNL     1      -1.132 -16.426  17.666  1.00  0.00     0.027 C 
BRANCH   8   9
ATOM      9  C   UNL     1      -0.070 -17.085  18.564  1.00  0.00     0.004 C 
BRANCH   9  10
ATOM     10  C   UNL     1       1.337 -17.123  17.941  1.00  0.00     0.000 C 
BRANCH  10  11
ATOM     11  C   UNL     1       2.399 -16.417  18.799  1.00  0.00    -0.003 C 
ATOM     12  C   UNL     1       2.532 -14.946  18.415  1.00  0.00     0.004 C 
ENDBRANCH  10  11
ENDBRANCH   9  10
ENDBRANCH   8   9
ENDBRANCH   7   8
ENDBRANCH   5   6
ENDBRANCH   4   5
ENDBRANCH   2   3
ENDBRANCH   1   2
BRANCH   1  13
ATOM     13  C   UNL     1       2.665 -18.692  14.214  1.00  0.00     0.000 C 
BRANCH  13  14
ATOM     14  C   UNL     1       1.368 -19.075  14.949  1.00  0.00     0.000 C 
BRANCH  14  15
ATOM     15  C   UNL     1       1.382 -20.530  15.445  1.00  0.00     0.000 C 
BRANCH  15  16
ATOM     16  C   UNL     1       2.548 -21.341  14.853  1.00  0.00     0.003 C 
BRANCH  16  17
ATOM     17  C   UNL     1       3.211 -22.274  15.882  1.00  0.00     0.042 C 
BRANCH  17  18
ATOM     18  C   UNL     1       4.674 -22.595  15.553  1.00  0.00     0.233 C 
BRANCH  18  19
ATOM     19  O   UNL     1       5.545 -21.856  16.405  1.00  0.00    -0.466 OA
BRANCH  19  20
ATOM     20  C   UNL     1       6.274 -20.749  15.962  1.00  0.00     0.302 C 
ATOM     21  O   UNL     1       6.976 -20.076  16.764  1.00  0.00    -0.253 OA
ATOM     22  C   UNL     1       6.186 -20.336  14.532  1.00  0.00     0.139 C 
ENDBRANCH  19  20
ENDBRANCH  18  19
ENDBRANCH  17  18
ENDBRANCH  16  17
ENDBRANCH  15  16
ENDBRANCH  14  15
ENDBRANCH  13  14
ENDBRANCH   1  13
TORSDOF 16
ENDMDL
MODEL 4
REMARK VINA RESULT:    -3.976     12.559     15.167
REMARK INTER + INTRA:          -9.206
REMARK INTER:                  -6.618
REMARK INTRA:                  -2.588
REMARK UNBOUND:                -1.512
REMARK SMILES CCCCCC=CCC=CCCCCCCCCOC(C)=O
REMARK SMILES IDX 12 1 11 2 10 3 9 4 8 5 7 6 6 7 5 8 4 9 3 10 2 11 1 12 13 13
REMARK SMILES IDX 14 14 15 15 16 16 17 17 18 18 19 19 20 20 22 21 21 22
REMARK H PARENT
REMARK Flexibility Score: inf
ROOT
ATOM      1  C   UNL     1       1.946 -16.781  19.088  1.00  0.00     0.004 C 
ENDROOT
BRANCH   1   2
ATOM      2  C   UNL     1       1.284 -17.547  20.244  1.00  0.00     0.027 C 
BRANCH   2   3
ATOM      3  C   UNL     1      -0.196 -17.689  20.016  1.00  0.00    -0.031 C 
ATOM      4  C   UNL     1      -0.915 -18.624  20.654  1.00  0.00    -0.027 C 
BRANCH   4   5
ATOM      5  C   UNL     1      -2.390 -18.776  20.392  1.00  0.00     0.054 C 
BRANCH   5   6
ATOM      6  C   UNL     1      -2.641 -19.556  19.131  1.00  0.00    -0.027 C 
ATOM      7  C   UNL     1      -1.743 -20.438  18.667  1.00  0.00    -0.031 C 
BRANCH   7   8
ATOM      8  C   UNL     1      -1.977 -21.224  17.404  1.00  0.00     0.027 C 
BRANCH   8   9
ATOM      9  C   UNL     1      -1.121 -20.698  16.239  1.00  0.00     0.004 C 
BRANCH   9  10
ATOM     10  C   UNL     1      -0.381 -19.384  16.553  1.00  0.00     0.000 C 
BRANCH  10  11
ATOM     11  C   UNL     1      -0.839 -18.207  15.677  1.00  0.00    -0.003 C 
ATOM     12  C   UNL     1      -2.108 -17.566  16.230  1.00  0.00     0.004 C 
ENDBRANCH  10  11
ENDBRANCH   9  10
ENDBRANCH   8   9
ENDBRANCH   7   8
ENDBRANCH   5   6
ENDBRANCH   4   5
ENDBRANCH   2   3
ENDBRANCH   1   2
BRANCH   1  13
ATOM     13  C   UNL     1       0.923 -16.172  18.117  1.00  0.00     0.000 C 
BRANCH  13  14
ATOM     14  C   UNL     1       1.563 -15.703  16.797  1.00  0.00     0.000 C 
BRANCH  14  15
ATOM     15  C   UNL     1       2.861 -16.460  16.474  1.00  0.00     0.000 C 
BRANCH  15  16
ATOM     16  C   UNL     1       3.076 -16.639  14.961  1.00  0.00     0.003 C 
BRANCH  16  17
ATOM     17  C   UNL     1       2.519 -17.973  14.432  1.00  0.00     0.042 C 
BRANCH  17  18
ATOM     18  C   UNL     1       3.515 -19.134  14.547  1.00  0.00     0.233 C 
BRANCH  18  19
ATOM     19  O   UNL     1       2.826 -20.380  14.512  1.00  0.00    -0.466 OA
BRANCH  19  20
ATOM     20  C   UNL     1       3.209 -21.477  15.289  1.00  0.00     0.302 C 
ATOM     21  O   UNL     1       4.428 -21.749  15.464  1.00  0.00    -0.253 OA
ATOM     22  C   UNL     1       2.163 -22.359  15.882  1.00  0.00     0.139 C 
ENDBRANCH  19  20
ENDBRANCH  18  19
ENDBRANCH  17  18
ENDBRANCH  16  17
ENDBRANCH  15  16
ENDBRANCH  14  15
ENDBRANCH  13  14
ENDBRANCH   1  13
TORSDOF 16
ENDMDL
MODEL 5
REMARK VINA RESULT:    -3.951     13.737     16.810
REMARK INTER + INTRA:          -9.159
REMARK INTER:                  -7.517
REMARK INTRA:                  -1.642
REMARK UNBOUND:                -1.512
REMARK SMILES CCCCCC=CCC=CCCCCCCCCOC(C)=O
REMARK SMILES IDX 12 1 11 2 10 3 9 4 8 5 7 6 6 7 5 8 4 9 3 10 2 11 1 12 13 13
REMARK SMILES IDX 14 14 15 15 16 16 17 17 18 18 19 19 20 20 22 21 21 22
REMARK H PARENT
REMARK Flexibility Score: inf
ROOT
ATOM      1  C   UNL     1      15.171  -9.228  32.936  1.00  0.00     0.004 C 
ENDROOT
BRANCH   1   2
ATOM      2  C   UNL     1      14.263  -9.989  33.915  1.00  0.00     0.027 C 
BRANCH   2   3
ATOM      3  C   UNL     1      12.993 -10.428  33.240  1.00  0.00    -0.031 C 
ATOM      4  C   UNL     1      12.118  -9.538  32.751  1.00  0.00    -0.027 C 
BRANCH   4   5
ATOM      5  C   UNL     1      10.836  -9.991  32.105  1.00  0.00     0.054 C 
BRANCH   5   6
ATOM      6  C   UNL     1      11.098 -10.662  30.785  1.00  0.00    -0.027 C 
ATOM      7  C   UNL     1      11.985 -10.159  29.913  1.00  0.00    -0.031 C 
BRANCH   7   8
ATOM      8  C   UNL     1      12.256 -10.815  28.585  1.00  0.00     0.027 C 
BRANCH   8   9
ATOM      9  C   UNL     1      13.703 -11.330  28.488  1.00  0.00     0.004 C 
BRANCH   9  10
ATOM     10  C   UNL     1      14.616 -10.837  29.626  1.00  0.00     0.000 C 
BRANCH  10  11
ATOM     11  C   UNL     1      16.111 -10.915  29.279  1.00  0.00    -0.003 C 
ATOM     12  C   UNL     1      16.462  -9.980  28.125  1.00  0.00     0.004 C 
ENDBRANCH  10  11
ENDBRANCH   9  10
ENDBRANCH   8   9
ENDBRANCH   7   8
ENDBRANCH   5   6
ENDBRANCH   4   5
ENDBRANCH   2   3
ENDBRANCH   1   2
BRANCH   1  13
ATOM     13  C   UNL     1      16.651  -9.273  33.342  1.00  0.00     0.000 C 
BRANCH  13  14
ATOM     14  C   UNL     1      17.125  -7.966  34.005  1.00  0.00     0.000 C 
BRANCH  14  15
ATOM     15  C   UNL     1      16.138  -6.807  33.788  1.00  0.00     0.000 C 
BRANCH  15  16
ATOM     16  C   UNL     1      16.842  -5.442  33.710  1.00  0.00     0.003 C 
BRANCH  16  17
ATOM     17  C   UNL     1      15.858  -4.269  33.548  1.00  0.00     0.042 C 
BRANCH  17  18
ATOM     18  C   UNL     1      14.394  -4.672  33.764  1.00  0.00     0.233 C 
BRANCH  18  19
ATOM     19  O   UNL     1      13.628  -4.392  32.597  1.00  0.00    -0.466 OA
BRANCH  19  20
ATOM     20  C   UNL     1      13.218  -5.388  31.705  1.00  0.00     0.302 C 
ATOM     21  O   UNL     1      13.783  -6.515  31.694  1.00  0.00    -0.253 OA
ATOM     22  C   UNL     1      12.130  -5.097  30.729  1.00  0.00     0.139 C 
ENDBRANCH  19  20
ENDBRANCH  18  19
ENDBRANCH  17  18
ENDBRANCH  16  17
ENDBRANCH  15  16
ENDBRANCH  14  15
ENDBRANCH  13  14
ENDBRANCH   1  13
TORSDOF 16
ENDMDL
MODEL 6
REMARK VINA RESULT:    -3.909      2.883      7.052
REMARK INTER + INTRA:          -9.077
REMARK INTER:                  -7.540
REMARK INTRA:                  -1.537
REMARK UNBOUND:                -1.512
REMARK SMILES CCCCCC=CCC=CCCCCCCCCOC(C)=O
REMARK SMILES IDX 12 1 11 2 10 3 9 4 8 5 7 6 6 7 5 8 4 9 3 10 2 11 1 12 13 13
REMARK SMILES IDX 14 14 15 15 16 16 17 17 18 18 19 19 20 20 22 21 21 22
REMARK H PARENT
REMARK Flexibility Score: inf
ROOT
ATOM      1  C   UNL     1      -0.518 -16.962  32.972  1.00  0.00     0.004 C 
ENDROOT
BRANCH   1   2
ATOM      2  C   UNL     1       0.715 -16.436  33.723  1.00  0.00     0.027 C 
BRANCH   2   3
ATOM      3  C   UNL     1       1.948 -16.536  32.868  1.00  0.00    -0.031 C 
ATOM      4  C   UNL     1       3.091 -15.926  33.215  1.00  0.00    -0.027 C 
BRANCH   4   5
ATOM      5  C   UNL     1       4.308 -16.009  32.333  1.00  0.00     0.054 C 
BRANCH   5   6
ATOM      6  C   UNL     1       3.928 -16.278  30.903  1.00  0.00    -0.027 C 
ATOM      7  C   UNL     1       3.689 -15.274  30.046  1.00  0.00    -0.031 C 
BRANCH   7   8
ATOM      8  C   UNL     1       3.303 -15.525  28.612  1.00  0.00     0.027 C 
BRANCH   8   9
ATOM      9  C   UNL     1       1.804 -15.270  28.373  1.00  0.00     0.004 C 
BRANCH   9  10
ATOM     10  C   UNL     1       0.896 -15.789  29.503  1.00  0.00     0.000 C 
BRANCH  10  11
ATOM     11  C   UNL     1      -0.277 -14.848  29.817  1.00  0.00    -0.003 C 
ATOM     12  C   UNL     1      -1.591 -15.399  29.272  1.00  0.00     0.004 C 
ENDBRANCH  10  11
ENDBRANCH   9  10
ENDBRANCH   8   9
ENDBRANCH   7   8
ENDBRANCH   5   6
ENDBRANCH   4   5
ENDBRANCH   2   3
ENDBRANCH   1   2
BRANCH   1  13
ATOM     13  C   UNL     1      -1.767 -17.039  33.863  1.00  0.00     0.000 C 
BRANCH  13  14
ATOM     14  C   UNL     1      -2.226 -18.486  34.118  1.00  0.00     0.000 C 
BRANCH  14  15
ATOM     15  C   UNL     1      -1.124 -19.513  33.813  1.00  0.00     0.000 C 
BRANCH  15  16
ATOM     16  C   UNL     1      -1.599 -20.963  34.014  1.00  0.00     0.003 C 
BRANCH  16  17
ATOM     17  C   UNL     1      -0.862 -21.965  33.108  1.00  0.00     0.042 C 
BRANCH  17  18
ATOM     18  C   UNL     1       0.661 -21.934  33.283  1.00  0.00     0.233 C 
BRANCH  18  19
ATOM     19  O   UNL     1       1.306 -22.216  32.045  1.00  0.00    -0.466 OA
BRANCH  19  20
ATOM     20  C   UNL     1       2.586 -21.746  31.736  1.00  0.00     0.302 C 
ATOM     21  O   UNL     1       3.552 -21.942  32.522  1.00  0.00    -0.253 OA
ATOM     22  C   UNL     1       2.800 -20.969  30.482  1.00  0.00     0.139 C 
ENDBRANCH  19  20
ENDBRANCH  18  19
ENDBRANCH  17  18
ENDBRANCH  16  17
ENDBRANCH  15  16
ENDBRANCH  14  15
ENDBRANCH  13  14
ENDBRANCH   1  13
TORSDOF 16
ENDMDL
MODEL 7
REMARK VINA RESULT:    -3.814     12.860     15.316
REMARK INTER + INTRA:          -8.893
REMARK INTER:                  -6.533
REMARK INTRA:                  -2.360
REMARK UNBOUND:                -1.512
REMARK SMILES CCCCCC=CCC=CCCCCCCCCOC(C)=O
REMARK SMILES IDX 12 1 11 2 10 3 9 4 8 5 7 6 6 7 5 8 4 9 3 10 2 11 1 12 13 13
REMARK SMILES IDX 14 14 15 15 16 16 17 17 18 18 19 19 20 20 22 21 21 22
REMARK H PARENT
REMARK Flexibility Score: inf
ROOT
ATOM      1  C   UNL     1      -1.251 -19.012  20.601  1.00  0.00     0.004 C 
ENDROOT
BRANCH   1   2
ATOM      2  C   UNL     1      -2.587 -18.877  19.854  1.00  0.00     0.027 C 
BRANCH   2   3
ATOM      3  C   UNL     1      -2.834 -20.072  18.974  1.00  0.00    -0.031 C 
ATOM      4  C   UNL     1      -1.974 -21.101  18.935  1.00  0.00    -0.027 C 
BRANCH   4   5
ATOM      5  C   UNL     1      -2.217 -22.276  18.026  1.00  0.00     0.054 C 
BRANCH   5   6
ATOM      6  C   UNL     1      -1.228 -22.302  16.894  1.00  0.00    -0.027 C 
ATOM      7  C   UNL     1      -0.036 -22.903  17.025  1.00  0.00    -0.031 C 
BRANCH   7   8
ATOM      8  C   UNL     1       0.968 -22.934  15.903  1.00  0.00     0.027 C 
BRANCH   8   9
ATOM      9  C   UNL     1       1.472 -21.524  15.549  1.00  0.00     0.004 C 
BRANCH   9  10
ATOM     10  C   UNL     1       2.986 -21.454  15.275  1.00  0.00     0.000 C 
BRANCH  10  11
ATOM     11  C   UNL     1       3.372 -20.339  14.291  1.00  0.00    -0.003 C 
ATOM     12  C   UNL     1       2.649 -19.036  14.619  1.00  0.00     0.004 C 
ENDBRANCH  10  11
ENDBRANCH   9  10
ENDBRANCH   8   9
ENDBRANCH   7   8
ENDBRANCH   5   6
ENDBRANCH   4   5
ENDBRANCH   2   3
ENDBRANCH   1   2
BRANCH   1  13
ATOM     13  C   UNL     1      -0.253 -17.903  20.237  1.00  0.00     0.000 C 
BRANCH  13  14
ATOM     14  C   UNL     1      -0.701 -17.079  19.016  1.00  0.00     0.000 C 
BRANCH  14  15
ATOM     15  C   UNL     1       0.238 -17.259  17.811  1.00  0.00     0.000 C 
BRANCH  15  16
ATOM     16  C   UNL     1      -0.108 -18.505  16.978  1.00  0.00     0.003 C 
BRANCH  16  17
ATOM     17  C   UNL     1      -0.907 -18.172  15.706  1.00  0.00     0.042 C 
BRANCH  17  18
ATOM     18  C   UNL     1      -0.887 -16.680  15.350  1.00  0.00     0.233 C 
BRANCH  18  19
ATOM     19  O   UNL     1       0.262 -16.376  14.564  1.00  0.00    -0.466 OA
BRANCH  19  20
ATOM     20  C   UNL     1       0.998 -15.199  14.727  1.00  0.00     0.302 C 
ATOM     21  O   UNL     1       2.182 -15.233  15.158  1.00  0.00    -0.253 OA
ATOM     22  C   UNL     1       0.359 -13.886  14.426  1.00  0.00     0.139 C 
ENDBRANCH  19  20
ENDBRANCH  18  19
ENDBRANCH  17  18
ENDBRANCH  16  17
ENDBRANCH  15  16
ENDBRANCH  14  15
ENDBRANCH  13  14
ENDBRANCH   1  13
TORSDOF 16
ENDMDL
MODEL 8
REMARK VINA RESULT:    -3.664     12.576     15.276
REMARK INTER + INTRA:          -8.604
REMARK INTER:                  -6.158
REMARK INTRA:                  -2.446
REMARK UNBOUND:                -1.512
REMARK SMILES CCCCCC=CCC=CCCCCCCCCOC(C)=O
REMARK SMILES IDX 12 1 11 2 10 3 9 4 8 5 7 6 6 7 5 8 4 9 3 10 2 11 1 12 13 13
REMARK SMILES IDX 14 14 15 15 16 16 17 17 18 18 19 19 20 20 22 21 21 22
REMARK H PARENT
REMARK Flexibility Score: inf
ROOT
ATOM      1  C   UNL     1       1.021 -15.443  14.444  1.00  0.00     0.004 C 
ENDROOT
BRANCH   1   2
ATOM      2  C   UNL     1       0.089 -14.479  15.195  1.00  0.00     0.027 C 
BRANCH   2   3
ATOM      3  C   UNL     1      -1.015 -15.231  15.888  1.00  0.00    -0.031 C 
ATOM      4  C   UNL     1      -1.520 -16.362  15.375  1.00  0.00    -0.027 C 
BRANCH   4   5
ATOM      5  C   UNL     1      -2.645 -17.086  16.063  1.00  0.00     0.054 C 
BRANCH   5   6
ATOM      6  C   UNL     1      -2.449 -18.576  16.007  1.00  0.00    -0.027 C 
ATOM      7  C   UNL     1      -1.227 -19.113  15.870  1.00  0.00    -0.031 C 
BRANCH   7   8
ATOM      8  C   UNL     1      -1.013 -20.602  15.807  1.00  0.00     0.027 C 
BRANCH   8   9
ATOM      9  C   UNL     1       0.147 -20.972  14.867  1.00  0.00     0.004 C 
BRANCH   9  10
ATOM     10  C   UNL     1       1.538 -20.620  15.425  1.00  0.00     0.000 C 
BRANCH  10  11
ATOM     11  C   UNL     1       2.635 -21.601  14.982  1.00  0.00    -0.003 C 
ATOM     12  C   UNL     1       3.071 -22.501  16.135  1.00  0.00     0.004 C 
ENDBRANCH  10  11
ENDBRANCH   9  10
ENDBRANCH   8   9
ENDBRANCH   7   8
ENDBRANCH   5   6
ENDBRANCH   4   5
ENDBRANCH   2   3
ENDBRANCH   1   2
BRANCH   1  13
ATOM     13  C   UNL     1       2.495 -15.270  14.839  1.00  0.00     0.000 C 
BRANCH  13  14
ATOM     14  C   UNL     1       3.071 -16.513  15.543  1.00  0.00     0.000 C 
BRANCH  14  15
ATOM     15  C   UNL     1       2.098 -17.106  16.575  1.00  0.00     0.000 C 
BRANCH  15  16
ATOM     16  C   UNL     1       2.330 -16.549  17.990  1.00  0.00     0.003 C 
BRANCH  16  17
ATOM     17  C   UNL     1       1.022 -16.346  18.775  1.00  0.00     0.042 C 
BRANCH  17  18
ATOM     18  C   UNL     1       0.058 -17.533  18.666  1.00  0.00     0.233 C 
BRANCH  18  19
ATOM     19  O   UNL     1      -1.061 -17.341  19.526  1.00  0.00    -0.466 OA
BRANCH  19  20
ATOM     20  C   UNL     1      -1.725 -18.402  20.148  1.00  0.00     0.302 C 
ATOM     21  O   UNL     1      -2.222 -18.266  21.299  1.00  0.00    -0.253 OA
ATOM     22  C   UNL     1      -1.809 -19.722  19.459  1.00  0.00     0.139 C 
ENDBRANCH  19  20
ENDBRANCH  18  19
ENDBRANCH  17  18
ENDBRANCH  16  17
ENDBRANCH  15  16
ENDBRANCH  14  15
ENDBRANCH  13  14
ENDBRANCH   1  13
TORSDOF 16
ENDMDL
MODEL 9
REMARK VINA RESULT:    -3.629     12.968     15.837
REMARK INTER + INTRA:          -8.536
REMARK INTER:                  -5.876
REMARK INTRA:                  -2.660
REMARK UNBOUND:                -1.512
REMARK SMILES CCCCCC=CCC=CCCCCCCCCOC(C)=O
REMARK SMILES IDX 12 1 11 2 10 3 9 4 8 5 7 6 6 7 5 8 4 9 3 10 2 11 1 12 13 13
REMARK SMILES IDX 14 14 15 15 16 16 17 17 18 18 19 19 20 20 22 21 21 22
REMARK H PARENT
REMARK Flexibility Score: inf
ROOT
ATOM      1  C   UNL     1       1.277 -17.394  19.861  1.00  0.00     0.004 C 
ENDROOT
BRANCH   1   2
ATOM      2  C   UNL     1      -0.249 -17.272  19.721  1.00  0.00     0.027 C 
BRANCH   2   3
ATOM      3  C   UNL     1      -0.905 -18.624  19.795  1.00  0.00    -0.031 C 
ATOM      4  C   UNL     1      -1.955 -18.935  19.022  1.00  0.00    -0.027 C 
BRANCH   4   5
ATOM      5  C   UNL     1      -2.621 -20.280  19.130  1.00  0.00     0.054 C 
BRANCH   5   6
ATOM      6  C   UNL     1      -2.771 -20.923  17.778  1.00  0.00    -0.027 C 
ATOM      7  C   UNL     1      -2.328 -20.317  16.666  1.00  0.00    -0.031 C 
BRANCH   7   8
ATOM      8  C   UNL     1      -2.474 -20.944  15.305  1.00  0.00     0.027 C 
BRANCH   8   9
ATOM      9  C   UNL     1      -3.035 -19.947  14.276  1.00  0.00     0.004 C 
BRANCH   9  10
ATOM     10  C   UNL     1      -2.165 -18.690  14.088  1.00  0.00     0.000 C 
BRANCH  10  11
ATOM     11  C   UNL     1      -2.907 -17.386  14.418  1.00  0.00    -0.003 C 
ATOM     12  C   UNL     1      -2.406 -16.779  15.725  1.00  0.00     0.004 C 
ENDBRANCH  10  11
ENDBRANCH   9  10
ENDBRANCH   8   9
ENDBRANCH   7   8
ENDBRANCH   5   6
ENDBRANCH   4   5
ENDBRANCH   2   3
ENDBRANCH   1   2
BRANCH   1  13
ATOM     13  C   UNL     1       2.034 -16.686  18.727  1.00  0.00     0.000 C 
BRANCH  13  14
ATOM     14  C   UNL     1       1.139 -16.392  17.509  1.00  0.00     0.000 C 
BRANCH  14  15
ATOM     15  C   UNL     1       1.541 -17.214  16.274  1.00  0.00     0.000 C 
BRANCH  15  16
ATOM     16  C   UNL     1       0.829 -18.577  16.217  1.00  0.00     0.003 C 
BRANCH  16  17
ATOM     17  C   UNL     1       1.506 -19.566  15.252  1.00  0.00     0.042 C 
BRANCH  17  18
ATOM     18  C   UNL     1       1.242 -21.035  15.606  1.00  0.00     0.233 C 
BRANCH  18  19
ATOM     19  O   UNL     1       2.262 -21.865  15.059  1.00  0.00    -0.466 OA
BRANCH  19  20
ATOM     20  C   UNL     1       3.451 -22.147  15.739  1.00  0.00     0.302 C 
ATOM     21  O   UNL     1       4.537 -21.611  15.387  1.00  0.00    -0.253 OA
ATOM     22  C   UNL     1       3.440 -23.124  16.864  1.00  0.00     0.139 C 
ENDBRANCH  19  20
ENDBRANCH  18  19
ENDBRANCH  17  18
ENDBRANCH  16  17
ENDBRANCH  15  16
ENDBRANCH  14  15
ENDBRANCH  13  14
ENDBRANCH   1  13
TORSDOF 16
ENDMDL
