MODEL 1
REMARK VINA RESULT:    -2.477      0.000      0.000
REMARK INTER + INTRA:          -2.477
REMARK INTER:                  -2.477
REMARK INTRA:                   0.000
REMARK UNBOUND:                 0.000
REMARK SMILES CC(=O)[O-]
REMARK SMILES IDX 1 1 2 2 3 3 4 4
REMARK H PARENT
REMARK Flexibility Score: inf
ROOT
ATOM      1  C   UNL     1      -8.518  11.766 -32.274  1.00  0.00     0.063 C 
ATOM      2  C   UNL     1      -9.047  10.682 -33.151  1.00  0.00     0.038 C 
ATOM      3  O   UNL     1      -8.364  10.265 -34.123  1.00  0.00    -0.550 OA
ATOM      4  O   UNL     1     -10.272  10.093 -32.866  1.00  0.00    -0.550 OA
ENDROOT
TORSDOF 0
ENDMDL
MODEL 2
REMARK VINA RESULT:    -2.475      1.363      1.933
REMARK INTER + INTRA:          -2.475
REMARK INTER:                  -2.475
REMARK INTRA:                   0.000
REMARK UNBOUND:                 0.000
REMARK SMILES CC(=O)[O-]
REMARK SMILES IDX 1 1 2 2 3 3 4 4
REMARK H PARENT
REMARK Flexibility Score: inf
ROOT
ATOM      1  C   UNL     1      -8.179  10.744 -34.115  1.00  0.00     0.063 C 
ATOM      2  C   UNL     1      -9.148  10.899 -32.992  1.00  0.00     0.038 C 
ATOM      3  O   UNL     1     -10.151  10.142 -32.914  1.00  0.00    -0.550 OA
ATOM      4  O   UNL     1      -8.917  11.843 -32.001  1.00  0.00    -0.550 OA
ENDROOT
TORSDOF 0
ENDMDL
MODEL 3
REMARK VINA RESULT:    -2.416      1.429      1.777
REMARK INTER + INTRA:          -2.416
REMARK INTER:                  -2.416
REMARK INTRA:                   0.000
REMARK UNBOUND:                 0.000
REMARK SMILES CC(=O)[O-]
REMARK SMILES IDX 1 1 2 2 3 3 4 4
REMARK H PARENT
REMARK Flexibility Score: inf
ROOT
ATOM      1  C   UNL     1     -10.260  10.373 -33.034  1.00  0.00     0.063 C 
ATOM      2  C   UNL     1      -8.852  10.835 -33.196  1.00  0.00     0.038 C 
ATOM      3  O   UNL     1      -8.138  10.374 -34.125  1.00  0.00    -0.550 OA
ATOM      4  O   UNL     1      -8.341  11.814 -32.354  1.00  0.00    -0.550 OA
ENDROOT
TORSDOF 0
ENDMDL
MODEL 4
REMARK VINA RESULT:    -2.257     18.169     18.611
REMARK INTER + INTRA:          -2.257
REMARK INTER:                  -2.257
REMARK INTRA:                   0.000
REMARK UNBOUND:                 0.000
REMARK SMILES CC(=O)[O-]
REMARK SMILES IDX 1 1 2 2 3 3 4 4
REMARK H PARENT
REMARK Flexibility Score: inf
ROOT
ATOM      1  C   UNL     1     -14.833   0.393 -19.553  1.00  0.00     0.063 C 
ATOM      2  C   UNL     1     -14.512  -1.045 -19.778  1.00  0.00     0.038 C 
ATOM      3  O   UNL     1     -13.880  -1.696 -18.905  1.00  0.00    -0.550 OA
ATOM      4  O   UNL     1     -14.954  -1.684 -20.929  1.00  0.00    -0.550 OA
ENDROOT
TORSDOF 0
ENDMDL
MODEL 5
REMARK VINA RESULT:    -2.226     18.415     18.798
REMARK INTER + INTRA:          -2.226
REMARK INTER:                  -2.226
REMARK INTRA:                   0.000
REMARK UNBOUND:                 0.000
REMARK SMILES CC(=O)[O-]
REMARK SMILES IDX 1 1 2 2 3 3 4 4
REMARK H PARENT
REMARK Flexibility Score: inf
ROOT
ATOM      1  C   UNL     1     -15.008  -1.329 -21.008  1.00  0.00     0.063 C 
ATOM      2  C   UNL     1     -14.483  -1.044 -19.642  1.00  0.00     0.038 C 
ATOM      3  O   UNL     1     -14.831   0.003 -19.036  1.00  0.00    -0.550 OA
ATOM      4  O   UNL     1     -13.650  -1.960 -19.013  1.00  0.00    -0.550 OA
ENDROOT
TORSDOF 0
ENDMDL
MODEL 6
REMARK VINA RESULT:    -2.183     17.660     18.139
REMARK INTER + INTRA:          -2.183
REMARK INTER:                  -2.183
REMARK INTRA:                   0.000
REMARK UNBOUND:                 0.000
REMARK SMILES CC(=O)[O-]
REMARK SMILES IDX 1 1 2 2 3 3 4 4
REMARK H PARENT
REMARK Flexibility Score: inf
ROOT
ATOM      1  C   UNL     1     -14.064  -1.557 -19.126  1.00  0.00     0.063 C 
ATOM      2  C   UNL     1     -14.442  -0.913 -20.416  1.00  0.00     0.038 C 
ATOM      3  O   UNL     1     -15.524  -1.219 -20.982  1.00  0.00    -0.550 OA
ATOM      4  O   UNL     1     -13.626   0.064 -20.970  1.00  0.00    -0.550 OA
ENDROOT
TORSDOF 0
ENDMDL
MODEL 7
REMARK VINA RESULT:    -2.156     18.589     19.016
REMARK INTER + INTRA:          -2.156
REMARK INTER:                  -2.156
REMARK INTRA:                   0.000
REMARK UNBOUND:                 0.000
REMARK SMILES CC(=O)[O-]
REMARK SMILES IDX 1 1 2 2 3 3 4 4
REMARK H PARENT
REMARK Flexibility Score: inf
ROOT
ATOM      1  C   UNL     1     -14.430  -0.766 -19.468  1.00  0.00     0.063 C 
ATOM      2  C   UNL     1     -13.875  -2.075 -19.919  1.00  0.00     0.038 C 
ATOM      3  O   UNL     1     -13.221  -2.794 -19.119  1.00  0.00    -0.550 OA
ATOM      4  O   UNL     1     -14.123  -2.527 -21.208  1.00  0.00    -0.550 OA
ENDROOT
TORSDOF 0
ENDMDL
MODEL 8
REMARK VINA RESULT:    -2.153     20.766     21.156
REMARK INTER + INTRA:          -2.153
REMARK INTER:                  -2.153
REMARK INTRA:                   0.000
REMARK UNBOUND:                 0.000
REMARK SMILES CC(=O)[O-]
REMARK SMILES IDX 1 1 2 2 3 3 4 4
REMARK H PARENT
REMARK Flexibility Score: inf
ROOT
ATOM      1  C   UNL     1     -10.809  -4.508 -18.452  1.00  0.00     0.063 C 
ATOM      2  C   UNL     1     -12.265  -4.436 -18.767  1.00  0.00     0.038 C 
ATOM      3  O   UNL     1     -12.792  -3.335 -19.074  1.00  0.00    -0.550 OA
ATOM      4  O   UNL     1     -13.033  -5.593 -18.773  1.00  0.00    -0.550 OA
ENDROOT
TORSDOF 0
ENDMDL
MODEL 9
REMARK VINA RESULT:    -2.148     16.801     17.263
REMARK INTER + INTRA:          -2.148
REMARK INTER:                  -2.148
REMARK INTRA:                   0.000
REMARK UNBOUND:                 0.000
REMARK SMILES CC(=O)[O-]
REMARK SMILES IDX 1 1 2 2 3 3 4 4
REMARK H PARENT
REMARK Flexibility Score: inf
ROOT
ATOM      1  C   UNL     1     -15.241   2.119 -19.561  1.00  0.00     0.063 C 
ATOM      2  C   UNL     1     -14.572   0.893 -20.084  1.00  0.00     0.038 C 
ATOM      3  O   UNL     1     -14.766  -0.220 -19.529  1.00  0.00    -0.550 OA
ATOM      4  O   UNL     1     -13.774   0.967 -21.218  1.00  0.00    -0.550 OA
ENDROOT
TORSDOF 0
ENDMDL
