MODEL 1
REMARK VINA RESULT:    -4.242      0.000      0.000
REMARK INTER + INTRA:         -16.447
REMARK INTER:                 -11.186
REMARK INTRA:                  -5.261
REMARK UNBOUND:                -5.261
REMARK SMILES CCCCCCCCCCCCCCCCCCCCCCCCCCCCCC(=O)[O-]
REMARK SMILES IDX 16 1 17 2 18 3 19 4 20 5 21 6 22 7 23 8 24 9 25 10 26 11
REMARK SMILES IDX 27 12 28 13 29 14 30 15 31 16 32 17 15 18 14 19 13 20 12 21
REMARK SMILES IDX 11 22 10 23 9 24 8 25 7 26 6 27 5 28 4 29 3 30 2 31 1 32
REMARK H PARENT
REMARK Flexibility Score: inf
ROOT
ATOM      1  C   UNL     1     -11.252  -8.846  26.811  1.00  0.00     0.000 C 
ENDROOT
BRANCH   1   2
ATOM      2  C   UNL     1     -11.622  -8.386  28.233  1.00  0.00     0.000 C 
BRANCH   2   3
ATOM      3  C   UNL     1     -11.633  -9.500  29.301  1.00  0.00     0.000 C 
BRANCH   3   4
ATOM      4  C   UNL     1     -11.351 -10.917  28.768  1.00  0.00     0.000 C 
BRANCH   4   5
ATOM      5  C   UNL     1     -12.499 -11.922  28.980  1.00  0.00     0.000 C 
BRANCH   5   6
ATOM      6  C   UNL     1     -13.667 -11.742  27.985  1.00  0.00     0.000 C 
BRANCH   6   7
ATOM      7  C   UNL     1     -13.472 -12.564  26.699  1.00  0.00     0.000 C 
BRANCH   7   8
ATOM      8  C   UNL     1     -14.715 -12.535  25.783  1.00  0.00     0.000 C 
BRANCH   8   9
ATOM      9  C   UNL     1     -15.048 -13.894  25.140  1.00  0.00     0.000 C 
BRANCH   9  10
ATOM     10  C   UNL     1     -13.850 -14.847  24.967  1.00  0.00     0.000 C 
BRANCH  10  11
ATOM     11  C   UNL     1     -13.912 -16.133  25.815  1.00  0.00     0.000 C 
BRANCH  11  12
ATOM     12  C   UNL     1     -12.565 -16.585  26.413  1.00  0.00     0.000 C 
BRANCH  12  13
ATOM     13  C   UNL     1     -11.389 -16.533  25.413  1.00  0.00     0.006 C 
BRANCH  13  14
ATOM     14  C   UNL     1     -10.122 -15.924  26.027  1.00  0.00     0.053 C 
BRANCH  14  15
ATOM     15  C   UNL     1      -8.925 -16.257  25.194  1.00  0.00     0.041 C 
ATOM     16  O   UNL     1      -9.015 -16.292  23.940  1.00  0.00    -0.550 OA
ATOM     17  O   UNL     1      -7.699 -16.496  25.804  1.00  0.00    -0.550 OA
ENDBRANCH  14  15
ENDBRANCH  13  14
ENDBRANCH  12  13
ENDBRANCH  11  12
ENDBRANCH  10  11
ENDBRANCH   9  10
ENDBRANCH   8   9
ENDBRANCH   7   8
ENDBRANCH   6   7
ENDBRANCH   5   6
ENDBRANCH   4   5
ENDBRANCH   3   4
ENDBRANCH   2   3
ENDBRANCH   1   2
BRANCH   1  18
ATOM     18  C   UNL     1     -12.332  -8.509  25.772  1.00  0.00     0.000 C 
BRANCH  18  19
ATOM     19  C   UNL     1     -13.703  -8.329  26.440  1.00  0.00     0.000 C 
BRANCH  19  20
ATOM     20  C   UNL     1     -14.854  -8.928  25.612  1.00  0.00     0.000 C 
BRANCH  20  21
ATOM     21  C   UNL     1     -15.853  -7.899  25.046  1.00  0.00     0.000 C 
BRANCH  21  22
ATOM     22  C   UNL     1     -15.650  -6.455  25.541  1.00  0.00     0.000 C 
BRANCH  22  23
ATOM     23  C   UNL     1     -14.847  -5.595  24.555  1.00  0.00     0.000 C 
BRANCH  23  24
ATOM     24  C   UNL     1     -15.354  -5.786  23.117  1.00  0.00    -0.000 C 
BRANCH  24  25
ATOM     25  C   UNL     1     -14.213  -5.843  22.088  1.00  0.00    -0.000 C 
BRANCH  25  26
ATOM     26  C   UNL     1     -13.207  -6.966  22.381  1.00  0.00    -0.000 C 
BRANCH  26  27
ATOM     27  C   UNL     1     -13.810  -8.341  22.057  1.00  0.00    -0.000 C 
BRANCH  27  28
ATOM     28  C   UNL     1     -12.867  -9.504  22.415  1.00  0.00    -0.000 C 
BRANCH  28  29
ATOM     29  C   UNL     1     -13.537 -10.892  22.456  1.00  0.00    -0.000 C 
BRANCH  29  30
ATOM     30  C   UNL     1     -12.600 -12.060  22.825  1.00  0.00    -0.000 C 
BRANCH  30  31
ATOM     31  C   UNL     1     -11.263 -11.640  23.460  1.00  0.00    -0.003 C 
ATOM     32  C   UNL     1     -10.695 -12.699  24.407  1.00  0.00     0.004 C 
ENDBRANCH  30  31
ENDBRANCH  29  30
ENDBRANCH  28  29
ENDBRANCH  27  28
ENDBRANCH  26  27
ENDBRANCH  25  26
ENDBRANCH  24  25
ENDBRANCH  23  24
ENDBRANCH  22  23
ENDBRANCH  21  22
ENDBRANCH  20  21
ENDBRANCH  19  20
ENDBRANCH  18  19
ENDBRANCH   1  18
TORSDOF 28
ENDMDL
MODEL 2
REMARK VINA RESULT:    -4.228      2.111      5.660
REMARK INTER + INTRA:         -16.410
REMARK INTER:                 -10.326
REMARK INTRA:                  -6.084
REMARK UNBOUND:                -5.261
REMARK SMILES CCCCCCCCCCCCCCCCCCCCCCCCCCCCCC(=O)[O-]
REMARK SMILES IDX 16 1 17 2 18 3 19 4 20 5 21 6 22 7 23 8 24 9 25 10 26 11
REMARK SMILES IDX 27 12 28 13 29 14 30 15 31 16 32 17 15 18 14 19 13 20 12 21
REMARK SMILES IDX 11 22 10 23 9 24 8 25 7 26 6 27 5 28 4 29 3 30 2 31 1 32
REMARK H PARENT
REMARK Flexibility Score: inf
ROOT
ATOM      1  C   UNL     1     -12.001  -9.738  29.047  1.00  0.00     0.000 C 
ENDROOT
BRANCH   1   2
ATOM      2  C   UNL     1     -11.754  -8.485  28.188  1.00  0.00     0.000 C 
BRANCH   2   3
ATOM      3  C   UNL     1     -11.220  -8.758  26.767  1.00  0.00     0.000 C 
BRANCH   3   4
ATOM      4  C   UNL     1     -12.027  -8.105  25.630  1.00  0.00     0.000 C 
BRANCH   4   5
ATOM      5  C   UNL     1     -13.026  -9.045  24.930  1.00  0.00     0.000 C 
BRANCH   5   6
ATOM      6  C   UNL     1     -14.462  -8.947  25.492  1.00  0.00     0.000 C 
BRANCH   6   7
ATOM      7  C   UNL     1     -15.179 -10.308  25.506  1.00  0.00     0.000 C 
BRANCH   7   8
ATOM      8  C   UNL     1     -14.239 -11.477  25.141  1.00  0.00     0.000 C 
BRANCH   8   9
ATOM      9  C   UNL     1     -14.459 -12.743  25.991  1.00  0.00     0.000 C 
BRANCH   9  10
ATOM     10  C   UNL     1     -15.299 -13.845  25.318  1.00  0.00     0.000 C 
BRANCH  10  11
ATOM     11  C   UNL     1     -14.492 -15.043  24.780  1.00  0.00     0.000 C 
BRANCH  11  12
ATOM     12  C   UNL     1     -14.346 -16.224  25.759  1.00  0.00     0.000 C 
BRANCH  12  13
ATOM     13  C   UNL     1     -13.011 -16.231  26.535  1.00  0.00     0.006 C 
BRANCH  13  14
ATOM     14  C   UNL     1     -11.927 -17.059  25.834  1.00  0.00     0.053 C 
BRANCH  14  15
ATOM     15  C   UNL     1     -10.851 -17.438  26.801  1.00  0.00     0.041 C 
ATOM     16  O   UNL     1     -10.867 -18.566  27.357  1.00  0.00    -0.550 OA
ATOM     17  O   UNL     1      -9.810 -16.555  27.062  1.00  0.00    -0.550 OA
ENDBRANCH  14  15
ENDBRANCH  13  14
ENDBRANCH  12  13
ENDBRANCH  11  12
ENDBRANCH  10  11
ENDBRANCH   9  10
ENDBRANCH   8   9
ENDBRANCH   7   8
ENDBRANCH   6   7
ENDBRANCH   5   6
ENDBRANCH   4   5
ENDBRANCH   3   4
ENDBRANCH   2   3
ENDBRANCH   1   2
BRANCH   1  18
ATOM     18  C   UNL     1     -13.311 -10.459  28.693  1.00  0.00     0.000 C 
BRANCH  18  19
ATOM     19  C   UNL     1     -13.650 -11.530  29.741  1.00  0.00     0.000 C 
BRANCH  19  20
ATOM     20  C   UNL     1     -12.721 -11.481  30.967  1.00  0.00     0.000 C 
BRANCH  20  21
ATOM     21  C   UNL     1     -12.830 -12.691  31.917  1.00  0.00     0.000 C 
BRANCH  21  22
ATOM     22  C   UNL     1     -13.527 -13.926  31.317  1.00  0.00     0.000 C 
BRANCH  22  23
ATOM     23  C   UNL     1     -12.552 -15.076  31.025  1.00  0.00     0.000 C 
BRANCH  23  24
ATOM     24  C   UNL     1     -11.876 -14.892  29.658  1.00  0.00    -0.000 C 
BRANCH  24  25
ATOM     25  C   UNL     1     -10.454 -14.318  29.772  1.00  0.00    -0.000 C 
BRANCH  25  26
ATOM     26  C   UNL     1     -10.201 -13.165  28.790  1.00  0.00    -0.000 C 
BRANCH  26  27
ATOM     27  C   UNL     1     -11.114 -13.280  27.561  1.00  0.00    -0.000 C 
BRANCH  27  28
ATOM     28  C   UNL     1     -10.815 -12.212  26.493  1.00  0.00    -0.000 C 
BRANCH  28  29
ATOM     29  C   UNL     1     -10.251 -12.760  25.167  1.00  0.00    -0.000 C 
BRANCH  29  30
ATOM     30  C   UNL     1     -11.177 -13.736  24.415  1.00  0.00    -0.000 C 
BRANCH  30  31
ATOM     31  C   UNL     1     -11.029 -13.719  22.884  1.00  0.00    -0.003 C 
ATOM     32  C   UNL     1     -12.372 -13.657  22.156  1.00  0.00     0.004 C 
ENDBRANCH  30  31
ENDBRANCH  29  30
ENDBRANCH  28  29
ENDBRANCH  27  28
ENDBRANCH  26  27
ENDBRANCH  25  26
ENDBRANCH  24  25
ENDBRANCH  23  24
ENDBRANCH  22  23
ENDBRANCH  21  22
ENDBRANCH  20  21
ENDBRANCH  19  20
ENDBRANCH  18  19
ENDBRANCH   1  18
TORSDOF 28
ENDMDL
MODEL 3
REMARK VINA RESULT:    -4.225      2.503      7.246
REMARK INTER + INTRA:         -16.401
REMARK INTER:                  -9.756
REMARK INTRA:                  -6.646
REMARK UNBOUND:                -5.261
REMARK SMILES CCCCCCCCCCCCCCCCCCCCCCCCCCCCCC(=O)[O-]
REMARK SMILES IDX 16 1 17 2 18 3 19 4 20 5 21 6 22 7 23 8 24 9 25 10 26 11
REMARK SMILES IDX 27 12 28 13 29 14 30 15 31 16 32 17 15 18 14 19 13 20 12 21
REMARK SMILES IDX 11 22 10 23 9 24 8 25 7 26 6 27 5 28 4 29 3 30 2 31 1 32
REMARK H PARENT
REMARK Flexibility Score: inf
ROOT
ATOM      1  C   UNL     1     -11.976  -9.772  29.444  1.00  0.00     0.000 C 
ENDROOT
BRANCH   1   2
ATOM      2  C   UNL     1     -11.505  -8.996  28.202  1.00  0.00     0.000 C 
BRANCH   2   3
ATOM      3  C   UNL     1     -12.612  -8.652  27.184  1.00  0.00     0.000 C 
BRANCH   3   4
ATOM      4  C   UNL     1     -12.134  -8.492  25.729  1.00  0.00     0.000 C 
BRANCH   4   5
ATOM      5  C   UNL     1     -12.790  -9.461  24.728  1.00  0.00     0.000 C 
BRANCH   5   6
ATOM      6  C   UNL     1     -13.907 -10.328  25.352  1.00  0.00     0.000 C 
BRANCH   6   7
ATOM      7  C   UNL     1     -14.369 -11.454  24.410  1.00  0.00     0.000 C 
BRANCH   7   8
ATOM      8  C   UNL     1     -14.374 -12.836  25.096  1.00  0.00     0.000 C 
BRANCH   8   9
ATOM      9  C   UNL     1     -13.841 -12.817  26.541  1.00  0.00     0.000 C 
BRANCH   9  10
ATOM     10  C   UNL     1     -12.484 -13.518  26.748  1.00  0.00     0.000 C 
BRANCH  10  11
ATOM     11  C   UNL     1     -11.305 -12.576  27.062  1.00  0.00     0.000 C 
BRANCH  11  12
ATOM     12  C   UNL     1     -10.545 -12.049  25.830  1.00  0.00     0.000 C 
BRANCH  12  13
ATOM     13  C   UNL     1     -10.354 -13.103  24.717  1.00  0.00     0.006 C 
BRANCH  13  14
ATOM     14  C   UNL     1     -10.787 -12.588  23.339  1.00  0.00     0.053 C 
BRANCH  14  15
ATOM     15  C   UNL     1     -11.730 -13.553  22.693  1.00  0.00     0.041 C 
ATOM     16  O   UNL     1     -12.274 -13.268  21.594  1.00  0.00    -0.550 OA
ATOM     17  O   UNL     1     -11.982 -14.783  23.288  1.00  0.00    -0.550 OA
ENDBRANCH  14  15
ENDBRANCH  13  14
ENDBRANCH  12  13
ENDBRANCH  11  12
ENDBRANCH  10  11
ENDBRANCH   9  10
ENDBRANCH   8   9
ENDBRANCH   7   8
ENDBRANCH   6   7
ENDBRANCH   5   6
ENDBRANCH   4   5
ENDBRANCH   3   4
ENDBRANCH   2   3
ENDBRANCH   1   2
BRANCH   1  18
ATOM     18  C   UNL     1     -13.336 -10.456  29.244  1.00  0.00     0.000 C 
BRANCH  18  19
ATOM     19  C   UNL     1     -13.429 -11.749  30.068  1.00  0.00     0.000 C 
BRANCH  19  20
ATOM     20  C   UNL     1     -12.089 -12.140  30.718  1.00  0.00     0.000 C 
BRANCH  20  21
ATOM     21  C   UNL     1     -12.021 -13.585  31.252  1.00  0.00     0.000 C 
BRANCH  21  22
ATOM     22  C   UNL     1     -11.589 -14.641  30.217  1.00  0.00     0.000 C 
BRANCH  22  23
ATOM     23  C   UNL     1     -12.724 -15.604  29.841  1.00  0.00     0.000 C 
BRANCH  23  24
ATOM     24  C   UNL     1     -12.457 -17.013  30.391  1.00  0.00    -0.000 C 
BRANCH  24  25
ATOM     25  C   UNL     1     -11.010 -17.196  30.879  1.00  0.00    -0.000 C 
BRANCH  25  26
ATOM     26  C   UNL     1     -10.187 -18.112  29.961  1.00  0.00    -0.000 C 
BRANCH  26  27
ATOM     27  C   UNL     1     -11.100 -18.903  29.013  1.00  0.00    -0.000 C 
BRANCH  27  28
ATOM     28  C   UNL     1     -10.753 -18.684  27.530  1.00  0.00    -0.000 C 
BRANCH  28  29
ATOM     29  C   UNL     1     -11.315 -17.386  26.916  1.00  0.00    -0.000 C 
BRANCH  29  30
ATOM     30  C   UNL     1     -10.408 -16.711  25.868  1.00  0.00    -0.000 C 
BRANCH  30  31
ATOM     31  C   UNL     1      -9.008 -16.323  26.378  1.00  0.00    -0.003 C 
ATOM     32  C   UNL     1      -9.053 -15.398  27.595  1.00  0.00     0.004 C 
ENDBRANCH  30  31
ENDBRANCH  29  30
ENDBRANCH  28  29
ENDBRANCH  27  28
ENDBRANCH  26  27
ENDBRANCH  25  26
ENDBRANCH  24  25
ENDBRANCH  23  24
ENDBRANCH  22  23
ENDBRANCH  21  22
ENDBRANCH  20  21
ENDBRANCH  19  20
ENDBRANCH  18  19
ENDBRANCH   1  18
TORSDOF 28
ENDMDL
MODEL 4
REMARK VINA RESULT:    -4.211      3.205      8.124
REMARK INTER + INTRA:         -16.366
REMARK INTER:                 -10.603
REMARK INTRA:                  -5.764
REMARK UNBOUND:                -5.261
REMARK SMILES CCCCCCCCCCCCCCCCCCCCCCCCCCCCCC(=O)[O-]
REMARK SMILES IDX 16 1 17 2 18 3 19 4 20 5 21 6 22 7 23 8 24 9 25 10 26 11
REMARK SMILES IDX 27 12 28 13 29 14 30 15 31 16 32 17 15 18 14 19 13 20 12 21
REMARK SMILES IDX 11 22 10 23 9 24 8 25 7 26 6 27 5 28 4 29 3 30 2 31 1 32
REMARK H PARENT
REMARK Flexibility Score: inf
ROOT
ATOM      1  C   UNL     1     -10.527 -12.328  26.485  1.00  0.00     0.000 C 
ENDROOT
BRANCH   1   2
ATOM      2  C   UNL     1     -10.131 -11.634  25.170  1.00  0.00     0.000 C 
BRANCH   2   3
ATOM      3  C   UNL     1     -10.327 -12.483  23.896  1.00  0.00     0.000 C 
BRANCH   3   4
ATOM      4  C   UNL     1     -11.632 -12.211  23.125  1.00  0.00     0.000 C 
BRANCH   4   5
ATOM      5  C   UNL     1     -12.473 -13.466  22.827  1.00  0.00     0.000 C 
BRANCH   5   6
ATOM      6  C   UNL     1     -13.902 -13.404  23.412  1.00  0.00     0.000 C 
BRANCH   6   7
ATOM      7  C   UNL     1     -13.924 -12.844  24.845  1.00  0.00     0.000 C 
BRANCH   7   8
ATOM      8  C   UNL     1     -15.034 -11.793  25.053  1.00  0.00     0.000 C 
BRANCH   8   9
ATOM      9  C   UNL     1     -14.813 -10.886  26.278  1.00  0.00     0.000 C 
BRANCH   9  10
ATOM     10  C   UNL     1     -13.872 -11.459  27.355  1.00  0.00     0.000 C 
BRANCH  10  11
ATOM     11  C   UNL     1     -13.557 -10.502  28.522  1.00  0.00     0.000 C 
BRANCH  11  12
ATOM     12  C   UNL     1     -12.188  -9.799  28.437  1.00  0.00     0.000 C 
BRANCH  12  13
ATOM     13  C   UNL     1     -12.228  -8.441  27.701  1.00  0.00     0.006 C 
BRANCH  13  14
ATOM     14  C   UNL     1     -11.833  -8.561  26.224  1.00  0.00     0.053 C 
BRANCH  14  15
ATOM     15  C   UNL     1     -12.854  -7.899  25.354  1.00  0.00     0.041 C 
ATOM     16  O   UNL     1     -13.933  -7.481  25.849  1.00  0.00    -0.550 OA
ATOM     17  O   UNL     1     -12.598  -7.712  24.001  1.00  0.00    -0.550 OA
ENDBRANCH  14  15
ENDBRANCH  13  14
ENDBRANCH  12  13
ENDBRANCH  11  12
ENDBRANCH  10  11
ENDBRANCH   9  10
ENDBRANCH   8   9
ENDBRANCH   7   8
ENDBRANCH   6   7
ENDBRANCH   5   6
ENDBRANCH   4   5
ENDBRANCH   3   4
ENDBRANCH   2   3
ENDBRANCH   1   2
BRANCH   1  18
ATOM     18  C   UNL     1      -9.742 -13.622  26.741  1.00  0.00     0.000 C 
BRANCH  18  19
ATOM     19  C   UNL     1      -9.786 -14.008  28.227  1.00  0.00     0.000 C 
BRANCH  19  20
ATOM     20  C   UNL     1     -10.422 -12.918  29.109  1.00  0.00     0.000 C 
BRANCH  20  21
ATOM     21  C   UNL     1     -11.643 -13.376  29.933  1.00  0.00     0.000 C 
BRANCH  21  22
ATOM     22  C   UNL     1     -12.292 -14.689  29.458  1.00  0.00     0.000 C 
BRANCH  22  23
ATOM     23  C   UNL     1     -13.023 -15.434  30.584  1.00  0.00     0.000 C 
BRANCH  23  24
ATOM     24  C   UNL     1     -12.528 -16.883  30.698  1.00  0.00    -0.000 C 
BRANCH  24  25
ATOM     25  C   UNL     1     -11.403 -17.207  29.700  1.00  0.00    -0.000 C 
BRANCH  25  26
ATOM     26  C   UNL     1     -11.438 -18.667  29.223  1.00  0.00    -0.000 C 
BRANCH  26  27
ATOM     27  C   UNL     1     -10.821 -18.801  27.823  1.00  0.00    -0.000 C 
BRANCH  27  28
ATOM     28  C   UNL     1     -10.586 -17.440  27.142  1.00  0.00    -0.000 C 
BRANCH  28  29
ATOM     29  C   UNL     1     -11.310 -17.255  25.794  1.00  0.00    -0.000 C 
BRANCH  29  30
ATOM     30  C   UNL     1     -12.181 -15.987  25.687  1.00  0.00    -0.000 C 
BRANCH  30  31
ATOM     31  C   UNL     1     -13.477 -16.022  26.515  1.00  0.00    -0.003 C 
ATOM     32  C   UNL     1     -14.658 -16.617  25.747  1.00  0.00     0.004 C 
ENDBRANCH  30  31
ENDBRANCH  29  30
ENDBRANCH  28  29
ENDBRANCH  27  28
ENDBRANCH  26  27
ENDBRANCH  25  26
ENDBRANCH  24  25
ENDBRANCH  23  24
ENDBRANCH  22  23
ENDBRANCH  21  22
ENDBRANCH  20  21
ENDBRANCH  19  20
ENDBRANCH  18  19
ENDBRANCH   1  18
TORSDOF 28
ENDMDL
MODEL 5
REMARK VINA RESULT:    -4.206      3.135      8.007
REMARK INTER + INTRA:         -16.353
REMARK INTER:                 -10.158
REMARK INTRA:                  -6.195
REMARK UNBOUND:                -5.261
REMARK SMILES CCCCCCCCCCCCCCCCCCCCCCCCCCCCCC(=O)[O-]
REMARK SMILES IDX 16 1 17 2 18 3 19 4 20 5 21 6 22 7 23 8 24 9 25 10 26 11
REMARK SMILES IDX 27 12 28 13 29 14 30 15 31 16 32 17 15 18 14 19 13 20 12 21
REMARK SMILES IDX 11 22 10 23 9 24 8 25 7 26 6 27 5 28 4 29 3 30 2 31 1 32
REMARK H PARENT
REMARK Flexibility Score: inf
ROOT
ATOM      1  C   UNL     1     -11.042 -10.644  25.597  1.00  0.00     0.000 C 
ENDROOT
BRANCH   1   2
ATOM      2  C   UNL     1     -10.789  -9.833  26.881  1.00  0.00     0.000 C 
BRANCH   2   3
ATOM      3  C   UNL     1     -11.925  -8.869  27.282  1.00  0.00     0.000 C 
BRANCH   3   4
ATOM      4  C   UNL     1     -12.723  -8.277  26.105  1.00  0.00     0.000 C 
BRANCH   4   5
ATOM      5  C   UNL     1     -14.252  -8.307  26.289  1.00  0.00     0.000 C 
BRANCH   5   6
ATOM      6  C   UNL     1     -14.987  -9.127  25.205  1.00  0.00     0.000 C 
BRANCH   6   7
ATOM      7  C   UNL     1     -14.173  -9.239  23.904  1.00  0.00     0.000 C 
BRANCH   7   8
ATOM      8  C   UNL     1     -14.055 -10.695  23.403  1.00  0.00     0.000 C 
BRANCH   8   9
ATOM      9  C   UNL     1     -14.719 -11.729  24.332  1.00  0.00     0.000 C 
BRANCH   9  10
ATOM     10  C   UNL     1     -13.776 -12.819  24.878  1.00  0.00     0.000 C 
BRANCH  10  11
ATOM     11  C   UNL     1     -13.994 -13.186  26.358  1.00  0.00     0.000 C 
BRANCH  11  12
ATOM     12  C   UNL     1     -13.962 -11.996  27.337  1.00  0.00     0.000 C 
BRANCH  12  13
ATOM     13  C   UNL     1     -13.451 -12.361  28.748  1.00  0.00     0.006 C 
BRANCH  13  14
ATOM     14  C   UNL     1     -13.488 -11.170  29.714  1.00  0.00     0.053 C 
BRANCH  14  15
ATOM     15  C   UNL     1     -12.291 -11.187  30.611  1.00  0.00     0.041 C 
ATOM     16  O   UNL     1     -12.434 -11.293  31.856  1.00  0.00    -0.550 OA
ATOM     17  O   UNL     1     -11.014 -11.120  30.067  1.00  0.00    -0.550 OA
ENDBRANCH  14  15
ENDBRANCH  13  14
ENDBRANCH  12  13
ENDBRANCH  11  12
ENDBRANCH  10  11
ENDBRANCH   9  10
ENDBRANCH   8   9
ENDBRANCH   7   8
ENDBRANCH   6   7
ENDBRANCH   5   6
ENDBRANCH   4   5
ENDBRANCH   3   4
ENDBRANCH   2   3
ENDBRANCH   1   2
BRANCH   1  18
ATOM     18  C   UNL     1     -10.171 -11.906  25.504  1.00  0.00     0.000 C 
BRANCH  18  19
ATOM     19  C   UNL     1     -10.305 -12.761  26.773  1.00  0.00     0.000 C 
BRANCH  19  20
ATOM     20  C   UNL     1      -9.952 -14.241  26.536  1.00  0.00     0.000 C 
BRANCH  20  21
ATOM     21  C   UNL     1     -10.357 -14.794  25.155  1.00  0.00     0.000 C 
BRANCH  21  22
ATOM     22  C   UNL     1     -11.548 -15.770  25.170  1.00  0.00     0.000 C 
BRANCH  22  23
ATOM     23  C   UNL     1     -11.802 -16.378  26.557  1.00  0.00     0.000 C 
BRANCH  23  24
ATOM     24  C   UNL     1     -11.050 -17.707  26.722  1.00  0.00    -0.000 C 
BRANCH  24  25
ATOM     25  C   UNL     1      -9.780 -17.568  27.578  1.00  0.00    -0.000 C 
BRANCH  25  26
ATOM     26  C   UNL     1      -9.789 -18.492  28.805  1.00  0.00    -0.000 C 
BRANCH  26  27
ATOM     27  C   UNL     1     -11.059 -19.355  28.833  1.00  0.00    -0.000 C 
BRANCH  27  28
ATOM     28  C   UNL     1     -11.836 -19.231  30.156  1.00  0.00    -0.000 C 
BRANCH  28  29
ATOM     29  C   UNL     1     -11.524 -17.963  30.976  1.00  0.00    -0.000 C 
BRANCH  29  30
ATOM     30  C   UNL     1     -12.672 -16.938  31.059  1.00  0.00    -0.000 C 
BRANCH  30  31
ATOM     31  C   UNL     1     -12.621 -15.822  30.000  1.00  0.00    -0.003 C 
ATOM     32  C   UNL     1     -11.299 -15.052  30.011  1.00  0.00     0.004 C 
ENDBRANCH  30  31
ENDBRANCH  29  30
ENDBRANCH  28  29
ENDBRANCH  27  28
ENDBRANCH  26  27
ENDBRANCH  25  26
ENDBRANCH  24  25
ENDBRANCH  23  24
ENDBRANCH  22  23
ENDBRANCH  21  22
ENDBRANCH  20  21
ENDBRANCH  19  20
ENDBRANCH  18  19
ENDBRANCH   1  18
TORSDOF 28
ENDMDL
MODEL 6
REMARK VINA RESULT:    -4.155      1.873      6.691
REMARK INTER + INTRA:         -16.217
REMARK INTER:                 -10.756
REMARK INTRA:                  -5.461
REMARK UNBOUND:                -5.261
REMARK SMILES CCCCCCCCCCCCCCCCCCCCCCCCCCCCCC(=O)[O-]
REMARK SMILES IDX 16 1 17 2 18 3 19 4 20 5 21 6 22 7 23 8 24 9 25 10 26 11
REMARK SMILES IDX 27 12 28 13 29 14 30 15 31 16 32 17 15 18 14 19 13 20 12 21
REMARK SMILES IDX 11 22 10 23 9 24 8 25 7 26 6 27 5 28 4 29 3 30 2 31 1 32
REMARK H PARENT
REMARK Flexibility Score: inf
ROOT
ATOM      1  C   UNL     1     -11.560  -9.202  26.751  1.00  0.00     0.000 C 
ENDROOT
BRANCH   1   2
ATOM      2  C   UNL     1     -12.582  -8.358  25.968  1.00  0.00     0.000 C 
BRANCH   2   3
ATOM      3  C   UNL     1     -14.022  -8.392  26.521  1.00  0.00     0.000 C 
BRANCH   3   4
ATOM      4  C   UNL     1     -15.119  -8.025  25.505  1.00  0.00     0.000 C 
BRANCH   4   5
ATOM      5  C   UNL     1     -15.907  -6.747  25.847  1.00  0.00     0.000 C 
BRANCH   5   6
ATOM      6  C   UNL     1     -15.836  -5.666  24.745  1.00  0.00     0.000 C 
BRANCH   6   7
ATOM      7  C   UNL     1     -14.426  -5.536  24.142  1.00  0.00     0.000 C 
BRANCH   7   8
ATOM      8  C   UNL     1     -14.437  -5.567  22.599  1.00  0.00     0.000 C 
BRANCH   8   9
ATOM      9  C   UNL     1     -14.415  -6.987  22.003  1.00  0.00     0.000 C 
BRANCH   9  10
ATOM     10  C   UNL     1     -13.154  -7.812  22.323  1.00  0.00     0.000 C 
BRANCH  10  11
ATOM     11  C   UNL     1     -13.211  -9.288  21.883  1.00  0.00     0.000 C 
BRANCH  11  12
ATOM     12  C   UNL     1     -14.219 -10.160  22.657  1.00  0.00     0.000 C 
BRANCH  12  13
ATOM     13  C   UNL     1     -13.564 -11.110  23.684  1.00  0.00     0.006 C 
BRANCH  13  14
ATOM     14  C   UNL     1     -12.196 -11.625  23.218  1.00  0.00     0.053 C 
BRANCH  14  15
ATOM     15  C   UNL     1     -12.313 -13.021  22.695  1.00  0.00     0.041 C 
ATOM     16  O   UNL     1     -11.649 -13.378  21.688  1.00  0.00    -0.550 OA
ATOM     17  O   UNL     1     -13.130 -13.940  23.343  1.00  0.00    -0.550 OA
ENDBRANCH  14  15
ENDBRANCH  13  14
ENDBRANCH  12  13
ENDBRANCH  11  12
ENDBRANCH  10  11
ENDBRANCH   9  10
ENDBRANCH   8   9
ENDBRANCH   7   8
ENDBRANCH   6   7
ENDBRANCH   5   6
ENDBRANCH   4   5
ENDBRANCH   3   4
ENDBRANCH   2   3
ENDBRANCH   1   2
BRANCH   1  18
ATOM     18  C   UNL     1     -11.601  -8.943  28.264  1.00  0.00     0.000 C 
BRANCH  18  19
ATOM     19  C   UNL     1     -11.820 -10.250  29.041  1.00  0.00     0.000 C 
BRANCH  19  20
ATOM     20  C   UNL     1     -13.307 -10.538  29.318  1.00  0.00     0.000 C 
BRANCH  20  21
ATOM     21  C   UNL     1     -13.809 -11.909  28.821  1.00  0.00     0.000 C 
BRANCH  21  22
ATOM     22  C   UNL     1     -13.663 -12.144  27.306  1.00  0.00     0.000 C 
BRANCH  22  23
ATOM     23  C   UNL     1     -12.772 -13.349  26.973  1.00  0.00     0.000 C 
BRANCH  23  24
ATOM     24  C   UNL     1     -11.399 -12.894  26.457  1.00  0.00    -0.000 C 
BRANCH  24  25
ATOM     25  C   UNL     1     -10.232 -13.515  27.242  1.00  0.00    -0.000 C 
BRANCH  25  26
ATOM     26  C   UNL     1      -9.576 -14.688  26.499  1.00  0.00    -0.000 C 
BRANCH  26  27
ATOM     27  C   UNL     1     -10.176 -14.852  25.095  1.00  0.00    -0.000 C 
BRANCH  27  28
ATOM     28  C   UNL     1     -10.686 -16.280  24.827  1.00  0.00    -0.000 C 
BRANCH  28  29
ATOM     29  C   UNL     1     -11.729 -16.797  25.838  1.00  0.00    -0.000 C 
BRANCH  29  30
ATOM     30  C   UNL     1     -11.226 -17.900  26.791  1.00  0.00    -0.000 C 
BRANCH  30  31
ATOM     31  C   UNL     1     -11.200 -17.507  28.279  1.00  0.00    -0.003 C 
ATOM     32  C   UNL     1     -12.329 -16.549  28.661  1.00  0.00     0.004 C 
ENDBRANCH  30  31
ENDBRANCH  29  30
ENDBRANCH  28  29
ENDBRANCH  27  28
ENDBRANCH  26  27
ENDBRANCH  25  26
ENDBRANCH  24  25
ENDBRANCH  23  24
ENDBRANCH  22  23
ENDBRANCH  21  22
ENDBRANCH  20  21
ENDBRANCH  19  20
ENDBRANCH  18  19
ENDBRANCH   1  18
TORSDOF 28
ENDMDL
MODEL 7
REMARK VINA RESULT:    -4.144      2.787      5.441
REMARK INTER + INTRA:         -16.188
REMARK INTER:                  -9.853
REMARK INTRA:                  -6.335
REMARK UNBOUND:                -5.261
REMARK SMILES CCCCCCCCCCCCCCCCCCCCCCCCCCCCCC(=O)[O-]
REMARK SMILES IDX 16 1 17 2 18 3 19 4 20 5 21 6 22 7 23 8 24 9 25 10 26 11
REMARK SMILES IDX 27 12 28 13 29 14 30 15 31 16 32 17 15 18 14 19 13 20 12 21
REMARK SMILES IDX 11 22 10 23 9 24 8 25 7 26 6 27 5 28 4 29 3 30 2 31 1 32
REMARK H PARENT
REMARK Flexibility Score: inf
ROOT
ATOM      1  C   UNL     1     -14.591 -10.879  24.407  1.00  0.00     0.000 C 
ENDROOT
BRANCH   1   2
ATOM      2  C   UNL     1     -15.374 -11.940  25.202  1.00  0.00     0.000 C 
BRANCH   2   3
ATOM      3  C   UNL     1     -14.652 -13.292  25.380  1.00  0.00     0.000 C 
BRANCH   3   4
ATOM      4  C   UNL     1     -15.448 -14.523  24.909  1.00  0.00     0.000 C 
BRANCH   4   5
ATOM      5  C   UNL     1     -14.930 -15.868  25.453  1.00  0.00     0.000 C 
BRANCH   5   6
ATOM      6  C   UNL     1     -13.463 -15.814  25.934  1.00  0.00     0.000 C 
BRANCH   6   7
ATOM      7  C   UNL     1     -12.838 -17.214  26.064  1.00  0.00     0.000 C 
BRANCH   7   8
ATOM      8  C   UNL     1     -11.296 -17.182  26.001  1.00  0.00     0.000 C 
BRANCH   8   9
ATOM      9  C   UNL     1     -10.723 -15.893  25.383  1.00  0.00     0.000 C 
BRANCH   9  10
ATOM     10  C   UNL     1      -9.301 -15.521  25.844  1.00  0.00     0.000 C 
BRANCH  10  11
ATOM     11  C   UNL     1      -8.928 -16.003  27.260  1.00  0.00     0.000 C 
BRANCH  11  12
ATOM     12  C   UNL     1      -9.425 -15.102  28.407  1.00  0.00     0.000 C 
BRANCH  12  13
ATOM     13  C   UNL     1     -10.319 -15.832  29.432  1.00  0.00     0.006 C 
BRANCH  13  14
ATOM     14  C   UNL     1     -11.804 -15.485  29.271  1.00  0.00     0.053 C 
BRANCH  14  15
ATOM     15  C   UNL     1     -12.419 -15.184  30.600  1.00  0.00     0.041 C 
ATOM     16  O   UNL     1     -13.198 -16.011  31.141  1.00  0.00    -0.550 OA
ATOM     17  O   UNL     1     -12.104 -14.002  31.260  1.00  0.00    -0.550 OA
ENDBRANCH  14  15
ENDBRANCH  13  14
ENDBRANCH  12  13
ENDBRANCH  11  12
ENDBRANCH  10  11
ENDBRANCH   9  10
ENDBRANCH   8   9
ENDBRANCH   7   8
ENDBRANCH   6   7
ENDBRANCH   5   6
ENDBRANCH   4   5
ENDBRANCH   3   4
ENDBRANCH   2   3
ENDBRANCH   1   2
BRANCH   1  18
ATOM     18  C   UNL     1     -14.111  -9.710  25.280  1.00  0.00     0.000 C 
BRANCH  18  19
ATOM     19  C   UNL     1     -12.823  -9.094  24.714  1.00  0.00     0.000 C 
BRANCH  19  20
ATOM     20  C   UNL     1     -12.205  -8.039  25.649  1.00  0.00     0.000 C 
BRANCH  20  21
ATOM     21  C   UNL     1     -11.269  -8.601  26.738  1.00  0.00     0.000 C 
BRANCH  21  22
ATOM     22  C   UNL     1     -11.688  -8.279  28.184  1.00  0.00     0.000 C 
BRANCH  22  23
ATOM     23  C   UNL     1     -11.720  -9.521  29.086  1.00  0.00     0.000 C 
BRANCH  23  24
ATOM     24  C   UNL     1     -12.555 -10.642  28.451  1.00  0.00    -0.000 C 
BRANCH  24  25
ATOM     25  C   UNL     1     -11.782 -11.967  28.337  1.00  0.00    -0.000 C 
BRANCH  25  26
ATOM     26  C   UNL     1     -11.669 -12.464  26.889  1.00  0.00    -0.000 C 
BRANCH  26  27
ATOM     27  C   UNL     1     -10.267 -12.194  26.324  1.00  0.00    -0.000 C 
BRANCH  27  28
ATOM     28  C   UNL     1     -10.300 -11.556  24.924  1.00  0.00    -0.000 C 
BRANCH  28  29
ATOM     29  C   UNL     1     -10.349 -12.559  23.754  1.00  0.00    -0.000 C 
BRANCH  29  30
ATOM     30  C   UNL     1     -11.659 -12.553  22.941  1.00  0.00    -0.000 C 
BRANCH  30  31
ATOM     31  C   UNL     1     -12.296 -13.938  22.732  1.00  0.00    -0.003 C 
ATOM     32  C   UNL     1     -13.508 -13.902  21.800  1.00  0.00     0.004 C 
ENDBRANCH  30  31
ENDBRANCH  29  30
ENDBRANCH  28  29
ENDBRANCH  27  28
ENDBRANCH  26  27
ENDBRANCH  25  26
ENDBRANCH  24  25
ENDBRANCH  23  24
ENDBRANCH  22  23
ENDBRANCH  21  22
ENDBRANCH  20  21
ENDBRANCH  19  20
ENDBRANCH  18  19
ENDBRANCH   1  18
TORSDOF 28
ENDMDL
MODEL 8
REMARK VINA RESULT:    -4.129      2.887      7.246
REMARK INTER + INTRA:         -16.149
REMARK INTER:                 -10.350
REMARK INTRA:                  -5.800
REMARK UNBOUND:                -5.261
REMARK SMILES CCCCCCCCCCCCCCCCCCCCCCCCCCCCCC(=O)[O-]
REMARK SMILES IDX 16 1 17 2 18 3 19 4 20 5 21 6 22 7 23 8 24 9 25 10 26 11
REMARK SMILES IDX 27 12 28 13 29 14 30 15 31 16 32 17 15 18 14 19 13 20 12 21
REMARK SMILES IDX 11 22 10 23 9 24 8 25 7 26 6 27 5 28 4 29 3 30 2 31 1 32
REMARK H PARENT
REMARK Flexibility Score: inf
ROOT
ATOM      1  C   UNL     1     -13.617 -13.128  31.044  1.00  0.00     0.000 C 
ENDROOT
BRANCH   1   2
ATOM      2  C   UNL     1     -13.815 -12.481  29.662  1.00  0.00     0.000 C 
BRANCH   2   3
ATOM      3  C   UNL     1     -13.562 -10.960  29.607  1.00  0.00     0.000 C 
BRANCH   3   4
ATOM      4  C   UNL     1     -12.270 -10.489  30.299  1.00  0.00     0.000 C 
BRANCH   4   5
ATOM      5  C   UNL     1     -11.297  -9.720  29.386  1.00  0.00     0.000 C 
BRANCH   5   6
ATOM      6  C   UNL     1     -11.524  -9.985  27.881  1.00  0.00     0.000 C 
BRANCH   6   7
ATOM      7  C   UNL     1     -11.300  -8.727  27.024  1.00  0.00     0.000 C 
BRANCH   7   8
ATOM      8  C   UNL     1     -12.525  -8.379  26.151  1.00  0.00     0.000 C 
BRANCH   8   9
ATOM      9  C   UNL     1     -13.869  -8.462  26.901  1.00  0.00     0.000 C 
BRANCH   9  10
ATOM     10  C   UNL     1     -14.905  -9.419  26.281  1.00  0.00     0.000 C 
BRANCH  10  11
ATOM     11  C   UNL     1     -14.408 -10.859  26.050  1.00  0.00     0.000 C 
BRANCH  11  12
ATOM     12  C   UNL     1     -15.174 -11.649  24.971  1.00  0.00     0.000 C 
BRANCH  12  13
ATOM     13  C   UNL     1     -14.385 -11.838  23.657  1.00  0.00     0.006 C 
BRANCH  13  14
ATOM     14  C   UNL     1     -13.047 -11.088  23.662  1.00  0.00     0.053 C 
BRANCH  14  15
ATOM     15  C   UNL     1     -12.977 -10.137  22.509  1.00  0.00     0.041 C 
ATOM     16  O   UNL     1     -12.810 -10.570  21.339  1.00  0.00    -0.550 OA
ATOM     17  O   UNL     1     -13.130  -8.773  22.724  1.00  0.00    -0.550 OA
ENDBRANCH  14  15
ENDBRANCH  13  14
ENDBRANCH  12  13
ENDBRANCH  11  12
ENDBRANCH  10  11
ENDBRANCH   9  10
ENDBRANCH   8   9
ENDBRANCH   7   8
ENDBRANCH   6   7
ENDBRANCH   5   6
ENDBRANCH   4   5
ENDBRANCH   3   4
ENDBRANCH   2   3
ENDBRANCH   1   2
BRANCH   1  18
ATOM     18  C   UNL     1     -13.099 -14.572  30.962  1.00  0.00     0.000 C 
BRANCH  18  19
ATOM     19  C   UNL     1     -12.479 -14.857  29.586  1.00  0.00     0.000 C 
BRANCH  19  20
ATOM     20  C   UNL     1     -10.949 -14.691  29.574  1.00  0.00     0.000 C 
BRANCH  20  21
ATOM     21  C   UNL     1     -10.433 -13.456  28.808  1.00  0.00     0.000 C 
BRANCH  21  22
ATOM     22  C   UNL     1      -9.530 -13.772  27.600  1.00  0.00     0.000 C 
BRANCH  22  23
ATOM     23  C   UNL     1     -10.132 -13.301  26.268  1.00  0.00     0.000 C 
BRANCH  23  24
ATOM     24  C   UNL     1     -11.666 -13.301  26.325  1.00  0.00    -0.000 C 
BRANCH  24  25
ATOM     25  C   UNL     1     -12.295 -14.344  25.387  1.00  0.00    -0.000 C 
BRANCH  25  26
ATOM     26  C   UNL     1     -13.373 -15.191  26.080  1.00  0.00    -0.000 C 
BRANCH  26  27
ATOM     27  C   UNL     1     -13.026 -16.686  26.009  1.00  0.00    -0.000 C 
BRANCH  27  28
ATOM     28  C   UNL     1     -11.535 -16.939  25.725  1.00  0.00    -0.000 C 
BRANCH  28  29
ATOM     29  C   UNL     1     -10.676 -17.225  26.973  1.00  0.00    -0.000 C 
BRANCH  29  30
ATOM     30  C   UNL     1     -10.909 -18.601  27.627  1.00  0.00    -0.000 C 
BRANCH  30  31
ATOM     31  C   UNL     1      -9.992 -18.912  28.824  1.00  0.00    -0.003 C 
ATOM     32  C   UNL     1     -10.760 -19.418  30.046  1.00  0.00     0.004 C 
ENDBRANCH  30  31
ENDBRANCH  29  30
ENDBRANCH  28  29
ENDBRANCH  27  28
ENDBRANCH  26  27
ENDBRANCH  25  26
ENDBRANCH  24  25
ENDBRANCH  23  24
ENDBRANCH  22  23
ENDBRANCH  21  22
ENDBRANCH  20  21
ENDBRANCH  19  20
ENDBRANCH  18  19
ENDBRANCH   1  18
TORSDOF 28
ENDMDL
MODEL 9
REMARK VINA RESULT:    -4.129      2.303      4.492
REMARK INTER + INTRA:         -16.148
REMARK INTER:                  -9.789
REMARK INTRA:                  -6.359
REMARK UNBOUND:                -5.261
REMARK SMILES CCCCCCCCCCCCCCCCCCCCCCCCCCCCCC(=O)[O-]
REMARK SMILES IDX 16 1 17 2 18 3 19 4 20 5 21 6 22 7 23 8 24 9 25 10 26 11
REMARK SMILES IDX 27 12 28 13 29 14 30 15 31 16 32 17 15 18 14 19 13 20 12 21
REMARK SMILES IDX 11 22 10 23 9 24 8 25 7 26 6 27 5 28 4 29 3 30 2 31 1 32
REMARK H PARENT
REMARK Flexibility Score: inf
ROOT
ATOM      1  C   UNL     1     -12.762 -12.158  26.757  1.00  0.00     0.000 C 
ENDROOT
BRANCH   1   2
ATOM      2  C   UNL     1     -11.370 -12.650  27.193  1.00  0.00     0.000 C 
BRANCH   2   3
ATOM      3  C   UNL     1     -10.242 -12.423  26.165  1.00  0.00     0.000 C 
BRANCH   3   4
ATOM      4  C   UNL     1     -10.667 -11.685  24.882  1.00  0.00     0.000 C 
BRANCH   4   5
ATOM      5  C   UNL     1     -10.381 -12.450  23.577  1.00  0.00     0.000 C 
BRANCH   5   6
ATOM      6  C   UNL     1     -11.644 -12.716  22.728  1.00  0.00     0.000 C 
BRANCH   6   7
ATOM      7  C   UNL     1     -12.101 -14.183  22.801  1.00  0.00     0.000 C 
BRANCH   7   8
ATOM      8  C   UNL     1     -13.134 -14.428  23.921  1.00  0.00     0.000 C 
BRANCH   8   9
ATOM      9  C   UNL     1     -12.635 -15.367  25.035  1.00  0.00     0.000 C 
BRANCH   9  10
ATOM     10  C   UNL     1     -11.191 -15.877  24.864  1.00  0.00     0.000 C 
BRANCH  10  11
ATOM     11  C   UNL     1     -10.465 -16.232  26.176  1.00  0.00     0.000 C 
BRANCH  11  12
ATOM     12  C   UNL     1     -10.871 -17.581  26.802  1.00  0.00     0.000 C 
BRANCH  12  13
ATOM     13  C   UNL     1     -11.599 -17.445  28.157  1.00  0.00     0.006 C 
BRANCH  13  14
ATOM     14  C   UNL     1     -11.755 -15.984  28.598  1.00  0.00     0.053 C 
BRANCH  14  15
ATOM     15  C   UNL     1     -10.896 -15.703  29.790  1.00  0.00     0.041 C 
ATOM     16  O   UNL     1     -10.511 -14.529  30.031  1.00  0.00    -0.550 OA
ATOM     17  O   UNL     1     -10.549 -16.734  30.655  1.00  0.00    -0.550 OA
ENDBRANCH  14  15
ENDBRANCH  13  14
ENDBRANCH  12  13
ENDBRANCH  11  12
ENDBRANCH  10  11
ENDBRANCH   9  10
ENDBRANCH   8   9
ENDBRANCH   7   8
ENDBRANCH   6   7
ENDBRANCH   5   6
ENDBRANCH   4   5
ENDBRANCH   3   4
ENDBRANCH   2   3
ENDBRANCH   1   2
BRANCH   1  18
ATOM     18  C   UNL     1     -13.699 -11.881  27.942  1.00  0.00     0.000 C 
BRANCH  18  19
ATOM     19  C   UNL     1     -12.922 -11.872  29.267  1.00  0.00     0.000 C 
BRANCH  19  20
ATOM     20  C   UNL     1     -12.796 -10.463  29.875  1.00  0.00     0.000 C 
BRANCH  20  21
ATOM     21  C   UNL     1     -11.491  -9.718  29.531  1.00  0.00     0.000 C 
BRANCH  21  22
ATOM     22  C   UNL     1     -11.654  -8.535  28.559  1.00  0.00     0.000 C 
BRANCH  22  23
ATOM     23  C   UNL     1     -11.099  -8.833  27.159  1.00  0.00     0.000 C 
BRANCH  23  24
ATOM     24  C   UNL     1     -12.113  -8.454  26.071  1.00  0.00    -0.000 C 
BRANCH  24  25
ATOM     25  C   UNL     1     -13.546  -8.323  26.614  1.00  0.00    -0.000 C 
BRANCH  25  26
ATOM     26  C   UNL     1     -14.449  -7.477  25.705  1.00  0.00    -0.000 C 
BRANCH  26  27
ATOM     27  C   UNL     1     -15.608  -8.316  25.147  1.00  0.00    -0.000 C 
BRANCH  27  28
ATOM     28  C   UNL     1     -15.807  -9.639  25.909  1.00  0.00    -0.000 C 
BRANCH  28  29
ATOM     29  C   UNL     1     -15.914 -10.892  25.017  1.00  0.00    -0.000 C 
BRANCH  29  30
ATOM     30  C   UNL     1     -14.838 -11.008  23.919  1.00  0.00    -0.000 C 
BRANCH  30  31
ATOM     31  C   UNL     1     -15.266 -11.810  22.677  1.00  0.00    -0.003 C 
ATOM     32  C   UNL     1     -14.786 -11.181  21.368  1.00  0.00     0.004 C 
ENDBRANCH  30  31
ENDBRANCH  29  30
ENDBRANCH  28  29
ENDBRANCH  27  28
ENDBRANCH  26  27
ENDBRANCH  25  26
ENDBRANCH  24  25
ENDBRANCH  23  24
ENDBRANCH  22  23
ENDBRANCH  21  22
ENDBRANCH  20  21
ENDBRANCH  19  20
ENDBRANCH  18  19
ENDBRANCH   1  18
TORSDOF 28
ENDMDL
