MODEL 1
REMARK VINA RESULT:    -7.140      0.000      0.000
REMARK INTER + INTRA:          -8.245
REMARK INTER:                  -7.767
REMARK INTRA:                  -0.479
REMARK UNBOUND:                -0.479
REMARK SMILES C=C(C)[C@H]1CC[C@@]2(C)CC[C@@]3(C)[C@H](CC[C@H]4[C@]5(C)CC[C@H](O)C(C)(C)[C@@H]5CC[C@@]43C)[C@H]12
REMARK SMILES IDX 4 1 5 2 6 3 7 4 31 5 13 6 14 7 15 8 16 9 17 10 19 11 20 12
REMARK SMILES IDX 21 13 23 14 26 15 27 16 28 17 29 18 11 19 10 20 9 21 12 22
REMARK SMILES IDX 30 23 24 24 25 25 18 26 8 27 2 28 3 29 1 30 22 31
REMARK H PARENT 22 32
REMARK Flexibility Score: inf
ROOT
ATOM      1  C   UNL     1       1.748 -20.758  -4.421  1.00  0.00     0.018 C 
ATOM      2  C   UNL     1       1.074 -20.973  -5.801  1.00  0.00     0.009 C 
ATOM      3  C   UNL     1       1.907 -20.174  -6.831  1.00  0.00     0.008 C 
ATOM      4  C   UNL     1       3.270 -19.941  -6.147  1.00  0.00    -0.029 C 
ATOM      5  C   UNL     1       2.790 -19.677  -4.712  1.00  0.00     0.006 C 
ATOM      6  C   UNL     1       3.892 -19.322  -3.685  1.00  0.00    -0.000 C 
ATOM      7  C   UNL     1       4.679 -20.555  -3.148  1.00  0.00     0.005 C 
ATOM      8  C   UNL     1       6.130 -20.335  -2.703  1.00  0.00     0.005 C 
ATOM      9  C   UNL     1       6.535 -18.854  -2.526  1.00  0.00     0.002 C 
ATOM     10  C   UNL     1       7.947 -18.693  -1.773  1.00  0.00    -0.026 C 
ATOM     11  C   UNL     1       7.749 -19.116  -0.272  1.00  0.00     0.010 C 
ATOM     12  C   UNL     1       8.814 -18.550   0.664  1.00  0.00     0.033 C 
ATOM     13  C   UNL     1       8.820 -17.004   0.703  1.00  0.00     0.120 C 
ATOM     14  C   UNL     1       8.245 -16.289  -0.587  1.00  0.00    -0.006 C 
ATOM     15  C   UNL     1       8.523 -17.219  -1.848  1.00  0.00     0.003 C 
ATOM     16  C   UNL     1       8.337 -16.598  -3.255  1.00  0.00     0.005 C 
ATOM     17  C   UNL     1       6.899 -16.632  -3.761  1.00  0.00     0.008 C 
ATOM     18  C   UNL     1       6.278 -18.063  -3.873  1.00  0.00    -0.024 C 
ATOM     19  C   UNL     1       4.675 -17.993  -4.143  1.00  0.00    -0.024 C 
ATOM     20  C   UNL     1       4.326 -17.589  -5.649  1.00  0.00     0.008 C 
ATOM     21  C   UNL     1       4.085 -18.724  -6.681  1.00  0.00     0.007 C 
ATOM     22  C   UNL     1       4.026 -16.833  -3.302  1.00  0.00     0.012 C 
ATOM     23  C   UNL     1       6.980 -18.753  -5.082  1.00  0.00     0.012 C 
ATOM     24  C   UNL     1       9.013 -14.944  -0.726  1.00  0.00     0.014 C 
ATOM     25  C   UNL     1       6.748 -15.913  -0.403  1.00  0.00     0.014 C 
ATOM     26  C   UNL     1       9.034 -19.662  -2.351  1.00  0.00     0.012 C 
ATOM     27  C   UNL     1       4.099 -21.244  -6.360  1.00  0.00     0.011 C 
ENDROOT
BRANCH   1  28
ATOM     28  C   UNL     1       0.770 -20.359  -3.320  1.00  0.00    -0.077 C 
ATOM     29  C   UNL     1       0.477 -21.265  -2.148  1.00  0.00     0.039 C 
ATOM     30  C   UNL     1       0.106 -19.197  -3.410  1.00  0.00     0.008 C 
ENDBRANCH   1  28
BRANCH  13  31
ATOM     31  O   UNL     1       8.230 -16.524   1.890  1.00  0.00    -0.393 OA
ATOM     32  H   UNL     1       8.906 -16.578   2.613  1.00  0.00     0.210 HD
ENDBRANCH  13  31
TORSDOF 2
ENDMDL
MODEL 2
REMARK VINA RESULT:    -6.450     10.736     14.125
REMARK INTER + INTRA:          -7.494
REMARK INTER:                  -7.390
REMARK INTRA:                  -0.104
REMARK UNBOUND:                -0.479
REMARK SMILES C=C(C)[C@H]1CC[C@@]2(C)CC[C@@]3(C)[C@H](CC[C@H]4[C@]5(C)CC[C@H](O)C(C)(C)[C@@H]5CC[C@@]43C)[C@H]12
REMARK SMILES IDX 4 1 5 2 6 3 7 4 31 5 13 6 14 7 15 8 16 9 17 10 19 11 20 12
REMARK SMILES IDX 21 13 23 14 26 15 27 16 28 17 29 18 11 19 10 20 9 21 12 22
REMARK SMILES IDX 30 23 24 24 25 25 18 26 8 27 2 28 3 29 1 30 22 31
REMARK H PARENT 22 32
REMARK Flexibility Score: inf
ROOT
ATOM      1  C   UNL     1       4.736 -23.627   7.370  1.00  0.00     0.018 C 
ATOM      2  C   UNL     1       5.412 -22.315   6.895  1.00  0.00     0.009 C 
ATOM      3  C   UNL     1       5.890 -22.562   5.444  1.00  0.00     0.008 C 
ATOM      4  C   UNL     1       5.071 -23.775   4.956  1.00  0.00    -0.029 C 
ATOM      5  C   UNL     1       5.064 -24.610   6.245  1.00  0.00     0.006 C 
ATOM      6  C   UNL     1       4.370 -25.990   6.152  1.00  0.00    -0.000 C 
ATOM      7  C   UNL     1       2.817 -25.926   6.237  1.00  0.00     0.005 C 
ATOM      8  C   UNL     1       2.018 -27.022   5.521  1.00  0.00     0.005 C 
ATOM      9  C   UNL     1       2.852 -28.248   5.083  1.00  0.00     0.002 C 
ATOM     10  C   UNL     1       1.928 -29.481   4.623  1.00  0.00    -0.026 C 
ATOM     11  C   UNL     1       1.220 -30.061   5.901  1.00  0.00     0.010 C 
ATOM     12  C   UNL     1       0.737 -31.499   5.728  1.00  0.00     0.033 C 
ATOM     13  C   UNL     1       1.891 -32.491   5.451  1.00  0.00     0.120 C 
ATOM     14  C   UNL     1       3.185 -31.862   4.791  1.00  0.00    -0.006 C 
ATOM     15  C   UNL     1       2.744 -30.625   3.891  1.00  0.00     0.003 C 
ATOM     16  C   UNL     1       3.787 -30.047   2.902  1.00  0.00     0.005 C 
ATOM     17  C   UNL     1       4.739 -29.034   3.529  1.00  0.00     0.008 C 
ATOM     18  C   UNL     1       4.043 -27.780   4.152  1.00  0.00    -0.024 C 
ATOM     19  C   UNL     1       5.088 -26.901   5.037  1.00  0.00    -0.024 C 
ATOM     20  C   UNL     1       6.092 -26.050   4.131  1.00  0.00     0.008 C 
ATOM     21  C   UNL     1       5.711 -24.584   3.787  1.00  0.00     0.007 C 
ATOM     22  C   UNL     1       6.052 -27.846   5.847  1.00  0.00     0.012 C 
ATOM     23  C   UNL     1       3.529 -26.924   2.954  1.00  0.00     0.012 C 
ATOM     24  C   UNL     1       3.817 -32.975   3.908  1.00  0.00     0.014 C 
ATOM     25  C   UNL     1       4.251 -31.508   5.866  1.00  0.00     0.014 C 
ATOM     26  C   UNL     1       0.776 -29.027   3.664  1.00  0.00     0.012 C 
ATOM     27  C   UNL     1       3.690 -23.218   4.495  1.00  0.00     0.011 C 
ENDROOT
BRANCH   1  28
ATOM     28  C   UNL     1       5.222 -24.103   8.735  1.00  0.00    -0.077 C 
ATOM     29  C   UNL     1       5.465 -25.565   9.028  1.00  0.00     0.039 C 
ATOM     30  C   UNL     1       5.394 -23.217   9.727  1.00  0.00     0.008 C 
ENDBRANCH   1  28
BRANCH  13  31
ATOM     31  O   UNL     1       2.191 -33.254   6.597  1.00  0.00    -0.393 OA
ATOM     32  H   UNL     1       2.516 -34.143   6.300  1.00  0.00     0.210 HD
ENDBRANCH  13  31
TORSDOF 2
ENDMDL
MODEL 3
REMARK VINA RESULT:    -6.440     11.895     14.359
REMARK INTER + INTRA:          -7.484
REMARK INTER:                  -7.052
REMARK INTRA:                  -0.432
REMARK UNBOUND:                -0.479
REMARK SMILES C=C(C)[C@H]1CC[C@@]2(C)CC[C@@]3(C)[C@H](CC[C@H]4[C@]5(C)CC[C@H](O)C(C)(C)[C@@H]5CC[C@@]43C)[C@H]12
REMARK SMILES IDX 4 1 5 2 6 3 7 4 31 5 13 6 14 7 15 8 16 9 17 10 19 11 20 12
REMARK SMILES IDX 21 13 23 14 26 15 27 16 28 17 29 18 11 19 10 20 9 21 12 22
REMARK SMILES IDX 30 23 24 24 25 25 18 26 8 27 2 28 3 29 1 30 22 31
REMARK H PARENT 22 32
REMARK Flexibility Score: inf
ROOT
ATOM      1  C   UNL     1       1.206 -30.600   5.050  1.00  0.00     0.018 C 
ATOM      2  C   UNL     1       0.287 -31.643   5.736  1.00  0.00     0.009 C 
ATOM      3  C   UNL     1       0.912 -33.032   5.467  1.00  0.00     0.008 C 
ATOM      4  C   UNL     1       2.378 -32.742   5.086  1.00  0.00    -0.029 C 
ATOM      5  C   UNL     1       2.174 -31.471   4.247  1.00  0.00     0.006 C 
ATOM      6  C   UNL     1       3.449 -30.876   3.602  1.00  0.00    -0.000 C 
ATOM      7  C   UNL     1       4.324 -30.038   4.581  1.00  0.00     0.005 C 
ATOM      8  C   UNL     1       5.832 -29.974   4.313  1.00  0.00     0.005 C 
ATOM      9  C   UNL     1       6.261 -30.472   2.914  1.00  0.00     0.002 C 
ATOM     10  C   UNL     1       7.789 -30.100   2.576  1.00  0.00    -0.026 C 
ATOM     11  C   UNL     1       7.876 -28.545   2.363  1.00  0.00     0.010 C 
ATOM     12  C   UNL     1       9.097 -28.110   1.557  1.00  0.00     0.033 C 
ATOM     13  C   UNL     1       9.108 -28.689   0.123  1.00  0.00     0.120 C 
ATOM     14  C   UNL     1       8.301 -30.037  -0.072  1.00  0.00    -0.006 C 
ATOM     15  C   UNL     1       8.340 -30.852   1.295  1.00  0.00     0.003 C 
ATOM     16  C   UNL     1       7.893 -32.336   1.261  1.00  0.00     0.005 C 
ATOM     17  C   UNL     1       6.386 -32.531   1.384  1.00  0.00     0.008 C 
ATOM     18  C   UNL     1       5.756 -31.956   2.695  1.00  0.00    -0.024 C 
ATOM     19  C   UNL     1       4.131 -31.952   2.619  1.00  0.00    -0.024 C 
ATOM     20  C   UNL     1       3.506 -33.410   2.810  1.00  0.00     0.008 C 
ATOM     21  C   UNL     1       3.078 -33.847   4.237  1.00  0.00     0.007 C 
ATOM     22  C   UNL     1       3.649 -31.543   1.177  1.00  0.00     0.012 C 
ATOM     23  C   UNL     1       6.220 -32.893   3.851  1.00  0.00     0.012 C 
ATOM     24  C   UNL     1       9.028 -30.829  -1.195  1.00  0.00     0.014 C 
ATOM     25  C   UNL     1       6.865 -29.763  -0.599  1.00  0.00     0.014 C 
ATOM     26  C   UNL     1       8.750 -30.424   3.770  1.00  0.00     0.012 C 
ATOM     27  C   UNL     1       3.153 -32.560   6.425  1.00  0.00     0.011 C 
ENDROOT
BRANCH   1  28
ATOM     28  C   UNL     1       0.451 -29.598   4.182  1.00  0.00    -0.077 C 
ATOM     29  C   UNL     1      -0.721 -30.013   3.323  1.00  0.00     0.039 C 
ATOM     30  C   UNL     1       0.859 -28.322   4.130  1.00  0.00     0.008 C 
ENDBRANCH   1  28
BRANCH  13  31
ATOM     31  O   UNL     1       8.750 -27.708  -0.824  1.00  0.00    -0.393 OA
ATOM     32  H   UNL     1       8.837 -28.106  -1.728  1.00  0.00     0.210 HD
ENDBRANCH  13  31
TORSDOF 2
ENDMDL
MODEL 4
REMARK VINA RESULT:    -6.417      3.028      6.170
REMARK INTER + INTRA:          -7.458
REMARK INTER:                  -6.960
REMARK INTRA:                  -0.498
REMARK UNBOUND:                -0.479
REMARK SMILES C=C(C)[C@H]1CC[C@@]2(C)CC[C@@]3(C)[C@H](CC[C@H]4[C@]5(C)CC[C@H](O)C(C)(C)[C@@H]5CC[C@@]43C)[C@H]12
REMARK SMILES IDX 4 1 5 2 6 3 7 4 31 5 13 6 14 7 15 8 16 9 17 10 19 11 20 12
REMARK SMILES IDX 21 13 23 14 26 15 27 16 28 17 29 18 11 19 10 20 9 21 12 22
REMARK SMILES IDX 30 23 24 24 25 25 18 26 8 27 2 28 3 29 1 30 22 31
REMARK H PARENT 22 32
REMARK Flexibility Score: inf
ROOT
ATOM      1  C   UNL     1       7.009 -19.638  -8.589  1.00  0.00     0.018 C 
ATOM      2  C   UNL     1       8.005 -20.787  -8.891  1.00  0.00     0.009 C 
ATOM      3  C   UNL     1       8.189 -21.574  -7.572  1.00  0.00     0.008 C 
ATOM      4  C   UNL     1       6.968 -21.195  -6.709  1.00  0.00    -0.029 C 
ATOM      5  C   UNL     1       6.857 -19.706  -7.069  1.00  0.00     0.006 C 
ATOM      6  C   UNL     1       5.749 -18.913  -6.333  1.00  0.00    -0.000 C 
ATOM      7  C   UNL     1       4.323 -19.119  -6.926  1.00  0.00     0.005 C 
ATOM      8  C   UNL     1       3.129 -18.978  -5.973  1.00  0.00     0.005 C 
ATOM      9  C   UNL     1       3.460 -18.321  -4.614  1.00  0.00     0.002 C 
ATOM     10  C   UNL     1       2.138 -17.922  -3.791  1.00  0.00    -0.026 C 
ATOM     11  C   UNL     1       1.450 -16.717  -4.530  1.00  0.00     0.010 C 
ATOM     12  C   UNL     1       0.511 -15.912  -3.634  1.00  0.00     0.033 C 
ATOM     13  C   UNL     1       1.238 -15.257  -2.436  1.00  0.00     0.120 C 
ATOM     14  C   UNL     1       2.570 -15.976  -1.973  1.00  0.00    -0.006 C 
ATOM     15  C   UNL     1       2.440 -17.532  -2.286  1.00  0.00     0.003 C 
ATOM     16  C   UNL     1       3.479 -18.484  -1.641  1.00  0.00     0.005 C 
ATOM     17  C   UNL     1       4.778 -18.607  -2.428  1.00  0.00     0.008 C 
ATOM     18  C   UNL     1       4.610 -19.135  -3.891  1.00  0.00    -0.024 C 
ATOM     19  C   UNL     1       5.986 -18.969  -4.743  1.00  0.00    -0.024 C 
ATOM     20  C   UNL     1       7.086 -20.057  -4.345  1.00  0.00     0.008 C 
ATOM     21  C   UNL     1       7.158 -21.370  -5.171  1.00  0.00     0.007 C 
ATOM     22  C   UNL     1       6.689 -17.606  -4.392  1.00  0.00     0.012 C 
ATOM     23  C   UNL     1       4.250 -20.647  -3.773  1.00  0.00     0.012 C 
ATOM     24  C   UNL     1       2.691 -15.740  -0.442  1.00  0.00     0.014 C 
ATOM     25  C   UNL     1       3.821 -15.310  -2.612  1.00  0.00     0.014 C 
ATOM     26  C   UNL     1       1.081 -19.079  -3.781  1.00  0.00     0.012 C 
ATOM     27  C   UNL     1       5.793 -22.102  -7.185  1.00  0.00     0.011 C 
ENDROOT
BRANCH   1  28
ATOM     28  C   UNL     1       7.486 -18.274  -9.077  1.00  0.00    -0.077 C 
ATOM     29  C   UNL     1       8.591 -17.519  -8.377  1.00  0.00     0.039 C 
ATOM     30  C   UNL     1       6.882 -17.693 -10.125  1.00  0.00     0.008 C 
ENDBRANCH   1  28
BRANCH  13  31
ATOM     31  O   UNL     1       1.420 -13.875  -2.647  1.00  0.00    -0.393 OA
ATOM     32  H   UNL     1       1.702 -13.741  -3.588  1.00  0.00     0.210 HD
ENDBRANCH  13  31
TORSDOF 2
ENDMDL
MODEL 5
REMARK VINA RESULT:    -6.212      2.554      7.524
REMARK INTER + INTRA:          -7.235
REMARK INTER:                  -6.803
REMARK INTRA:                  -0.433
REMARK UNBOUND:                -0.479
REMARK SMILES C=C(C)[C@H]1CC[C@@]2(C)CC[C@@]3(C)[C@H](CC[C@H]4[C@]5(C)CC[C@H](O)C(C)(C)[C@@H]5CC[C@@]43C)[C@H]12
REMARK SMILES IDX 4 1 5 2 6 3 7 4 31 5 13 6 14 7 15 8 16 9 17 10 19 11 20 12
REMARK SMILES IDX 21 13 23 14 26 15 27 16 28 17 29 18 11 19 10 20 9 21 12 22
REMARK SMILES IDX 30 23 24 24 25 25 18 26 8 27 2 28 3 29 1 30 22 31
REMARK H PARENT 22 32
REMARK Flexibility Score: inf
ROOT
ATOM      1  C   UNL     1       7.483 -17.047  -0.465  1.00  0.00     0.018 C 
ATOM      2  C   UNL     1       8.350 -15.795  -0.174  1.00  0.00     0.009 C 
ATOM      3  C   UNL     1       8.038 -14.770  -1.290  1.00  0.00     0.008 C 
ATOM      4  C   UNL     1       6.689 -15.225  -1.884  1.00  0.00    -0.029 C 
ATOM      5  C   UNL     1       6.897 -16.746  -1.846  1.00  0.00     0.006 C 
ATOM      6  C   UNL     1       5.750 -17.600  -2.439  1.00  0.00    -0.000 C 
ATOM      7  C   UNL     1       4.537 -17.785  -1.480  1.00  0.00     0.005 C 
ATOM      8  C   UNL     1       3.154 -17.990  -2.111  1.00  0.00     0.005 C 
ATOM      9  C   UNL     1       3.176 -18.322  -3.621  1.00  0.00     0.002 C 
ATOM     10  C   UNL     1       1.745 -18.823  -4.156  1.00  0.00    -0.026 C 
ATOM     11  C   UNL     1       1.473 -20.250  -3.555  1.00  0.00     0.010 C 
ATOM     12  C   UNL     1       0.443 -21.055  -4.343  1.00  0.00     0.033 C 
ATOM     13  C   UNL     1       0.886 -21.335  -5.799  1.00  0.00     0.120 C 
ATOM     14  C   UNL     1       1.915 -20.299  -6.408  1.00  0.00    -0.006 C 
ATOM     15  C   UNL     1       1.660 -18.878  -5.737  1.00  0.00     0.003 C 
ATOM     16  C   UNL     1       2.327 -17.643  -6.393  1.00  0.00     0.005 C 
ATOM     17  C   UNL     1       3.766 -17.405  -5.947  1.00  0.00     0.008 C 
ATOM     18  C   UNL     1       3.946 -17.185  -4.408  1.00  0.00    -0.024 C 
ATOM     19  C   UNL     1       5.516 -17.222  -3.985  1.00  0.00    -0.024 C 
ATOM     20  C   UNL     1       6.292 -15.887  -4.394  1.00  0.00     0.008 C 
ATOM     21  C   UNL     1       6.408 -14.750  -3.342  1.00  0.00     0.007 C 
ATOM     22  C   UNL     1       6.276 -18.339  -4.792  1.00  0.00     0.012 C 
ATOM     23  C   UNL     1       3.356 -15.776  -4.096  1.00  0.00     0.012 C 
ATOM     24  C   UNL     1       1.629 -20.236  -7.934  1.00  0.00     0.014 C 
ATOM     25  C   UNL     1       3.378 -20.807  -6.264  1.00  0.00     0.014 C 
ATOM     26  C   UNL     1       0.576 -17.913  -3.646  1.00  0.00     0.012 C 
ATOM     27  C   UNL     1       5.582 -14.663  -0.941  1.00  0.00     0.011 C 
ENDROOT
BRANCH   1  28
ATOM     28  C   UNL     1       8.267 -18.355  -0.425  1.00  0.00    -0.077 C 
ATOM     29  C   UNL     1       8.890 -18.948  -1.667  1.00  0.00     0.039 C 
ATOM     30  C   UNL     1       8.371 -19.034   0.727  1.00  0.00     0.008 C 
ENDBRANCH   1  28
BRANCH  13  31
ATOM     31  O   UNL     1       1.314 -22.669  -5.951  1.00  0.00    -0.393 OA
ATOM     32  H   UNL     1       2.258 -22.726  -5.652  1.00  0.00     0.210 HD
ENDBRANCH  13  31
TORSDOF 2
ENDMDL
MODEL 6
REMARK VINA RESULT:    -6.187      2.173      4.355
REMARK INTER + INTRA:          -7.208
REMARK INTER:                  -6.975
REMARK INTRA:                  -0.233
REMARK UNBOUND:                -0.479
REMARK SMILES C=C(C)[C@H]1CC[C@@]2(C)CC[C@@]3(C)[C@H](CC[C@H]4[C@]5(C)CC[C@H](O)C(C)(C)[C@@H]5CC[C@@]43C)[C@H]12
REMARK SMILES IDX 4 1 5 2 6 3 7 4 31 5 13 6 14 7 15 8 16 9 17 10 19 11 20 12
REMARK SMILES IDX 21 13 23 14 26 15 27 16 28 17 29 18 11 19 10 20 9 21 12 22
REMARK SMILES IDX 30 23 24 24 25 25 18 26 8 27 2 28 3 29 1 30 22 31
REMARK H PARENT 22 32
REMARK Flexibility Score: inf
ROOT
ATOM      1  C   UNL     1       1.160 -20.668  -6.024  1.00  0.00     0.018 C 
ATOM      2  C   UNL     1       0.105 -21.687  -5.521  1.00  0.00     0.009 C 
ATOM      3  C   UNL     1       0.293 -21.801  -3.990  1.00  0.00     0.008 C 
ATOM      4  C   UNL     1       1.071 -20.531  -3.588  1.00  0.00    -0.029 C 
ATOM      5  C   UNL     1       2.027 -20.431  -4.787  1.00  0.00     0.006 C 
ATOM      6  C   UNL     1       3.059 -19.278  -4.734  1.00  0.00    -0.000 C 
ATOM      7  C   UNL     1       2.479 -17.890  -5.135  1.00  0.00     0.005 C 
ATOM      8  C   UNL     1       3.124 -16.643  -4.517  1.00  0.00     0.005 C 
ATOM      9  C   UNL     1       4.486 -16.893  -3.829  1.00  0.00     0.002 C 
ATOM     10  C   UNL     1       5.251 -15.524  -3.476  1.00  0.00    -0.026 C 
ATOM     11  C   UNL     1       5.728 -14.871  -4.824  1.00  0.00     0.010 C 
ATOM     12  C   UNL     1       6.874 -13.878  -4.645  1.00  0.00     0.033 C 
ATOM     13  C   UNL     1       8.152 -14.533  -4.068  1.00  0.00     0.120 C 
ATOM     14  C   UNL     1       7.917 -15.841  -3.209  1.00  0.00    -0.006 C 
ATOM     15  C   UNL     1       6.490 -15.739  -2.511  1.00  0.00     0.003 C 
ATOM     16  C   UNL     1       6.170 -16.745  -1.378  1.00  0.00     0.005 C 
ATOM     17  C   UNL     1       5.643 -18.088  -1.872  1.00  0.00     0.008 C 
ATOM     18  C   UNL     1       4.327 -18.005  -2.714  1.00  0.00    -0.024 C 
ATOM     19  C   UNL     1       3.993 -19.426  -3.433  1.00  0.00    -0.024 C 
ATOM     20  C   UNL     1       3.418 -20.509  -2.408  1.00  0.00     0.008 C 
ATOM     21  C   UNL     1       1.877 -20.635  -2.257  1.00  0.00     0.007 C 
ATOM     22  C   UNL     1       5.315 -20.099  -3.959  1.00  0.00     0.012 C 
ATOM     23  C   UNL     1       3.187 -17.649  -1.712  1.00  0.00     0.012 C 
ATOM     24  C   UNL     1       9.042 -15.874  -2.137  1.00  0.00     0.014 C 
ATOM     25  C   UNL     1       8.104 -17.122  -4.070  1.00  0.00     0.014 C 
ATOM     26  C   UNL     1       4.300 -14.475  -2.805  1.00  0.00     0.012 C 
ATOM     27  C   UNL     1       0.017 -19.391  -3.458  1.00  0.00     0.011 C 
ENDROOT
BRANCH   1  28
ATOM     28  C   UNL     1       1.962 -21.163  -7.224  1.00  0.00    -0.077 C 
ATOM     29  C   UNL     1       3.456 -21.373  -7.152  1.00  0.00     0.039 C 
ATOM     30  C   UNL     1       1.345 -21.373  -8.397  1.00  0.00     0.008 C 
ENDBRANCH   1  28
BRANCH  13  31
ATOM     31  O   UNL     1       9.125 -14.717  -5.071  1.00  0.00    -0.393 OA
ATOM     32  H   UNL     1       8.807 -15.431  -5.682  1.00  0.00     0.210 HD
ENDBRANCH  13  31
TORSDOF 2
ENDMDL
MODEL 7
REMARK VINA RESULT:    -5.788      3.320      6.251
REMARK INTER + INTRA:          -6.775
REMARK INTER:                  -6.384
REMARK INTRA:                  -0.390
REMARK UNBOUND:                -0.479
REMARK SMILES C=C(C)[C@H]1CC[C@@]2(C)CC[C@@]3(C)[C@H](CC[C@H]4[C@]5(C)CC[C@H](O)C(C)(C)[C@@H]5CC[C@@]43C)[C@H]12
REMARK SMILES IDX 4 1 5 2 6 3 7 4 31 5 13 6 14 7 15 8 16 9 17 10 19 11 20 12
REMARK SMILES IDX 21 13 23 14 26 15 27 16 28 17 29 18 11 19 10 20 9 21 12 22
REMARK SMILES IDX 30 23 24 24 25 25 18 26 8 27 2 28 3 29 1 30 22 31
REMARK H PARENT 22 32
REMARK Flexibility Score: inf
ROOT
ATOM      1  C   UNL     1       2.442 -14.498  -3.278  1.00  0.00     0.018 C 
ATOM      2  C   UNL     1       1.572 -14.196  -2.032  1.00  0.00     0.009 C 
ATOM      3  C   UNL     1       1.559 -15.485  -1.176  1.00  0.00     0.008 C 
ATOM      4  C   UNL     1       2.776 -16.298  -1.663  1.00  0.00    -0.029 C 
ATOM      5  C   UNL     1       2.691 -16.003  -3.168  1.00  0.00     0.006 C 
ATOM      6  C   UNL     1       3.740 -16.715  -4.057  1.00  0.00    -0.000 C 
ATOM      7  C   UNL     1       5.143 -16.038  -4.047  1.00  0.00     0.005 C 
ATOM      8  C   UNL     1       6.366 -16.930  -4.291  1.00  0.00     0.005 C 
ATOM      9  C   UNL     1       6.040 -18.335  -4.848  1.00  0.00     0.002 C 
ATOM     10  C   UNL     1       7.353 -19.104  -5.368  1.00  0.00    -0.026 C 
ATOM     11  C   UNL     1       7.851 -18.387  -6.676  1.00  0.00     0.010 C 
ATOM     12  C   UNL     1       8.740 -19.267  -7.550  1.00  0.00     0.033 C 
ATOM     13  C   UNL     1       8.013 -20.532  -8.065  1.00  0.00     0.120 C 
ATOM     14  C   UNL     1       6.804 -21.031  -7.174  1.00  0.00    -0.006 C 
ATOM     15  C   UNL     1       7.096 -20.640  -5.659  1.00  0.00     0.003 C 
ATOM     16  C   UNL     1       6.216 -21.294  -4.565  1.00  0.00     0.005 C 
ATOM     17  C   UNL     1       4.895 -20.572  -4.319  1.00  0.00     0.008 C 
ATOM     18  C   UNL     1       5.039 -19.079  -3.875  1.00  0.00    -0.024 C 
ATOM     19  C   UNL     1       3.605 -18.311  -3.909  1.00  0.00    -0.024 C 
ATOM     20  C   UNL     1       2.664 -18.716  -2.682  1.00  0.00     0.008 C 
ATOM     21  C   UNL     1       2.698 -17.834  -1.404  1.00  0.00     0.007 C 
ATOM     22  C   UNL     1       2.769 -18.762  -5.164  1.00  0.00     0.012 C 
ATOM     23  C   UNL     1       5.579 -19.107  -2.413  1.00  0.00     0.012 C 
ATOM     24  C   UNL     1       6.746 -22.577  -7.333  1.00  0.00     0.014 C 
ATOM     25  C   UNL     1       5.448 -20.492  -7.711  1.00  0.00     0.014 C 
ATOM     26  C   UNL     1       8.537 -19.002  -4.347  1.00  0.00     0.012 C 
ATOM     27  C   UNL     1       4.019 -15.718  -0.922  1.00  0.00     0.011 C 
ENDROOT
BRANCH   1  28
ATOM     28  C   UNL     1       1.782 -14.100  -4.594  1.00  0.00    -0.077 C 
ATOM     29  C   UNL     1       2.586 -13.877  -5.854  1.00  0.00     0.039 C 
ATOM     30  C   UNL     1       0.458 -13.890  -4.638  1.00  0.00     0.008 C 
ENDBRANCH   1  28
BRANCH  13  31
ATOM     31  O   UNL     1       7.660 -20.396  -9.423  1.00  0.00    -0.393 OA
ATOM     32  H   UNL     1       6.882 -20.987  -9.599  1.00  0.00     0.210 HD
ENDBRANCH  13  31
TORSDOF 2
ENDMDL
MODEL 8
REMARK VINA RESULT:    -5.788     13.154     15.971
REMARK INTER + INTRA:          -6.774
REMARK INTER:                  -6.384
REMARK INTRA:                  -0.390
REMARK UNBOUND:                -0.479
REMARK SMILES C=C(C)[C@H]1CC[C@@]2(C)CC[C@@]3(C)[C@H](CC[C@H]4[C@]5(C)CC[C@H](O)C(C)(C)[C@@H]5CC[C@@]43C)[C@H]12
REMARK SMILES IDX 4 1 5 2 6 3 7 4 31 5 13 6 14 7 15 8 16 9 17 10 19 11 20 12
REMARK SMILES IDX 21 13 23 14 26 15 27 16 28 17 29 18 11 19 10 20 9 21 12 22
REMARK SMILES IDX 30 23 24 24 25 25 18 26 8 27 2 28 3 29 1 30 22 31
REMARK H PARENT 22 32
REMARK Flexibility Score: inf
ROOT
ATOM      1  C   UNL     1       0.558 -31.077   8.952  1.00  0.00     0.018 C 
ATOM      2  C   UNL     1      -0.823 -31.670   9.330  1.00  0.00     0.009 C 
ATOM      3  C   UNL     1      -1.379 -32.349   8.056  1.00  0.00     0.008 C 
ATOM      4  C   UNL     1      -0.148 -32.568   7.152  1.00  0.00    -0.029 C 
ATOM      5  C   UNL     1       0.608 -31.260   7.434  1.00  0.00     0.006 C 
ATOM      6  C   UNL     1       1.919 -31.053   6.639  1.00  0.00    -0.000 C 
ATOM      7  C   UNL     1       3.139 -31.832   7.214  1.00  0.00     0.005 C 
ATOM      8  C   UNL     1       4.240 -32.257   6.234  1.00  0.00     0.005 C 
ATOM      9  C   UNL     1       4.172 -31.573   4.849  1.00  0.00     0.002 C 
ATOM     10  C   UNL     1       5.504 -31.816   3.983  1.00  0.00    -0.026 C 
ATOM     11  C   UNL     1       6.672 -30.999   4.646  1.00  0.00     0.010 C 
ATOM     12  C   UNL     1       7.831 -30.713   3.695  1.00  0.00     0.033 C 
ATOM     13  C   UNL     1       7.411 -29.854   2.478  1.00  0.00     0.120 C 
ATOM     14  C   UNL     1       5.882 -29.944   2.078  1.00  0.00    -0.006 C 
ATOM     15  C   UNL     1       5.342 -31.390   2.465  1.00  0.00     0.003 C 
ATOM     16  C   UNL     1       3.970 -31.823   1.889  1.00  0.00     0.005 C 
ATOM     17  C   UNL     1       2.775 -31.343   2.706  1.00  0.00     0.008 C 
ATOM     18  C   UNL     1       2.757 -31.836   4.190  1.00  0.00    -0.024 C 
ATOM     19  C   UNL     1       1.620 -31.061   5.058  1.00  0.00    -0.024 C 
ATOM     20  C   UNL     1       0.144 -31.580   4.736  1.00  0.00     0.008 C 
ATOM     21  C   UNL     1      -0.454 -32.701   5.629  1.00  0.00     0.007 C 
ATOM     22  C   UNL     1       1.560 -29.541   4.652  1.00  0.00     0.012 C 
ATOM     23  C   UNL     1       2.426 -33.359   4.142  1.00  0.00     0.012 C 
ATOM     24  C   UNL     1       5.816 -29.736   0.538  1.00  0.00     0.014 C 
ATOM     25  C   UNL     1       5.066 -28.779   2.705  1.00  0.00     0.014 C 
ATOM     26  C   UNL     1       5.959 -33.315   4.012  1.00  0.00     0.012 C 
ATOM     27  C   UNL     1       0.539 -33.875   7.651  1.00  0.00     0.011 C 
ENDROOT
BRANCH   1  28
ATOM     28  C   UNL     1       0.735 -29.623   9.379  1.00  0.00    -0.077 C 
ATOM     29  C   UNL     1      -0.431 -28.664   9.445  1.00  0.00     0.039 C 
ATOM     30  C   UNL     1       1.961 -29.155   9.656  1.00  0.00     0.008 C 
ENDBRANCH   1  28
BRANCH  13  31
ATOM     31  O   UNL     1       7.851 -28.523   2.622  1.00  0.00    -0.393 OA
ATOM     32  H   UNL     1       7.449 -28.153   3.450  1.00  0.00     0.210 HD
ENDBRANCH  13  31
TORSDOF 2
ENDMDL
MODEL 9
REMARK VINA RESULT:    -5.753     11.744     14.495
REMARK INTER + INTRA:          -6.736
REMARK INTER:                  -6.281
REMARK INTRA:                  -0.455
REMARK UNBOUND:                -0.479
REMARK SMILES C=C(C)[C@H]1CC[C@@]2(C)CC[C@@]3(C)[C@H](CC[C@H]4[C@]5(C)CC[C@H](O)C(C)(C)[C@@H]5CC[C@@]43C)[C@H]12
REMARK SMILES IDX 4 1 5 2 6 3 7 4 31 5 13 6 14 7 15 8 16 9 17 10 19 11 20 12
REMARK SMILES IDX 21 13 23 14 26 15 27 16 28 17 29 18 11 19 10 20 9 21 12 22
REMARK SMILES IDX 30 23 24 24 25 25 18 26 8 27 2 28 3 29 1 30 22 31
REMARK H PARENT 22 32
REMARK Flexibility Score: inf
ROOT
ATOM      1  C   UNL     1       0.370 -29.594   4.877  1.00  0.00     0.018 C 
ATOM      2  C   UNL     1      -0.293 -29.976   6.225  1.00  0.00     0.009 C 
ATOM      3  C   UNL     1       0.665 -30.966   6.927  1.00  0.00     0.008 C 
ATOM      4  C   UNL     1       2.030 -30.754   6.241  1.00  0.00    -0.029 C 
ATOM      5  C   UNL     1       1.557 -30.555   4.793  1.00  0.00     0.006 C 
ATOM      6  C   UNL     1       2.673 -30.370   3.737  1.00  0.00    -0.000 C 
ATOM      7  C   UNL     1       3.271 -28.932   3.693  1.00  0.00     0.005 C 
ATOM      8  C   UNL     1       4.728 -28.780   3.238  1.00  0.00     0.005 C 
ATOM      9  C   UNL     1       5.326 -30.033   2.558  1.00  0.00     0.002 C 
ATOM     10  C   UNL     1       6.729 -29.723   1.835  1.00  0.00    -0.026 C 
ATOM     11  C   UNL     1       6.440 -28.827   0.576  1.00  0.00     0.010 C 
ATOM     12  C   UNL     1       7.550 -28.873  -0.470  1.00  0.00     0.033 C 
ATOM     13  C   UNL     1       7.765 -30.289  -1.055  1.00  0.00     0.120 C 
ATOM     14  C   UNL     1       7.324 -31.486  -0.118  1.00  0.00    -0.006 C 
ATOM     15  C   UNL     1       7.503 -31.035   1.398  1.00  0.00     0.003 C 
ATOM     16  C   UNL     1       7.436 -32.134   2.488  1.00  0.00     0.005 C 
ATOM     17  C   UNL     1       6.019 -32.477   2.935  1.00  0.00     0.008 C 
ATOM     18  C   UNL     1       5.211 -31.277   3.529  1.00  0.00    -0.024 C 
ATOM     19  C   UNL     1       3.640 -31.655   3.715  1.00  0.00    -0.024 C 
ATOM     20  C   UNL     1       3.384 -32.611   4.970  1.00  0.00     0.008 C 
ATOM     21  C   UNL     1       3.016 -31.959   6.331  1.00  0.00     0.007 C 
ATOM     22  C   UNL     1       3.135 -32.519   2.500  1.00  0.00     0.012 C 
ATOM     23  C   UNL     1       5.841 -30.973   4.923  1.00  0.00     0.012 C 
ATOM     24  C   UNL     1       8.271 -32.675  -0.444  1.00  0.00     0.014 C 
ATOM     25  C   UNL     1       5.888 -31.972  -0.463  1.00  0.00     0.014 C 
ATOM     26  C   UNL     1       7.687 -28.885   2.747  1.00  0.00     0.012 C 
ATOM     27  C   UNL     1       2.678 -29.512   6.924  1.00  0.00     0.011 C 
ENDROOT
BRANCH   1  28
ATOM     28  C   UNL     1      -0.570 -29.705   3.681  1.00  0.00    -0.077 C 
ATOM     29  C   UNL     1      -0.636 -28.635   2.617  1.00  0.00     0.039 C 
ATOM     30  C   UNL     1      -1.403 -30.752   3.584  1.00  0.00     0.008 C 
ENDBRANCH   1  28
BRANCH  13  31
ATOM     31  O   UNL     1       7.219 -30.392  -2.350  1.00  0.00    -0.393 OA
ATOM     32  H   UNL     1       7.891 -30.827  -2.935  1.00  0.00     0.210 HD
ENDBRANCH  13  31
TORSDOF 2
ENDMDL
