MODEL 1
REMARK VINA RESULT:    -4.769      0.000      0.000
REMARK INTER + INTRA:          -8.523
REMARK INTER:                  -7.278
REMARK INTRA:                  -1.246
REMARK UNBOUND:                -1.246
REMARK SMILES CC(=O)CCC=C(C)CCC=C(C)CCC=C(C)C
REMARK SMILES IDX 10 1 11 2 12 3 13 4 14 5 15 6 16 7 18 8 17 9 19 10 9 11 7 12
REMARK SMILES IDX 6 13 8 14 5 15 4 16 2 17 3 18 1 19
REMARK H PARENT
REMARK Flexibility Score: inf
ROOT
ATOM      1  C   UNL     1     149.716 156.061 165.246  1.00  0.00     0.032 C 
ENDROOT
BRANCH   1   2
ATOM      2  C   UNL     1     149.791 157.147 164.197  1.00  0.00    -0.028 C 
ATOM      3  C   UNL     1     149.003 157.223 163.101  1.00  0.00    -0.077 C 
ATOM      4  C   UNL     1     147.890 156.236 162.844  1.00  0.00     0.039 C 
BRANCH   3   5
ATOM      5  C   UNL     1     149.256 158.325 162.095  1.00  0.00     0.034 C 
BRANCH   5   6
ATOM      6  C   UNL     1     148.024 159.223 161.943  1.00  0.00     0.032 C 
BRANCH   6   7
ATOM      7  C   UNL     1     147.701 159.911 163.246  1.00  0.00    -0.028 C 
ATOM      8  C   UNL     1     145.230 159.854 162.844  1.00  0.00     0.039 C 
ATOM      9  C   UNL     1     146.447 160.177 163.676  1.00  0.00    -0.080 C 
ATOM     10  C   UNL     1     146.235 160.829 165.017  1.00  0.00     0.039 C 
ENDBRANCH   6   7
ENDBRANCH   5   6
ENDBRANCH   3   5
ENDBRANCH   1   2
BRANCH   1  11
ATOM     11  C   UNL     1     150.754 154.965 164.974  1.00  0.00     0.034 C 
BRANCH  11  12
ATOM     12  C   UNL     1     150.231 153.593 165.346  1.00  0.00    -0.077 C 
ATOM     13  C   UNL     1     150.765 152.946 166.404  1.00  0.00    -0.028 C 
ATOM     14  C   UNL     1     149.113 152.984 164.533  1.00  0.00     0.039 C 
BRANCH  13  15
ATOM     15  C   UNL     1     150.294 151.585 166.862  1.00  0.00     0.035 C 
BRANCH  15  16
ATOM     16  C   UNL     1     150.187 151.496 168.390  1.00  0.00     0.079 C 
BRANCH  16  17
ATOM     17  C   UNL     1     148.750 151.441 168.847  1.00  0.00     0.130 C 
ATOM     18  O   UNL     1     148.405 150.586 169.650  1.00  0.00    -0.300 OA
ATOM     19  C   UNL     1     147.728 152.410 168.328  1.00  0.00     0.087 C 
ENDBRANCH  16  17
ENDBRANCH  15  16
ENDBRANCH  13  15
ENDBRANCH  11  12
ENDBRANCH   1  11
TORSDOF 9
ENDMDL
MODEL 2
REMARK VINA RESULT:    -4.737      1.917      3.752
REMARK INTER + INTRA:          -8.475
REMARK INTER:                  -7.144
REMARK INTRA:                  -1.332
REMARK UNBOUND:                -1.246
REMARK SMILES CC(=O)CCC=C(C)CCC=C(C)CCC=C(C)C
REMARK SMILES IDX 10 1 11 2 12 3 13 4 14 5 15 6 16 7 18 8 17 9 19 10 9 11 7 12
REMARK SMILES IDX 6 13 8 14 5 15 4 16 2 17 3 18 1 19
REMARK H PARENT
REMARK Flexibility Score: inf
ROOT
ATOM      1  C   UNL     1     150.030 152.421 166.197  1.00  0.00     0.032 C 
ENDROOT
BRANCH   1   2
ATOM      2  C   UNL     1     150.329 153.884 165.961  1.00  0.00    -0.028 C 
ATOM      3  C   UNL     1     149.539 154.734 165.267  1.00  0.00    -0.077 C 
ATOM      4  C   UNL     1     148.206 154.309 164.700  1.00  0.00     0.039 C 
BRANCH   3   5
ATOM      5  C   UNL     1     150.015 156.153 165.042  1.00  0.00     0.034 C 
BRANCH   5   6
ATOM      6  C   UNL     1     149.858 156.559 163.573  1.00  0.00     0.032 C 
BRANCH   6   7
ATOM      7  C   UNL     1     149.357 157.977 163.461  1.00  0.00    -0.028 C 
ATOM      8  C   UNL     1     147.112 157.281 162.595  1.00  0.00     0.039 C 
ATOM      9  C   UNL     1     148.114 158.314 163.048  1.00  0.00    -0.080 C 
ATOM     10  C   UNL     1     147.701 159.763 163.016  1.00  0.00     0.039 C 
ENDBRANCH   6   7
ENDBRANCH   5   6
ENDBRANCH   3   5
ENDBRANCH   1   2
BRANCH   1  11
ATOM     11  C   UNL     1     150.209 152.059 167.677  1.00  0.00     0.034 C 
BRANCH  11  12
ATOM     12  C   UNL     1     148.880 151.787 168.352  1.00  0.00    -0.077 C 
ATOM     13  C   UNL     1     147.780 152.449 167.937  1.00  0.00    -0.028 C 
ATOM     14  C   UNL     1     148.813 150.768 169.465  1.00  0.00     0.039 C 
BRANCH  13  15
ATOM     15  C   UNL     1     146.409 152.229 168.535  1.00  0.00     0.035 C 
BRANCH  15  16
ATOM     16  C   UNL     1     145.549 151.293 167.676  1.00  0.00     0.079 C 
BRANCH  16  17
ATOM     17  C   UNL     1     144.994 150.145 168.484  1.00  0.00     0.130 C 
ATOM     18  O   UNL     1     144.363 149.262 167.922  1.00  0.00    -0.300 OA
ATOM     19  C   UNL     1     145.191 150.069 169.970  1.00  0.00     0.087 C 
ENDBRANCH  16  17
ENDBRANCH  15  16
ENDBRANCH  13  15
ENDBRANCH  11  12
ENDBRANCH   1  11
TORSDOF 9
ENDMDL
MODEL 3
REMARK VINA RESULT:    -4.676      3.159      8.230
REMARK INTER + INTRA:          -8.382
REMARK INTER:                  -7.310
REMARK INTRA:                  -1.072
REMARK UNBOUND:                -1.246
REMARK SMILES CC(=O)CCC=C(C)CCC=C(C)CCC=C(C)C
REMARK SMILES IDX 10 1 11 2 12 3 13 4 14 5 15 6 16 7 18 8 17 9 19 10 9 11 7 12
REMARK SMILES IDX 6 13 8 14 5 15 4 16 2 17 3 18 1 19
REMARK H PARENT
REMARK Flexibility Score: inf
ROOT
ATOM      1  C   UNL     1     150.185 155.952 164.927  1.00  0.00     0.032 C 
ENDROOT
BRANCH   1   2
ATOM      2  C   UNL     1     150.652 154.578 165.351  1.00  0.00    -0.028 C 
ATOM      3  C   UNL     1     149.886 153.464 165.349  1.00  0.00    -0.077 C 
ATOM      4  C   UNL     1     148.463 153.470 164.843  1.00  0.00     0.039 C 
BRANCH   3   5
ATOM      5  C   UNL     1     150.471 152.174 165.882  1.00  0.00     0.034 C 
BRANCH   5   6
ATOM      6  C   UNL     1     150.874 152.321 167.354  1.00  0.00     0.032 C 
BRANCH   6   7
ATOM      7  C   UNL     1     150.138 151.322 168.210  1.00  0.00    -0.028 C 
ATOM      8  C   UNL     1     148.160 152.822 168.537  1.00  0.00     0.039 C 
ATOM      9  C   UNL     1     148.905 151.524 168.727  1.00  0.00    -0.080 C 
ATOM     10  C   UNL     1     148.242 150.439 169.535  1.00  0.00     0.039 C 
ENDBRANCH   6   7
ENDBRANCH   5   6
ENDBRANCH   3   5
ENDBRANCH   1   2
BRANCH   1  11
ATOM     11  C   UNL     1     150.291 156.121 163.406  1.00  0.00     0.034 C 
BRANCH  11  12
ATOM     12  C   UNL     1     149.232 157.064 162.873  1.00  0.00    -0.077 C 
ATOM     13  C   UNL     1     149.311 158.380 163.163  1.00  0.00    -0.028 C 
ATOM     14  C   UNL     1     148.118 156.512 162.014  1.00  0.00     0.039 C 
BRANCH  13  15
ATOM     15  C   UNL     1     148.314 159.397 162.658  1.00  0.00     0.035 C 
BRANCH  15  16
ATOM     16  C   UNL     1     147.362 159.869 163.765  1.00  0.00     0.079 C 
BRANCH  16  17
ATOM     17  C   UNL     1     146.376 160.893 163.256  1.00  0.00     0.130 C 
ATOM     18  O   UNL     1     146.451 161.278 162.098  1.00  0.00    -0.300 OA
ATOM     19  C   UNL     1     145.309 161.458 164.145  1.00  0.00     0.087 C 
ENDBRANCH  16  17
ENDBRANCH  15  16
ENDBRANCH  13  15
ENDBRANCH  11  12
ENDBRANCH   1  11
TORSDOF 9
ENDMDL
MODEL 4
REMARK VINA RESULT:    -4.654      2.193      4.673
REMARK INTER + INTRA:          -8.348
REMARK INTER:                  -7.355
REMARK INTRA:                  -0.994
REMARK UNBOUND:                -1.246
REMARK SMILES CC(=O)CCC=C(C)CCC=C(C)CCC=C(C)C
REMARK SMILES IDX 10 1 11 2 12 3 13 4 14 5 15 6 16 7 18 8 17 9 19 10 9 11 7 12
REMARK SMILES IDX 6 13 8 14 5 15 4 16 2 17 3 18 1 19
REMARK H PARENT
REMARK Flexibility Score: inf
ROOT
ATOM      1  C   UNL     1     150.377 151.770 166.823  1.00  0.00     0.032 C 
ENDROOT
BRANCH   1   2
ATOM      2  C   UNL     1     150.852 153.112 166.315  1.00  0.00    -0.028 C 
ATOM      3  C   UNL     1     150.135 153.939 165.520  1.00  0.00    -0.077 C 
ATOM      4  C   UNL     1     148.718 153.621 165.104  1.00  0.00     0.039 C 
BRANCH   3   5
ATOM      5  C   UNL     1     150.779 155.214 165.023  1.00  0.00     0.034 C 
BRANCH   5   6
ATOM      6  C   UNL     1     149.725 156.191 164.491  1.00  0.00     0.032 C 
BRANCH   6   7
ATOM      7  C   UNL     1     149.976 156.510 163.039  1.00  0.00    -0.028 C 
ATOM      8  C   UNL     1     148.832 158.734 163.166  1.00  0.00     0.039 C 
ATOM      9  C   UNL     1     149.603 157.662 162.437  1.00  0.00    -0.080 C 
ATOM     10  C   UNL     1     149.944 157.897 160.988  1.00  0.00     0.039 C 
ENDBRANCH   6   7
ENDBRANCH   5   6
ENDBRANCH   3   5
ENDBRANCH   1   2
BRANCH   1  11
ATOM     11  C   UNL     1     150.178 151.800 168.344  1.00  0.00     0.034 C 
BRANCH  11  12
ATOM     12  C   UNL     1     148.743 151.505 168.727  1.00  0.00    -0.077 C 
ATOM     13  C   UNL     1     147.748 152.231 168.173  1.00  0.00    -0.028 C 
ATOM     14  C   UNL     1     148.455 150.395 169.710  1.00  0.00     0.039 C 
BRANCH  13  15
ATOM     15  C   UNL     1     146.287 151.995 168.480  1.00  0.00     0.035 C 
BRANCH  15  16
ATOM     16  C   UNL     1     145.380 153.028 167.797  1.00  0.00     0.079 C 
BRANCH  16  17
ATOM     17  C   UNL     1     144.075 153.200 168.534  1.00  0.00     0.130 C 
ATOM     18  O   UNL     1     143.329 154.121 168.232  1.00  0.00    -0.300 OA
ATOM     19  C   UNL     1     143.674 152.268 169.639  1.00  0.00     0.087 C 
ENDBRANCH  16  17
ENDBRANCH  15  16
ENDBRANCH  13  15
ENDBRANCH  11  12
ENDBRANCH   1  11
TORSDOF 9
ENDMDL
MODEL 5
REMARK VINA RESULT:    -4.590      2.917      7.730
REMARK INTER + INTRA:          -8.250
REMARK INTER:                  -6.874
REMARK INTRA:                  -1.376
REMARK UNBOUND:                -1.246
REMARK SMILES CC(=O)CCC=C(C)CCC=C(C)CCC=C(C)C
REMARK SMILES IDX 10 1 11 2 12 3 13 4 14 5 15 6 16 7 18 8 17 9 19 10 9 11 7 12
REMARK SMILES IDX 6 13 8 14 5 15 4 16 2 17 3 18 1 19
REMARK H PARENT
REMARK Flexibility Score: inf
ROOT
ATOM      1  C   UNL     1     149.539 154.064 163.234  1.00  0.00     0.032 C 
ENDROOT
BRANCH   1   2
ATOM      2  C   UNL     1     148.777 153.569 164.442  1.00  0.00    -0.028 C 
ATOM      3  C   UNL     1     147.470 153.810 164.686  1.00  0.00    -0.077 C 
ATOM      4  C   UNL     1     146.598 154.565 163.712  1.00  0.00     0.039 C 
BRANCH   3   5
ATOM      5  C   UNL     1     146.867 153.318 165.984  1.00  0.00     0.034 C 
BRANCH   5   6
ATOM      6  C   UNL     1     147.732 153.725 167.181  1.00  0.00     0.032 C 
BRANCH   6   7
ATOM      7  C   UNL     1     147.784 152.619 168.205  1.00  0.00    -0.028 C 
ATOM      8  C   UNL     1     150.123 151.958 167.603  1.00  0.00     0.039 C 
ATOM      9  C   UNL     1     148.863 151.834 168.423  1.00  0.00    -0.080 C 
ATOM     10  C   UNL     1     148.822 150.785 169.503  1.00  0.00     0.039 C 
ENDBRANCH   6   7
ENDBRANCH   5   6
ENDBRANCH   3   5
ENDBRANCH   1   2
BRANCH   1  11
ATOM     11  C   UNL     1     150.442 155.248 163.605  1.00  0.00     0.034 C 
BRANCH  11  12
ATOM     12  C   UNL     1     149.969 156.535 162.962  1.00  0.00    -0.077 C 
ATOM     13  C   UNL     1     149.397 157.486 163.731  1.00  0.00    -0.028 C 
ATOM     14  C   UNL     1     150.162 156.733 161.477  1.00  0.00     0.039 C 
BRANCH  13  15
ATOM     15  C   UNL     1     148.915 158.810 163.182  1.00  0.00     0.035 C 
BRANCH  15  16
ATOM     16  C   UNL     1     147.392 158.836 162.997  1.00  0.00     0.079 C 
BRANCH  16  17
ATOM     17  C   UNL     1     146.797 160.151 163.439  1.00  0.00     0.130 C 
ATOM     18  O   UNL     1     146.676 160.387 164.632  1.00  0.00    -0.300 OA
ATOM     19  C   UNL     1     146.341 161.175 162.442  1.00  0.00     0.087 C 
ENDBRANCH  16  17
ENDBRANCH  15  16
ENDBRANCH  13  15
ENDBRANCH  11  12
ENDBRANCH   1  11
TORSDOF 9
ENDMDL
MODEL 6
REMARK VINA RESULT:    -4.562      1.057      1.709
REMARK INTER + INTRA:          -8.208
REMARK INTER:                  -6.628
REMARK INTRA:                  -1.580
REMARK UNBOUND:                -1.246
REMARK SMILES CC(=O)CCC=C(C)CCC=C(C)CCC=C(C)C
REMARK SMILES IDX 10 1 11 2 12 3 13 4 14 5 15 6 16 7 18 8 17 9 19 10 9 11 7 12
REMARK SMILES IDX 6 13 8 14 5 15 4 16 2 17 3 18 1 19
REMARK H PARENT
REMARK Flexibility Score: inf
ROOT
ATOM      1  C   UNL     1     149.572 156.352 164.663  1.00  0.00     0.032 C 
ENDROOT
BRANCH   1   2
ATOM      2  C   UNL     1     149.448 157.097 163.354  1.00  0.00    -0.028 C 
ATOM      3  C   UNL     1     148.434 156.951 162.471  1.00  0.00    -0.077 C 
ATOM      4  C   UNL     1     147.254 156.051 162.747  1.00  0.00     0.039 C 
BRANCH   3   5
ATOM      5  C   UNL     1     148.493 157.705 161.160  1.00  0.00     0.034 C 
BRANCH   5   6
ATOM      6  C   UNL     1     148.863 159.175 161.388  1.00  0.00     0.032 C 
BRANCH   6   7
ATOM      7  C   UNL     1     147.636 160.049 161.339  1.00  0.00    -0.028 C 
ATOM      8  C   UNL     1     147.372 160.086 163.830  1.00  0.00     0.039 C 
ATOM      9  C   UNL     1     146.971 160.488 162.432  1.00  0.00    -0.080 C 
ATOM     10  C   UNL     1     145.779 161.395 162.271  1.00  0.00     0.039 C 
ENDBRANCH   6   7
ENDBRANCH   5   6
ENDBRANCH   3   5
ENDBRANCH   1   2
BRANCH   1  11
ATOM     11  C   UNL     1     150.346 155.042 164.475  1.00  0.00     0.034 C 
BRANCH  11  12
ATOM     12  C   UNL     1     149.634 153.872 165.123  1.00  0.00    -0.077 C 
ATOM     13  C   UNL     1     148.654 154.110 166.020  1.00  0.00    -0.028 C 
ATOM     14  C   UNL     1     150.028 152.465 164.740  1.00  0.00     0.039 C 
BRANCH  13  15
ATOM     15  C   UNL     1     147.875 153.008 166.702  1.00  0.00     0.035 C 
BRANCH  15  16
ATOM     16  C   UNL     1     148.124 152.976 168.215  1.00  0.00     0.079 C 
BRANCH  16  17
ATOM     17  C   UNL     1     148.997 151.812 168.614  1.00  0.00     0.130 C 
ATOM     18  O   UNL     1     148.494 150.841 169.161  1.00  0.00    -0.300 OA
ATOM     19  C   UNL     1     150.476 151.822 168.363  1.00  0.00     0.087 C 
ENDBRANCH  16  17
ENDBRANCH  15  16
ENDBRANCH  13  15
ENDBRANCH  11  12
ENDBRANCH   1  11
TORSDOF 9
ENDMDL
MODEL 7
REMARK VINA RESULT:    -4.550      4.063      6.825
REMARK INTER + INTRA:          -8.189
REMARK INTER:                  -6.246
REMARK INTRA:                  -1.944
REMARK UNBOUND:                -1.246
REMARK SMILES CC(=O)CCC=C(C)CCC=C(C)CCC=C(C)C
REMARK SMILES IDX 10 1 11 2 12 3 13 4 14 5 15 6 16 7 18 8 17 9 19 10 9 11 7 12
REMARK SMILES IDX 6 13 8 14 5 15 4 16 2 17 3 18 1 19
REMARK H PARENT
REMARK Flexibility Score: inf
ROOT
ATOM      1  C   UNL     1     147.718 154.120 163.695  1.00  0.00     0.032 C 
ENDROOT
BRANCH   1   2
ATOM      2  C   UNL     1     147.249 154.128 165.131  1.00  0.00    -0.028 C 
ATOM      3  C   UNL     1     146.566 153.126 165.731  1.00  0.00    -0.077 C 
ATOM      4  C   UNL     1     146.254 151.832 165.019  1.00  0.00     0.039 C 
BRANCH   3   5
ATOM      5  C   UNL     1     146.090 153.317 167.154  1.00  0.00     0.034 C 
BRANCH   5   6
ATOM      6  C   UNL     1     146.693 152.256 168.082  1.00  0.00     0.032 C 
BRANCH   6   7
ATOM      7  C   UNL     1     148.199 152.327 168.066  1.00  0.00    -0.028 C 
ATOM      8  C   UNL     1     148.460 150.458 169.712  1.00  0.00     0.039 C 
ATOM      9  C   UNL     1     149.007 151.507 168.775  1.00  0.00    -0.080 C 
ATOM     10  C   UNL     1     150.503 151.636 168.652  1.00  0.00     0.039 C 
ENDBRANCH   6   7
ENDBRANCH   5   6
ENDBRANCH   3   5
ENDBRANCH   1   2
BRANCH   1  11
ATOM     11  C   UNL     1     149.242 154.272 163.616  1.00  0.00     0.034 C 
BRANCH  11  12
ATOM     12  C   UNL     1     149.953 153.254 164.484  1.00  0.00    -0.077 C 
ATOM     13  C   UNL     1     149.881 151.945 164.162  1.00  0.00    -0.028 C 
ATOM     14  C   UNL     1     150.738 153.729 165.684  1.00  0.00     0.039 C 
BRANCH  13  15
ATOM     15  C   UNL     1     150.574 150.862 164.956  1.00  0.00     0.035 C 
BRANCH  15  16
ATOM     16  C   UNL     1     151.555 150.054 164.096  1.00  0.00     0.079 C 
BRANCH  16  17
ATOM     17  C   UNL     1     150.854 149.349 162.961  1.00  0.00     0.130 C 
ATOM     18  O   UNL     1     151.295 149.449 161.825  1.00  0.00    -0.300 OA
ATOM     19  C   UNL     1     149.618 148.532 163.195  1.00  0.00     0.087 C 
ENDBRANCH  16  17
ENDBRANCH  15  16
ENDBRANCH  13  15
ENDBRANCH  11  12
ENDBRANCH   1  11
TORSDOF 9
ENDMDL
MODEL 8
REMARK VINA RESULT:    -4.550      4.816      7.106
REMARK INTER + INTRA:          -8.189
REMARK INTER:                  -6.185
REMARK INTRA:                  -2.004
REMARK UNBOUND:                -1.246
REMARK SMILES CC(=O)CCC=C(C)CCC=C(C)CCC=C(C)C
REMARK SMILES IDX 10 1 11 2 12 3 13 4 14 5 15 6 16 7 18 8 17 9 19 10 9 11 7 12
REMARK SMILES IDX 6 13 8 14 5 15 4 16 2 17 3 18 1 19
REMARK H PARENT
REMARK Flexibility Score: inf
ROOT
ATOM      1  C   UNL     1     151.066 150.055 163.827  1.00  0.00     0.032 C 
ENDROOT
BRANCH   1   2
ATOM      2  C   UNL     1     150.052 148.936 163.751  1.00  0.00    -0.028 C 
ATOM      3  C   UNL     1     149.627 148.351 162.608  1.00  0.00    -0.077 C 
ATOM      4  C   UNL     1     150.191 148.725 161.258  1.00  0.00     0.039 C 
BRANCH   3   5
ATOM      5  C   UNL     1     148.542 147.299 162.687  1.00  0.00     0.034 C 
BRANCH   5   6
ATOM      6  C   UNL     1     147.202 147.854 162.193  1.00  0.00     0.032 C 
BRANCH   6   7
ATOM      7  C   UNL     1     146.491 148.594 163.298  1.00  0.00    -0.028 C 
ATOM      8  C   UNL     1     146.929 150.843 162.288  1.00  0.00     0.039 C 
ATOM      9  C   UNL     1     146.338 149.937 163.339  1.00  0.00    -0.080 C 
ATOM     10  C   UNL     1     145.570 150.571 164.470  1.00  0.00     0.039 C 
ENDBRANCH   6   7
ENDBRANCH   5   6
ENDBRANCH   3   5
ENDBRANCH   1   2
BRANCH   1  11
ATOM     11  C   UNL     1     150.390 151.419 163.634  1.00  0.00     0.034 C 
BRANCH  11  12
ATOM     12  C   UNL     1     149.981 152.034 164.956  1.00  0.00    -0.077 C 
ATOM     13  C   UNL     1     150.800 151.914 166.022  1.00  0.00    -0.028 C 
ATOM     14  C   UNL     1     148.671 152.781 165.049  1.00  0.00     0.039 C 
BRANCH  13  15
ATOM     15  C   UNL     1     150.486 152.512 167.375  1.00  0.00     0.035 C 
BRANCH  15  16
ATOM     16  C   UNL     1     150.233 151.434 168.437  1.00  0.00     0.079 C 
BRANCH  16  17
ATOM     17  C   UNL     1     148.801 151.442 168.913  1.00  0.00     0.130 C 
ATOM     18  O   UNL     1     148.072 152.376 168.614  1.00  0.00    -0.300 OA
ATOM     19  C   UNL     1     148.252 150.328 169.755  1.00  0.00     0.087 C 
ENDBRANCH  16  17
ENDBRANCH  15  16
ENDBRANCH  13  15
ENDBRANCH  11  12
ENDBRANCH   1  11
TORSDOF 9
ENDMDL
MODEL 9
REMARK VINA RESULT:    -4.456      2.774      3.872
REMARK INTER + INTRA:          -8.046
REMARK INTER:                  -6.219
REMARK INTRA:                  -1.827
REMARK UNBOUND:                -1.246
REMARK SMILES CC(=O)CCC=C(C)CCC=C(C)CCC=C(C)C
REMARK SMILES IDX 10 1 11 2 12 3 13 4 14 5 15 6 16 7 18 8 17 9 19 10 9 11 7 12
REMARK SMILES IDX 6 13 8 14 5 15 4 16 2 17 3 18 1 19
REMARK H PARENT
REMARK Flexibility Score: inf
ROOT
ATOM      1  C   UNL     1     148.301 153.770 165.522  1.00  0.00     0.032 C 
ENDROOT
BRANCH   1   2
ATOM      2  C   UNL     1     149.107 154.925 164.973  1.00  0.00    -0.028 C 
ATOM      3  C   UNL     1     149.702 154.948 163.759  1.00  0.00    -0.077 C 
ATOM      4  C   UNL     1     149.560 153.812 162.775  1.00  0.00     0.039 C 
BRANCH   3   5
ATOM      5  C   UNL     1     150.549 156.145 163.383  1.00  0.00     0.034 C 
BRANCH   5   6
ATOM      6  C   UNL     1     149.886 156.957 162.265  1.00  0.00     0.032 C 
BRANCH   6   7
ATOM      7  C   UNL     1     149.330 158.251 162.802  1.00  0.00    -0.028 C 
ATOM      8  C   UNL     1     146.950 157.513 162.556  1.00  0.00     0.039 C 
ATOM      9  C   UNL     1     148.012 158.505 162.963  1.00  0.00    -0.080 C 
ATOM     10  C   UNL     1     147.565 159.818 163.552  1.00  0.00     0.039 C 
ENDBRANCH   6   7
ENDBRANCH   5   6
ENDBRANCH   3   5
ENDBRANCH   1   2
BRANCH   1  11
ATOM     11  C   UNL     1     149.048 153.080 166.671  1.00  0.00     0.034 C 
BRANCH  11  12
ATOM     12  C   UNL     1     150.221 152.264 166.167  1.00  0.00    -0.077 C 
ATOM     13  C   UNL     1     149.992 151.211 165.355  1.00  0.00    -0.028 C 
ATOM     14  C   UNL     1     151.622 152.657 166.573  1.00  0.00     0.039 C 
BRANCH  13  15
ATOM     15  C   UNL     1     151.099 150.352 164.787  1.00  0.00     0.035 C 
BRANCH  15  16
ATOM     16  C   UNL     1     151.153 150.419 163.255  1.00  0.00     0.079 C 
BRANCH  16  17
ATOM     17  C   UNL     1     149.944 149.774 162.624  1.00  0.00     0.130 C 
ATOM     18  O   UNL     1     149.313 150.381 161.771  1.00  0.00    -0.300 OA
ATOM     19  C   UNL     1     149.491 148.402 163.028  1.00  0.00     0.087 C 
ENDBRANCH  16  17
ENDBRANCH  15  16
ENDBRANCH  13  15
ENDBRANCH  11  12
ENDBRANCH   1  11
TORSDOF 9
ENDMDL
