MODEL 1
REMARK VINA RESULT:    -4.350      0.000      0.000
REMARK INTER + INTRA:         -17.108
REMARK INTER:                 -11.471
REMARK INTRA:                  -5.637
REMARK UNBOUND:                -5.637
REMARK SMILES CCCCCCCCCCCCCCCCCCCCCCCCCCCCCC(=O)[O-]
REMARK SMILES IDX 16 1 17 2 18 3 19 4 20 5 21 6 22 7 23 8 24 9 25 10 26 11
REMARK SMILES IDX 27 12 28 13 29 14 30 15 31 16 32 17 15 18 14 19 13 20 12 21
REMARK SMILES IDX 11 22 10 23 9 24 8 25 7 26 6 27 5 28 4 29 3 30 2 31 1 32
REMARK H PARENT
REMARK Flexibility Score: inf
ROOT
ATOM      1  C   UNL     1      26.821   7.810   7.366  1.00  0.00     0.000 C 
ENDROOT
BRANCH   1   2
ATOM      2  C   UNL     1      26.221   7.142   6.120  1.00  0.00     0.000 C 
BRANCH   2   3
ATOM      3  C   UNL     1      26.110   5.612   6.262  1.00  0.00     0.000 C 
BRANCH   3   4
ATOM      4  C   UNL     1      24.675   5.161   6.607  1.00  0.00     0.000 C 
BRANCH   4   5
ATOM      5  C   UNL     1      24.581   4.334   7.900  1.00  0.00     0.000 C 
BRANCH   5   6
ATOM      6  C   UNL     1      23.814   3.014   7.714  1.00  0.00     0.000 C 
BRANCH   6   7
ATOM      7  C   UNL     1      23.363   2.798   6.256  1.00  0.00     0.000 C 
BRANCH   7   8
ATOM      8  C   UNL     1      21.856   3.032   6.020  1.00  0.00     0.000 C 
BRANCH   8   9
ATOM      9  C   UNL     1      21.091   3.515   7.268  1.00  0.00     0.000 C 
BRANCH   9  10
ATOM     10  C   UNL     1      20.117   4.664   6.953  1.00  0.00     0.000 C 
BRANCH  10  11
ATOM     11  C   UNL     1      20.617   5.567   5.814  1.00  0.00     0.000 C 
BRANCH  11  12
ATOM     12  C   UNL     1      21.536   6.693   6.316  1.00  0.00     0.000 C 
BRANCH  12  13
ATOM     13  C   UNL     1      21.138   7.207   7.711  1.00  0.00     0.006 C 
BRANCH  13  14
ATOM     14  C   UNL     1      22.260   7.120   8.759  1.00  0.00     0.053 C 
BRANCH  14  15
ATOM     15  C   UNL     1      21.909   6.197   9.885  1.00  0.00     0.041 C 
ATOM     16  O   UNL     1      22.819   5.657  10.570  1.00  0.00    -0.550 OA
ATOM     17  O   UNL     1      20.577   5.958  10.198  1.00  0.00    -0.550 OA
ENDBRANCH  14  15
ENDBRANCH  13  14
ENDBRANCH  12  13
ENDBRANCH  11  12
ENDBRANCH  10  11
ENDBRANCH   9  10
ENDBRANCH   8   9
ENDBRANCH   7   8
ENDBRANCH   6   7
ENDBRANCH   5   6
ENDBRANCH   4   5
ENDBRANCH   3   4
ENDBRANCH   2   3
ENDBRANCH   1   2
BRANCH   1  18
ATOM     18  C   UNL     1      25.761   8.133   8.434  1.00  0.00     0.000 C 
BRANCH  18  19
ATOM     19  C   UNL     1      25.899   7.247   9.683  1.00  0.00     0.000 C 
BRANCH  19  20
ATOM     20  C   UNL     1      27.173   6.387   9.658  1.00  0.00     0.000 C 
BRANCH  20  21
ATOM     21  C   UNL     1      27.069   5.224  10.655  1.00  0.00     0.000 C 
BRANCH  21  22
ATOM     22  C   UNL     1      27.830   3.968  10.195  1.00  0.00     0.000 C 
BRANCH  22  23
ATOM     23  C   UNL     1      28.010   3.836   8.669  1.00  0.00     0.000 C 
BRANCH  23  24
ATOM     24  C   UNL     1      27.755   2.428   8.099  1.00  0.00    -0.000 C 
BRANCH  24  25
ATOM     25  C   UNL     1      28.068   1.273   9.065  1.00  0.00    -0.000 C 
BRANCH  25  26
ATOM     26  C   UNL     1      28.309  -0.062   8.339  1.00  0.00    -0.000 C 
BRANCH  26  27
ATOM     27  C   UNL     1      27.181  -1.078   8.578  1.00  0.00    -0.000 C 
BRANCH  27  28
ATOM     28  C   UNL     1      25.801  -0.535   8.181  1.00  0.00    -0.000 C 
BRANCH  28  29
ATOM     29  C   UNL     1      25.271  -1.246   6.930  1.00  0.00    -0.000 C 
BRANCH  29  30
ATOM     30  C   UNL     1      25.091  -0.259   5.770  1.00  0.00    -0.000 C 
BRANCH  30  31
ATOM     31  C   UNL     1      26.436   0.054   5.104  1.00  0.00    -0.003 C 
ATOM     32  C   UNL     1      26.467   1.483   4.571  1.00  0.00     0.004 C 
ENDBRANCH  30  31
ENDBRANCH  29  30
ENDBRANCH  28  29
ENDBRANCH  27  28
ENDBRANCH  26  27
ENDBRANCH  25  26
ENDBRANCH  24  25
ENDBRANCH  23  24
ENDBRANCH  22  23
ENDBRANCH  21  22
ENDBRANCH  20  21
ENDBRANCH  19  20
ENDBRANCH  18  19
ENDBRANCH   1  18
TORSDOF 28
ENDMDL
MODEL 2
REMARK VINA RESULT:    -4.327      1.702      4.017
REMARK INTER + INTRA:         -17.046
REMARK INTER:                 -11.183
REMARK INTRA:                  -5.863
REMARK UNBOUND:                -5.637
REMARK SMILES CCCCCCCCCCCCCCCCCCCCCCCCCCCCCC(=O)[O-]
REMARK SMILES IDX 16 1 17 2 18 3 19 4 20 5 21 6 22 7 23 8 24 9 25 10 26 11
REMARK SMILES IDX 27 12 28 13 29 14 30 15 31 16 32 17 15 18 14 19 13 20 12 21
REMARK SMILES IDX 11 22 10 23 9 24 8 25 7 26 6 27 5 28 4 29 3 30 2 31 1 32
REMARK H PARENT
REMARK Flexibility Score: inf
ROOT
ATOM      1  C   UNL     1      25.988   4.247   9.851  1.00  0.00     0.000 C 
ENDROOT
BRANCH   1   2
ATOM      2  C   UNL     1      25.758   5.632  10.473  1.00  0.00     0.000 C 
BRANCH   2   3
ATOM      3  C   UNL     1      26.491   6.754   9.714  1.00  0.00     0.000 C 
BRANCH   3   4
ATOM      4  C   UNL     1      25.555   7.931   9.366  1.00  0.00     0.000 C 
BRANCH   4   5
ATOM      5  C   UNL     1      25.685   8.416   7.913  1.00  0.00     0.000 C 
BRANCH   5   6
ATOM      6  C   UNL     1      26.843   7.742   7.157  1.00  0.00     0.000 C 
BRANCH   6   7
ATOM      7  C   UNL     1      26.347   6.801   6.041  1.00  0.00     0.000 C 
BRANCH   7   8
ATOM      8  C   UNL     1      24.819   6.596   6.021  1.00  0.00     0.000 C 
BRANCH   8   9
ATOM      9  C   UNL     1      24.359   5.231   6.570  1.00  0.00     0.000 C 
BRANCH   9  10
ATOM     10  C   UNL     1      22.869   5.221   6.952  1.00  0.00     0.000 C 
BRANCH  10  11
ATOM     11  C   UNL     1      22.465   6.448   7.784  1.00  0.00     0.000 C 
BRANCH  11  12
ATOM     12  C   UNL     1      22.239   6.105   9.267  1.00  0.00     0.000 C 
BRANCH  12  13
ATOM     13  C   UNL     1      22.011   7.353  10.138  1.00  0.00     0.006 C 
BRANCH  13  14
ATOM     14  C   UNL     1      21.971   8.673   9.350  1.00  0.00     0.053 C 
BRANCH  14  15
ATOM     15  C   UNL     1      20.570   9.147   9.116  1.00  0.00     0.041 C 
ATOM     16  O   UNL     1      19.694   9.001  10.010  1.00  0.00    -0.550 OA
ATOM     17  O   UNL     1      20.239   9.777   7.924  1.00  0.00    -0.550 OA
ENDBRANCH  14  15
ENDBRANCH  13  14
ENDBRANCH  12  13
ENDBRANCH  11  12
ENDBRANCH  10  11
ENDBRANCH   9  10
ENDBRANCH   8   9
ENDBRANCH   7   8
ENDBRANCH   6   7
ENDBRANCH   5   6
ENDBRANCH   4   5
ENDBRANCH   3   4
ENDBRANCH   2   3
ENDBRANCH   1   2
BRANCH   1  18
ATOM     18  C   UNL     1      27.354   4.132   9.151  1.00  0.00     0.000 C 
BRANCH  18  19
ATOM     19  C   UNL     1      27.242   3.511   7.748  1.00  0.00     0.000 C 
BRANCH  19  20
ATOM     20  C   UNL     1      27.983   2.170   7.637  1.00  0.00     0.000 C 
BRANCH  20  21
ATOM     21  C   UNL     1      27.884   1.377   8.948  1.00  0.00     0.000 C 
BRANCH  21  22
ATOM     22  C   UNL     1      28.543  -0.011   8.863  1.00  0.00     0.000 C 
BRANCH  22  23
ATOM     23  C   UNL     1      27.633  -1.191   9.258  1.00  0.00     0.000 C 
BRANCH  23  24
ATOM     24  C   UNL     1      27.893  -2.504   8.494  1.00  0.00    -0.000 C 
BRANCH  24  25
ATOM     25  C   UNL     1      28.362  -2.324   7.041  1.00  0.00    -0.000 C 
BRANCH  25  26
ATOM     26  C   UNL     1      27.193  -2.258   6.042  1.00  0.00    -0.000 C 
BRANCH  26  27
ATOM     27  C   UNL     1      26.831  -0.817   5.648  1.00  0.00    -0.000 C 
BRANCH  27  28
ATOM     28  C   UNL     1      25.399  -0.436   6.049  1.00  0.00    -0.000 C 
BRANCH  28  29
ATOM     29  C   UNL     1      25.138   1.054   5.799  1.00  0.00    -0.000 C 
BRANCH  29  30
ATOM     30  C   UNL     1      23.909   1.536   6.581  1.00  0.00    -0.000 C 
BRANCH  30  31
ATOM     31  C   UNL     1      24.179   1.518   8.091  1.00  0.00    -0.003 C 
ATOM     32  C   UNL     1      23.042   2.181   8.862  1.00  0.00     0.004 C 
ENDBRANCH  30  31
ENDBRANCH  29  30
ENDBRANCH  28  29
ENDBRANCH  27  28
ENDBRANCH  26  27
ENDBRANCH  25  26
ENDBRANCH  24  25
ENDBRANCH  23  24
ENDBRANCH  22  23
ENDBRANCH  21  22
ENDBRANCH  20  21
ENDBRANCH  19  20
ENDBRANCH  18  19
ENDBRANCH   1  18
TORSDOF 28
ENDMDL
MODEL 3
REMARK VINA RESULT:    -4.311      1.687      4.873
REMARK INTER + INTRA:         -17.003
REMARK INTER:                 -11.081
REMARK INTRA:                  -5.922
REMARK UNBOUND:                -5.637
REMARK SMILES CCCCCCCCCCCCCCCCCCCCCCCCCCCCCC(=O)[O-]
REMARK SMILES IDX 16 1 17 2 18 3 19 4 20 5 21 6 22 7 23 8 24 9 25 10 26 11
REMARK SMILES IDX 27 12 28 13 29 14 30 15 31 16 32 17 15 18 14 19 13 20 12 21
REMARK SMILES IDX 11 22 10 23 9 24 8 25 7 26 6 27 5 28 4 29 3 30 2 31 1 32
REMARK H PARENT
REMARK Flexibility Score: inf
ROOT
ATOM      1  C   UNL     1      27.994   3.590   8.919  1.00  0.00     0.000 C 
ENDROOT
BRANCH   1   2
ATOM      2  C   UNL     1      27.841   3.849  10.425  1.00  0.00     0.000 C 
BRANCH   2   3
ATOM      3  C   UNL     1      27.445   5.304  10.742  1.00  0.00     0.000 C 
BRANCH   3   4
ATOM      4  C   UNL     1      27.257   6.148   9.463  1.00  0.00     0.000 C 
BRANCH   4   5
ATOM      5  C   UNL     1      26.132   7.190   9.570  1.00  0.00     0.000 C 
BRANCH   5   6
ATOM      6  C   UNL     1      25.967   8.028   8.291  1.00  0.00     0.000 C 
BRANCH   6   7
ATOM      7  C   UNL     1      26.892   7.552   7.153  1.00  0.00     0.000 C 
BRANCH   7   8
ATOM      8  C   UNL     1      26.210   6.614   6.137  1.00  0.00     0.000 C 
BRANCH   8   9
ATOM      9  C   UNL     1      24.688   6.819   6.011  1.00  0.00     0.000 C 
BRANCH   9  10
ATOM     10  C   UNL     1      23.887   5.597   6.494  1.00  0.00     0.000 C 
BRANCH  10  11
ATOM     11  C   UNL     1      24.779   4.521   7.132  1.00  0.00     0.000 C 
BRANCH  11  12
ATOM     12  C   UNL     1      24.282   4.092   8.523  1.00  0.00     0.000 C 
BRANCH  12  13
ATOM     13  C   UNL     1      23.121   4.965   9.033  1.00  0.00     0.006 C 
BRANCH  13  14
ATOM     14  C   UNL     1      23.214   5.327  10.525  1.00  0.00     0.053 C 
BRANCH  14  15
ATOM     15  C   UNL     1      22.370   6.516  10.869  1.00  0.00     0.041 C 
ATOM     16  O   UNL     1      21.222   6.356  11.363  1.00  0.00    -0.550 OA
ATOM     17  O   UNL     1      22.864   7.799  10.673  1.00  0.00    -0.550 OA
ENDBRANCH  14  15
ENDBRANCH  13  14
ENDBRANCH  12  13
ENDBRANCH  11  12
ENDBRANCH  10  11
ENDBRANCH   9  10
ENDBRANCH   8   9
ENDBRANCH   7   8
ENDBRANCH   6   7
ENDBRANCH   5   6
ENDBRANCH   4   5
ENDBRANCH   3   4
ENDBRANCH   2   3
ENDBRANCH   1   2
BRANCH   1  18
ATOM     18  C   UNL     1      27.348   2.264   8.478  1.00  0.00     0.000 C 
BRANCH  18  19
ATOM     19  C   UNL     1      28.374   1.125   8.357  1.00  0.00     0.000 C 
BRANCH  19  20
ATOM     20  C   UNL     1      28.009  -0.092   9.220  1.00  0.00     0.000 C 
BRANCH  20  21
ATOM     21  C   UNL     1      27.426  -1.221   8.357  1.00  0.00     0.000 C 
BRANCH  21  22
ATOM     22  C   UNL     1      27.930  -1.189   6.903  1.00  0.00     0.000 C 
BRANCH  22  23
ATOM     23  C   UNL     1      27.353  -2.288   5.988  1.00  0.00     0.000 C 
BRANCH  23  24
ATOM     24  C   UNL     1      25.815  -2.363   5.944  1.00  0.00    -0.000 C 
BRANCH  24  25
ATOM     25  C   UNL     1      25.192  -2.051   4.573  1.00  0.00    -0.000 C 
BRANCH  25  26
ATOM     26  C   UNL     1      26.172  -1.343   3.621  1.00  0.00    -0.000 C 
BRANCH  26  27
ATOM     27  C   UNL     1      25.733   0.088   3.275  1.00  0.00    -0.000 C 
BRANCH  27  28
ATOM     28  C   UNL     1      26.433   1.147   4.139  1.00  0.00    -0.000 C 
BRANCH  28  29
ATOM     29  C   UNL     1      25.644   1.414   5.426  1.00  0.00    -0.000 C 
BRANCH  29  30
ATOM     30  C   UNL     1      24.139   1.498   5.142  1.00  0.00    -0.000 C 
BRANCH  30  31
ATOM     31  C   UNL     1      23.325   1.027   6.353  1.00  0.00    -0.003 C 
ATOM     32  C   UNL     1      24.236   0.525   7.468  1.00  0.00     0.004 C 
ENDBRANCH  30  31
ENDBRANCH  29  30
ENDBRANCH  28  29
ENDBRANCH  27  28
ENDBRANCH  26  27
ENDBRANCH  25  26
ENDBRANCH  24  25
ENDBRANCH  23  24
ENDBRANCH  22  23
ENDBRANCH  21  22
ENDBRANCH  20  21
ENDBRANCH  19  20
ENDBRANCH  18  19
ENDBRANCH   1  18
TORSDOF 28
ENDMDL
MODEL 4
REMARK VINA RESULT:    -4.247      1.412      4.745
REMARK INTER + INTRA:         -16.834
REMARK INTER:                 -10.848
REMARK INTRA:                  -5.986
REMARK UNBOUND:                -5.637
REMARK SMILES CCCCCCCCCCCCCCCCCCCCCCCCCCCCCC(=O)[O-]
REMARK SMILES IDX 16 1 17 2 18 3 19 4 20 5 21 6 22 7 23 8 24 9 25 10 26 11
REMARK SMILES IDX 27 12 28 13 29 14 30 15 31 16 32 17 15 18 14 19 13 20 12 21
REMARK SMILES IDX 11 22 10 23 9 24 8 25 7 26 6 27 5 28 4 29 3 30 2 31 1 32
REMARK H PARENT
REMARK Flexibility Score: inf
ROOT
ATOM      1  C   UNL     1      27.836   3.950   8.556  1.00  0.00     0.000 C 
ENDROOT
BRANCH   1   2
ATOM      2  C   UNL     1      27.444   3.900  10.040  1.00  0.00     0.000 C 
BRANCH   2   3
ATOM      3  C   UNL     1      26.951   5.259  10.571  1.00  0.00     0.000 C 
BRANCH   3   4
ATOM      4  C   UNL     1      27.076   6.378   9.515  1.00  0.00     0.000 C 
BRANCH   4   5
ATOM      5  C   UNL     1      25.932   7.404   9.563  1.00  0.00     0.000 C 
BRANCH   5   6
ATOM      6  C   UNL     1      25.798   8.214   8.262  1.00  0.00     0.000 C 
BRANCH   6   7
ATOM      7  C   UNL     1      26.610   7.603   7.103  1.00  0.00     0.000 C 
BRANCH   7   8
ATOM      8  C   UNL     1      25.755   7.172   5.893  1.00  0.00     0.000 C 
BRANCH   8   9
ATOM      9  C   UNL     1      24.498   6.363   6.265  1.00  0.00     0.000 C 
BRANCH   9  10
ATOM     10  C   UNL     1      24.827   4.913   6.661  1.00  0.00     0.000 C 
BRANCH  10  11
ATOM     11  C   UNL     1      24.182   4.504   7.994  1.00  0.00     0.000 C 
BRANCH  11  12
ATOM     12  C   UNL     1      22.908   5.310   8.303  1.00  0.00     0.000 C 
BRANCH  12  13
ATOM     13  C   UNL     1      22.815   5.731   9.780  1.00  0.00     0.006 C 
BRANCH  13  14
ATOM     14  C   UNL     1      21.620   6.644  10.101  1.00  0.00     0.053 C 
BRANCH  14  15
ATOM     15  C   UNL     1      21.594   7.864   9.233  1.00  0.00     0.041 C 
ATOM     16  O   UNL     1      22.517   8.719   9.312  1.00  0.00    -0.550 OA
ATOM     17  O   UNL     1      20.567   8.043   8.315  1.00  0.00    -0.550 OA
ENDBRANCH  14  15
ENDBRANCH  13  14
ENDBRANCH  12  13
ENDBRANCH  11  12
ENDBRANCH  10  11
ENDBRANCH   9  10
ENDBRANCH   8   9
ENDBRANCH   7   8
ENDBRANCH   6   7
ENDBRANCH   5   6
ENDBRANCH   4   5
ENDBRANCH   3   4
ENDBRANCH   2   3
ENDBRANCH   1   2
BRANCH   1  18
ATOM     18  C   UNL     1      27.994   2.549   7.938  1.00  0.00     0.000 C 
BRANCH  18  19
ATOM     19  C   UNL     1      27.903   1.431   8.991  1.00  0.00     0.000 C 
BRANCH  19  20
ATOM     20  C   UNL     1      28.212   0.044   8.407  1.00  0.00     0.000 C 
BRANCH  20  21
ATOM     21  C   UNL     1      27.061  -0.935   8.680  1.00  0.00     0.000 C 
BRANCH  21  22
ATOM     22  C   UNL     1      26.765  -1.863   7.488  1.00  0.00     0.000 C 
BRANCH  22  23
ATOM     23  C   UNL     1      27.414  -1.440   6.155  1.00  0.00     0.000 C 
BRANCH  23  24
ATOM     24  C   UNL     1      26.427  -1.024   5.048  1.00  0.00    -0.000 C 
BRANCH  24  25
ATOM     25  C   UNL     1      26.446   0.472   4.693  1.00  0.00    -0.000 C 
BRANCH  25  26
ATOM     26  C   UNL     1      25.712   1.339   5.731  1.00  0.00    -0.000 C 
BRANCH  26  27
ATOM     27  C   UNL     1      24.309   0.806   6.061  1.00  0.00    -0.000 C 
BRANCH  27  28
ATOM     28  C   UNL     1      23.968   0.924   7.554  1.00  0.00    -0.000 C 
BRANCH  28  29
ATOM     29  C   UNL     1      22.501   0.559   7.811  1.00  0.00    -0.000 C 
BRANCH  29  30
ATOM     30  C   UNL     1      21.642   1.818   7.983  1.00  0.00    -0.000 C 
BRANCH  30  31
ATOM     31  C   UNL     1      20.720   2.022   6.775  1.00  0.00    -0.003 C 
ATOM     32  C   UNL     1      21.237   3.134   5.868  1.00  0.00     0.004 C 
ENDBRANCH  30  31
ENDBRANCH  29  30
ENDBRANCH  28  29
ENDBRANCH  27  28
ENDBRANCH  26  27
ENDBRANCH  25  26
ENDBRANCH  24  25
ENDBRANCH  23  24
ENDBRANCH  22  23
ENDBRANCH  21  22
ENDBRANCH  20  21
ENDBRANCH  19  20
ENDBRANCH  18  19
ENDBRANCH   1  18
TORSDOF 28
ENDMDL
MODEL 5
REMARK VINA RESULT:    -4.220      1.873      3.888
REMARK INTER + INTRA:         -16.763
REMARK INTER:                 -11.712
REMARK INTRA:                  -5.052
REMARK UNBOUND:                -5.637
REMARK SMILES CCCCCCCCCCCCCCCCCCCCCCCCCCCCCC(=O)[O-]
REMARK SMILES IDX 16 1 17 2 18 3 19 4 20 5 21 6 22 7 23 8 24 9 25 10 26 11
REMARK SMILES IDX 27 12 28 13 29 14 30 15 31 16 32 17 15 18 14 19 13 20 12 21
REMARK SMILES IDX 11 22 10 23 9 24 8 25 7 26 6 27 5 28 4 29 3 30 2 31 1 32
REMARK H PARENT
REMARK Flexibility Score: inf
ROOT
ATOM      1  C   UNL     1      24.833   4.391   6.688  1.00  0.00     0.000 C 
ENDROOT
BRANCH   1   2
ATOM      2  C   UNL     1      24.078   5.728   6.631  1.00  0.00     0.000 C 
BRANCH   2   3
ATOM      3  C   UNL     1      24.849   6.813   5.857  1.00  0.00     0.000 C 
BRANCH   3   4
ATOM      4  C   UNL     1      26.368   6.753   6.125  1.00  0.00     0.000 C 
BRANCH   4   5
ATOM      5  C   UNL     1      26.865   7.824   7.110  1.00  0.00     0.000 C 
BRANCH   5   6
ATOM      6  C   UNL     1      26.475   7.524   8.568  1.00  0.00     0.000 C 
BRANCH   6   7
ATOM      7  C   UNL     1      25.433   8.520   9.115  1.00  0.00     0.000 C 
BRANCH   7   8
ATOM      8  C   UNL     1      24.191   7.853   9.741  1.00  0.00     0.000 C 
BRANCH   8   9
ATOM      9  C   UNL     1      24.488   6.530  10.473  1.00  0.00     0.000 C 
BRANCH   9  10
ATOM     10  C   UNL     1      23.228   5.668  10.665  1.00  0.00     0.000 C 
BRANCH  10  11
ATOM     11  C   UNL     1      21.968   6.323  10.077  1.00  0.00     0.000 C 
BRANCH  11  12
ATOM     12  C   UNL     1      21.341   5.485   8.950  1.00  0.00     0.000 C 
BRANCH  12  13
ATOM     13  C   UNL     1      20.103   6.157   8.328  1.00  0.00     0.006 C 
BRANCH  13  14
ATOM     14  C   UNL     1      19.525   5.411   7.114  1.00  0.00     0.053 C 
BRANCH  14  15
ATOM     15  C   UNL     1      20.550   5.200   6.042  1.00  0.00     0.041 C 
ATOM     16  O   UNL     1      20.923   6.165   5.323  1.00  0.00    -0.550 OA
ATOM     17  O   UNL     1      21.114   3.944   5.858  1.00  0.00    -0.550 OA
ENDBRANCH  14  15
ENDBRANCH  13  14
ENDBRANCH  12  13
ENDBRANCH  11  12
ENDBRANCH  10  11
ENDBRANCH   9  10
ENDBRANCH   8   9
ENDBRANCH   7   8
ENDBRANCH   6   7
ENDBRANCH   5   6
ENDBRANCH   4   5
ENDBRANCH   3   4
ENDBRANCH   2   3
ENDBRANCH   1   2
BRANCH   1  18
ATOM     18  C   UNL     1      24.662   3.673   8.039  1.00  0.00     0.000 C 
BRANCH  18  19
ATOM     19  C   UNL     1      25.994   3.520   8.793  1.00  0.00     0.000 C 
BRANCH  19  20
ATOM     20  C   UNL     1      27.214   3.662   7.871  1.00  0.00     0.000 C 
BRANCH  20  21
ATOM     21  C   UNL     1      27.989   2.339   7.777  1.00  0.00     0.000 C 
BRANCH  21  22
ATOM     22  C   UNL     1      27.922   1.510   9.072  1.00  0.00     0.000 C 
BRANCH  22  23
ATOM     23  C   UNL     1      28.517   0.091   8.970  1.00  0.00     0.000 C 
BRANCH  23  24
ATOM     24  C   UNL     1      27.585  -1.045   9.432  1.00  0.00    -0.000 C 
BRANCH  24  25
ATOM     25  C   UNL     1      27.924  -2.432   8.860  1.00  0.00    -0.000 C 
BRANCH  25  26
ATOM     26  C   UNL     1      28.353  -2.378   7.383  1.00  0.00    -0.000 C 
BRANCH  26  27
ATOM     27  C   UNL     1      27.355  -3.085   6.451  1.00  0.00    -0.000 C 
BRANCH  27  28
ATOM     28  C   UNL     1      26.341  -2.117   5.826  1.00  0.00    -0.000 C 
BRANCH  28  29
ATOM     29  C   UNL     1      26.894  -0.687   5.797  1.00  0.00    -0.000 C 
BRANCH  29  30
ATOM     30  C   UNL     1      25.759   0.344   5.862  1.00  0.00    -0.000 C 
BRANCH  30  31
ATOM     31  C   UNL     1      25.921   1.406   4.769  1.00  0.00    -0.003 C 
ATOM     32  C   UNL     1      26.148   0.763   3.404  1.00  0.00     0.004 C 
ENDBRANCH  30  31
ENDBRANCH  29  30
ENDBRANCH  28  29
ENDBRANCH  27  28
ENDBRANCH  26  27
ENDBRANCH  25  26
ENDBRANCH  24  25
ENDBRANCH  23  24
ENDBRANCH  22  23
ENDBRANCH  21  22
ENDBRANCH  20  21
ENDBRANCH  19  20
ENDBRANCH  18  19
ENDBRANCH   1  18
TORSDOF 28
ENDMDL
MODEL 6
REMARK VINA RESULT:    -4.214      2.714      6.539
REMARK INTER + INTRA:         -16.749
REMARK INTER:                 -10.793
REMARK INTRA:                  -5.957
REMARK UNBOUND:                -5.637
REMARK SMILES CCCCCCCCCCCCCCCCCCCCCCCCCCCCCC(=O)[O-]
REMARK SMILES IDX 16 1 17 2 18 3 19 4 20 5 21 6 22 7 23 8 24 9 25 10 26 11
REMARK SMILES IDX 27 12 28 13 29 14 30 15 31 16 32 17 15 18 14 19 13 20 12 21
REMARK SMILES IDX 11 22 10 23 9 24 8 25 7 26 6 27 5 28 4 29 3 30 2 31 1 32
REMARK H PARENT
REMARK Flexibility Score: inf
ROOT
ATOM      1  C   UNL     1      27.842   4.240  10.767  1.00  0.00     0.000 C 
ENDROOT
BRANCH   1   2
ATOM      2  C   UNL     1      28.159   3.090   9.799  1.00  0.00     0.000 C 
BRANCH   2   3
ATOM      3  C   UNL     1      27.013   2.814   8.808  1.00  0.00     0.000 C 
BRANCH   3   4
ATOM      4  C   UNL     1      27.441   3.044   7.343  1.00  0.00     0.000 C 
BRANCH   4   5
ATOM      5  C   UNL     1      26.326   2.764   6.322  1.00  0.00     0.000 C 
BRANCH   5   6
ATOM      6  C   UNL     1      26.780   1.844   5.176  1.00  0.00     0.000 C 
BRANCH   6   7
ATOM      7  C   UNL     1      25.592   1.255   4.389  1.00  0.00     0.000 C 
BRANCH   7   8
ATOM      8  C   UNL     1      24.212   1.575   4.997  1.00  0.00     0.000 C 
BRANCH   8   9
ATOM      9  C   UNL     1      23.367   0.330   5.334  1.00  0.00     0.000 C 
BRANCH   9  10
ATOM     10  C   UNL     1      23.529  -0.112   6.799  1.00  0.00     0.000 C 
BRANCH  10  11
ATOM     11  C   UNL     1      24.731  -1.046   7.005  1.00  0.00     0.000 C 
BRANCH  11  12
ATOM     12  C   UNL     1      25.717  -0.513   8.058  1.00  0.00     0.000 C 
BRANCH  12  13
ATOM     13  C   UNL     1      27.188  -0.717   7.652  1.00  0.00     0.006 C 
BRANCH  13  14
ATOM     14  C   UNL     1      28.181  -0.648   8.824  1.00  0.00     0.053 C 
BRANCH  14  15
ATOM     15  C   UNL     1      27.828  -1.607   9.919  1.00  0.00     0.041 C 
ATOM     16  O   UNL     1      27.803  -1.219  11.118  1.00  0.00    -0.550 OA
ATOM     17  O   UNL     1      27.497  -2.921   9.613  1.00  0.00    -0.550 OA
ENDBRANCH  14  15
ENDBRANCH  13  14
ENDBRANCH  12  13
ENDBRANCH  11  12
ENDBRANCH  10  11
ENDBRANCH   9  10
ENDBRANCH   8   9
ENDBRANCH   7   8
ENDBRANCH   6   7
ENDBRANCH   5   6
ENDBRANCH   4   5
ENDBRANCH   3   4
ENDBRANCH   2   3
ENDBRANCH   1   2
BRANCH   1  18
ATOM     18  C   UNL     1      28.048   5.625  10.128  1.00  0.00     0.000 C 
BRANCH  18  19
ATOM     19  C   UNL     1      26.721   6.373   9.911  1.00  0.00     0.000 C 
BRANCH  19  20
ATOM     20  C   UNL     1      26.572   6.904   8.477  1.00  0.00     0.000 C 
BRANCH  20  21
ATOM     21  C   UNL     1      25.732   8.189   8.453  1.00  0.00     0.000 C 
BRANCH  21  22
ATOM     22  C   UNL     1      24.739   8.281   9.626  1.00  0.00     0.000 C 
BRANCH  22  23
ATOM     23  C   UNL     1      23.272   8.533   9.221  1.00  0.00     0.000 C 
BRANCH  23  24
ATOM     24  C   UNL     1      22.404   7.268   9.083  1.00  0.00    -0.000 C 
BRANCH  24  25
ATOM     25  C   UNL     1      21.921   6.969   7.654  1.00  0.00    -0.000 C 
BRANCH  25  26
ATOM     26  C   UNL     1      23.078   6.659   6.688  1.00  0.00    -0.000 C 
BRANCH  26  27
ATOM     27  C   UNL     1      23.429   5.163   6.645  1.00  0.00    -0.000 C 
BRANCH  27  28
ATOM     28  C   UNL     1      22.186   4.262   6.661  1.00  0.00    -0.000 C 
BRANCH  28  29
ATOM     29  C   UNL     1      22.328   3.151   7.708  1.00  0.00    -0.000 C 
BRANCH  29  30
ATOM     30  C   UNL     1      23.518   3.419   8.638  1.00  0.00    -0.000 C 
BRANCH  30  31
ATOM     31  C   UNL     1      23.039   3.824  10.037  1.00  0.00    -0.003 C 
ATOM     32  C   UNL     1      24.153   4.505  10.826  1.00  0.00     0.004 C 
ENDBRANCH  30  31
ENDBRANCH  29  30
ENDBRANCH  28  29
ENDBRANCH  27  28
ENDBRANCH  26  27
ENDBRANCH  25  26
ENDBRANCH  24  25
ENDBRANCH  23  24
ENDBRANCH  22  23
ENDBRANCH  21  22
ENDBRANCH  20  21
ENDBRANCH  19  20
ENDBRANCH  18  19
ENDBRANCH   1  18
TORSDOF 28
ENDMDL
MODEL 7
REMARK VINA RESULT:    -4.173      2.825      7.206
REMARK INTER + INTRA:         -16.639
REMARK INTER:                 -10.929
REMARK INTRA:                  -5.710
REMARK UNBOUND:                -5.637
REMARK SMILES CCCCCCCCCCCCCCCCCCCCCCCCCCCCCC(=O)[O-]
REMARK SMILES IDX 16 1 17 2 18 3 19 4 20 5 21 6 22 7 23 8 24 9 25 10 26 11
REMARK SMILES IDX 27 12 28 13 29 14 30 15 31 16 32 17 15 18 14 19 13 20 12 21
REMARK SMILES IDX 11 22 10 23 9 24 8 25 7 26 6 27 5 28 4 29 3 30 2 31 1 32
REMARK H PARENT
REMARK Flexibility Score: inf
ROOT
ATOM      1  C   UNL     1      24.934   1.656   7.874  1.00  0.00     0.000 C 
ENDROOT
BRANCH   1   2
ATOM      2  C   UNL     1      25.773   2.400   6.824  1.00  0.00     0.000 C 
BRANCH   2   3
ATOM      3  C   UNL     1      27.287   2.217   7.034  1.00  0.00     0.000 C 
BRANCH   3   4
ATOM      4  C   UNL     1      27.620   1.683   8.444  1.00  0.00     0.000 C 
BRANCH   4   5
ATOM      5  C   UNL     1      28.496   0.419   8.435  1.00  0.00     0.000 C 
BRANCH   5   6
ATOM      6  C   UNL     1      28.051  -0.626   9.473  1.00  0.00     0.000 C 
BRANCH   6   7
ATOM      7  C   UNL     1      27.299  -1.809   8.831  1.00  0.00     0.000 C 
BRANCH   7   8
ATOM      8  C   UNL     1      28.164  -2.668   7.885  1.00  0.00     0.000 C 
BRANCH   8   9
ATOM      9  C   UNL     1      27.829  -2.492   6.391  1.00  0.00     0.000 C 
BRANCH   9  10
ATOM     10  C   UNL     1      26.460  -1.826   6.169  1.00  0.00     0.000 C 
BRANCH  10  11
ATOM     11  C   UNL     1      26.501  -0.741   5.082  1.00  0.00     0.000 C 
BRANCH  11  12
ATOM     12  C   UNL     1      25.258  -0.769   4.176  1.00  0.00     0.000 C 
BRANCH  12  13
ATOM     13  C   UNL     1      24.865   0.628   3.663  1.00  0.00     0.006 C 
BRANCH  13  14
ATOM     14  C   UNL     1      23.539   1.159   4.233  1.00  0.00     0.053 C 
BRANCH  14  15
ATOM     15  C   UNL     1      22.395   0.944   3.290  1.00  0.00     0.041 C 
ATOM     16  O   UNL     1      21.208   1.012   3.708  1.00  0.00    -0.550 OA
ATOM     17  O   UNL     1      22.639   0.699   1.945  1.00  0.00    -0.550 OA
ENDBRANCH  14  15
ENDBRANCH  13  14
ENDBRANCH  12  13
ENDBRANCH  11  12
ENDBRANCH  10  11
ENDBRANCH   9  10
ENDBRANCH   8   9
ENDBRANCH   7   8
ENDBRANCH   6   7
ENDBRANCH   5   6
ENDBRANCH   4   5
ENDBRANCH   3   4
ENDBRANCH   2   3
ENDBRANCH   1   2
BRANCH   1  18
ATOM     18  C   UNL     1      23.535   2.271   8.058  1.00  0.00     0.000 C 
BRANCH  18  19
ATOM     19  C   UNL     1      23.292   3.464   7.118  1.00  0.00     0.000 C 
BRANCH  19  20
ATOM     20  C   UNL     1      22.643   4.657   7.836  1.00  0.00     0.000 C 
BRANCH  20  21
ATOM     21  C   UNL     1      23.209   5.986   7.312  1.00  0.00     0.000 C 
BRANCH  21  22
ATOM     22  C   UNL     1      24.214   5.799   6.161  1.00  0.00     0.000 C 
BRANCH  22  23
ATOM     23  C   UNL     1      25.020   7.060   5.788  1.00  0.00     0.000 C 
BRANCH  23  24
ATOM     24  C   UNL     1      26.397   7.182   6.469  1.00  0.00    -0.000 C 
BRANCH  24  25
ATOM     25  C   UNL     1      26.382   7.898   7.830  1.00  0.00    -0.000 C 
BRANCH  25  26
ATOM     26  C   UNL     1      26.874   7.001   8.980  1.00  0.00    -0.000 C 
BRANCH  26  27
ATOM     27  C   UNL     1      26.784   5.505   8.643  1.00  0.00    -0.000 C 
BRANCH  27  28
ATOM     28  C   UNL     1      25.981   4.711   9.683  1.00  0.00    -0.000 C 
BRANCH  28  29
ATOM     29  C   UNL     1      25.540   5.614  10.841  1.00  0.00    -0.000 C 
BRANCH  29  30
ATOM     30  C   UNL     1      24.038   5.467  11.114  1.00  0.00    -0.000 C 
BRANCH  30  31
ATOM     31  C   UNL     1      23.429   6.802  11.559  1.00  0.00    -0.003 C 
ATOM     32  C   UNL     1      23.526   7.848  10.453  1.00  0.00     0.004 C 
ENDBRANCH  30  31
ENDBRANCH  29  30
ENDBRANCH  28  29
ENDBRANCH  27  28
ENDBRANCH  26  27
ENDBRANCH  25  26
ENDBRANCH  24  25
ENDBRANCH  23  24
ENDBRANCH  22  23
ENDBRANCH  21  22
ENDBRANCH  20  21
ENDBRANCH  19  20
ENDBRANCH  18  19
ENDBRANCH   1  18
TORSDOF 28
ENDMDL
MODEL 8
REMARK VINA RESULT:    -4.136      2.597      6.532
REMARK INTER + INTRA:         -16.542
REMARK INTER:                 -10.508
REMARK INTRA:                  -6.034
REMARK UNBOUND:                -5.637
REMARK SMILES CCCCCCCCCCCCCCCCCCCCCCCCCCCCCC(=O)[O-]
REMARK SMILES IDX 16 1 17 2 18 3 19 4 20 5 21 6 22 7 23 8 24 9 25 10 26 11
REMARK SMILES IDX 27 12 28 13 29 14 30 15 31 16 32 17 15 18 14 19 13 20 12 21
REMARK SMILES IDX 11 22 10 23 9 24 8 25 7 26 6 27 5 28 4 29 3 30 2 31 1 32
REMARK H PARENT
REMARK Flexibility Score: inf
ROOT
ATOM      1  C   UNL     1      28.002   2.600   7.999  1.00  0.00     0.000 C 
ENDROOT
BRANCH   1   2
ATOM      2  C   UNL     1      28.098   1.544   9.110  1.00  0.00     0.000 C 
BRANCH   2   3
ATOM      3  C   UNL     1      28.327   0.124   8.563  1.00  0.00     0.000 C 
BRANCH   3   4
ATOM      4  C   UNL     1      27.143  -0.818   8.870  1.00  0.00     0.000 C 
BRANCH   4   5
ATOM      5  C   UNL     1      26.459  -1.382   7.614  1.00  0.00     0.000 C 
BRANCH   5   6
ATOM      6  C   UNL     1      27.279  -1.157   6.332  1.00  0.00     0.000 C 
BRANCH   6   7
ATOM      7  C   UNL     1      26.443  -0.526   5.202  1.00  0.00     0.000 C 
BRANCH   7   8
ATOM      8  C   UNL     1      26.409   1.016   5.227  1.00  0.00     0.000 C 
BRANCH   8   9
ATOM      9  C   UNL     1      24.994   1.618   5.123  1.00  0.00     0.000 C 
BRANCH   9  10
ATOM     10  C   UNL     1      24.681   2.591   6.273  1.00  0.00     0.000 C 
BRANCH  10  11
ATOM     11  C   UNL     1      24.626   1.890   7.640  1.00  0.00     0.000 C 
BRANCH  11  12
ATOM     12  C   UNL     1      23.227   1.954   8.277  1.00  0.00     0.000 C 
BRANCH  12  13
ATOM     13  C   UNL     1      22.254   0.923   7.678  1.00  0.00     0.006 C 
BRANCH  13  14
ATOM     14  C   UNL     1      22.863  -0.473   7.471  1.00  0.00     0.053 C 
BRANCH  14  15
ATOM     15  C   UNL     1      22.672  -0.970   6.071  1.00  0.00     0.041 C 
ATOM     16  O   UNL     1      21.998  -0.296   5.246  1.00  0.00    -0.550 OA
ATOM     17  O   UNL     1      23.263  -2.160   5.668  1.00  0.00    -0.550 OA
ENDBRANCH  14  15
ENDBRANCH  13  14
ENDBRANCH  12  13
ENDBRANCH  11  12
ENDBRANCH  10  11
ENDBRANCH   9  10
ENDBRANCH   8   9
ENDBRANCH   7   8
ENDBRANCH   6   7
ENDBRANCH   5   6
ENDBRANCH   4   5
ENDBRANCH   3   4
ENDBRANCH   2   3
ENDBRANCH   1   2
BRANCH   1  18
ATOM     18  C   UNL     1      27.989   4.038   8.549  1.00  0.00     0.000 C 
BRANCH  18  19
ATOM     19  C   UNL     1      27.927   4.077  10.085  1.00  0.00     0.000 C 
BRANCH  19  20
ATOM     20  C   UNL     1      26.760   4.930  10.606  1.00  0.00     0.000 C 
BRANCH  20  21
ATOM     21  C   UNL     1      25.442   4.531   9.926  1.00  0.00     0.000 C 
BRANCH  21  22
ATOM     22  C   UNL     1      24.224   4.650  10.859  1.00  0.00     0.000 C 
BRANCH  22  23
ATOM     23  C   UNL     1      24.058   6.022  11.544  1.00  0.00     0.000 C 
BRANCH  23  24
ATOM     24  C   UNL     1      23.363   7.100  10.692  1.00  0.00    -0.000 C 
BRANCH  24  25
ATOM     25  C   UNL     1      22.171   6.597   9.860  1.00  0.00    -0.000 C 
BRANCH  25  26
ATOM     26  C   UNL     1      21.897   7.470   8.623  1.00  0.00    -0.000 C 
BRANCH  26  27
ATOM     27  C   UNL     1      21.870   6.657   7.319  1.00  0.00    -0.000 C 
BRANCH  27  28
ATOM     28  C   UNL     1      23.142   5.823   7.114  1.00  0.00    -0.000 C 
BRANCH  28  29
ATOM     29  C   UNL     1      24.228   6.644   6.407  1.00  0.00    -0.000 C 
BRANCH  29  30
ATOM     30  C   UNL     1      25.628   6.129   6.764  1.00  0.00    -0.000 C 
BRANCH  30  31
ATOM     31  C   UNL     1      26.520   7.270   7.266  1.00  0.00    -0.003 C 
ATOM     32  C   UNL     1      25.754   8.196   8.205  1.00  0.00     0.004 C 
ENDBRANCH  30  31
ENDBRANCH  29  30
ENDBRANCH  28  29
ENDBRANCH  27  28
ENDBRANCH  26  27
ENDBRANCH  25  26
ENDBRANCH  24  25
ENDBRANCH  23  24
ENDBRANCH  22  23
ENDBRANCH  21  22
ENDBRANCH  20  21
ENDBRANCH  19  20
ENDBRANCH  18  19
ENDBRANCH   1  18
TORSDOF 28
ENDMDL
MODEL 9
REMARK VINA RESULT:    -4.106      1.929      6.103
REMARK INTER + INTRA:         -16.464
REMARK INTER:                 -10.513
REMARK INTRA:                  -5.951
REMARK UNBOUND:                -5.637
REMARK SMILES CCCCCCCCCCCCCCCCCCCCCCCCCCCCCC(=O)[O-]
REMARK SMILES IDX 16 1 17 2 18 3 19 4 20 5 21 6 22 7 23 8 24 9 25 10 26 11
REMARK SMILES IDX 27 12 28 13 29 14 30 15 31 16 32 17 15 18 14 19 13 20 12 21
REMARK SMILES IDX 11 22 10 23 9 24 8 25 7 26 6 27 5 28 4 29 3 30 2 31 1 32
REMARK H PARENT
REMARK Flexibility Score: inf
ROOT
ATOM      1  C   UNL     1      27.978   2.631   7.743  1.00  0.00     0.000 C 
ENDROOT
BRANCH   1   2
ATOM      2  C   UNL     1      27.406   1.421   8.497  1.00  0.00     0.000 C 
BRANCH   2   3
ATOM      3  C   UNL     1      28.377   0.227   8.529  1.00  0.00     0.000 C 
BRANCH   3   4
ATOM      4  C   UNL     1      27.646  -1.114   8.755  1.00  0.00     0.000 C 
BRANCH   4   5
ATOM      5  C   UNL     1      26.600  -1.438   7.675  1.00  0.00     0.000 C 
BRANCH   5   6
ATOM      6  C   UNL     1      27.224  -1.673   6.289  1.00  0.00     0.000 C 
BRANCH   6   7
ATOM      7  C   UNL     1      26.383  -1.057   5.153  1.00  0.00     0.000 C 
BRANCH   7   8
ATOM      8  C   UNL     1      26.467   0.481   5.069  1.00  0.00     0.000 C 
BRANCH   8   9
ATOM      9  C   UNL     1      25.152   1.162   4.645  1.00  0.00     0.000 C 
BRANCH   9  10
ATOM     10  C   UNL     1      24.523   1.987   5.781  1.00  0.00     0.000 C 
BRANCH  10  11
ATOM     11  C   UNL     1      23.923   1.106   6.888  1.00  0.00     0.000 C 
BRANCH  11  12
ATOM     12  C   UNL     1      23.804   1.846   8.231  1.00  0.00     0.000 C 
BRANCH  12  13
ATOM     13  C   UNL     1      22.348   1.971   8.714  1.00  0.00     0.006 C 
BRANCH  13  14
ATOM     14  C   UNL     1      21.337   2.277   7.596  1.00  0.00     0.053 C 
BRANCH  14  15
ATOM     15  C   UNL     1      20.243   1.256   7.531  1.00  0.00     0.041 C 
ATOM     16  O   UNL     1      20.512   0.030   7.644  1.00  0.00    -0.550 OA
ATOM     17  O   UNL     1      18.923   1.660   7.377  1.00  0.00    -0.550 OA
ENDBRANCH  14  15
ENDBRANCH  13  14
ENDBRANCH  12  13
ENDBRANCH  11  12
ENDBRANCH  10  11
ENDBRANCH   9  10
ENDBRANCH   8   9
ENDBRANCH   7   8
ENDBRANCH   6   7
ENDBRANCH   5   6
ENDBRANCH   4   5
ENDBRANCH   3   4
ENDBRANCH   2   3
ENDBRANCH   1   2
BRANCH   1  18
ATOM     18  C   UNL     1      27.261   3.945   8.102  1.00  0.00     0.000 C 
BRANCH  18  19
ATOM     19  C   UNL     1      26.483   3.845   9.425  1.00  0.00     0.000 C 
BRANCH  19  20
ATOM     20  C   UNL     1      26.528   5.149  10.236  1.00  0.00     0.000 C 
BRANCH  20  21
ATOM     21  C   UNL     1      27.079   6.304   9.388  1.00  0.00     0.000 C 
BRANCH  21  22
ATOM     22  C   UNL     1      26.116   7.502   9.305  1.00  0.00     0.000 C 
BRANCH  22  23
ATOM     23  C   UNL     1      26.126   8.256   7.960  1.00  0.00     0.000 C 
BRANCH  23  24
ATOM     24  C   UNL     1      26.370   7.377   6.719  1.00  0.00    -0.000 C 
BRANCH  24  25
ATOM     25  C   UNL     1      25.095   6.918   5.992  1.00  0.00    -0.000 C 
BRANCH  25  26
ATOM     26  C   UNL     1      24.719   5.461   6.313  1.00  0.00    -0.000 C 
BRANCH  26  27
ATOM     27  C   UNL     1      23.292   5.326   6.868  1.00  0.00    -0.000 C 
BRANCH  27  28
ATOM     28  C   UNL     1      23.212   5.619   8.373  1.00  0.00    -0.000 C 
BRANCH  28  29
ATOM     29  C   UNL     1      22.448   6.922   8.638  1.00  0.00    -0.000 C 
BRANCH  29  30
ATOM     30  C   UNL     1      21.029   6.855   8.059  1.00  0.00    -0.000 C 
BRANCH  30  31
ATOM     31  C   UNL     1      20.235   5.704   8.687  1.00  0.00    -0.003 C 
ATOM     32  C   UNL     1      19.019   5.344   7.838  1.00  0.00     0.004 C 
ENDBRANCH  30  31
ENDBRANCH  29  30
ENDBRANCH  28  29
ENDBRANCH  27  28
ENDBRANCH  26  27
ENDBRANCH  25  26
ENDBRANCH  24  25
ENDBRANCH  23  24
ENDBRANCH  22  23
ENDBRANCH  21  22
ENDBRANCH  20  21
ENDBRANCH  19  20
ENDBRANCH  18  19
ENDBRANCH   1  18
TORSDOF 28
ENDMDL
