MODEL 1
REMARK VINA RESULT:    -4.729      0.000      0.000
REMARK INTER + INTRA:          -6.651
REMARK INTER:                  -7.216
REMARK INTRA:                   0.565
REMARK UNBOUND:                 0.565
REMARK SMILES CC1=CCC[C@H](C)C(=O)C[C@H](C(C)C)C(=O)C1
REMARK SMILES IDX 8 1 9 2 6 3 7 4 5 5 4 6 3 7 2 8 1 9 10 11 11 12 15 13 16 14
REMARK SMILES IDX 17 15 12 17 13 18 14 19
REMARK H PARENT
REMARK Flexibility Score: 70.00
ROOT
ATOM      1  C   UNL     1     -11.997 -15.795  28.788  1.00  0.00     0.136 C 
ATOM      2  O   UNL     1     -10.789 -15.605  28.750  1.00  0.00    -0.299 OA
ENDROOT
BRANCH   1   3
ATOM      3  C   UNL     1     -12.687 -16.506  27.646  1.00  0.00     0.053 C 
ATOM      4  C   UNL     1     -11.636 -16.991  26.642  1.00  0.00     0.016 C 
BRANCH   3   5
ATOM      5  C   UNL     1     -13.561 -17.691  28.121  1.00  0.00     0.015 C 
BRANCH   5   6
ATOM      6  C   UNL     1     -12.788 -19.018  28.250  1.00  0.00     0.028 C 
BRANCH   6   7
ATOM      7  C   UNL     1     -12.945 -19.623  29.627  1.00  0.00    -0.028 C 
ATOM      8  C   UNL     1     -12.268 -19.267  30.744  1.00  0.00    -0.070 CG0
ATOM      9  C   UNL     1     -12.604 -19.982  32.029  1.00  0.00     0.039 C 
ATOM     10  G   UNL     1     -11.149 -18.246  30.763  1.00  0.00     0.000 G0
ENDBRANCH   6   7
ENDBRANCH   5   6
ENDBRANCH   3   5
ENDBRANCH   1   3
BRANCH   1  11
ATOM     11  C   UNL     1     -12.790 -15.284  29.967  1.00  0.00     0.087 C 
BRANCH  11  12
ATOM     12  C   UNL     1     -12.952 -16.360  31.068  1.00  0.00     0.066 C 
BRANCH  12  13
ATOM     13  C   UNL     1     -11.608 -16.975  31.416  1.00  0.00     0.140 C 
ATOM     14  O   UNL     1     -10.868 -16.411  32.208  1.00  0.00    -0.299 OA
BRANCH  13  15
ATOM     15  C   UNL     1     -11.147 -18.258  30.778  1.00  0.00     0.106 CG0
ATOM     16  G   UNL     1     -12.275 -19.269  30.771  1.00  0.00     0.000 G0
ENDBRANCH  13  15
ENDBRANCH  12  13
BRANCH  12  17
ATOM     17  C   UNL     1     -13.684 -15.846  32.348  1.00  0.00    -0.006 C 
ATOM     18  C   UNL     1     -14.692 -14.713  32.084  1.00  0.00     0.008 C 
ATOM     19  C   UNL     1     -14.375 -16.993  33.102  1.00  0.00     0.008 C 
ENDBRANCH  12  17
ENDBRANCH  11  12
ENDBRANCH   1  11
TORSDOF 1
ENDMDL
MODEL 2
REMARK VINA RESULT:    -4.624      1.858      4.454
REMARK INTER + INTRA:          -6.492
REMARK INTER:                  -6.555
REMARK INTRA:                   0.063
REMARK UNBOUND:                 0.565
REMARK SMILES CC1=CCC[C@H](C)C(=O)C[C@H](C(C)C)C(=O)C1
REMARK SMILES IDX 8 1 9 2 6 3 7 4 5 5 4 6 3 7 2 8 1 9 10 11 11 12 15 13 16 14
REMARK SMILES IDX 17 15 12 17 13 18 14 19
REMARK H PARENT
REMARK Flexibility Score: 70.00
ROOT
ATOM      1  C   UNL     1     -11.466 -18.536  29.909  1.00  0.00     0.136 C 
ATOM      2  O   UNL     1     -10.552 -19.232  30.329  1.00  0.00    -0.299 OA
ENDROOT
BRANCH   1   3
ATOM      3  C   UNL     1     -12.902 -18.936  30.164  1.00  0.00     0.053 C 
ATOM      4  C   UNL     1     -13.182 -20.281  29.487  1.00  0.00     0.016 C 
BRANCH   3   5
ATOM      5  C   UNL     1     -13.241 -19.015  31.672  1.00  0.00     0.015 C 
BRANCH   5   6
ATOM      6  C   UNL     1     -12.823 -17.763  32.467  1.00  0.00     0.028 C 
BRANCH   6   7
ATOM      7  C   UNL     1     -13.843 -16.653  32.336  1.00  0.00    -0.028 C 
ATOM      8  C   UNL     1     -13.755 -15.572  31.528  1.00  0.00    -0.070 CG0
ATOM      9  C   UNL     1     -14.907 -14.597  31.528  1.00  0.00     0.039 C 
ATOM     10  G   UNL     1     -12.543 -15.248  30.680  1.00  0.00     0.000 G0
ENDBRANCH   6   7
ENDBRANCH   5   6
ENDBRANCH   3   5
ENDBRANCH   1   3
BRANCH   1  11
ATOM     11  C   UNL     1     -11.144 -17.298  29.106  1.00  0.00     0.087 C 
BRANCH  11  12
ATOM     12  C   UNL     1     -12.409 -16.673  28.469  1.00  0.00     0.066 C 
BRANCH  12  13
ATOM     13  C   UNL     1     -12.819 -15.418  29.218  1.00  0.00     0.140 C 
ATOM     14  O   UNL     1     -13.375 -14.508  28.621  1.00  0.00    -0.299 OA
BRANCH  13  15
ATOM     15  C   UNL     1     -12.525 -15.252  30.685  1.00  0.00     0.106 CG0
ATOM     16  G   UNL     1     -13.759 -15.575  31.502  1.00  0.00     0.000 G0
ENDBRANCH  13  15
ENDBRANCH  12  13
BRANCH  12  17
ATOM     17  C   UNL     1     -12.271 -16.396  26.939  1.00  0.00    -0.006 C 
ATOM     18  C   UNL     1     -11.339 -17.375  26.204  1.00  0.00     0.008 C 
ATOM     19  C   UNL     1     -13.643 -16.362  26.246  1.00  0.00     0.008 C 
ENDBRANCH  12  17
ENDBRANCH  11  12
ENDBRANCH   1  11
TORSDOF 1
ENDMDL
MODEL 3
REMARK VINA RESULT:    -4.387      2.085      4.281
REMARK INTER + INTRA:          -6.130
REMARK INTER:                  -6.015
REMARK INTRA:                  -0.115
REMARK UNBOUND:                 0.565
REMARK SMILES CC1=CCC[C@H](C)C(=O)C[C@H](C(C)C)C(=O)C1
REMARK SMILES IDX 8 1 9 2 6 3 7 4 5 5 4 6 3 7 2 8 1 9 10 11 11 12 15 13 16 14
REMARK SMILES IDX 17 15 12 17 13 18 14 19
REMARK H PARENT
REMARK Flexibility Score: 70.00
ROOT
ATOM      1  C   UNL     1     -13.186 -19.031  29.023  1.00  0.00     0.136 C 
ATOM      2  O   UNL     1     -14.070 -19.128  28.184  1.00  0.00    -0.299 OA
ENDROOT
BRANCH   1   3
ATOM      3  C   UNL     1     -13.412 -19.554  30.425  1.00  0.00     0.053 C 
ATOM      4  C   UNL     1     -12.549 -20.800  30.646  1.00  0.00     0.016 C 
BRANCH   3   5
ATOM      5  C   UNL     1     -13.113 -18.495  31.513  1.00  0.00     0.015 C 
BRANCH   5   6
ATOM      6  C   UNL     1     -11.732 -18.663  32.176  1.00  0.00     0.028 C 
BRANCH   6   7
ATOM      7  C   UNL     1     -11.117 -17.327  32.528  1.00  0.00    -0.028 C 
ATOM      8  C   UNL     1     -10.396 -16.532  31.704  1.00  0.00    -0.070 CG0
ATOM      9  C   UNL     1      -9.898 -15.217  32.251  1.00  0.00     0.039 C 
ATOM     10  G   UNL     1     -10.000 -16.916  30.293  1.00  0.00     0.000 G0
ENDBRANCH   6   7
ENDBRANCH   5   6
ENDBRANCH   3   5
ENDBRANCH   1   3
BRANCH   1  11
ATOM     11  C   UNL     1     -11.886 -18.356  28.655  1.00  0.00     0.087 C 
BRANCH  11  12
ATOM     12  C   UNL     1     -12.021 -16.815  28.621  1.00  0.00     0.066 C 
BRANCH  12  13
ATOM     13  C   UNL     1     -10.816 -16.159  29.270  1.00  0.00     0.140 C 
ATOM     14  O   UNL     1     -10.502 -15.020  28.959  1.00  0.00    -0.299 OA
BRANCH  13  15
ATOM     15  C   UNL     1      -9.970 -16.897  30.272  1.00  0.00     0.106 CG0
ATOM     16  G   UNL     1     -10.400 -16.537  31.680  1.00  0.00     0.000 G0
ENDBRANCH  13  15
ENDBRANCH  12  13
BRANCH  12  17
ATOM     17  C   UNL     1     -12.275 -16.238  27.192  1.00  0.00    -0.006 C 
ATOM     18  C   UNL     1     -11.593 -17.031  26.063  1.00  0.00     0.008 C 
ATOM     19  C   UNL     1     -13.777 -16.099  26.898  1.00  0.00     0.008 C 
ENDBRANCH  12  17
ENDBRANCH  11  12
ENDBRANCH   1  11
TORSDOF 1
ENDMDL
MODEL 4
REMARK VINA RESULT:    -4.319      2.082      3.862
REMARK INTER + INTRA:          -6.025
REMARK INTER:                  -5.831
REMARK INTRA:                  -0.195
REMARK UNBOUND:                 0.565
REMARK SMILES CC1=CCC[C@H](C)C(=O)C[C@H](C(C)C)C(=O)C1
REMARK SMILES IDX 8 1 9 2 6 3 7 4 5 5 4 6 3 7 2 8 1 9 10 11 11 12 15 13 16 14
REMARK SMILES IDX 17 15 12 17 13 18 14 19
REMARK H PARENT
REMARK Flexibility Score: 70.00
ROOT
ATOM      1  C   UNL     1     -12.084 -18.254  31.604  1.00  0.00     0.136 C 
ATOM      2  O   UNL     1     -12.276 -19.403  31.978  1.00  0.00    -0.299 OA
ENDROOT
BRANCH   1   3
ATOM      3  C   UNL     1     -10.678 -17.697  31.561  1.00  0.00     0.053 C 
ATOM      4  C   UNL     1      -9.944 -18.076  32.851  1.00  0.00     0.016 C 
BRANCH   3   5
ATOM      5  C   UNL     1      -9.880 -18.185  30.328  1.00  0.00     0.015 C 
BRANCH   5   6
ATOM      6  C   UNL     1      -9.881 -17.185  29.155  1.00  0.00     0.028 C 
BRANCH   6   7
ATOM      7  C   UNL     1     -11.115 -17.337  28.293  1.00  0.00    -0.028 C 
ATOM      8  C   UNL     1     -12.091 -16.417  28.118  1.00  0.00    -0.070 CG0
ATOM      9  C   UNL     1     -13.224 -16.762  27.184  1.00  0.00     0.039 C 
ATOM     10  G   UNL     1     -12.148 -15.095  28.856  1.00  0.00     0.000 G0
ENDBRANCH   6   7
ENDBRANCH   5   6
ENDBRANCH   3   5
ENDBRANCH   1   3
BRANCH   1  11
ATOM     11  C   UNL     1     -13.264 -17.393  31.220  1.00  0.00     0.087 C 
BRANCH  11  12
ATOM     12  C   UNL     1     -12.928 -15.884  31.287  1.00  0.00     0.066 C 
BRANCH  12  13
ATOM     13  C   UNL     1     -13.227 -15.211  29.960  1.00  0.00     0.140 C 
ATOM     14  O   UNL     1     -14.342 -14.763  29.742  1.00  0.00    -0.299 OA
BRANCH  13  15
ATOM     15  C   UNL     1     -12.180 -15.110  28.882  1.00  0.00     0.106 CG0
ATOM     16  G   UNL     1     -12.105 -16.410  28.108  1.00  0.00     0.000 G0
ENDBRANCH  13  15
ENDBRANCH  12  13
BRANCH  12  17
ATOM     17  C   UNL     1     -13.625 -15.135  32.467  1.00  0.00    -0.006 C 
ATOM     18  C   UNL     1     -15.044 -15.642  32.782  1.00  0.00     0.008 C 
ATOM     19  C   UNL     1     -12.766 -15.166  33.741  1.00  0.00     0.008 C 
ENDBRANCH  12  17
ENDBRANCH  11  12
ENDBRANCH   1  11
TORSDOF 1
ENDMDL
MODEL 5
REMARK VINA RESULT:    -4.310      1.993      3.966
REMARK INTER + INTRA:          -6.012
REMARK INTER:                  -6.346
REMARK INTRA:                   0.334
REMARK UNBOUND:                 0.565
REMARK SMILES CC1=CCC[C@H](C)C(=O)C[C@H](C(C)C)C(=O)C1
REMARK SMILES IDX 8 1 9 2 6 3 7 4 5 5 4 6 3 7 2 8 1 9 10 11 11 12 15 13 16 14
REMARK SMILES IDX 17 15 12 17 13 18 14 19
REMARK H PARENT
REMARK Flexibility Score: 70.00
ROOT
ATOM      1  C   UNL     1     -12.554 -19.067  29.106  1.00  0.00     0.136 C 
ATOM      2  O   UNL     1     -13.579 -19.571  28.669  1.00  0.00    -0.299 OA
ENDROOT
BRANCH   1   3
ATOM      3  C   UNL     1     -11.836 -19.704  30.276  1.00  0.00     0.053 C 
ATOM      4  C   UNL     1     -10.578 -18.891  30.601  1.00  0.00     0.016 C 
BRANCH   3   5
ATOM      5  C   UNL     1     -12.732 -19.828  31.531  1.00  0.00     0.015 C 
BRANCH   5   6
ATOM      6  C   UNL     1     -13.515 -18.543  31.862  1.00  0.00     0.028 C 
BRANCH   6   7
ATOM      7  C   UNL     1     -12.695 -17.591  32.705  1.00  0.00    -0.028 C 
ATOM      8  C   UNL     1     -12.541 -16.263  32.499  1.00  0.00    -0.070 CG0
ATOM      9  C   UNL     1     -11.700 -15.490  33.484  1.00  0.00     0.039 C 
ATOM     10  G   UNL     1     -13.103 -15.524  31.302  1.00  0.00     0.000 G0
ENDBRANCH   6   7
ENDBRANCH   5   6
ENDBRANCH   3   5
ENDBRANCH   1   3
BRANCH   1  11
ATOM     11  C   UNL     1     -12.035 -17.790  28.489  1.00  0.00     0.087 C 
BRANCH  11  12
ATOM     12  C   UNL     1     -12.892 -16.563  28.885  1.00  0.00     0.066 C 
BRANCH  12  13
ATOM     13  C   UNL     1     -12.279 -15.844  30.073  1.00  0.00     0.140 C 
ATOM     14  O   UNL     1     -11.095 -15.545  30.059  1.00  0.00    -0.299 OA
BRANCH  13  15
ATOM     15  C   UNL     1     -13.096 -15.519  31.295  1.00  0.00     0.106 CG0
ATOM     16  G   UNL     1     -12.541 -16.249  32.500  1.00  0.00     0.000 G0
ENDBRANCH  13  15
ENDBRANCH  12  13
BRANCH  12  17
ATOM     17  C   UNL     1     -13.158 -15.575  27.705  1.00  0.00    -0.006 C 
ATOM     18  C   UNL     1     -13.759 -16.238  26.453  1.00  0.00     0.008 C 
ATOM     19  C   UNL     1     -14.041 -14.397  28.145  1.00  0.00     0.008 C 
ENDBRANCH  12  17
ENDBRANCH  11  12
ENDBRANCH   1  11
TORSDOF 1
ENDMDL
MODEL 6
REMARK VINA RESULT:    -4.227      1.626      4.461
REMARK INTER + INTRA:          -5.885
REMARK INTER:                  -5.656
REMARK INTRA:                  -0.229
REMARK UNBOUND:                 0.565
REMARK SMILES CC1=CCC[C@H](C)C(=O)C[C@H](C(C)C)C(=O)C1
REMARK SMILES IDX 8 1 9 2 6 3 7 4 5 5 4 6 3 7 2 8 1 9 10 11 11 12 15 13 16 14
REMARK SMILES IDX 17 15 12 17 13 18 14 19
REMARK H PARENT
REMARK Flexibility Score: 70.00
ROOT
ATOM      1  C   UNL     1     -12.438 -16.309  32.497  1.00  0.00     0.136 C 
ATOM      2  O   UNL     1     -12.073 -15.544  33.378  1.00  0.00    -0.299 OA
ENDROOT
BRANCH   1   3
ATOM      3  C   UNL     1     -13.888 -16.332  32.066  1.00  0.00     0.053 C 
ATOM      4  C   UNL     1     -14.762 -16.748  33.254  1.00  0.00     0.016 C 
BRANCH   3   5
ATOM      5  C   UNL     1     -14.364 -14.973  31.500  1.00  0.00     0.015 C 
BRANCH   5   6
ATOM      6  C   UNL     1     -13.457 -14.414  30.388  1.00  0.00     0.028 C 
BRANCH   6   7
ATOM      7  C   UNL     1     -13.690 -15.120  29.070  1.00  0.00    -0.028 C 
ATOM      8  C   UNL     1     -12.767 -15.794  28.346  1.00  0.00    -0.070 CG0
ATOM      9  C   UNL     1     -13.221 -16.455  27.068  1.00  0.00     0.039 C 
ATOM     10  G   UNL     1     -11.297 -15.863  28.704  1.00  0.00     0.000 G0
ENDBRANCH   6   7
ENDBRANCH   5   6
ENDBRANCH   3   5
ENDBRANCH   1   3
BRANCH   1  11
ATOM     11  C   UNL     1     -11.435 -17.250  31.872  1.00  0.00     0.087 C 
BRANCH  11  12
ATOM     12  C   UNL     1     -11.890 -17.739  30.475  1.00  0.00     0.066 C 
BRANCH  12  13
ATOM     13  C   UNL     1     -10.983 -17.183  29.393  1.00  0.00     0.140 C 
ATOM     14  O   UNL     1      -9.971 -17.789  29.076  1.00  0.00    -0.299 OA
BRANCH  13  15
ATOM     15  C   UNL     1     -11.286 -15.871  28.718  1.00  0.00     0.106 CG0
ATOM     16  G   UNL     1     -12.755 -15.801  28.355  1.00  0.00     0.000 G0
ENDBRANCH  13  15
ENDBRANCH  12  13
BRANCH  12  17
ATOM     17  C   UNL     1     -12.015 -19.291  30.362  1.00  0.00    -0.006 C 
ATOM     18  C   UNL     1     -12.530 -19.976  31.641  1.00  0.00     0.008 C 
ATOM     19  C   UNL     1     -12.885 -19.701  29.164  1.00  0.00     0.008 C 
ENDBRANCH  12  17
ENDBRANCH  11  12
ENDBRANCH   1  11
TORSDOF 1
ENDMDL
MODEL 7
REMARK VINA RESULT:    -4.218      1.951      4.526
REMARK INTER + INTRA:          -5.873
REMARK INTER:                  -6.078
REMARK INTRA:                   0.206
REMARK UNBOUND:                 0.565
REMARK SMILES CC1=CCC[C@H](C)C(=O)C[C@H](C(C)C)C(=O)C1
REMARK SMILES IDX 8 1 9 2 6 3 7 4 5 5 4 6 3 7 2 8 1 9 10 11 11 12 15 13 16 14
REMARK SMILES IDX 17 15 12 17 13 18 14 19
REMARK H PARENT
REMARK Flexibility Score: 70.00
ROOT
ATOM      1  C   UNL     1     -13.871 -17.223  32.361  1.00  0.00     0.136 C 
ATOM      2  O   UNL     1     -14.722 -17.279  33.238  1.00  0.00    -0.299 OA
ENDROOT
BRANCH   1   3
ATOM      3  C   UNL     1     -13.103 -15.939  32.133  1.00  0.00     0.053 C 
ATOM      4  C   UNL     1     -14.090 -14.775  32.003  1.00  0.00     0.016 C 
BRANCH   3   5
ATOM      5  C   UNL     1     -12.078 -15.650  33.255  1.00  0.00     0.015 C 
BRANCH   5   6
ATOM      6  C   UNL     1     -10.616 -15.902  32.838  1.00  0.00     0.028 C 
BRANCH   6   7
ATOM      7  C   UNL     1     -10.380 -15.544  31.388  1.00  0.00    -0.028 C 
ATOM      8  C   UNL     1     -10.106 -16.405  30.381  1.00  0.00    -0.070 CG0
ATOM      9  C   UNL     1      -9.936 -15.837  28.994  1.00  0.00     0.039 C 
ATOM     10  G   UNL     1      -9.889 -17.892  30.578  1.00  0.00     0.000 G0
ENDBRANCH   6   7
ENDBRANCH   5   6
ENDBRANCH   3   5
ENDBRANCH   1   3
BRANCH   1  11
ATOM     11  C   UNL     1     -13.623 -18.431  31.490  1.00  0.00     0.087 C 
BRANCH  11  12
ATOM     12  C   UNL     1     -12.506 -18.178  30.449  1.00  0.00     0.066 C 
BRANCH  12  13
ATOM     13  C   UNL     1     -11.156 -18.596  31.002  1.00  0.00     0.140 C 
ATOM     14  O   UNL     1     -11.089 -19.485  31.838  1.00  0.00    -0.299 OA
BRANCH  13  15
ATOM     15  C   UNL     1      -9.887 -17.913  30.566  1.00  0.00     0.106 CG0
ATOM     16  G   UNL     1     -10.131 -16.427  30.394  1.00  0.00     0.000 G0
ENDBRANCH  13  15
ENDBRANCH  12  13
BRANCH  12  17
ATOM     17  C   UNL     1     -12.776 -18.842  29.062  1.00  0.00    -0.006 C 
ATOM     18  C   UNL     1     -13.979 -19.803  29.049  1.00  0.00     0.008 C 
ATOM     19  C   UNL     1     -12.937 -17.790  27.954  1.00  0.00     0.008 C 
ENDBRANCH  12  17
ENDBRANCH  11  12
ENDBRANCH   1  11
TORSDOF 1
ENDMDL
MODEL 8
REMARK VINA RESULT:    -4.184      1.472      3.834
REMARK INTER + INTRA:          -5.820
REMARK INTER:                  -6.076
REMARK INTRA:                   0.256
REMARK UNBOUND:                 0.565
REMARK SMILES CC1=CCC[C@H](C)C(=O)C[C@H](C(C)C)C(=O)C1
REMARK SMILES IDX 8 1 9 2 6 3 7 4 5 5 4 6 3 7 2 8 1 9 10 11 11 12 15 13 16 14
REMARK SMILES IDX 17 15 12 17 13 18 14 19
REMARK H PARENT
REMARK Flexibility Score: 70.00
ROOT
ATOM      1  C   UNL     1     -11.044 -15.852  30.605  1.00  0.00     0.136 C 
ATOM      2  O   UNL     1      -9.876 -15.608  30.334  1.00  0.00    -0.299 OA
ENDROOT
BRANCH   1   3
ATOM      3  C   UNL     1     -11.428 -16.249  32.013  1.00  0.00     0.053 C 
ATOM      4  C   UNL     1     -10.450 -15.608  33.004  1.00  0.00     0.016 C 
BRANCH   3   5
ATOM      5  C   UNL     1     -12.882 -15.858  32.368  1.00  0.00     0.015 C 
BRANCH   5   6
ATOM      6  C   UNL     1     -13.926 -16.912  31.949  1.00  0.00     0.028 C 
BRANCH   6   7
ATOM      7  C   UNL     1     -13.381 -18.317  32.075  1.00  0.00    -0.028 C 
ATOM      8  C   UNL     1     -13.015 -19.132  31.059  1.00  0.00    -0.070 CG0
ATOM      9  C   UNL     1     -12.464 -20.492  31.409  1.00  0.00     0.039 C 
ATOM     10  G   UNL     1     -13.193 -18.787  29.595  1.00  0.00     0.000 G0
ENDBRANCH   6   7
ENDBRANCH   5   6
ENDBRANCH   3   5
ENDBRANCH   1   3
BRANCH   1  11
ATOM     11  C   UNL     1     -12.086 -15.784  29.514  1.00  0.00     0.087 C 
BRANCH  11  12
ATOM     12  C   UNL     1     -11.852 -16.854  28.420  1.00  0.00     0.066 C 
BRANCH  12  13
ATOM     13  C   UNL     1     -11.906 -18.249  29.016  1.00  0.00     0.140 C 
ATOM     14  O   UNL     1     -10.904 -18.948  29.020  1.00  0.00    -0.299 OA
BRANCH  13  15
ATOM     15  C   UNL     1     -13.185 -18.809  29.579  1.00  0.00     0.106 CG0
ATOM     16  G   UNL     1     -13.014 -19.114  31.053  1.00  0.00     0.000 G0
ENDBRANCH  13  15
ENDBRANCH  12  13
BRANCH  12  17
ATOM     17  C   UNL     1     -12.818 -16.727  27.199  1.00  0.00    -0.006 C 
ATOM     18  C   UNL     1     -13.718 -15.479  27.237  1.00  0.00     0.008 C 
ATOM     19  C   UNL     1     -12.053 -16.778  25.867  1.00  0.00     0.008 C 
ENDBRANCH  12  17
ENDBRANCH  11  12
ENDBRANCH   1  11
TORSDOF 1
ENDMDL
MODEL 9
REMARK VINA RESULT:    -4.030      1.627      3.777
REMARK INTER + INTRA:          -5.584
REMARK INTER:                  -6.595
REMARK INTRA:                   1.011
REMARK UNBOUND:                 0.565
REMARK SMILES CC1=CCC[C@H](C)C(=O)C[C@H](C(C)C)C(=O)C1
REMARK SMILES IDX 8 1 9 2 6 3 7 4 5 5 4 6 3 7 2 8 1 9 10 11 11 12 15 13 16 14
REMARK SMILES IDX 17 15 12 17 13 18 14 19
REMARK H PARENT
REMARK Flexibility Score: 70.00
ROOT
ATOM      1  C   UNL     1     -12.507 -16.122  31.757  1.00  0.00     0.136 C 
ATOM      2  O   UNL     1     -12.953 -15.786  32.845  1.00  0.00    -0.299 OA
ENDROOT
BRANCH   1   3
ATOM      3  C   UNL     1     -11.109 -16.690  31.654  1.00  0.00     0.053 C 
ATOM      4  C   UNL     1     -10.255 -16.145  32.804  1.00  0.00     0.016 C 
BRANCH   3   5
ATOM      5  C   UNL     1     -11.092 -18.237  31.660  1.00  0.00     0.015 C 
BRANCH   5   6
ATOM      6  C   UNL     1     -12.487 -18.872  31.815  1.00  0.00     0.028 C 
BRANCH   6   7
ATOM      7  C   UNL     1     -12.727 -19.950  30.782  1.00  0.00    -0.028 C 
ATOM      8  C   UNL     1     -13.195 -19.770  29.525  1.00  0.00    -0.070 CG0
ATOM      9  C   UNL     1     -13.330 -20.986  28.642  1.00  0.00     0.039 C 
ATOM     10  G   UNL     1     -13.656 -18.434  28.979  1.00  0.00     0.000 G0
ENDBRANCH   6   7
ENDBRANCH   5   6
ENDBRANCH   3   5
ENDBRANCH   1   3
BRANCH   1  11
ATOM     11  C   UNL     1     -13.352 -15.931  30.520  1.00  0.00     0.087 C 
BRANCH  11  12
ATOM     12  C   UNL     1     -12.519 -16.060  29.222  1.00  0.00     0.066 C 
BRANCH  12  13
ATOM     13  C   UNL     1     -12.484 -17.503  28.751  1.00  0.00     0.140 C 
ATOM     14  O   UNL     1     -11.503 -17.926  28.158  1.00  0.00    -0.299 OA
BRANCH  13  15
ATOM     15  C   UNL     1     -13.655 -18.424  28.968  1.00  0.00     0.106 CG0
ATOM     16  G   UNL     1     -13.177 -19.750  29.521  1.00  0.00     0.000 G0
ENDBRANCH  13  15
ENDBRANCH  12  13
BRANCH  12  17
ATOM     17  C   UNL     1     -12.986 -15.106  28.077  1.00  0.00    -0.006 C 
ATOM     18  C   UNL     1     -13.463 -15.833  26.808  1.00  0.00     0.008 C 
ATOM     19  C   UNL     1     -14.073 -14.134  28.562  1.00  0.00     0.008 C 
ENDBRANCH  12  17
ENDBRANCH  11  12
ENDBRANCH   1  11
TORSDOF 1
ENDMDL
