MODEL 1
REMARK VINA RESULT:    -4.999      0.000      0.000
REMARK INTER + INTRA:          -6.184
REMARK INTER:                  -5.730
REMARK INTRA:                  -0.454
REMARK UNBOUND:                -0.454
REMARK SMILES C=C(C)[C@H]1CC[C@]2(C(=O)[O-])CC[C@@]3(C)[C@@H](CC[C@H]4[C@@]5(C)CC[C@@H](O)C(C)(C)[C@H]5CC[C@@]43C)[C@H]12
REMARK SMILES IDX 7 1 6 2 33 3 11 4 5 5 15 6 4 7 12 8 16 9 13 10 17 11 31 12
REMARK SMILES IDX 14 13 18 14 30 15 32 16 19 17 29 18 21 19 20 20 28 21 22 22
REMARK SMILES IDX 25 23 23 24 26 25 27 26 8 27 9 28 10 29 2 30 3 31 1 32 24 33
REMARK H PARENT 24 34
REMARK Flexibility Score: inf
ROOT
ATOM      1  C   UNL     1      -4.105  -5.927 -23.954  1.00  0.00     0.014 C 
ATOM      2  C   UNL     1      -5.101  -5.328 -24.979  1.00  0.00     0.014 C 
ATOM      3  C   UNL     1      -2.906  -6.364 -24.835  1.00  0.00     0.012 C 
ATOM      4  C   UNL     1      -3.706  -4.834 -22.890  1.00  0.00     0.014 C 
ATOM      5  C   UNL     1      -4.295  -4.800 -26.155  1.00  0.00     0.009 C 
ATOM      6  C   UNL     1      -1.509  -6.519 -24.119  1.00  0.00     0.000 C 
ATOM      7  C   UNL     1      -2.862  -5.298 -25.956  1.00  0.00     0.018 C 
ATOM      8  C   UNL     1      -2.201  -4.721 -22.520  1.00  0.00     0.008 C 
ATOM      9  C   UNL     1      -0.852  -7.896 -24.351  1.00  0.00     0.005 C 
ATOM     10  C   UNL     1      -1.400  -6.056 -22.621  1.00  0.00    -0.024 C 
ATOM     11  C   UNL     1       0.616  -7.923 -23.870  1.00  0.00     0.005 C 
ATOM     12  C   UNL     1       0.190  -5.896 -22.282  1.00  0.00    -0.024 C 
ATOM     13  C   UNL     1      -2.090  -7.082 -21.635  1.00  0.00     0.012 C 
ATOM     14  C   UNL     1       0.852  -7.324 -22.439  1.00  0.00     0.002 C 
ATOM     15  C   UNL     1       0.429  -5.412 -20.823  1.00  0.00     0.008 C 
ATOM     16  C   UNL     1       0.879  -4.837 -23.227  1.00  0.00     0.012 C 
ATOM     17  C   UNL     1       2.332  -7.560 -21.883  1.00  0.00    -0.026 C 
ATOM     18  C   UNL     1       1.891  -5.476 -20.368  1.00  0.00     0.005 C 
ATOM     19  C   UNL     1       3.404  -7.031 -22.883  1.00  0.00     0.010 C 
ATOM     20  C   UNL     1       2.491  -9.125 -21.776  1.00  0.00     0.012 C 
ATOM     21  C   UNL     1       2.546  -6.885 -20.451  1.00  0.00     0.003 C 
ATOM     22  C   UNL     1       4.833  -7.175 -22.367  1.00  0.00     0.033 C 
ATOM     23  C   UNL     1       4.073  -6.832 -19.931  1.00  0.00    -0.006 C 
ATOM     24  C   UNL     1       5.051  -6.382 -21.066  1.00  0.00     0.120 C 
ATOM     25  C   UNL     1       4.547  -8.205 -19.356  1.00  0.00     0.014 C 
ATOM     26  C   UNL     1       4.239  -5.848 -18.729  1.00  0.00     0.014 C 
ENDROOT
BRANCH   1  27
ATOM     27  C   UNL     1      -4.821  -7.102 -23.293  1.00  0.00     0.048 C 
ATOM     28  O   UNL     1      -5.125  -7.088 -22.069  1.00  0.00    -0.550 OA
ATOM     29  O   UNL     1      -5.122  -8.233 -24.041  1.00  0.00    -0.550 OA
ENDBRANCH   1  27
BRANCH   7  30
ATOM     30  C   UNL     1      -2.195  -5.787 -27.241  1.00  0.00    -0.077 C 
ATOM     31  C   UNL     1      -2.273  -7.237 -27.673  1.00  0.00     0.039 C 
ATOM     32  C   UNL     1      -1.519  -4.914 -28.006  1.00  0.00     0.008 C 
ENDBRANCH   7  30
BRANCH  24  33
ATOM     33  O   UNL     1       4.913  -5.003 -21.312  1.00  0.00    -0.393 OA
ATOM     34  H   UNL     1       5.564  -4.526 -20.724  1.00  0.00     0.210 HD
ENDBRANCH  24  33
TORSDOF 3
ENDMDL
MODEL 2
REMARK VINA RESULT:    -4.651      1.924      7.707
REMARK INTER + INTRA:          -5.785
REMARK INTER:                  -5.004
REMARK INTRA:                  -0.782
REMARK UNBOUND:                -0.454
REMARK SMILES C=C(C)[C@H]1CC[C@]2(C(=O)[O-])CC[C@@]3(C)[C@@H](CC[C@H]4[C@@]5(C)CC[C@@H](O)C(C)(C)[C@H]5CC[C@@]43C)[C@H]12
REMARK SMILES IDX 7 1 6 2 33 3 11 4 5 5 15 6 4 7 12 8 16 9 13 10 17 11 31 12
REMARK SMILES IDX 14 13 18 14 30 15 32 16 19 17 29 18 21 19 20 20 28 21 22 22
REMARK SMILES IDX 25 23 23 24 26 25 27 26 8 27 9 28 10 29 2 30 3 31 1 32 24 33
REMARK H PARENT 24 34
REMARK Flexibility Score: inf
ROOT
ATOM      1  C   UNL     1       4.704  -7.323 -20.763  1.00  0.00     0.014 C 
ATOM      2  C   UNL     1       6.078  -7.986 -21.028  1.00  0.00     0.014 C 
ATOM      3  C   UNL     1       4.071  -7.236 -22.177  1.00  0.00     0.012 C 
ATOM      4  C   UNL     1       3.857  -8.214 -19.776  1.00  0.00     0.014 C 
ATOM      5  C   UNL     1       5.947  -8.846 -22.275  1.00  0.00     0.009 C 
ATOM      6  C   UNL     1       2.501  -7.118 -22.254  1.00  0.00     0.000 C 
ATOM      7  C   UNL     1       4.588  -8.507 -22.892  1.00  0.00     0.018 C 
ATOM      8  C   UNL     1       2.361  -8.443 -20.133  1.00  0.00     0.008 C 
ATOM      9  C   UNL     1       2.017  -5.917 -23.092  1.00  0.00     0.005 C 
ATOM     10  C   UNL     1       1.690  -7.272 -20.916  1.00  0.00    -0.024 C 
ATOM     11  C   UNL     1       0.499  -5.980 -23.371  1.00  0.00     0.005 C 
ATOM     12  C   UNL     1       0.135  -7.563 -21.327  1.00  0.00    -0.024 C 
ATOM     13  C   UNL     1       1.804  -5.985 -20.006  1.00  0.00     0.012 C 
ATOM     14  C   UNL     1      -0.389  -6.297 -22.116  1.00  0.00     0.002 C 
ATOM     15  C   UNL     1      -0.771  -7.762 -20.078  1.00  0.00     0.008 C 
ATOM     16  C   UNL     1       0.003  -8.875 -22.194  1.00  0.00     0.012 C 
ATOM     17  C   UNL     1      -1.957  -6.144 -22.387  1.00  0.00    -0.026 C 
ATOM     18  C   UNL     1      -2.271  -7.796 -20.385  1.00  0.00     0.005 C 
ATOM     19  C   UNL     1      -2.407  -7.003 -23.608  1.00  0.00     0.010 C 
ATOM     20  C   UNL     1      -2.171  -4.625 -22.751  1.00  0.00     0.012 C 
ATOM     21  C   UNL     1      -2.825  -6.531 -21.102  1.00  0.00     0.003 C 
ATOM     22  C   UNL     1      -3.910  -6.942 -23.867  1.00  0.00     0.033 C 
ATOM     23  C   UNL     1      -4.413  -6.672 -21.356  1.00  0.00    -0.006 C 
ATOM     24  C   UNL     1      -4.716  -7.470 -22.668  1.00  0.00     0.120 C 
ATOM     25  C   UNL     1      -5.125  -5.283 -21.421  1.00  0.00     0.014 C 
ATOM     26  C   UNL     1      -5.124  -7.400 -20.170  1.00  0.00     0.014 C 
ENDROOT
BRANCH   1  27
ATOM     27  C   UNL     1       4.995  -5.954 -20.154  1.00  0.00     0.048 C 
ATOM     28  O   UNL     1       5.026  -4.909 -20.859  1.00  0.00    -0.550 OA
ATOM     29  O   UNL     1       5.266  -5.849 -18.795  1.00  0.00    -0.550 OA
ENDBRANCH   1  27
BRANCH   7  30
ATOM     30  C   UNL     1       4.616  -8.384 -24.415  1.00  0.00    -0.077 C 
ATOM     31  C   UNL     1       3.607  -9.104 -25.287  1.00  0.00     0.039 C 
ATOM     32  C   UNL     1       5.558  -7.625 -24.999  1.00  0.00     0.008 C 
ENDBRANCH   7  30
BRANCH  24  33
ATOM     33  O   UNL     1      -4.458  -8.841 -22.477  1.00  0.00    -0.393 OA
ATOM     34  H   UNL     1      -4.044  -8.947 -21.575  1.00  0.00     0.210 HD
ENDBRANCH  24  33
TORSDOF 3
ENDMDL
MODEL 3
REMARK VINA RESULT:    -4.213      1.866      7.993
REMARK INTER + INTRA:          -5.283
REMARK INTER:                  -4.499
REMARK INTRA:                  -0.785
REMARK UNBOUND:                -0.454
REMARK SMILES C=C(C)[C@H]1CC[C@]2(C(=O)[O-])CC[C@@]3(C)[C@@H](CC[C@H]4[C@@]5(C)CC[C@@H](O)C(C)(C)[C@H]5CC[C@@]43C)[C@H]12
REMARK SMILES IDX 7 1 6 2 33 3 11 4 5 5 15 6 4 7 12 8 16 9 13 10 17 11 31 12
REMARK SMILES IDX 14 13 18 14 30 15 32 16 19 17 29 18 21 19 20 20 28 21 22 22
REMARK SMILES IDX 25 23 23 24 26 25 27 26 8 27 9 28 10 29 2 30 3 31 1 32 24 33
REMARK H PARENT 24 34
REMARK Flexibility Score: inf
ROOT
ATOM      1  C   UNL     1       3.861  -6.714 -21.918  1.00  0.00     0.014 C 
ATOM      2  C   UNL     1       4.911  -6.103 -20.957  1.00  0.00     0.014 C 
ATOM      3  C   UNL     1       2.573  -6.763 -21.055  1.00  0.00     0.012 C 
ATOM      4  C   UNL     1       3.700  -5.798 -23.192  1.00  0.00     0.014 C 
ATOM      5  C   UNL     1       4.172  -5.228 -19.957  1.00  0.00     0.009 C 
ATOM      6  C   UNL     1       1.197  -6.818 -21.823  1.00  0.00     0.000 C 
ATOM      7  C   UNL     1       2.681  -5.508 -20.157  1.00  0.00     0.018 C 
ATOM      8  C   UNL     1       2.252  -5.507 -23.678  1.00  0.00     0.008 C 
ATOM      9  C   UNL     1       0.297  -7.992 -21.385  1.00  0.00     0.005 C 
ATOM     10  C   UNL     1       1.224  -6.643 -23.385  1.00  0.00    -0.024 C 
ATOM     11  C   UNL     1      -1.134  -7.866 -21.950  1.00  0.00     0.005 C 
ATOM     12  C   UNL     1      -0.300  -6.288 -23.855  1.00  0.00    -0.024 C 
ATOM     13  C   UNL     1       1.754  -7.943 -24.114  1.00  0.00     0.012 C 
ATOM     14  C   UNL     1      -1.210  -7.526 -23.480  1.00  0.00     0.002 C 
ATOM     15  C   UNL     1      -0.399  -6.064 -25.391  1.00  0.00     0.008 C 
ATOM     16  C   UNL     1      -0.821  -4.964 -23.172  1.00  0.00     0.012 C 
ATOM     17  C   UNL     1      -2.689  -7.613 -24.083  1.00  0.00    -0.026 C 
ATOM     18  C   UNL     1      -1.832  -5.968 -25.925  1.00  0.00     0.005 C 
ATOM     19  C   UNL     1      -3.683  -6.727 -23.273  1.00  0.00     0.010 C 
ATOM     20  C   UNL     1      -3.120  -9.120 -23.908  1.00  0.00     0.012 C 
ATOM     21  C   UNL     1      -2.729  -7.204 -25.627  1.00  0.00     0.003 C 
ATOM     22  C   UNL     1      -5.097  -6.726 -23.850  1.00  0.00     0.033 C 
ATOM     23  C   UNL     1      -4.204  -6.997 -26.250  1.00  0.00    -0.006 C 
ATOM     24  C   UNL     1      -5.125  -6.177 -25.287  1.00  0.00     0.120 C 
ATOM     25  C   UNL     1      -4.895  -8.357 -26.591  1.00  0.00     0.014 C 
ATOM     26  C   UNL     1      -4.151  -6.253 -27.622  1.00  0.00     0.014 C 
ENDROOT
BRANCH   1  27
ATOM     27  C   UNL     1       4.378  -8.098 -22.299  1.00  0.00     0.048 C 
ATOM     28  O   UNL     1       4.101  -9.120 -21.614  1.00  0.00    -0.550 OA
ATOM     29  O   UNL     1       5.202  -8.244 -23.409  1.00  0.00    -0.550 OA
ENDBRANCH   1  27
BRANCH   7  30
ATOM     30  C   UNL     1       1.894  -5.618 -18.852  1.00  0.00    -0.077 C 
ATOM     31  C   UNL     1       0.715  -4.712 -18.558  1.00  0.00     0.039 C 
ATOM     32  C   UNL     1       2.254  -6.536 -17.940  1.00  0.00     0.008 C 
ENDBRANCH   7  30
BRANCH  24  33
ATOM     33  O   UNL     1      -4.753  -4.819 -25.293  1.00  0.00    -0.393 OA
ATOM     34  H   UNL     1      -5.087  -4.419 -26.144  1.00  0.00     0.210 HD
ENDBRANCH  24  33
TORSDOF 3
ENDMDL
MODEL 4
REMARK VINA RESULT:    -4.210      1.816      8.253
REMARK INTER + INTRA:          -5.280
REMARK INTER:                  -4.781
REMARK INTRA:                  -0.499
REMARK UNBOUND:                -0.454
REMARK SMILES C=C(C)[C@H]1CC[C@]2(C(=O)[O-])CC[C@@]3(C)[C@@H](CC[C@H]4[C@@]5(C)CC[C@@H](O)C(C)(C)[C@H]5CC[C@@]43C)[C@H]12
REMARK SMILES IDX 7 1 6 2 33 3 11 4 5 5 15 6 4 7 12 8 16 9 13 10 17 11 31 12
REMARK SMILES IDX 14 13 18 14 30 15 32 16 19 17 29 18 21 19 20 20 28 21 22 22
REMARK SMILES IDX 25 23 23 24 26 25 27 26 8 27 9 28 10 29 2 30 3 31 1 32 24 33
REMARK H PARENT 24 34
REMARK Flexibility Score: inf
ROOT
ATOM      1  C   UNL     1       5.867  -7.279 -19.620  1.00  0.00     0.014 C 
ATOM      2  C   UNL     1       7.195  -8.046 -19.406  1.00  0.00     0.014 C 
ATOM      3  C   UNL     1       5.604  -7.437 -21.140  1.00  0.00     0.012 C 
ATOM      4  C   UNL     1       4.726  -7.919 -18.740  1.00  0.00     0.014 C 
ATOM      5  C   UNL     1       7.286  -9.125 -20.474  1.00  0.00     0.009 C 
ATOM      6  C   UNL     1       4.117  -7.261 -21.634  1.00  0.00     0.000 C 
ATOM      7  C   UNL     1       6.155  -8.846 -21.466  1.00  0.00     0.018 C 
ATOM      8  C   UNL     1       3.346  -8.140 -19.419  1.00  0.00     0.008 C 
ATOM      9  C   UNL     1       3.966  -6.223 -22.765  1.00  0.00     0.005 C 
ATOM     10  C   UNL     1       2.997  -7.113 -20.541  1.00  0.00    -0.024 C 
ATOM     11  C   UNL     1       2.561  -6.266 -23.405  1.00  0.00     0.005 C 
ATOM     12  C   UNL     1       1.566  -7.402 -21.275  1.00  0.00    -0.024 C 
ATOM     13  C   UNL     1       3.012  -5.680 -19.872  1.00  0.00     0.012 C 
ATOM     14  C   UNL     1       1.371  -6.289 -22.382  1.00  0.00     0.002 C 
ATOM     15  C   UNL     1       0.373  -7.311 -20.283  1.00  0.00     0.008 C 
ATOM     16  C   UNL     1       1.522  -8.850 -21.903  1.00  0.00     0.012 C 
ATOM     17  C   UNL     1      -0.064  -6.117 -23.065  1.00  0.00    -0.026 C 
ATOM     18  C   UNL     1      -1.006  -7.331 -20.950  1.00  0.00     0.005 C 
ATOM     19  C   UNL     1      -0.286  -7.173 -24.190  1.00  0.00     0.010 C 
ATOM     20  C   UNL     1      -0.038  -4.689 -23.733  1.00  0.00     0.012 C 
ATOM     21  C   UNL     1      -1.248  -6.204 -21.996  1.00  0.00     0.003 C 
ATOM     22  C   UNL     1      -1.670  -7.091 -24.829  1.00  0.00     0.033 C 
ATOM     23  C   UNL     1      -2.734  -6.315 -22.616  1.00  0.00    -0.006 C 
ATOM     24  C   UNL     1      -2.788  -7.337 -23.800  1.00  0.00     0.120 C 
ATOM     25  C   UNL     1      -3.274  -4.932 -23.103  1.00  0.00     0.014 C 
ATOM     26  C   UNL     1      -3.775  -6.763 -21.541  1.00  0.00     0.014 C 
ENDROOT
BRANCH   1  27
ATOM     27  C   UNL     1       6.133  -5.833 -19.207  1.00  0.00     0.048 C 
ATOM     28  O   UNL     1       6.244  -5.501 -17.996  1.00  0.00    -0.550 OA
ATOM     29  O   UNL     1       6.225  -4.846 -20.180  1.00  0.00    -0.550 OA
ENDBRANCH   1  27
BRANCH   7  30
ATOM     30  C   UNL     1       6.560  -9.024 -22.929  1.00  0.00    -0.077 C 
ATOM     31  C   UNL     1       5.525  -9.124 -24.031  1.00  0.00     0.039 C 
ATOM     32  C   UNL     1       7.862  -9.097 -23.248  1.00  0.00     0.008 C 
ENDBRANCH   7  30
BRANCH  24  33
ATOM     33  O   UNL     1      -2.715  -8.655 -23.312  1.00  0.00    -0.393 OA
ATOM     34  H   UNL     1      -2.441  -8.606 -22.353  1.00  0.00     0.210 HD
ENDBRANCH  24  33
TORSDOF 3
ENDMDL
MODEL 5
REMARK VINA RESULT:    -3.925      1.527      1.886
REMARK INTER + INTRA:          -4.953
REMARK INTER:                  -4.159
REMARK INTRA:                  -0.794
REMARK UNBOUND:                -0.454
REMARK SMILES C=C(C)[C@H]1CC[C@]2(C(=O)[O-])CC[C@@]3(C)[C@@H](CC[C@H]4[C@@]5(C)CC[C@@H](O)C(C)(C)[C@H]5CC[C@@]43C)[C@H]12
REMARK SMILES IDX 7 1 6 2 33 3 11 4 5 5 15 6 4 7 12 8 16 9 13 10 17 11 31 12
REMARK SMILES IDX 14 13 18 14 30 15 32 16 19 17 29 18 21 19 20 20 28 21 22 22
REMARK SMILES IDX 25 23 23 24 26 25 27 26 8 27 9 28 10 29 2 30 3 31 1 32 24 33
REMARK H PARENT 24 34
REMARK Flexibility Score: inf
ROOT
ATOM      1  C   UNL     1      -3.787  -5.604 -23.473  1.00  0.00     0.014 C 
ATOM      2  C   UNL     1      -4.726  -5.425 -24.692  1.00  0.00     0.014 C 
ATOM      3  C   UNL     1      -3.047  -6.932 -23.784  1.00  0.00     0.012 C 
ATOM      4  C   UNL     1      -2.804  -4.377 -23.365  1.00  0.00     0.014 C 
ATOM      5  C   UNL     1      -4.082  -6.123 -25.880  1.00  0.00     0.009 C 
ATOM      6  C   UNL     1      -1.664  -7.167 -23.066  1.00  0.00     0.000 C 
ATOM      7  C   UNL     1      -2.902  -6.922 -25.324  1.00  0.00     0.018 C 
ATOM      8  C   UNL     1      -1.309  -4.688 -23.078  1.00  0.00     0.008 C 
ATOM      9  C   UNL     1      -1.589  -8.506 -22.303  1.00  0.00     0.005 C 
ATOM     10  C   UNL     1      -1.059  -5.978 -22.235  1.00  0.00    -0.024 C 
ATOM     11  C   UNL     1      -0.151  -8.829 -21.842  1.00  0.00     0.005 C 
ATOM     12  C   UNL     1       0.522  -6.312 -21.996  1.00  0.00    -0.024 C 
ATOM     13  C   UNL     1      -1.811  -5.779 -20.858  1.00  0.00     0.012 C 
ATOM     14  C   UNL     1       0.600  -7.641 -21.143  1.00  0.00     0.002 C 
ATOM     15  C   UNL     1       1.243  -5.186 -21.201  1.00  0.00     0.008 C 
ATOM     16  C   UNL     1       1.294  -6.462 -23.365  1.00  0.00     0.012 C 
ATOM     17  C   UNL     1       1.996  -8.063 -20.488  1.00  0.00    -0.026 C 
ATOM     18  C   UNL     1       2.657  -5.546 -20.737  1.00  0.00     0.005 C 
ATOM     19  C   UNL     1       2.922  -8.762 -21.529  1.00  0.00     0.010 C 
ATOM     20  C   UNL     1       1.630  -9.117 -19.373  1.00  0.00     0.012 C 
ATOM     21  C   UNL     1       2.752  -6.814 -19.840  1.00  0.00     0.003 C 
ATOM     22  C   UNL     1       4.294  -9.125 -20.968  1.00  0.00     0.033 C 
ATOM     23  C   UNL     1       4.281  -7.083 -19.398  1.00  0.00    -0.006 C 
ATOM     24  C   UNL     1       5.064  -7.880 -20.495  1.00  0.00     0.120 C 
ATOM     25  C   UNL     1       4.376  -7.848 -18.039  1.00  0.00     0.014 C 
ATOM     26  C   UNL     1       5.047  -5.749 -19.128  1.00  0.00     0.014 C 
ENDROOT
BRANCH   1  27
ATOM     27  C   UNL     1      -4.688  -5.696 -22.244  1.00  0.00     0.048 C 
ATOM     28  O   UNL     1      -5.067  -4.666 -21.623  1.00  0.00    -0.550 OA
ATOM     29  O   UNL     1      -5.081  -6.942 -21.771  1.00  0.00    -0.550 OA
ENDBRANCH   1  27
BRANCH   7  30
ATOM     30  C   UNL     1      -2.758  -8.316 -25.936  1.00  0.00    -0.077 C 
ATOM     31  C   UNL     1      -1.425  -8.825 -26.444  1.00  0.00     0.039 C 
ATOM     32  C   UNL     1      -3.838  -9.109 -26.029  1.00  0.00     0.008 C 
ENDBRANCH   7  30
BRANCH  24  33
ATOM     33  O   UNL     1       5.354  -7.046 -21.591  1.00  0.00    -0.393 OA
ATOM     34  H   UNL     1       4.730  -6.267 -21.551  1.00  0.00     0.210 HD
ENDBRANCH  24  33
TORSDOF 3
ENDMDL
MODEL 6
REMARK VINA RESULT:    -3.919      2.240      7.592
REMARK INTER + INTRA:          -4.946
REMARK INTER:                  -4.401
REMARK INTRA:                  -0.545
REMARK UNBOUND:                -0.454
REMARK SMILES C=C(C)[C@H]1CC[C@]2(C(=O)[O-])CC[C@@]3(C)[C@@H](CC[C@H]4[C@@]5(C)CC[C@@H](O)C(C)(C)[C@H]5CC[C@@]43C)[C@H]12
REMARK SMILES IDX 7 1 6 2 33 3 11 4 5 5 15 6 4 7 12 8 16 9 13 10 17 11 31 12
REMARK SMILES IDX 14 13 18 14 30 15 32 16 19 17 29 18 21 19 20 20 28 21 22 22
REMARK SMILES IDX 25 23 23 24 26 25 27 26 8 27 9 28 10 29 2 30 3 31 1 32 24 33
REMARK H PARENT 24 34
REMARK Flexibility Score: inf
ROOT
ATOM      1  C   UNL     1       1.248  -7.746 -19.285  1.00  0.00     0.014 C 
ATOM      2  C   UNL     1       2.562  -8.031 -18.514  1.00  0.00     0.014 C 
ATOM      3  C   UNL     1       1.707  -6.820 -20.441  1.00  0.00     0.012 C 
ATOM      4  C   UNL     1       0.625  -9.098 -19.806  1.00  0.00     0.014 C 
ATOM      5  C   UNL     1       3.713  -7.922 -19.501  1.00  0.00     0.009 C 
ATOM      6  C   UNL     1       0.783  -6.752 -21.716  1.00  0.00     0.000 C 
ATOM      7  C   UNL     1       3.126  -7.333 -20.786  1.00  0.00     0.018 C 
ATOM      8  C   UNL     1       0.101  -9.120 -21.269  1.00  0.00     0.008 C 
ATOM      9  C   UNL     1       0.379  -5.315 -22.105  1.00  0.00     0.005 C 
ATOM     10  C   UNL     1      -0.429  -7.750 -21.794  1.00  0.00    -0.024 C 
ATOM     11  C   UNL     1      -0.294  -5.259 -23.494  1.00  0.00     0.005 C 
ATOM     12  C   UNL     1      -0.921  -7.789 -23.352  1.00  0.00    -0.024 C 
ATOM     13  C   UNL     1      -1.611  -7.317 -20.837  1.00  0.00     0.012 C 
ATOM     14  C   UNL     1      -1.413  -6.334 -23.728  1.00  0.00     0.002 C 
ATOM     15  C   UNL     1      -2.109  -8.769 -23.564  1.00  0.00     0.008 C 
ATOM     16  C   UNL     1       0.237  -8.269 -24.311  1.00  0.00     0.012 C 
ATOM     17  C   UNL     1      -2.235  -6.117 -25.082  1.00  0.00    -0.026 C 
ATOM     18  C   UNL     1      -2.771  -8.672 -24.942  1.00  0.00     0.005 C 
ATOM     19  C   UNL     1      -1.285  -6.037 -26.315  1.00  0.00     0.010 C 
ATOM     20  C   UNL     1      -2.945  -4.719 -24.918  1.00  0.00     0.012 C 
ATOM     21  C   UNL     1      -3.324  -7.265 -25.309  1.00  0.00     0.003 C 
ATOM     22  C   UNL     1      -2.028  -5.897 -27.640  1.00  0.00     0.033 C 
ATOM     23  C   UNL     1      -4.011  -7.288 -26.769  1.00  0.00    -0.006 C 
ATOM     24  C   UNL     1      -2.952  -7.098 -27.906  1.00  0.00     0.120 C 
ATOM     25  C   UNL     1      -5.124  -6.201 -26.913  1.00  0.00     0.014 C 
ATOM     26  C   UNL     1      -4.766  -8.631 -27.029  1.00  0.00     0.014 C 
ENDROOT
BRANCH   1  27
ATOM     27  C   UNL     1       0.312  -7.053 -18.300  1.00  0.00     0.048 C 
ATOM     28  O   UNL     1      -0.736  -7.613 -17.876  1.00  0.00    -0.550 OA
ATOM     29  O   UNL     1       0.594  -5.760 -17.876  1.00  0.00    -0.550 OA
ENDBRANCH   1  27
BRANCH   7  30
ATOM     30  C   UNL     1       4.016  -6.280 -21.444  1.00  0.00    -0.077 C 
ATOM     31  C   UNL     1       4.199  -6.224 -22.947  1.00  0.00     0.039 C 
ATOM     32  C   UNL     1       4.655  -5.383 -20.675  1.00  0.00     0.008 C 
ENDBRANCH   7  30
BRANCH  24  33
ATOM     33  O   UNL     1      -2.189  -8.269 -28.065  1.00  0.00    -0.393 OA
ATOM     34  H   UNL     1      -1.996  -8.373 -29.039  1.00  0.00     0.210 HD
ENDBRANCH  24  33
TORSDOF 3
ENDMDL
MODEL 7
REMARK VINA RESULT:    -3.719      2.321      7.767
REMARK INTER + INTRA:          -4.717
REMARK INTER:                  -3.994
REMARK INTRA:                  -0.723
REMARK UNBOUND:                -0.454
REMARK SMILES C=C(C)[C@H]1CC[C@]2(C(=O)[O-])CC[C@@]3(C)[C@@H](CC[C@H]4[C@@]5(C)CC[C@@H](O)C(C)(C)[C@H]5CC[C@@]43C)[C@H]12
REMARK SMILES IDX 7 1 6 2 33 3 11 4 5 5 15 6 4 7 12 8 16 9 13 10 17 11 31 12
REMARK SMILES IDX 14 13 18 14 30 15 32 16 19 17 29 18 21 19 20 20 28 21 22 22
REMARK SMILES IDX 25 23 23 24 26 25 27 26 8 27 9 28 10 29 2 30 3 31 1 32 24 33
REMARK H PARENT 24 34
REMARK Flexibility Score: inf
ROOT
ATOM      1  C   UNL     1       0.738  -6.762 -20.743  1.00  0.00     0.014 C 
ATOM      2  C   UNL     1       0.802  -6.538 -19.212  1.00  0.00     0.014 C 
ATOM      3  C   UNL     1      -0.614  -7.498 -20.940  1.00  0.00     0.012 C 
ATOM      4  C   UNL     1       0.786  -5.377 -21.493  1.00  0.00     0.014 C 
ATOM      5  C   UNL     1      -0.625  -6.462 -18.693  1.00  0.00     0.009 C 
ATOM      6  C   UNL     1      -1.271  -7.420 -22.371  1.00  0.00     0.000 C 
ATOM      7  C   UNL     1      -1.529  -6.886 -19.853  1.00  0.00     0.018 C 
ATOM      8  C   UNL     1      -0.216  -5.168 -22.663  1.00  0.00     0.008 C 
ATOM      9  C   UNL     1      -1.613  -8.803 -22.963  1.00  0.00     0.005 C 
ATOM     10  C   UNL     1      -0.605  -6.470 -23.431  1.00  0.00    -0.024 C 
ATOM     11  C   UNL     1      -2.490  -8.688 -24.230  1.00  0.00     0.005 C 
ATOM     12  C   UNL     1      -1.701  -6.230 -24.618  1.00  0.00    -0.024 C 
ATOM     13  C   UNL     1       0.734  -7.080 -24.010  1.00  0.00     0.012 C 
ATOM     14  C   UNL     1      -1.992  -7.636 -25.282  1.00  0.00     0.002 C 
ATOM     15  C   UNL     1      -1.165  -5.277 -25.724  1.00  0.00     0.008 C 
ATOM     16  C   UNL     1      -3.024  -5.574 -24.060  1.00  0.00     0.012 C 
ATOM     17  C   UNL     1      -2.789  -7.691 -26.668  1.00  0.00    -0.026 C 
ATOM     18  C   UNL     1      -2.043  -5.204 -26.976  1.00  0.00     0.005 C 
ATOM     19  C   UNL     1      -4.325  -7.558 -26.443  1.00  0.00     0.010 C 
ATOM     20  C   UNL     1      -2.501  -9.125 -27.256  1.00  0.00     0.012 C 
ATOM     21  C   UNL     1      -2.290  -6.566 -27.687  1.00  0.00     0.003 C 
ATOM     22  C   UNL     1      -5.125  -7.539 -27.743  1.00  0.00     0.033 C 
ATOM     23  C   UNL     1      -3.209  -6.363 -28.998  1.00  0.00    -0.006 C 
ATOM     24  C   UNL     1      -4.732  -6.350 -28.636  1.00  0.00     0.120 C 
ATOM     25  C   UNL     1      -2.945  -7.462 -30.078  1.00  0.00     0.014 C 
ATOM     26  C   UNL     1      -2.874  -5.028 -29.737  1.00  0.00     0.014 C 
ENDROOT
BRANCH   1  27
ATOM     27  C   UNL     1       1.945  -7.624 -21.104  1.00  0.00     0.048 C 
ATOM     28  O   UNL     1       3.084  -7.120 -21.298  1.00  0.00    -0.550 OA
ATOM     29  O   UNL     1       1.789  -8.997 -21.256  1.00  0.00    -0.550 OA
ENDBRANCH   1  27
BRANCH   7  30
ATOM     30  C   UNL     1      -2.681  -7.800 -19.435  1.00  0.00    -0.077 C 
ATOM     31  C   UNL     1      -3.975  -7.855 -20.221  1.00  0.00     0.039 C 
ATOM     32  C   UNL     1      -2.547  -8.571 -18.343  1.00  0.00     0.008 C 
ENDBRANCH   7  30
BRANCH  24  33
ATOM     33  O   UNL     1      -5.074  -5.138 -28.007  1.00  0.00    -0.393 OA
ATOM     34  H   UNL     1      -5.970  -4.863 -28.350  1.00  0.00     0.210 HD
ENDBRANCH  24  33
TORSDOF 3
ENDMDL
MODEL 8
REMARK VINA RESULT:    -3.701      2.534      4.908
REMARK INTER + INTRA:          -4.696
REMARK INTER:                  -3.964
REMARK INTRA:                  -0.732
REMARK UNBOUND:                -0.454
REMARK SMILES C=C(C)[C@H]1CC[C@]2(C(=O)[O-])CC[C@@]3(C)[C@@H](CC[C@H]4[C@@]5(C)CC[C@@H](O)C(C)(C)[C@H]5CC[C@@]43C)[C@H]12
REMARK SMILES IDX 7 1 6 2 33 3 11 4 5 5 15 6 4 7 12 8 16 9 13 10 17 11 31 12
REMARK SMILES IDX 14 13 18 14 30 15 32 16 19 17 29 18 21 19 20 20 28 21 22 22
REMARK SMILES IDX 25 23 23 24 26 25 27 26 8 27 9 28 10 29 2 30 3 31 1 32 24 33
REMARK H PARENT 24 34
REMARK Flexibility Score: inf
ROOT
ATOM      1  C   UNL     1      -1.259  -7.553 -23.307  1.00  0.00     0.014 C 
ATOM      2  C   UNL     1      -2.786  -7.810 -23.279  1.00  0.00     0.014 C 
ATOM      3  C   UNL     1      -1.001  -6.790 -21.981  1.00  0.00     0.012 C 
ATOM      4  C   UNL     1      -0.483  -8.923 -23.376  1.00  0.00     0.014 C 
ATOM      5  C   UNL     1      -3.220  -7.872 -21.823  1.00  0.00     0.009 C 
ATOM      6  C   UNL     1       0.467  -6.826 -21.407  1.00  0.00     0.000 C 
ATOM      7  C   UNL     1      -2.020  -7.408 -20.994  1.00  0.00     0.018 C 
ATOM      8  C   UNL     1       0.747  -9.090 -22.441  1.00  0.00     0.008 C 
ATOM      9  C   UNL     1       1.049  -5.426 -21.123  1.00  0.00     0.005 C 
ATOM     10  C   UNL     1       1.507  -7.766 -22.119  1.00  0.00    -0.024 C 
ATOM     11  C   UNL     1       2.366  -5.499 -20.320  1.00  0.00     0.005 C 
ATOM     12  C   UNL     1       2.761  -7.962 -21.089  1.00  0.00    -0.024 C 
ATOM     13  C   UNL     1       1.994  -7.167 -23.499  1.00  0.00     0.012 C 
ATOM     14  C   UNL     1       3.410  -6.538 -20.860  1.00  0.00     0.002 C 
ATOM     15  C   UNL     1       3.854  -8.901 -21.674  1.00  0.00     0.008 C 
ATOM     16  C   UNL     1       2.294  -8.606 -19.726  1.00  0.00     0.012 C 
ATOM     17  C   UNL     1       4.838  -6.440 -20.147  1.00  0.00    -0.026 C 
ATOM     18  C   UNL     1       5.157  -8.933 -20.869  1.00  0.00     0.005 C 
ATOM     19  C   UNL     1       4.705  -6.550 -18.598  1.00  0.00     0.010 C 
ATOM     20  C   UNL     1       5.377  -4.999 -20.492  1.00  0.00     0.012 C 
ATOM     21  C   UNL     1       5.851  -7.552 -20.686  1.00  0.00     0.003 C 
ATOM     22  C   UNL     1       6.049  -6.529 -17.875  1.00  0.00     0.033 C 
ATOM     23  C   UNL     1       7.217  -7.712 -19.841  1.00  0.00    -0.006 C 
ATOM     24  C   UNL     1       6.944  -7.706 -18.300  1.00  0.00     0.120 C 
ATOM     25  C   UNL     1       8.256  -6.596 -20.185  1.00  0.00     0.014 C 
ATOM     26  C   UNL     1       7.964  -9.037 -20.197  1.00  0.00     0.014 C 
ENDROOT
BRANCH   1  27
ATOM     27  C   UNL     1      -0.987  -6.704 -24.547  1.00  0.00     0.048 C 
ATOM     28  O   UNL     1      -0.773  -5.464 -24.466  1.00  0.00    -0.550 OA
ATOM     29  O   UNL     1      -1.006  -7.297 -25.803  1.00  0.00    -0.550 OA
ENDBRANCH   1  27
BRANCH   7  30
ATOM     30  C   UNL     1      -2.390  -6.483 -19.836  1.00  0.00    -0.077 C 
ATOM     31  C   UNL     1      -1.678  -6.561 -18.500  1.00  0.00     0.039 C 
ATOM     32  C   UNL     1      -3.371  -5.581 -20.000  1.00  0.00     0.008 C 
ENDBRANCH   7  30
BRANCH  24  33
ATOM     33  O   UNL     1       6.362  -8.924 -17.903  1.00  0.00    -0.393 OA
ATOM     34  H   UNL     1       5.466  -8.986 -18.338  1.00  0.00     0.210 HD
ENDBRANCH  24  33
TORSDOF 3
ENDMDL
MODEL 9
REMARK VINA RESULT:    -3.430      1.936      3.979
REMARK INTER + INTRA:          -4.386
REMARK INTER:                  -3.734
REMARK INTRA:                  -0.652
REMARK UNBOUND:                -0.454
REMARK SMILES C=C(C)[C@H]1CC[C@]2(C(=O)[O-])CC[C@@]3(C)[C@@H](CC[C@H]4[C@@]5(C)CC[C@@H](O)C(C)(C)[C@H]5CC[C@@]43C)[C@H]12
REMARK SMILES IDX 7 1 6 2 33 3 11 4 5 5 15 6 4 7 12 8 16 9 13 10 17 11 31 12
REMARK SMILES IDX 14 13 18 14 30 15 32 16 19 17 29 18 21 19 20 20 28 21 22 22
REMARK SMILES IDX 25 23 23 24 26 25 27 26 8 27 9 28 10 29 2 30 3 31 1 32 24 33
REMARK H PARENT 24 34
REMARK Flexibility Score: inf
ROOT
ATOM      1  C   UNL     1      -3.069  -7.064 -24.886  1.00  0.00     0.014 C 
ATOM      2  C   UNL     1      -4.453  -7.631 -25.291  1.00  0.00     0.014 C 
ATOM      3  C   UNL     1      -3.156  -6.981 -23.340  1.00  0.00     0.012 C 
ATOM      4  C   UNL     1      -1.926  -8.033 -25.375  1.00  0.00     0.014 C 
ATOM      5  C   UNL     1      -4.971  -8.464 -24.131  1.00  0.00     0.009 C 
ATOM      6  C   UNL     1      -1.795  -6.962 -22.545  1.00  0.00     0.000 C 
ATOM      7  C   UNL     1      -4.032  -8.196 -22.953  1.00  0.00     0.018 C 
ATOM      8  C   UNL     1      -0.784  -8.348 -24.369  1.00  0.00     0.008 C 
ATOM      9  C   UNL     1      -1.671  -5.772 -21.570  1.00  0.00     0.005 C 
ATOM     10  C   UNL     1      -0.471  -7.203 -23.357  1.00  0.00    -0.024 C 
ATOM     11  C   UNL     1      -0.462  -5.926 -20.621  1.00  0.00     0.005 C 
ATOM     12  C   UNL     1       0.694  -7.582 -22.275  1.00  0.00    -0.024 C 
ATOM     13  C   UNL     1      -0.063  -5.935 -24.209  1.00  0.00     0.012 C 
ATOM     14  C   UNL     1       0.880  -6.331 -21.325  1.00  0.00     0.002 C 
ATOM     15  C   UNL     1       2.058  -7.871 -22.964  1.00  0.00     0.008 C 
ATOM     16  C   UNL     1       0.320  -8.876 -21.453  1.00  0.00     0.012 C 
ATOM     17  C   UNL     1       2.153  -6.272 -20.358  1.00  0.00    -0.026 C 
ATOM     18  C   UNL     1       3.241  -7.993 -21.999  1.00  0.00     0.005 C 
ATOM     19  C   UNL     1       1.927  -7.125 -19.074  1.00  0.00     0.010 C 
ATOM     20  C   UNL     1       2.278  -4.761 -19.928  1.00  0.00     0.012 C 
ATOM     21  C   UNL     1       3.487  -6.748 -21.099  1.00  0.00     0.003 C 
ATOM     22  C   UNL     1       3.141  -7.154 -18.149  1.00  0.00     0.033 C 
ATOM     23  C   UNL     1       4.764  -6.984 -20.140  1.00  0.00    -0.006 C 
ATOM     24  C   UNL     1       4.371  -7.765 -18.842  1.00  0.00     0.120 C 
ATOM     25  C   UNL     1       5.459  -5.642 -19.745  1.00  0.00     0.014 C 
ATOM     26  C   UNL     1       5.890  -7.786 -20.867  1.00  0.00     0.014 C 
ENDROOT
BRANCH   1  27
ATOM     27  C   UNL     1      -2.951  -5.696 -25.553  1.00  0.00     0.048 C 
ATOM     28  O   UNL     1      -3.471  -4.666 -25.045  1.00  0.00    -0.550 OA
ATOM     29  O   UNL     1      -2.284  -5.576 -26.765  1.00  0.00    -0.550 OA
ENDBRANCH   1  27
BRANCH   7  30
ATOM     30  C   UNL     1      -4.751  -8.033 -21.615  1.00  0.00    -0.077 C 
ATOM     31  C   UNL     1      -5.125  -6.666 -21.077  1.00  0.00     0.039 C 
ATOM     32  C   UNL     1      -5.059  -9.124 -20.894  1.00  0.00     0.008 C 
ENDBRANCH   7  30
BRANCH  24  33
ATOM     33  O   UNL     1       4.136  -9.120 -19.139  1.00  0.00    -0.393 OA
ATOM     34  H   UNL     1       4.979  -9.621 -18.951  1.00  0.00     0.210 HD
ENDBRANCH  24  33
TORSDOF 3
ENDMDL
