MODEL 1
REMARK VINA RESULT:    -2.935      0.000      0.000
REMARK INTER + INTRA:          -4.847
REMARK INTER:                  -4.480
REMARK INTRA:                  -0.368
REMARK UNBOUND:                -0.368
REMARK SMILES CC1=CCC[C@H](C)C(=O)C[C@H](C(C)C)C(=O)C1
REMARK SMILES IDX 8 1 9 2 6 3 7 4 5 5 4 6 3 7 2 8 1 9 10 11 11 12 15 13 16 14
REMARK SMILES IDX 17 15 12 17 13 18 14 19
REMARK H PARENT
REMARK Flexibility Score: 70.00
ROOT
ATOM      1  C   UNL     1     -31.535 -16.534  28.226  1.00  0.00     0.136 C 
ATOM      2  O   UNL     1     -31.801 -17.026  29.313  1.00  0.00    -0.299 OA
ENDROOT
BRANCH   1   3
ATOM      3  C   UNL     1     -30.134 -16.712  27.667  1.00  0.00     0.053 C 
ATOM      4  C   UNL     1     -29.122 -16.860  28.809  1.00  0.00     0.016 C 
BRANCH   3   5
ATOM      5  C   UNL     1     -30.036 -17.902  26.692  1.00  0.00     0.015 C 
BRANCH   5   6
ATOM      6  C   UNL     1     -29.617 -17.455  25.281  1.00  0.00     0.028 C 
BRANCH   6   7
ATOM      7  C   UNL     1     -30.553 -17.953  24.210  1.00  0.00    -0.028 C 
ATOM      8  C   UNL     1     -31.400 -17.184  23.478  1.00  0.00    -0.070 CG0
ATOM      9  C   UNL     1     -32.198 -17.837  22.375  1.00  0.00     0.039 C 
ATOM     10  G   UNL     1     -31.691 -15.713  23.758  1.00  0.00     0.000 G0
ENDBRANCH   6   7
ENDBRANCH   5   6
ENDBRANCH   3   5
ENDBRANCH   1   3
BRANCH   1  11
ATOM     11  C   UNL     1     -32.629 -15.829  27.455  1.00  0.00     0.087 C 
BRANCH  11  12
ATOM     12  C   UNL     1     -32.088 -14.983  26.271  1.00  0.00     0.066 C 
BRANCH  12  13
ATOM     13  C   UNL     1     -32.611 -15.421  24.903  1.00  0.00     0.140 C 
ATOM     14  O   UNL     1     -33.806 -15.659  24.788  1.00  0.00    -0.299 OA
BRANCH  13  15
ATOM     15  C   UNL     1     -31.705 -15.702  23.728  1.00  0.00     0.106 CG0
ATOM     16  G   UNL     1     -31.403 -17.180  23.501  1.00  0.00     0.000 G0
ENDBRANCH  13  15
ENDBRANCH  12  13
BRANCH  12  17
ATOM     17  C   UNL     1     -32.238 -13.451  26.528  1.00  0.00    -0.006 C 
ATOM     18  C   UNL     1     -30.934 -12.736  26.921  1.00  0.00     0.008 C 
ATOM     19  C   UNL     1     -33.337 -13.151  27.559  1.00  0.00     0.008 C 
ENDBRANCH  12  17
ENDBRANCH  11  12
ENDBRANCH   1  11
TORSDOF 1
ENDMDL
MODEL 2
REMARK VINA RESULT:    -2.859      3.202      5.877
REMARK INTER + INTRA:          -4.730
REMARK INTER:                  -4.400
REMARK INTRA:                  -0.331
REMARK UNBOUND:                -0.368
REMARK SMILES CC1=CCC[C@H](C)C(=O)C[C@H](C(C)C)C(=O)C1
REMARK SMILES IDX 8 1 9 2 6 3 7 4 5 5 4 6 3 7 2 8 1 9 10 11 11 12 15 13 16 14
REMARK SMILES IDX 17 15 12 17 13 18 14 19
REMARK H PARENT
REMARK Flexibility Score: 70.00
ROOT
ATOM      1  C   UNL     1     -29.092 -17.776  21.114  1.00  0.00     0.136 C 
ATOM      2  O   UNL     1     -28.459 -18.314  20.218  1.00  0.00    -0.299 OA
ENDROOT
BRANCH   1   3
ATOM      3  C   UNL     1     -28.370 -17.409  22.399  1.00  0.00     0.053 C 
ATOM      4  C   UNL     1     -26.871 -17.699  22.267  1.00  0.00     0.016 C 
BRANCH   3   5
ATOM      5  C   UNL     1     -28.611 -15.943  22.812  1.00  0.00     0.015 C 
BRANCH   5   6
ATOM      6  C   UNL     1     -29.328 -15.839  24.168  1.00  0.00     0.028 C 
BRANCH   6   7
ATOM      7  C   UNL     1     -30.548 -14.956  24.116  1.00  0.00    -0.028 C 
ATOM      8  C   UNL     1     -31.836 -15.384  24.116  1.00  0.00    -0.070 CG0
ATOM      9  C   UNL     1     -32.940 -14.354  24.159  1.00  0.00     0.039 C 
ATOM     10  G   UNL     1     -32.263 -16.841  23.965  1.00  0.00     0.000 G0
ENDBRANCH   6   7
ENDBRANCH   5   6
ENDBRANCH   3   5
ENDBRANCH   1   3
BRANCH   1  11
ATOM     11  C   UNL     1     -30.548 -17.437  20.880  1.00  0.00     0.087 C 
BRANCH  11  12
ATOM     12  C   UNL     1     -31.510 -18.214  21.818  1.00  0.00     0.066 C 
BRANCH  12  13
ATOM     13  C   UNL     1     -32.505 -17.325  22.563  1.00  0.00     0.140 C 
ATOM     14  O   UNL     1     -33.472 -16.895  21.949  1.00  0.00    -0.299 OA
BRANCH  13  15
ATOM     15  C   UNL     1     -32.280 -16.845  23.978  1.00  0.00     0.106 CG0
ATOM     16  G   UNL     1     -31.835 -15.390  24.088  1.00  0.00     0.000 G0
ENDBRANCH  13  15
ENDBRANCH  12  13
BRANCH  12  17
ATOM     17  C   UNL     1     -32.183 -19.424  21.097  1.00  0.00    -0.006 C 
ATOM     18  C   UNL     1     -31.564 -20.793  21.429  1.00  0.00     0.008 C 
ATOM     19  C   UNL     1     -32.236 -19.223  19.575  1.00  0.00     0.008 C 
ENDBRANCH  12  17
ENDBRANCH  11  12
ENDBRANCH   1  11
TORSDOF 1
ENDMDL
MODEL 3
REMARK VINA RESULT:    -2.853      2.004      3.697
REMARK INTER + INTRA:          -4.722
REMARK INTER:                  -4.835
REMARK INTRA:                   0.113
REMARK UNBOUND:                -0.368
REMARK SMILES CC1=CCC[C@H](C)C(=O)C[C@H](C(C)C)C(=O)C1
REMARK SMILES IDX 8 1 9 2 6 3 7 4 5 5 4 6 3 7 2 8 1 9 10 11 11 12 15 13 16 14
REMARK SMILES IDX 17 15 12 17 13 18 14 19
REMARK H PARENT
REMARK Flexibility Score: 70.00
ROOT
ATOM      1  C   UNL     1     -30.174 -17.898  27.580  1.00  0.00     0.136 C 
ATOM      2  O   UNL     1     -30.753 -18.970  27.489  1.00  0.00    -0.299 OA
ENDROOT
BRANCH   1   3
ATOM      3  C   UNL     1     -30.393 -17.053  28.823  1.00  0.00     0.053 C 
ATOM      4  C   UNL     1     -29.382 -15.902  28.867  1.00  0.00     0.016 C 
BRANCH   3   5
ATOM      5  C   UNL     1     -31.836 -16.520  28.926  1.00  0.00     0.015 C 
BRANCH   5   6
ATOM      6  C   UNL     1     -32.114 -15.413  27.895  1.00  0.00     0.028 C 
BRANCH   6   7
ATOM      7  C   UNL     1     -33.077 -15.847  26.821  1.00  0.00    -0.028 C 
ATOM      8  C   UNL     1     -32.864 -15.757  25.483  1.00  0.00    -0.070 CG0
ATOM      9  C   UNL     1     -33.900 -16.331  24.546  1.00  0.00     0.039 C 
ATOM     10  G   UNL     1     -31.695 -15.016  24.842  1.00  0.00     0.000 G0
ENDBRANCH   6   7
ENDBRANCH   5   6
ENDBRANCH   3   5
ENDBRANCH   1   3
BRANCH   1  11
ATOM     11  C   UNL     1     -29.212 -17.490  26.485  1.00  0.00     0.087 C 
BRANCH  11  12
ATOM     12  C   UNL     1     -29.930 -17.000  25.199  1.00  0.00     0.066 C 
BRANCH  12  13
ATOM     13  C   UNL     1     -30.320 -15.522  25.229  1.00  0.00     0.140 C 
ATOM     14  O   UNL     1     -29.526 -14.722  25.705  1.00  0.00    -0.299 OA
BRANCH  13  15
ATOM     15  C   UNL     1     -31.687 -15.024  24.824  1.00  0.00     0.106 CG0
ATOM     16  G   UNL     1     -32.849 -15.768  25.475  1.00  0.00     0.000 G0
ENDBRANCH  13  15
ENDBRANCH  12  13
BRANCH  12  17
ATOM     17  C   UNL     1     -29.160 -17.409  23.905  1.00  0.00    -0.006 C 
ATOM     18  C   UNL     1     -28.020 -16.455  23.508  1.00  0.00     0.008 C 
ATOM     19  C   UNL     1     -30.111 -17.619  22.717  1.00  0.00     0.008 C 
ENDBRANCH  12  17
ENDBRANCH  11  12
ENDBRANCH   1  11
TORSDOF 1
ENDMDL
MODEL 4
REMARK VINA RESULT:    -2.805      2.845      5.914
REMARK INTER + INTRA:          -4.648
REMARK INTER:                  -4.206
REMARK INTRA:                  -0.442
REMARK UNBOUND:                -0.368
REMARK SMILES CC1=CCC[C@H](C)C(=O)C[C@H](C(C)C)C(=O)C1
REMARK SMILES IDX 8 1 9 2 6 3 7 4 5 5 4 6 3 7 2 8 1 9 10 11 11 12 15 13 16 14
REMARK SMILES IDX 17 15 12 17 13 18 14 19
REMARK H PARENT
REMARK Flexibility Score: 70.00
ROOT
ATOM      1  C   UNL     1     -30.117 -16.698  21.037  1.00  0.00     0.136 C 
ATOM      2  O   UNL     1     -29.556 -15.720  20.565  1.00  0.00    -0.299 OA
ENDROOT
BRANCH   1   3
ATOM      3  C   UNL     1     -31.579 -16.936  20.696  1.00  0.00     0.053 C 
ATOM      4  C   UNL     1     -31.901 -18.433  20.761  1.00  0.00     0.016 C 
BRANCH   3   5
ATOM      5  C   UNL     1     -32.533 -16.130  21.601  1.00  0.00     0.015 C 
BRANCH   5   6
ATOM      6  C   UNL     1     -33.059 -16.973  22.774  1.00  0.00     0.028 C 
BRANCH   6   7
ATOM      7  C   UNL     1     -32.719 -16.379  24.116  1.00  0.00    -0.028 C 
ATOM      8  C   UNL     1     -31.664 -16.732  24.894  1.00  0.00    -0.070 CG0
ATOM      9  C   UNL     1     -31.417 -15.961  26.170  1.00  0.00     0.039 C 
ATOM     10  G   UNL     1     -30.759 -17.931  24.631  1.00  0.00     0.000 G0
ENDBRANCH   6   7
ENDBRANCH   5   6
ENDBRANCH   3   5
ENDBRANCH   1   3
BRANCH   1  11
ATOM     11  C   UNL     1     -29.316 -17.664  21.880  1.00  0.00     0.087 C 
BRANCH  11  12
ATOM     12  C   UNL     1     -28.736 -17.012  23.164  1.00  0.00     0.066 C 
BRANCH  12  13
ATOM     13  C   UNL     1     -29.300 -17.586  24.463  1.00  0.00     0.140 C 
ATOM     14  O   UNL     1     -28.517 -17.879  25.357  1.00  0.00    -0.299 OA
BRANCH  13  15
ATOM     15  C   UNL     1     -30.759 -17.931  24.644  1.00  0.00     0.106 CG0
ATOM     16  G   UNL     1     -31.669 -16.729  24.877  1.00  0.00     0.000 G0
ENDBRANCH  13  15
ENDBRANCH  12  13
BRANCH  12  17
ATOM     17  C   UNL     1     -27.176 -16.955  23.139  1.00  0.00    -0.006 C 
ATOM     18  C   UNL     1     -26.579 -15.575  23.467  1.00  0.00     0.008 C 
ATOM     19  C   UNL     1     -26.607 -17.475  21.810  1.00  0.00     0.008 C 
ENDBRANCH  12  17
ENDBRANCH  11  12
ENDBRANCH   1  11
TORSDOF 1
ENDMDL
MODEL 5
REMARK VINA RESULT:    -2.802      2.940      5.265
REMARK INTER + INTRA:          -4.643
REMARK INTER:                  -4.417
REMARK INTRA:                  -0.226
REMARK UNBOUND:                -0.368
REMARK SMILES CC1=CCC[C@H](C)C(=O)C[C@H](C(C)C)C(=O)C1
REMARK SMILES IDX 8 1 9 2 6 3 7 4 5 5 4 6 3 7 2 8 1 9 10 11 11 12 15 13 16 14
REMARK SMILES IDX 17 15 12 17 13 18 14 19
REMARK H PARENT
REMARK Flexibility Score: 70.00
ROOT
ATOM      1  C   UNL     1     -32.252 -17.856  21.479  1.00  0.00     0.136 C 
ATOM      2  O   UNL     1     -33.241 -17.862  20.761  1.00  0.00    -0.299 OA
ENDROOT
BRANCH   1   3
ATOM      3  C   UNL     1     -31.449 -19.137  21.626  1.00  0.00     0.053 C 
ATOM      4  C   UNL     1     -32.380 -20.314  21.940  1.00  0.00     0.016 C 
BRANCH   3   5
ATOM      5  C   UNL     1     -30.586 -19.438  20.383  1.00  0.00     0.015 C 
BRANCH   5   6
ATOM      6  C   UNL     1     -29.697 -18.243  20.000  1.00  0.00     0.028 C 
BRANCH   6   7
ATOM      7  C   UNL     1     -28.371 -18.250  20.716  1.00  0.00    -0.028 C 
ATOM      8  C   UNL     1     -28.033 -17.455  21.764  1.00  0.00    -0.070 CG0
ATOM      9  C   UNL     1     -26.691 -17.664  22.425  1.00  0.00     0.039 C 
ATOM     10  G   UNL     1     -28.868 -16.279  22.262  1.00  0.00     0.000 G0
ENDBRANCH   6   7
ENDBRANCH   5   6
ENDBRANCH   3   5
ENDBRANCH   1   3
BRANCH   1  11
ATOM     11  C   UNL     1     -31.831 -16.559  22.133  1.00  0.00     0.087 C 
BRANCH  11  12
ATOM     12  C   UNL     1     -31.164 -16.768  23.520  1.00  0.00     0.066 C 
BRANCH  12  13
ATOM     13  C   UNL     1     -29.654 -16.530  23.526  1.00  0.00     0.140 C 
ATOM     14  O   UNL     1     -29.083 -16.449  24.605  1.00  0.00    -0.299 OA
BRANCH  13  15
ATOM     15  C   UNL     1     -28.860 -16.258  22.270  1.00  0.00     0.106 CG0
ATOM     16  G   UNL     1     -28.044 -17.445  21.768  1.00  0.00     0.000 G0
ENDBRANCH  13  15
ENDBRANCH  12  13
BRANCH  12  17
ATOM     17  C   UNL     1     -31.915 -16.002  24.654  1.00  0.00    -0.006 C 
ATOM     18  C   UNL     1     -31.948 -16.731  26.008  1.00  0.00     0.008 C 
ATOM     19  C   UNL     1     -33.339 -15.609  24.230  1.00  0.00     0.008 C 
ENDBRANCH  12  17
ENDBRANCH  11  12
ENDBRANCH   1  11
TORSDOF 1
ENDMDL
MODEL 6
REMARK VINA RESULT:    -2.784      3.266      5.933
REMARK INTER + INTRA:          -4.616
REMARK INTER:                  -4.253
REMARK INTRA:                  -0.363
REMARK UNBOUND:                -0.368
REMARK SMILES CC1=CCC[C@H](C)C(=O)C[C@H](C(C)C)C(=O)C1
REMARK SMILES IDX 8 1 9 2 6 3 7 4 5 5 4 6 3 7 2 8 1 9 10 11 11 12 15 13 16 14
REMARK SMILES IDX 17 15 12 17 13 18 14 19
REMARK H PARENT
REMARK Flexibility Score: 70.00
ROOT
ATOM      1  C   UNL     1     -31.827 -17.680  23.343  1.00  0.00     0.136 C 
ATOM      2  O   UNL     1     -33.002 -17.433  23.117  1.00  0.00    -0.299 OA
ENDROOT
BRANCH   1   3
ATOM      3  C   UNL     1     -31.117 -16.909  24.442  1.00  0.00     0.053 C 
ATOM      4  C   UNL     1     -29.900 -17.696  24.941  1.00  0.00     0.016 C 
BRANCH   3   5
ATOM      5  C   UNL     1     -30.708 -15.490  23.997  1.00  0.00     0.015 C 
BRANCH   5   6
ATOM      6  C   UNL     1     -29.216 -15.411  23.635  1.00  0.00     0.028 C 
BRANCH   6   7
ATOM      7  C   UNL     1     -28.986 -15.001  22.203  1.00  0.00    -0.028 C 
ATOM      8  C   UNL     1     -28.902 -15.844  21.142  1.00  0.00    -0.070 CG0
ATOM      9  C   UNL     1     -28.766 -15.253  19.759  1.00  0.00     0.039 C 
ATOM     10  G   UNL     1     -28.826 -17.364  21.249  1.00  0.00     0.000 G0
ENDBRANCH   6   7
ENDBRANCH   5   6
ENDBRANCH   3   5
ENDBRANCH   1   3
BRANCH   1  11
ATOM     11  C   UNL     1     -31.151 -18.789  22.568  1.00  0.00     0.087 C 
BRANCH  11  12
ATOM     12  C   UNL     1     -31.192 -18.568  21.031  1.00  0.00     0.066 C 
BRANCH  12  13
ATOM     13  C   UNL     1     -29.864 -18.103  20.434  1.00  0.00     0.140 C 
ATOM     14  O   UNL     1     -29.597 -18.433  19.287  1.00  0.00    -0.299 OA
BRANCH  13  15
ATOM     15  C   UNL     1     -28.814 -17.371  21.236  1.00  0.00     0.106 CG0
ATOM     16  G   UNL     1     -28.908 -15.850  21.162  1.00  0.00     0.000 G0
ENDBRANCH  13  15
ENDBRANCH  12  13
BRANCH  12  17
ATOM     17  C   UNL     1     -31.815 -19.785  20.280  1.00  0.00    -0.006 C 
ATOM     18  C   UNL     1     -32.995 -19.434  19.357  1.00  0.00     0.008 C 
ATOM     19  C   UNL     1     -32.218 -20.908  21.248  1.00  0.00     0.008 C 
ENDBRANCH  12  17
ENDBRANCH  11  12
ENDBRANCH   1  11
TORSDOF 1
ENDMDL
MODEL 7
REMARK VINA RESULT:    -2.778      2.126      4.189
REMARK INTER + INTRA:          -4.607
REMARK INTER:                  -4.674
REMARK INTRA:                   0.067
REMARK UNBOUND:                -0.368
REMARK SMILES CC1=CCC[C@H](C)C(=O)C[C@H](C(C)C)C(=O)C1
REMARK SMILES IDX 8 1 9 2 6 3 7 4 5 5 4 6 3 7 2 8 1 9 10 11 11 12 15 13 16 14
REMARK SMILES IDX 17 15 12 17 13 18 14 19
REMARK H PARENT
REMARK Flexibility Score: 70.00
ROOT
ATOM      1  C   UNL     1     -32.450 -15.503  25.519  1.00  0.00     0.136 C 
ATOM      2  O   UNL     1     -33.314 -14.639  25.517  1.00  0.00    -0.299 OA
ENDROOT
BRANCH   1   3
ATOM      3  C   UNL     1     -32.544 -16.632  24.507  1.00  0.00     0.053 C 
ATOM      4  C   UNL     1     -33.988 -16.783  24.014  1.00  0.00     0.016 C 
BRANCH   3   5
ATOM      5  C   UNL     1     -31.577 -16.442  23.321  1.00  0.00     0.015 C 
BRANCH   5   6
ATOM      6  C   UNL     1     -30.673 -17.668  23.116  1.00  0.00     0.028 C 
BRANCH   6   7
ATOM      7  C   UNL     1     -29.228 -17.297  22.903  1.00  0.00    -0.028 C 
ATOM      8  C   UNL     1     -28.235 -17.421  23.820  1.00  0.00    -0.070 CG0
ATOM      9  C   UNL     1     -26.821 -17.091  23.404  1.00  0.00     0.039 C 
ATOM     10  G   UNL     1     -28.454 -17.768  25.289  1.00  0.00     0.000 G0
ENDBRANCH   6   7
ENDBRANCH   5   6
ENDBRANCH   3   5
ENDBRANCH   1   3
BRANCH   1  11
ATOM     11  C   UNL     1     -31.289 -15.375  26.480  1.00  0.00     0.087 C 
BRANCH  11  12
ATOM     12  C   UNL     1     -30.493 -16.697  26.649  1.00  0.00     0.066 C 
BRANCH  12  13
ATOM     13  C   UNL     1     -29.065 -16.637  26.105  1.00  0.00     0.140 C 
ATOM     14  O   UNL     1     -28.439 -15.594  26.233  1.00  0.00    -0.299 OA
BRANCH  13  15
ATOM     15  C   UNL     1     -28.444 -17.756  25.303  1.00  0.00     0.106 CG0
ATOM     16  G   UNL     1     -28.218 -17.428  23.830  1.00  0.00     0.000 G0
ENDBRANCH  13  15
ENDBRANCH  12  13
BRANCH  12  17
ATOM     17  C   UNL     1     -30.575 -17.250  28.107  1.00  0.00    -0.006 C 
ATOM     18  C   UNL     1     -31.818 -16.798  28.894  1.00  0.00     0.008 C 
ATOM     19  C   UNL     1     -29.301 -16.941  28.907  1.00  0.00     0.008 C 
ENDBRANCH  12  17
ENDBRANCH  11  12
ENDBRANCH   1  11
TORSDOF 1
ENDMDL
MODEL 8
REMARK VINA RESULT:    -2.690      1.994      3.819
REMARK INTER + INTRA:          -4.473
REMARK INTER:                  -4.325
REMARK INTRA:                  -0.147
REMARK UNBOUND:                -0.368
REMARK SMILES CC1=CCC[C@H](C)C(=O)C[C@H](C(C)C)C(=O)C1
REMARK SMILES IDX 8 1 9 2 6 3 7 4 5 5 4 6 3 7 2 8 1 9 10 11 11 12 15 13 16 14
REMARK SMILES IDX 17 15 12 17 13 18 14 19
REMARK H PARENT
REMARK Flexibility Score: 70.00
ROOT
ATOM      1  C   UNL     1     -29.832 -17.624  24.285  1.00  0.00     0.136 C 
ATOM      2  O   UNL     1     -28.672 -17.900  24.552  1.00  0.00    -0.299 OA
ENDROOT
BRANCH   1   3
ATOM      3  C   UNL     1     -30.198 -17.326  22.841  1.00  0.00     0.053 C 
ATOM      4  C   UNL     1     -28.930 -17.189  21.991  1.00  0.00     0.016 C 
BRANCH   3   5
ATOM      5  C   UNL     1     -31.147 -18.384  22.243  1.00  0.00     0.015 C 
BRANCH   5   6
ATOM      6  C   UNL     1     -32.624 -18.005  22.439  1.00  0.00     0.028 C 
BRANCH   6   7
ATOM      7  C   UNL     1     -32.856 -16.517  22.387  1.00  0.00    -0.028 C 
ATOM      8  C   UNL     1     -33.155 -15.724  23.448  1.00  0.00    -0.070 CG0
ATOM      9  C   UNL     1     -33.258 -14.234  23.230  1.00  0.00     0.039 C 
ATOM     10  G   UNL     1     -33.504 -16.240  24.841  1.00  0.00     0.000 G0
ENDBRANCH   6   7
ENDBRANCH   5   6
ENDBRANCH   3   5
ENDBRANCH   1   3
BRANCH   1  11
ATOM     11  C   UNL     1     -30.865 -17.660  25.389  1.00  0.00     0.087 C 
BRANCH  11  12
ATOM     12  C   UNL     1     -31.118 -16.268  26.029  1.00  0.00     0.066 C 
BRANCH  12  13
ATOM     13  C   UNL     1     -32.567 -15.793  25.934  1.00  0.00     0.140 C 
ATOM     14  O   UNL     1     -33.016 -15.111  26.845  1.00  0.00    -0.299 OA
BRANCH  13  15
ATOM     15  C   UNL     1     -33.507 -16.237  24.837  1.00  0.00     0.106 CG0
ATOM     16  G   UNL     1     -33.132 -15.739  23.444  1.00  0.00     0.000 G0
ENDBRANCH  13  15
ENDBRANCH  12  13
BRANCH  12  17
ATOM     17  C   UNL     1     -30.530 -16.171  27.472  1.00  0.00    -0.006 C 
ATOM     18  C   UNL     1     -29.193 -15.415  27.570  1.00  0.00     0.008 C 
ATOM     19  C   UNL     1     -30.405 -17.554  28.131  1.00  0.00     0.008 C 
ENDBRANCH  12  17
ENDBRANCH  11  12
ENDBRANCH   1  11
TORSDOF 1
ENDMDL
MODEL 9
REMARK VINA RESULT:    -2.658      2.852      4.703
REMARK INTER + INTRA:          -4.424
REMARK INTER:                  -3.962
REMARK INTRA:                  -0.463
REMARK UNBOUND:                -0.368
REMARK SMILES CC1=CCC[C@H](C)C(=O)C[C@H](C(C)C)C(=O)C1
REMARK SMILES IDX 8 1 9 2 6 3 7 4 5 5 4 6 3 7 2 8 1 9 10 11 11 12 15 13 16 14
REMARK SMILES IDX 17 15 12 17 13 18 14 19
REMARK H PARENT
REMARK Flexibility Score: 70.00
ROOT
ATOM      1  C   UNL     1     -31.907 -15.685  26.586  1.00  0.00     0.136 C 
ATOM      2  O   UNL     1     -33.111 -15.479  26.535  1.00  0.00    -0.299 OA
ENDROOT
BRANCH   1   3
ATOM      3  C   UNL     1     -31.417 -17.026  27.105  1.00  0.00     0.053 C 
ATOM      4  C   UNL     1     -30.376 -17.616  26.149  1.00  0.00     0.016 C 
BRANCH   3   5
ATOM      5  C   UNL     1     -30.856 -16.933  28.539  1.00  0.00     0.015 C 
BRANCH   5   6
ATOM      6  C   UNL     1     -29.322 -17.037  28.561  1.00  0.00     0.028 C 
BRANCH   6   7
ATOM      7  C   UNL     1     -28.682 -16.015  29.466  1.00  0.00    -0.028 C 
ATOM      8  C   UNL     1     -28.304 -14.763  29.103  1.00  0.00    -0.070 CG0
ATOM      9  C   UNL     1     -27.766 -13.834  30.166  1.00  0.00     0.039 C 
ATOM     10  G   UNL     1     -28.278 -14.250  27.667  1.00  0.00     0.000 G0
ENDBRANCH   6   7
ENDBRANCH   5   6
ENDBRANCH   3   5
ENDBRANCH   1   3
BRANCH   1  11
ATOM     11  C   UNL     1     -30.962 -14.626  26.066  1.00  0.00     0.087 C 
BRANCH  11  12
ATOM     12  C   UNL     1     -30.762 -13.450  27.060  1.00  0.00     0.066 C 
BRANCH  12  13
ATOM     13  C   UNL     1     -29.299 -13.159  27.394  1.00  0.00     0.140 C 
ATOM     14  O   UNL     1     -28.907 -12.002  27.324  1.00  0.00    -0.299 OA
BRANCH  13  15
ATOM     15  C   UNL     1     -28.288 -14.246  27.674  1.00  0.00     0.106 CG0
ATOM     16  G   UNL     1     -28.288 -14.753  29.113  1.00  0.00     0.000 G0
ENDBRANCH  13  15
ENDBRANCH  12  13
BRANCH  12  17
ATOM     17  C   UNL     1     -31.563 -12.180  26.634  1.00  0.00    -0.006 C 
ATOM     18  C   UNL     1     -32.952 -12.050  27.283  1.00  0.00     0.008 C 
ATOM     19  C   UNL     1     -31.681 -12.065  25.107  1.00  0.00     0.008 C 
ENDBRANCH  12  17
ENDBRANCH  11  12
ENDBRANCH   1  11
TORSDOF 1
ENDMDL
