MODEL 1
REMARK VINA RESULT:    -3.779      0.000      0.000
REMARK INTER + INTRA:          -5.373
REMARK INTER:                  -5.105
REMARK INTRA:                  -0.268
REMARK UNBOUND:                -0.268
REMARK SMILES CCCCCCCC(=O)[O-]
REMARK SMILES IDX 5 1 6 2 7 3 8 4 9 5 10 6 4 7 3 8 2 9 1 10
REMARK H PARENT
REMARK Flexibility Score: inf
ROOT
ATOM      1  C   UNL     1      13.142  34.731  56.593  1.00  0.00     0.000 C 
ENDROOT
BRANCH   1   2
ATOM      2  C   UNL     1      13.911  35.850  57.312  1.00  0.00     0.006 C 
BRANCH   2   3
ATOM      3  C   UNL     1      12.981  36.894  57.946  1.00  0.00     0.053 C 
BRANCH   3   4
ATOM      4  C   UNL     1      13.375  38.272  57.518  1.00  0.00     0.041 C 
ATOM      5  O   UNL     1      13.742  38.487  56.332  1.00  0.00    -0.550 OA
ATOM      6  O   UNL     1      13.290  39.329  58.414  1.00  0.00    -0.550 OA
ENDBRANCH   3   4
ENDBRANCH   2   3
ENDBRANCH   1   2
BRANCH   1   7
ATOM      7  C   UNL     1      13.914  33.403  56.570  1.00  0.00     0.000 C 
BRANCH   7   8
ATOM      8  C   UNL     1      15.256  33.536  57.301  1.00  0.00    -0.000 C 
BRANCH   8   9
ATOM      9  C   UNL     1      16.109  32.276  57.117  1.00  0.00    -0.003 C 
ATOM     10  C   UNL     1      15.249  31.080  56.721  1.00  0.00     0.004 C 
ENDBRANCH   8   9
ENDBRANCH   7   8
ENDBRANCH   1   7
TORSDOF 6
ENDMDL
MODEL 2
REMARK VINA RESULT:    -3.759      6.991      9.484
REMARK INTER + INTRA:          -5.346
REMARK INTER:                  -5.033
REMARK INTRA:                  -0.312
REMARK UNBOUND:                -0.268
REMARK SMILES CCCCCCCC(=O)[O-]
REMARK SMILES IDX 5 1 6 2 7 3 8 4 9 5 10 6 4 7 3 8 2 9 1 10
REMARK H PARENT
REMARK Flexibility Score: inf
ROOT
ATOM      1  C   UNL     1      15.692  28.721  55.307  1.00  0.00     0.000 C 
ENDROOT
BRANCH   1   2
ATOM      2  C   UNL     1      15.956  27.217  55.470  1.00  0.00     0.006 C 
BRANCH   2   3
ATOM      3  C   UNL     1      16.520  26.574  54.196  1.00  0.00     0.053 C 
BRANCH   3   4
ATOM      4  C   UNL     1      15.511  25.654  53.585  1.00  0.00     0.041 C 
ATOM      5  O   UNL     1      15.596  24.410  53.765  1.00  0.00    -0.550 OA
ATOM      6  O   UNL     1      14.447  26.173  52.859  1.00  0.00    -0.550 OA
ENDBRANCH   3   4
ENDBRANCH   2   3
ENDBRANCH   1   2
BRANCH   1   7
ATOM      7  C   UNL     1      16.901  29.475  54.731  1.00  0.00     0.000 C 
BRANCH   7   8
ATOM      8  C   UNL     1      17.324  30.622  55.658  1.00  0.00    -0.000 C 
BRANCH   8   9
ATOM      9  C   UNL     1      16.435  30.677  56.906  1.00  0.00    -0.003 C 
ATOM     10  C   UNL     1      15.824  32.063  57.086  1.00  0.00     0.004 C 
ENDBRANCH   8   9
ENDBRANCH   7   8
ENDBRANCH   1   7
TORSDOF 6
ENDMDL
MODEL 3
REMARK VINA RESULT:    -3.673      4.266      6.346
REMARK INTER + INTRA:          -5.229
REMARK INTER:                  -5.014
REMARK INTRA:                  -0.215
REMARK UNBOUND:                -0.268
REMARK SMILES CCCCCCCC(=O)[O-]
REMARK SMILES IDX 5 1 6 2 7 3 8 4 9 5 10 6 4 7 3 8 2 9 1 10
REMARK H PARENT
REMARK Flexibility Score: inf
ROOT
ATOM      1  C   UNL     1      16.210  30.067  54.781  1.00  0.00     0.000 C 
ENDROOT
BRANCH   1   2
ATOM      2  C   UNL     1      15.859  30.062  56.277  1.00  0.00     0.006 C 
BRANCH   2   3
ATOM      3  C   UNL     1      16.540  31.200  57.048  1.00  0.00     0.053 C 
BRANCH   3   4
ATOM      4  C   UNL     1      15.604  32.356  57.206  1.00  0.00     0.041 C 
ATOM      5  O   UNL     1      14.372  32.209  56.990  1.00  0.00    -0.550 OA
ATOM      6  O   UNL     1      16.084  33.585  57.642  1.00  0.00    -0.550 OA
ENDBRANCH   3   4
ENDBRANCH   2   3
ENDBRANCH   1   2
BRANCH   1   7
ATOM      7  C   UNL     1      16.852  28.749  54.319  1.00  0.00     0.000 C 
BRANCH   7   8
ATOM      8  C   UNL     1      16.177  27.546  54.990  1.00  0.00    -0.000 C 
BRANCH   8   9
ATOM      9  C   UNL     1      16.652  26.230  54.364  1.00  0.00    -0.003 C 
ATOM     10  C   UNL     1      15.543  25.579  53.542  1.00  0.00     0.004 C 
ENDBRANCH   8   9
ENDBRANCH   7   8
ENDBRANCH   1   7
TORSDOF 6
ENDMDL
MODEL 4
REMARK VINA RESULT:    -3.653      9.679     11.492
REMARK INTER + INTRA:          -5.202
REMARK INTER:                  -4.558
REMARK INTRA:                  -0.644
REMARK UNBOUND:                -0.268
REMARK SMILES CCCCCCCC(=O)[O-]
REMARK SMILES IDX 5 1 6 2 7 3 8 4 9 5 10 6 4 7 3 8 2 9 1 10
REMARK H PARENT
REMARK Flexibility Score: inf
ROOT
ATOM      1  C   UNL     1      15.396  23.930  52.113  1.00  0.00     0.000 C 
ENDROOT
BRANCH   1   2
ATOM      2  C   UNL     1      13.912  24.089  51.748  1.00  0.00     0.006 C 
BRANCH   2   3
ATOM      3  C   UNL     1      13.452  25.553  51.773  1.00  0.00     0.053 C 
BRANCH   3   4
ATOM      4  C   UNL     1      14.178  26.345  50.732  1.00  0.00     0.041 C 
ATOM      5  O   UNL     1      14.877  27.339  51.065  1.00  0.00    -0.550 OA
ATOM      6  O   UNL     1      14.124  25.958  49.400  1.00  0.00    -0.550 OA
ENDBRANCH   3   4
ENDBRANCH   2   3
ENDBRANCH   1   2
BRANCH   1   7
ATOM      7  C   UNL     1      15.725  24.485  53.508  1.00  0.00     0.000 C 
BRANCH   7   8
ATOM      8  C   UNL     1      16.995  25.345  53.470  1.00  0.00    -0.000 C 
BRANCH   8   9
ATOM      9  C   UNL     1      16.733  26.737  54.056  1.00  0.00    -0.003 C 
ATOM     10  C   UNL     1      15.401  26.781  54.798  1.00  0.00     0.004 C 
ENDBRANCH   8   9
ENDBRANCH   7   8
ENDBRANCH   1   7
TORSDOF 6
ENDMDL
MODEL 5
REMARK VINA RESULT:    -3.597      3.049      5.549
REMARK INTER + INTRA:          -5.127
REMARK INTER:                  -4.937
REMARK INTRA:                  -0.190
REMARK UNBOUND:                -0.268
REMARK SMILES CCCCCCCC(=O)[O-]
REMARK SMILES IDX 5 1 6 2 7 3 8 4 9 5 10 6 4 7 3 8 2 9 1 10
REMARK H PARENT
REMARK Flexibility Score: inf
ROOT
ATOM      1  C   UNL     1      12.638  35.442  56.938  1.00  0.00     0.000 C 
ENDROOT
BRANCH   1   2
ATOM      2  C   UNL     1      13.236  34.337  56.054  1.00  0.00     0.006 C 
BRANCH   2   3
ATOM      3  C   UNL     1      13.340  32.989  56.781  1.00  0.00     0.053 C 
BRANCH   3   4
ATOM      4  C   UNL     1      14.774  32.621  56.994  1.00  0.00     0.041 C 
ATOM      5  O   UNL     1      15.576  33.454  57.494  1.00  0.00    -0.550 OA
ATOM      6  O   UNL     1      15.216  31.340  56.687  1.00  0.00    -0.550 OA
ENDBRANCH   3   4
ENDBRANCH   2   3
ENDBRANCH   1   2
BRANCH   1   7
ATOM      7  C   UNL     1      13.702  36.410  57.476  1.00  0.00     0.000 C 
BRANCH   7   8
ATOM      8  C   UNL     1      13.287  37.868  57.240  1.00  0.00    -0.000 C 
BRANCH   8   9
ATOM      9  C   UNL     1      12.930  38.559  58.561  1.00  0.00    -0.003 C 
ATOM     10  C   UNL     1      11.625  38.014  59.133  1.00  0.00     0.004 C 
ENDBRANCH   8   9
ENDBRANCH   7   8
ENDBRANCH   1   7
TORSDOF 6
ENDMDL
MODEL 6
REMARK VINA RESULT:    -3.578      8.739     11.510
REMARK INTER + INTRA:          -5.101
REMARK INTER:                  -4.770
REMARK INTRA:                  -0.331
REMARK UNBOUND:                -0.268
REMARK SMILES CCCCCCCC(=O)[O-]
REMARK SMILES IDX 5 1 6 2 7 3 8 4 9 5 10 6 4 7 3 8 2 9 1 10
REMARK H PARENT
REMARK Flexibility Score: inf
ROOT
ATOM      1  C   UNL     1      15.718  24.700  53.620  1.00  0.00     0.000 C 
ENDROOT
BRANCH   1   2
ATOM      2  C   UNL     1      15.350  23.905  52.358  1.00  0.00     0.006 C 
BRANCH   2   3
ATOM      3  C   UNL     1      14.004  24.335  51.760  1.00  0.00     0.053 C 
BRANCH   3   4
ATOM      4  C   UNL     1      14.214  25.335  50.668  1.00  0.00     0.041 C 
ATOM      5  O   UNL     1      14.212  24.968  49.463  1.00  0.00    -0.550 OA
ATOM      6  O   UNL     1      14.364  26.681  50.977  1.00  0.00    -0.550 OA
ENDBRANCH   3   4
ENDBRANCH   2   3
ENDBRANCH   1   2
BRANCH   1   7
ATOM      7  C   UNL     1      17.066  25.426  53.491  1.00  0.00     0.000 C 
BRANCH   7   8
ATOM      8  C   UNL     1      16.917  26.920  53.804  1.00  0.00    -0.000 C 
BRANCH   8   9
ATOM      9  C   UNL     1      16.098  27.135  55.082  1.00  0.00    -0.003 C 
ATOM     10  C   UNL     1      15.857  28.619  55.339  1.00  0.00     0.004 C 
ENDBRANCH   8   9
ENDBRANCH   7   8
ENDBRANCH   1   7
TORSDOF 6
ENDMDL
MODEL 7
REMARK VINA RESULT:    -3.555      2.299      3.075
REMARK INTER + INTRA:          -5.070
REMARK INTER:                  -4.849
REMARK INTRA:                  -0.221
REMARK UNBOUND:                -0.268
REMARK SMILES CCCCCCCC(=O)[O-]
REMARK SMILES IDX 5 1 6 2 7 3 8 4 9 5 10 6 4 7 3 8 2 9 1 10
REMARK H PARENT
REMARK Flexibility Score: inf
ROOT
ATOM      1  C   UNL     1      12.967  34.765  56.598  1.00  0.00     0.000 C 
ENDROOT
BRANCH   1   2
ATOM      2  C   UNL     1      12.448  35.952  57.423  1.00  0.00     0.006 C 
BRANCH   2   3
ATOM      3  C   UNL     1      13.471  37.090  57.531  1.00  0.00     0.053 C 
BRANCH   3   4
ATOM      4  C   UNL     1      12.931  38.199  58.378  1.00  0.00     0.041 C 
ATOM      5  O   UNL     1      13.438  39.351  58.312  1.00  0.00    -0.550 OA
ATOM      6  O   UNL     1      11.837  37.975  59.203  1.00  0.00    -0.550 OA
ENDBRANCH   3   4
ENDBRANCH   2   3
ENDBRANCH   1   2
BRANCH   1   7
ATOM      7  C   UNL     1      11.877  33.722  56.310  1.00  0.00     0.000 C 
BRANCH   7   8
ATOM      8  C   UNL     1      11.501  33.718  54.823  1.00  0.00    -0.000 C 
BRANCH   8   9
ATOM      9  C   UNL     1      12.720  34.026  53.946  1.00  0.00    -0.003 C 
ATOM     10  C   UNL     1      12.456  33.666  52.488  1.00  0.00     0.004 C 
ENDBRANCH   8   9
ENDBRANCH   7   8
ENDBRANCH   1   7
TORSDOF 6
ENDMDL
MODEL 8
REMARK VINA RESULT:    -3.530      8.224     10.709
REMARK INTER + INTRA:          -5.036
REMARK INTER:                  -4.861
REMARK INTRA:                  -0.175
REMARK UNBOUND:                -0.268
REMARK SMILES CCCCCCCC(=O)[O-]
REMARK SMILES IDX 5 1 6 2 7 3 8 4 9 5 10 6 4 7 3 8 2 9 1 10
REMARK H PARENT
REMARK Flexibility Score: inf
ROOT
ATOM      1  C   UNL     1      15.328  26.440  54.260  1.00  0.00     0.000 C 
ENDROOT
BRANCH   1   2
ATOM      2  C   UNL     1      16.186  25.326  53.640  1.00  0.00     0.006 C 
BRANCH   2   3
ATOM      3  C   UNL     1      15.352  24.303  52.858  1.00  0.00     0.053 C 
BRANCH   3   4
ATOM      4  C   UNL     1      14.606  24.976  51.750  1.00  0.00     0.041 C 
ATOM      5  O   UNL     1      15.234  25.514  50.798  1.00  0.00    -0.550 OA
ATOM      6  O   UNL     1      13.217  24.968  51.740  1.00  0.00    -0.550 OA
ENDBRANCH   3   4
ENDBRANCH   2   3
ENDBRANCH   1   2
BRANCH   1   7
ATOM      7  C   UNL     1      16.092  27.259  55.312  1.00  0.00     0.000 C 
BRANCH   7   8
ATOM      8  C   UNL     1      16.209  28.728  54.884  1.00  0.00    -0.000 C 
BRANCH   8   9
ATOM      9  C   UNL     1      15.753  29.665  56.008  1.00  0.00    -0.003 C 
ATOM     10  C   UNL     1      16.813  30.722  56.308  1.00  0.00     0.004 C 
ENDBRANCH   8   9
ENDBRANCH   7   8
ENDBRANCH   1   7
TORSDOF 6
ENDMDL
MODEL 9
REMARK VINA RESULT:    -3.456     16.726     17.536
REMARK INTER + INTRA:          -4.936
REMARK INTER:                  -4.670
REMARK INTRA:                  -0.266
REMARK UNBOUND:                -0.268
REMARK SMILES CCCCCCCC(=O)[O-]
REMARK SMILES IDX 5 1 6 2 7 3 8 4 9 5 10 6 4 7 3 8 2 9 1 10
REMARK H PARENT
REMARK Flexibility Score: inf
ROOT
ATOM      1  C   UNL     1      29.064  38.121  50.315  1.00  0.00     0.000 C 
ENDROOT
BRANCH   1   2
ATOM      2  C   UNL     1      28.862  38.467  51.798  1.00  0.00     0.006 C 
BRANCH   2   3
ATOM      3  C   UNL     1      28.936  39.976  52.068  1.00  0.00     0.053 C 
BRANCH   3   4
ATOM      4  C   UNL     1      29.945  40.266  53.134  1.00  0.00     0.041 C 
ATOM      5  O   UNL     1      31.053  39.666  53.139  1.00  0.00    -0.550 OA
ATOM      6  O   UNL     1      29.683  41.234  54.094  1.00  0.00    -0.550 OA
ENDBRANCH   3   4
ENDBRANCH   2   3
ENDBRANCH   1   2
BRANCH   1   7
ATOM      7  C   UNL     1      30.348  38.735  49.734  1.00  0.00     0.000 C 
BRANCH   7   8
ATOM      8  C   UNL     1      30.793  37.984  48.473  1.00  0.00    -0.000 C 
BRANCH   8   9
ATOM      9  C   UNL     1      29.659  37.915  47.444  1.00  0.00    -0.003 C 
ATOM     10  C   UNL     1      29.286  36.470  47.130  1.00  0.00     0.004 C 
ENDBRANCH   8   9
ENDBRANCH   7   8
ENDBRANCH   1   7
TORSDOF 6
ENDMDL
