MODEL 1
REMARK VINA RESULT:    -4.410      0.000      0.000
REMARK INTER + INTRA:          -5.708
REMARK INTER:                  -5.441
REMARK INTRA:                  -0.267
REMARK UNBOUND:                -0.267
REMARK SMILES CCCCC=CC(C)=O
REMARK SMILES IDX 4 1 3 2 2 3 1 4 5 5 6 6 7 7 9 8 8 9
REMARK H PARENT
REMARK Flexibility Score: inf
ROOT
ATOM      1  C   UNL     1      17.188 -10.028  65.796  1.00  0.00     0.027 C 
ENDROOT
BRANCH   1   2
ATOM      2  C   UNL     1      17.830 -10.653  64.547  1.00  0.00     0.004 C 
BRANCH   2   3
ATOM      3  C   UNL     1      18.569  -9.612  63.694  1.00  0.00    -0.003 C 
ATOM      4  C   UNL     1      20.076  -9.685  63.921  1.00  0.00     0.004 C 
ENDBRANCH   2   3
ENDBRANCH   1   2
BRANCH   1   5
ATOM      5  C   UNL     1      17.815 -10.524  67.069  1.00  0.00    -0.023 C 
ATOM      6  C   UNL     1      18.672  -9.770  67.768  1.00  0.00     0.042 C 
BRANCH   6   7
ATOM      7  C   UNL     1      19.292 -10.236  69.021  1.00  0.00     0.152 C 
ATOM      8  O   UNL     1      19.396  -9.468  70.015  1.00  0.00    -0.295 OA
ATOM      9  C   UNL     1      19.801 -11.639  69.117  1.00  0.00     0.093 C 
ENDBRANCH   6   7
ENDBRANCH   1   5
TORSDOF 4
ENDMDL
MODEL 2
REMARK VINA RESULT:    -4.251      1.563      2.629
REMARK INTER + INTRA:          -5.512
REMARK INTER:                  -5.366
REMARK INTRA:                  -0.146
REMARK UNBOUND:                -0.267
REMARK SMILES CCCCC=CC(C)=O
REMARK SMILES IDX 4 1 3 2 2 3 1 4 5 5 6 6 7 7 9 8 8 9
REMARK H PARENT
REMARK Flexibility Score: inf
ROOT
ATOM      1  C   UNL     1      17.169  -9.909  65.839  1.00  0.00     0.027 C 
ENDROOT
BRANCH   1   2
ATOM      2  C   UNL     1      16.487 -11.014  65.017  1.00  0.00     0.004 C 
BRANCH   2   3
ATOM      3  C   UNL     1      15.276 -11.613  65.745  1.00  0.00    -0.003 C 
ATOM      4  C   UNL     1      14.104 -11.816  64.789  1.00  0.00     0.004 C 
ENDBRANCH   2   3
ENDBRANCH   1   2
BRANCH   1   5
ATOM      5  C   UNL     1      17.777 -10.434  67.109  1.00  0.00    -0.023 C 
ATOM      6  C   UNL     1      18.694  -9.736  67.788  1.00  0.00     0.042 C 
BRANCH   6   7
ATOM      7  C   UNL     1      19.297 -10.231  69.038  1.00  0.00     0.152 C 
ATOM      8  O   UNL     1      19.389  -9.485  70.050  1.00  0.00    -0.295 OA
ATOM      9  C   UNL     1      19.801 -11.637  69.110  1.00  0.00     0.093 C 
ENDBRANCH   6   7
ENDBRANCH   1   5
TORSDOF 4
ENDMDL
MODEL 3
REMARK VINA RESULT:    -3.847      1.162      1.502
REMARK INTER + INTRA:          -5.013
REMARK INTER:                  -4.833
REMARK INTRA:                  -0.181
REMARK UNBOUND:                -0.267
REMARK SMILES CCCCC=CC(C)=O
REMARK SMILES IDX 4 1 3 2 2 3 1 4 5 5 6 6 7 7 9 8 8 9
REMARK H PARENT
REMARK Flexibility Score: inf
ROOT
ATOM      1  C   UNL     1      16.529 -11.261  66.635  1.00  0.00     0.027 C 
ENDROOT
BRANCH   1   2
ATOM      2  C   UNL     1      16.660 -10.787  65.178  1.00  0.00     0.004 C 
BRANCH   2   3
ATOM      3  C   UNL     1      17.921  -9.941  64.956  1.00  0.00    -0.003 C 
ATOM      4  C   UNL     1      18.067  -9.545  63.490  1.00  0.00     0.004 C 
ENDBRANCH   2   3
ENDBRANCH   1   2
BRANCH   1   5
ATOM      5  C   UNL     1      17.751 -10.944  67.450  1.00  0.00    -0.023 C 
ATOM      6  C   UNL     1      18.304 -11.850  68.264  1.00  0.00     0.042 C 
BRANCH   6   7
ATOM      7  C   UNL     1      19.506 -11.559  69.067  1.00  0.00     0.152 C 
ATOM      8  O   UNL     1      19.632 -10.456  69.665  1.00  0.00    -0.295 OA
ATOM      9  C   UNL     1      20.588 -12.586  69.177  1.00  0.00     0.093 C 
ENDBRANCH   6   7
ENDBRANCH   1   5
TORSDOF 4
ENDMDL
MODEL 4
REMARK VINA RESULT:    -3.745      2.745      5.063
REMARK INTER + INTRA:          -4.888
REMARK INTER:                  -4.666
REMARK INTRA:                  -0.222
REMARK UNBOUND:                -0.267
REMARK SMILES CCCCC=CC(C)=O
REMARK SMILES IDX 4 1 3 2 2 3 1 4 5 5 6 6 7 7 9 8 8 9
REMARK H PARENT
REMARK Flexibility Score: inf
ROOT
ATOM      1  C   UNL     1      17.261 -10.010  67.257  1.00  0.00     0.027 C 
ENDROOT
BRANCH   1   2
ATOM      2  C   UNL     1      18.737  -9.617  67.425  1.00  0.00     0.004 C 
BRANCH   2   3
ATOM      3  C   UNL     1      19.344 -10.182  68.717  1.00  0.00    -0.003 C 
ATOM      4  C   UNL     1      19.047 -11.671  68.858  1.00  0.00     0.004 C 
ENDBRANCH   2   3
ENDBRANCH   1   2
BRANCH   1   5
ATOM      5  C   UNL     1      16.910 -10.319  65.829  1.00  0.00    -0.023 C 
ATOM      6  C   UNL     1      17.696  -9.935  64.816  1.00  0.00     0.042 C 
BRANCH   6   7
ATOM      7  C   UNL     1      17.372 -10.234  63.410  1.00  0.00     0.152 C 
ATOM      8  O   UNL     1      17.692 -11.340  62.894  1.00  0.00    -0.295 OA
ATOM      9  C   UNL     1      16.652  -9.216  62.584  1.00  0.00     0.093 C 
ENDBRANCH   6   7
ENDBRANCH   1   5
TORSDOF 4
ENDMDL
MODEL 5
REMARK VINA RESULT:    -3.622      3.554      5.468
REMARK INTER + INTRA:          -4.737
REMARK INTER:                  -4.611
REMARK INTRA:                  -0.126
REMARK UNBOUND:                -0.267
REMARK SMILES CCCCC=CC(C)=O
REMARK SMILES IDX 4 1 3 2 2 3 1 4 5 5 6 6 7 7 9 8 8 9
REMARK H PARENT
REMARK Flexibility Score: inf
ROOT
ATOM      1  C   UNL     1      17.102 -10.040  65.672  1.00  0.00     0.027 C 
ENDROOT
BRANCH   1   2
ATOM      2  C   UNL     1      17.424 -10.366  67.139  1.00  0.00     0.004 C 
BRANCH   2   3
ATOM      3  C   UNL     1      18.659  -9.607  67.643  1.00  0.00    -0.003 C 
ATOM      4  C   UNL     1      19.220 -10.248  68.909  1.00  0.00     0.004 C 
ENDBRANCH   2   3
ENDBRANCH   1   2
BRANCH   1   5
ATOM      5  C   UNL     1      16.659 -11.252  64.901  1.00  0.00    -0.023 C 
ATOM      6  C   UNL     1      16.979 -11.419  63.613  1.00  0.00     0.042 C 
BRANCH   6   7
ATOM      7  C   UNL     1      16.560 -12.603  62.843  1.00  0.00     0.152 C 
ATOM      8  O   UNL     1      17.005 -12.810  61.682  1.00  0.00    -0.295 OA
ATOM      9  C   UNL     1      15.597 -13.575  63.447  1.00  0.00     0.093 C 
ENDBRANCH   6   7
ENDBRANCH   1   5
TORSDOF 4
ENDMDL
MODEL 6
REMARK VINA RESULT:    -3.568     15.200     16.084
REMARK INTER + INTRA:          -4.670
REMARK INTER:                  -4.534
REMARK INTRA:                  -0.136
REMARK UNBOUND:                -0.267
REMARK SMILES CCCCC=CC(C)=O
REMARK SMILES IDX 4 1 3 2 2 3 1 4 5 5 6 6 7 7 9 8 8 9
REMARK H PARENT
REMARK Flexibility Score: inf
ROOT
ATOM      1  C   UNL     1      17.463   4.143  62.288  1.00  0.00     0.027 C 
ENDROOT
BRANCH   1   2
ATOM      2  C   UNL     1      17.071   4.670  60.899  1.00  0.00     0.004 C 
BRANCH   2   3
ATOM      3  C   UNL     1      16.191   5.925  60.983  1.00  0.00    -0.003 C 
ATOM      4  C   UNL     1      14.754   5.619  60.571  1.00  0.00     0.004 C 
ENDBRANCH   2   3
ENDBRANCH   1   2
BRANCH   1   5
ATOM      5  C   UNL     1      18.497   5.006  62.956  1.00  0.00    -0.023 C 
ATOM      6  C   UNL     1      19.590   4.481  63.521  1.00  0.00     0.042 C 
BRANCH   6   7
ATOM      7  C   UNL     1      20.617   5.312  64.174  1.00  0.00     0.152 C 
ATOM      8  O   UNL     1      20.509   5.636  65.388  1.00  0.00    -0.295 OA
ATOM      9  C   UNL     1      21.803   5.773  63.389  1.00  0.00     0.093 C 
ENDBRANCH   6   7
ENDBRANCH   1   5
TORSDOF 4
ENDMDL
MODEL 7
REMARK VINA RESULT:    -3.564      1.372      2.188
REMARK INTER + INTRA:          -4.665
REMARK INTER:                  -4.393
REMARK INTRA:                  -0.272
REMARK UNBOUND:                -0.267
REMARK SMILES CCCCC=CC(C)=O
REMARK SMILES IDX 4 1 3 2 2 3 1 4 5 5 6 6 7 7 9 8 8 9
REMARK H PARENT
REMARK Flexibility Score: inf
ROOT
ATOM      1  C   UNL     1      20.763 -10.571  65.076  1.00  0.00     0.027 C 
ENDROOT
BRANCH   1   2
ATOM      2  C   UNL     1      19.796  -9.411  64.790  1.00  0.00     0.004 C 
BRANCH   2   3
ATOM      3  C   UNL     1      18.658  -9.825  63.848  1.00  0.00    -0.003 C 
ATOM      4  C   UNL     1      17.350 -10.008  64.612  1.00  0.00     0.004 C 
ENDBRANCH   2   3
ENDBRANCH   1   2
BRANCH   1   5
ATOM      5  C   UNL     1      20.884 -10.865  66.546  1.00  0.00    -0.023 C 
ATOM      6  C   UNL     1      19.812 -10.891  67.345  1.00  0.00     0.042 C 
BRANCH   6   7
ATOM      7  C   UNL     1      19.910 -11.184  68.786  1.00  0.00     0.152 C 
ATOM      8  O   UNL     1      19.564 -10.327  69.644  1.00  0.00    -0.295 OA
ATOM      9  C   UNL     1      20.423 -12.514  69.238  1.00  0.00     0.093 C 
ENDBRANCH   6   7
ENDBRANCH   1   5
TORSDOF 4
ENDMDL
MODEL 8
REMARK VINA RESULT:    -3.560     15.687     16.469
REMARK INTER + INTRA:          -4.660
REMARK INTER:                  -4.441
REMARK INTRA:                  -0.219
REMARK UNBOUND:                -0.267
REMARK SMILES CCCCC=CC(C)=O
REMARK SMILES IDX 4 1 3 2 2 3 1 4 5 5 6 6 7 7 9 8 8 9
REMARK H PARENT
REMARK Flexibility Score: inf
ROOT
ATOM      1  C   UNL     1       6.820  -7.792  54.066  1.00  0.00     0.027 C 
ENDROOT
BRANCH   1   2
ATOM      2  C   UNL     1       7.979  -8.795  54.177  1.00  0.00     0.004 C 
BRANCH   2   3
ATOM      3  C   UNL     1       7.483 -10.242  54.298  1.00  0.00    -0.003 C 
ATOM      4  C   UNL     1       7.629 -10.756  55.727  1.00  0.00     0.004 C 
ENDBRANCH   2   3
ENDBRANCH   1   2
BRANCH   1   5
ATOM      5  C   UNL     1       6.296  -7.372  55.411  1.00  0.00    -0.023 C 
ATOM      6  C   UNL     1       6.986  -6.546  56.205  1.00  0.00     0.042 C 
BRANCH   6   7
ATOM      7  C   UNL     1       6.486  -6.119  57.524  1.00  0.00     0.152 C 
ATOM      8  O   UNL     1       7.068  -6.478  58.583  1.00  0.00    -0.295 OA
ATOM      9  C   UNL     1       5.276  -5.244  57.608  1.00  0.00     0.093 C 
ENDBRANCH   6   7
ENDBRANCH   1   5
TORSDOF 4
ENDMDL
MODEL 9
REMARK VINA RESULT:    -3.456      2.154      2.692
REMARK INTER + INTRA:          -4.531
REMARK INTER:                  -4.338
REMARK INTRA:                  -0.193
REMARK UNBOUND:                -0.267
REMARK SMILES CCCCC=CC(C)=O
REMARK SMILES IDX 4 1 3 2 2 3 1 4 5 5 6 6 7 7 9 8 8 9
REMARK H PARENT
REMARK Flexibility Score: inf
ROOT
ATOM      1  C   UNL     1      15.825 -11.130  65.201  1.00  0.00     0.027 C 
ENDROOT
BRANCH   1   2
ATOM      2  C   UNL     1      15.250 -10.365  63.998  1.00  0.00     0.004 C 
BRANCH   2   3
ATOM      3  C   UNL     1      16.162  -9.211  63.557  1.00  0.00    -0.003 C 
ATOM      4  C   UNL     1      15.355  -8.090  62.909  1.00  0.00     0.004 C 
ENDBRANCH   2   3
ENDBRANCH   1   2
BRANCH   1   5
ATOM      5  C   UNL     1      17.137 -10.563  65.665  1.00  0.00    -0.023 C 
ATOM      6  C   UNL     1      17.391 -10.353  66.961  1.00  0.00     0.042 C 
BRANCH   6   7
ATOM      7  C   UNL     1      18.674  -9.804  67.435  1.00  0.00     0.152 C 
ATOM      8  O   UNL     1      19.444  -9.191  66.648  1.00  0.00    -0.295 OA
ATOM      9  C   UNL     1      19.066  -9.973  68.868  1.00  0.00     0.093 C 
ENDBRANCH   6   7
ENDBRANCH   1   5
TORSDOF 4
ENDMDL
