MODEL 1
REMARK VINA RESULT:    -5.903      0.000      0.000
REMARK INTER + INTRA:          -6.681
REMARK INTER:                  -6.421
REMARK INTRA:                  -0.260
REMARK UNBOUND:                -0.260
REMARK SMILES C[C@H]1[C@H]2C3=CC[C@@H]4[C@@]5(C)CC[C@@H](O)C(C)(C)[C@@H]5CC[C@@]4(C)[C@@]3(C)CC[C@@]2(C(=O)[O-])CC[C@@H]1C
REMARK SMILES IDX 26 1 30 2 25 3 3 4 31 5 24 6 4 7 2 8 32 9 22 10 5 11 1 12
REMARK SMILES IDX 33 13 23 14 20 15 6 16 7 17 19 18 21 19 8 20 18 21 17 22
REMARK SMILES IDX 10 23 9 24 14 25 11 26 12 27 15 28 16 29 27 30 28 31 29 32
REMARK SMILES IDX 13 33
REMARK H PARENT 13 34
REMARK Flexibility Score: inf
ROOT
ATOM      1  C   UNL     1      28.564   1.371  27.353  1.00  0.00     0.017 C 
ATOM      2  C   UNL     1      28.326   2.383  28.520  1.00  0.00     0.014 C 
ATOM      3  C   UNL     1      28.836   2.224  26.071  1.00  0.00     0.014 C 
ATOM      4  C   UNL     1      27.343   0.327  27.235  1.00  0.00     0.030 C 
ATOM      5  C   UNL     1      28.112   1.717  29.889  1.00  0.00     0.004 C 
ATOM      6  C   UNL     1      27.660   2.369  25.110  1.00  0.00     0.013 C 
ATOM      7  C   UNL     1      26.518   0.345  25.915  1.00  0.00    -0.063 C 
ATOM      8  C   UNL     1      26.412   0.343  28.517  1.00  0.00    -0.003 C 
ATOM      9  C   UNL     1      27.209   0.465  29.845  1.00  0.00    -0.011 C 
ATOM     10  C   UNL     1      27.047   1.023  24.634  1.00  0.00    -0.006 C 
ATOM     11  C   UNL     1      25.360  -0.358  25.874  1.00  0.00    -0.027 C 
ATOM     12  C   UNL     1      25.257   1.381  28.443  1.00  0.00     0.008 C 
ATOM     13  C   UNL     1      27.997  -0.820  30.164  1.00  0.00     0.008 C 
ATOM     14  C   UNL     1      28.205   0.122  24.094  1.00  0.00     0.017 C 
ATOM     15  C   UNL     1      25.885   1.239  23.485  1.00  0.00    -0.020 C 
ATOM     16  C   UNL     1      24.231  -0.030  24.947  1.00  0.00     0.032 C 
ATOM     17  C   UNL     1      24.474   1.298  24.191  1.00  0.00     0.006 C 
ATOM     18  C   UNL     1      26.100   2.562  22.668  1.00  0.00     0.008 C 
ATOM     19  C   UNL     1      25.913   0.072  22.439  1.00  0.00     0.012 C 
ATOM     20  C   UNL     1      23.224   1.813  23.330  1.00  0.00    -0.025 C 
ATOM     21  C   UNL     1      24.923   2.955  21.764  1.00  0.00     0.005 C 
ATOM     22  C   UNL     1      23.648   3.156  22.623  1.00  0.00     0.003 C 
ATOM     23  C   UNL     1      22.056   2.152  24.314  1.00  0.00     0.010 C 
ATOM     24  C   UNL     1      22.712   0.730  22.319  1.00  0.00     0.012 C 
ATOM     25  C   UNL     1      22.491   3.984  21.928  1.00  0.00    -0.006 C 
ATOM     26  C   UNL     1      20.882   2.925  23.679  1.00  0.00     0.033 C 
ATOM     27  C   UNL     1      21.313   4.205  22.939  1.00  0.00     0.120 C 
ATOM     28  C   UNL     1      21.951   3.306  20.642  1.00  0.00     0.014 C 
ATOM     29  C   UNL     1      23.016   5.383  21.501  1.00  0.00     0.014 C 
ENDROOT
BRANCH   1  30
ATOM     30  C   UNL     1      29.878   0.628  27.634  1.00  0.00     0.048 C 
ATOM     31  O   UNL     1      29.986  -0.605  27.391  1.00  0.00    -0.550 OA
ATOM     32  O   UNL     1      31.016   1.325  28.037  1.00  0.00    -0.550 OA
ENDBRANCH   1  30
BRANCH  27  33
ATOM     33  O   UNL     1      21.577   5.238  23.864  1.00  0.00    -0.393 OA
ATOM     34  H   UNL     1      22.555   5.293  24.007  1.00  0.00     0.210 HD
ENDBRANCH  27  33
TORSDOF 2
ENDMDL
MODEL 2
REMARK VINA RESULT:    -3.814      2.096      8.211
REMARK INTER + INTRA:          -4.409
REMARK INTER:                  -4.164
REMARK INTRA:                  -0.245
REMARK UNBOUND:                -0.260
REMARK SMILES C[C@H]1[C@H]2C3=CC[C@@H]4[C@@]5(C)CC[C@@H](O)C(C)(C)[C@@H]5CC[C@@]4(C)[C@@]3(C)CC[C@@]2(C(=O)[O-])CC[C@@H]1C
REMARK SMILES IDX 26 1 30 2 25 3 3 4 31 5 24 6 4 7 2 8 32 9 22 10 5 11 1 12
REMARK SMILES IDX 33 13 23 14 20 15 6 16 7 17 19 18 21 19 8 20 18 21 17 22
REMARK SMILES IDX 10 23 9 24 14 25 11 26 12 27 15 28 16 29 27 30 28 31 29 32
REMARK SMILES IDX 13 33
REMARK H PARENT 13 34
REMARK Flexibility Score: inf
ROOT
ATOM      1  C   UNL     1      21.601   2.540  21.042  1.00  0.00     0.017 C 
ATOM      2  C   UNL     1      20.774   3.438  22.018  1.00  0.00     0.014 C 
ATOM      3  C   UNL     1      21.645   1.113  21.679  1.00  0.00     0.014 C 
ATOM      4  C   UNL     1      23.039   3.197  20.731  1.00  0.00     0.030 C 
ATOM      5  C   UNL     1      20.562   4.876  21.516  1.00  0.00     0.004 C 
ATOM      6  C   UNL     1      22.940   0.748  22.400  1.00  0.00     0.013 C 
ATOM      7  C   UNL     1      24.297   2.395  21.176  1.00  0.00    -0.063 C 
ATOM      8  C   UNL     1      23.116   4.716  21.175  1.00  0.00    -0.003 C 
ATOM      9  C   UNL     1      21.814   5.505  20.865  1.00  0.00    -0.011 C 
ATOM     10  C   UNL     1      24.222   0.896  21.535  1.00  0.00    -0.006 C 
ATOM     11  C   UNL     1      25.501   3.015  21.130  1.00  0.00    -0.027 C 
ATOM     12  C   UNL     1      23.574   4.919  22.646  1.00  0.00     0.008 C 
ATOM     13  C   UNL     1      21.622   5.730  19.353  1.00  0.00     0.008 C 
ATOM     14  C   UNL     1      23.999   0.124  20.193  1.00  0.00     0.017 C 
ATOM     15  C   UNL     1      25.566   0.345  22.314  1.00  0.00    -0.020 C 
ATOM     16  C   UNL     1      26.664   2.620  21.986  1.00  0.00     0.032 C 
ATOM     17  C   UNL     1      26.267   1.559  23.041  1.00  0.00     0.006 C 
ATOM     18  C   UNL     1      25.224  -0.755  23.379  1.00  0.00     0.008 C 
ATOM     19  C   UNL     1      26.561  -0.321  21.303  1.00  0.00     0.012 C 
ATOM     20  C   UNL     1      27.408   1.232  24.118  1.00  0.00    -0.025 C 
ATOM     21  C   UNL     1      26.383  -1.124  24.315  1.00  0.00     0.005 C 
ATOM     22  C   UNL     1      26.845   0.133  25.096  1.00  0.00     0.003 C 
ATOM     23  C   UNL     1      27.669   2.521  24.965  1.00  0.00     0.010 C 
ATOM     24  C   UNL     1      28.759   0.810  23.444  1.00  0.00     0.012 C 
ATOM     25  C   UNL     1      27.698  -0.159  26.398  1.00  0.00    -0.006 C 
ATOM     26  C   UNL     1      28.530   2.301  26.226  1.00  0.00     0.033 C 
ATOM     27  C   UNL     1      28.004   1.184  27.147  1.00  0.00     0.120 C 
ATOM     28  C   UNL     1      29.027  -0.900  26.096  1.00  0.00     0.014 C 
ATOM     29  C   UNL     1      26.898  -1.070  27.370  1.00  0.00     0.014 C 
ENDROOT
BRANCH   1  30
ATOM     30  C   UNL     1      20.793   2.384  19.747  1.00  0.00     0.048 C 
ATOM     31  O   UNL     1      21.374   2.247  18.636  1.00  0.00    -0.550 OA
ATOM     32  O   UNL     1      19.405   2.256  19.786  1.00  0.00    -0.550 OA
ENDBRANCH   1  30
BRANCH  27  33
ATOM     33  O   UNL     1      26.905   1.649  27.900  1.00  0.00    -0.393 OA
ATOM     34  H   UNL     1      26.240   0.919  27.975  1.00  0.00     0.210 HD
ENDBRANCH  27  33
TORSDOF 2
ENDMDL
MODEL 3
REMARK VINA RESULT:    -3.385      1.400      1.601
REMARK INTER + INTRA:          -3.941
REMARK INTER:                  -3.682
REMARK INTRA:                  -0.260
REMARK UNBOUND:                -0.260
REMARK SMILES C[C@H]1[C@H]2C3=CC[C@@H]4[C@@]5(C)CC[C@@H](O)C(C)(C)[C@@H]5CC[C@@]4(C)[C@@]3(C)CC[C@@]2(C(=O)[O-])CC[C@@H]1C
REMARK SMILES IDX 26 1 30 2 25 3 3 4 31 5 24 6 4 7 2 8 32 9 22 10 5 11 1 12
REMARK SMILES IDX 33 13 23 14 20 15 6 16 7 17 19 18 21 19 8 20 18 21 17 22
REMARK SMILES IDX 10 23 9 24 14 25 11 26 12 27 15 28 16 29 27 30 28 31 29 32
REMARK SMILES IDX 13 33
REMARK H PARENT 13 34
REMARK Flexibility Score: inf
ROOT
ATOM      1  C   UNL     1      28.440   1.898  27.662  1.00  0.00     0.017 C 
ATOM      2  C   UNL     1      27.921   3.191  28.372  1.00  0.00     0.014 C 
ATOM      3  C   UNL     1      28.955   2.340  26.254  1.00  0.00     0.014 C 
ATOM      4  C   UNL     1      27.308   0.752  27.650  1.00  0.00     0.030 C 
ATOM      5  C   UNL     1      27.436   2.960  29.813  1.00  0.00     0.004 C 
ATOM      6  C   UNL     1      28.012   2.064  25.086  1.00  0.00     0.013 C 
ATOM      7  C   UNL     1      26.789   0.281  26.260  1.00  0.00    -0.063 C 
ATOM      8  C   UNL     1      26.120   1.067  28.650  1.00  0.00    -0.003 C 
ATOM      9  C   UNL     1      26.606   1.671  29.998  1.00  0.00    -0.011 C 
ATOM     10  C   UNL     1      27.561   0.583  24.958  1.00  0.00    -0.006 C 
ATOM     11  C   UNL     1      25.692  -0.513  26.221  1.00  0.00    -0.027 C 
ATOM     12  C   UNL     1      24.976   1.912  28.022  1.00  0.00     0.008 C 
ATOM     13  C   UNL     1      27.347   0.631  30.861  1.00  0.00     0.008 C 
ATOM     14  C   UNL     1      28.838  -0.320  24.974  1.00  0.00     0.017 C 
ATOM     15  C   UNL     1      26.670   0.318  23.597  1.00  0.00    -0.020 C 
ATOM     16  C   UNL     1      24.780  -0.600  25.037  1.00  0.00     0.032 C 
ATOM     17  C   UNL     1      25.138   0.449  23.957  1.00  0.00     0.006 C 
ATOM     18  C   UNL     1      27.013   1.340  22.457  1.00  0.00     0.008 C 
ATOM     19  C   UNL     1      26.963  -1.105  23.009  1.00  0.00     0.012 C 
ATOM     20  C   UNL     1      24.089   0.547  22.749  1.00  0.00    -0.025 C 
ATOM     21  C   UNL     1      26.049   1.317  21.263  1.00  0.00     0.005 C 
ATOM     22  C   UNL     1      24.612   1.643  21.745  1.00  0.00     0.003 C 
ATOM     23  C   UNL     1      22.725   1.053  23.324  1.00  0.00     0.010 C 
ATOM     24  C   UNL     1      23.844  -0.839  22.060  1.00  0.00     0.012 C 
ATOM     25  C   UNL     1      23.607   2.098  20.609  1.00  0.00    -0.006 C 
ATOM     26  C   UNL     1      21.692   1.472  22.257  1.00  0.00     0.033 C 
ATOM     27  C   UNL     1      22.231   2.500  21.244  1.00  0.00     0.120 C 
ATOM     28  C   UNL     1      23.382   1.007  19.530  1.00  0.00     0.014 C 
ATOM     29  C   UNL     1      24.166   3.343  19.866  1.00  0.00     0.014 C 
ENDROOT
BRANCH   1  30
ATOM     30  C   UNL     1      29.684   1.413  28.419  1.00  0.00     0.048 C 
ATOM     31  O   UNL     1      29.882   0.183  28.612  1.00  0.00    -0.550 OA
ATOM     32  O   UNL     1      30.686   2.310  28.788  1.00  0.00    -0.550 OA
ENDBRANCH   1  30
BRANCH  27  33
ATOM     33  O   UNL     1      22.254   3.788  21.821  1.00  0.00    -0.393 OA
ATOM     34  H   UNL     1      21.353   3.991  22.180  1.00  0.00     0.210 HD
ENDBRANCH  27  33
TORSDOF 2
ENDMDL
MODEL 4
REMARK VINA RESULT:    -3.271      1.923      7.791
REMARK INTER + INTRA:          -3.818
REMARK INTER:                  -4.087
REMARK INTRA:                   0.270
REMARK UNBOUND:                -0.260
REMARK SMILES C[C@H]1[C@H]2C3=CC[C@@H]4[C@@]5(C)CC[C@@H](O)C(C)(C)[C@@H]5CC[C@@]4(C)[C@@]3(C)CC[C@@]2(C(=O)[O-])CC[C@@H]1C
REMARK SMILES IDX 26 1 30 2 25 3 3 4 31 5 24 6 4 7 2 8 32 9 22 10 5 11 1 12
REMARK SMILES IDX 33 13 23 14 20 15 6 16 7 17 19 18 21 19 8 20 18 21 17 22
REMARK SMILES IDX 10 23 9 24 14 25 11 26 12 27 15 28 16 29 27 30 28 31 29 32
REMARK SMILES IDX 13 33
REMARK H PARENT 13 34
REMARK Flexibility Score: inf
ROOT
ATOM      1  C   UNL     1      23.640   1.566  22.708  1.00  0.00     0.017 C 
ATOM      2  C   UNL     1      24.353   2.659  21.848  1.00  0.00     0.014 C 
ATOM      3  C   UNL     1      23.147   2.276  24.011  1.00  0.00     0.014 C 
ATOM      4  C   UNL     1      24.602   0.295  22.941  1.00  0.00     0.030 C 
ATOM      5  C   UNL     1      24.846   2.155  20.482  1.00  0.00     0.004 C 
ATOM      6  C   UNL     1      24.006   2.054  25.252  1.00  0.00     0.013 C 
ATOM      7  C   UNL     1      25.007  -0.029  24.408  1.00  0.00    -0.063 C 
ATOM      8  C   UNL     1      25.852   0.300  21.967  1.00  0.00    -0.003 C 
ATOM      9  C   UNL     1      25.496   0.755  20.525  1.00  0.00    -0.011 C 
ATOM     10  C   UNL     1      24.244   0.562  25.613  1.00  0.00    -0.006 C 
ATOM     11  C   UNL     1      25.984  -0.945  24.616  1.00  0.00    -0.027 C 
ATOM     12  C   UNL     1      27.081   1.070  22.525  1.00  0.00     0.008 C 
ATOM     13  C   UNL     1      24.645  -0.294  19.783  1.00  0.00     0.008 C 
ATOM     14  C   UNL     1      22.857  -0.157  25.662  1.00  0.00     0.017 C 
ATOM     15  C   UNL     1      25.048   0.387  27.042  1.00  0.00    -0.020 C 
ATOM     16  C   UNL     1      26.837  -0.976  25.845  1.00  0.00     0.032 C 
ATOM     17  C   UNL     1      26.594   0.260  26.745  1.00  0.00     0.006 C 
ATOM     18  C   UNL     1      24.814   1.603  28.005  1.00  0.00     0.008 C 
ATOM     19  C   UNL     1      24.544  -0.882  27.811  1.00  0.00     0.012 C 
ATOM     20  C   UNL     1      27.609   0.397  27.978  1.00  0.00    -0.025 C 
ATOM     21  C   UNL     1      25.729   1.630  29.237  1.00  0.00     0.005 C 
ATOM     22  C   UNL     1      27.211   1.689  28.787  1.00  0.00     0.003 C 
ATOM     23  C   UNL     1      29.047   0.628  27.407  1.00  0.00     0.010 C 
ATOM     24  C   UNL     1      27.640  -0.892  28.869  1.00  0.00     0.012 C 
ATOM     25  C   UNL     1      28.234   2.170  29.896  1.00  0.00    -0.006 C 
ATOM     26  C   UNL     1      30.094   1.061  28.454  1.00  0.00     0.033 C 
ATOM     27  C   UNL     1      29.671   2.289  29.280  1.00  0.00     0.120 C 
ATOM     28  C   UNL     1      28.273   1.232  31.130  1.00  0.00     0.014 C 
ATOM     29  C   UNL     1      27.829   3.575  30.425  1.00  0.00     0.014 C 
ENDROOT
BRANCH   1  30
ATOM     30  C   UNL     1      22.364   1.142  21.967  1.00  0.00     0.048 C 
ATOM     31  O   UNL     1      21.413   1.954  21.805  1.00  0.00    -0.550 OA
ATOM     32  O   UNL     1      22.285  -0.102  21.342  1.00  0.00    -0.550 OA
ENDBRANCH   1  30
BRANCH  27  33
ATOM     33  O   UNL     1      29.844   3.469  28.525  1.00  0.00    -0.393 OA
ATOM     34  H   UNL     1      29.902   4.238  29.147  1.00  0.00     0.210 HD
ENDBRANCH  27  33
TORSDOF 2
ENDMDL
