MODEL 1
REMARK VINA RESULT:    -3.367      0.000      0.000
REMARK INTER + INTRA:          -4.513
REMARK INTER:                  -4.352
REMARK INTRA:                  -0.162
REMARK UNBOUND:                -0.162
REMARK SMILES CCCCCCC(=O)[O-]
REMARK SMILES IDX 5 1 6 2 7 3 8 4 9 5 4 6 3 7 2 8 1 9
REMARK H PARENT
REMARK Flexibility Score: inf
ROOT
ATOM      1  C   UNL     1       4.202  -3.711  -5.968  1.00  0.00     0.006 C 
ENDROOT
BRANCH   1   2
ATOM      2  C   UNL     1       4.348  -4.386  -7.335  1.00  0.00     0.053 C 
BRANCH   2   3
ATOM      3  C   UNL     1       4.238  -3.376  -8.432  1.00  0.00     0.041 C 
ATOM      4  O   UNL     1       3.482  -3.588  -9.417  1.00  0.00    -0.550 OA
ATOM      5  O   UNL     1       5.006  -2.219  -8.392  1.00  0.00    -0.550 OA
ENDBRANCH   2   3
ENDBRANCH   1   2
BRANCH   1   6
ATOM      6  C   UNL     1       2.737  -3.362  -5.680  1.00  0.00     0.000 C 
BRANCH   6   7
ATOM      7  C   UNL     1       2.625  -2.380  -4.508  1.00  0.00    -0.000 C 
BRANCH   7   8
ATOM      8  C   UNL     1       1.859  -3.005  -3.338  1.00  0.00    -0.003 C 
ATOM      9  C   UNL     1       2.362  -2.470  -2.000  1.00  0.00     0.004 C 
ENDBRANCH   7   8
ENDBRANCH   6   7
ENDBRANCH   1   6
TORSDOF 5
ENDMDL
MODEL 2
REMARK VINA RESULT:    -3.360      2.817      3.326
REMARK INTER + INTRA:          -4.504
REMARK INTER:                  -4.343
REMARK INTRA:                  -0.161
REMARK UNBOUND:                -0.162
REMARK SMILES CCCCCCC(=O)[O-]
REMARK SMILES IDX 5 1 6 2 7 3 8 4 9 5 4 6 3 7 2 8 1 9
REMARK H PARENT
REMARK Flexibility Score: inf
ROOT
ATOM      1  C   UNL     1       5.135  -4.198  -7.140  1.00  0.00     0.006 C 
ENDROOT
BRANCH   1   2
ATOM      2  C   UNL     1       6.040  -4.526  -5.949  1.00  0.00     0.053 C 
BRANCH   2   3
ATOM      3  C   UNL     1       6.268  -6.001  -5.856  1.00  0.00     0.041 C 
ATOM      4  O   UNL     1       7.314  -6.449  -5.316  1.00  0.00    -0.550 OA
ATOM      5  O   UNL     1       5.348  -6.883  -6.407  1.00  0.00    -0.550 OA
ENDBRANCH   2   3
ENDBRANCH   1   2
BRANCH   1   6
ATOM      6  C   UNL     1       3.745  -3.754  -6.668  1.00  0.00     0.000 C 
BRANCH   6   7
ATOM      7  C   UNL     1       3.703  -3.604  -5.142  1.00  0.00    -0.000 C 
BRANCH   7   8
ATOM      8  C   UNL     1       2.511  -2.745  -4.707  1.00  0.00    -0.003 C 
ATOM      9  C   UNL     1       2.333  -2.777  -3.192  1.00  0.00     0.004 C 
ENDBRANCH   7   8
ENDBRANCH   6   7
ENDBRANCH   1   6
TORSDOF 5
ENDMDL
MODEL 3
REMARK VINA RESULT:    -3.337      2.860      4.506
REMARK INTER + INTRA:          -4.475
REMARK INTER:                  -4.077
REMARK INTRA:                  -0.398
REMARK UNBOUND:                -0.162
REMARK SMILES CCCCCCC(=O)[O-]
REMARK SMILES IDX 5 1 6 2 7 3 8 4 9 5 4 6 3 7 2 8 1 9
REMARK H PARENT
REMARK Flexibility Score: inf
ROOT
ATOM      1  C   UNL     1       5.778  -3.581  -8.036  1.00  0.00     0.006 C 
ENDROOT
BRANCH   1   2
ATOM      2  C   UNL     1       4.507  -2.960  -7.448  1.00  0.00     0.053 C 
BRANCH   2   3
ATOM      3  C   UNL     1       3.801  -3.945  -6.571  1.00  0.00     0.041 C 
ATOM      4  O   UNL     1       4.043  -3.981  -5.336  1.00  0.00    -0.550 OA
ATOM      5  O   UNL     1       2.911  -4.856  -7.125  1.00  0.00    -0.550 OA
ENDBRANCH   2   3
ENDBRANCH   1   2
BRANCH   1   6
ATOM      6  C   UNL     1       7.033  -2.964  -7.406  1.00  0.00     0.000 C 
BRANCH   6   7
ATOM      7  C   UNL     1       7.516  -3.797  -6.212  1.00  0.00    -0.000 C 
BRANCH   7   8
ATOM      8  C   UNL     1       7.413  -5.297  -6.510  1.00  0.00    -0.003 C 
ATOM      9  C   UNL     1       6.745  -6.043  -5.358  1.00  0.00     0.004 C 
ENDBRANCH   7   8
ENDBRANCH   6   7
ENDBRANCH   1   6
TORSDOF 5
ENDMDL
MODEL 4
REMARK VINA RESULT:    -3.332      3.246      5.161
REMARK INTER + INTRA:          -4.467
REMARK INTER:                  -4.183
REMARK INTRA:                  -0.284
REMARK UNBOUND:                -0.162
REMARK SMILES CCCCCCC(=O)[O-]
REMARK SMILES IDX 5 1 6 2 7 3 8 4 9 5 4 6 3 7 2 8 1 9
REMARK H PARENT
REMARK Flexibility Score: inf
ROOT
ATOM      1  C   UNL     1       5.819  -3.601  -8.324  1.00  0.00     0.006 C 
ENDROOT
BRANCH   1   2
ATOM      2  C   UNL     1       4.677  -3.010  -7.492  1.00  0.00     0.053 C 
BRANCH   2   3
ATOM      3  C   UNL     1       4.123  -4.039  -6.558  1.00  0.00     0.041 C 
ATOM      4  O   UNL     1       4.813  -4.456  -5.592  1.00  0.00    -0.550 OA
ATOM      5  O   UNL     1       2.861  -4.574  -6.783  1.00  0.00    -0.550 OA
ENDBRANCH   2   3
ENDBRANCH   1   2
BRANCH   1   6
ATOM      6  C   UNL     1       6.993  -2.620  -8.420  1.00  0.00     0.000 C 
BRANCH   6   7
ATOM      7  C   UNL     1       7.776  -2.566  -7.103  1.00  0.00    -0.000 C 
BRANCH   7   8
ATOM      8  C   UNL     1       8.302  -3.954  -6.719  1.00  0.00    -0.003 C 
ATOM      9  C   UNL     1       9.810  -4.050  -6.933  1.00  0.00     0.004 C 
ENDBRANCH   7   8
ENDBRANCH   6   7
ENDBRANCH   1   6
TORSDOF 5
ENDMDL
MODEL 5
REMARK VINA RESULT:    -3.299      4.064      5.143
REMARK INTER + INTRA:          -4.424
REMARK INTER:                  -4.202
REMARK INTRA:                  -0.222
REMARK UNBOUND:                -0.162
REMARK SMILES CCCCCCC(=O)[O-]
REMARK SMILES IDX 5 1 6 2 7 3 8 4 9 5 4 6 3 7 2 8 1 9
REMARK H PARENT
REMARK Flexibility Score: inf
ROOT
ATOM      1  C   UNL     1       6.787  -3.019  -7.663  1.00  0.00     0.006 C 
ENDROOT
BRANCH   1   2
ATOM      2  C   UNL     1       7.907  -3.125  -8.702  1.00  0.00     0.053 C 
BRANCH   2   3
ATOM      3  C   UNL     1       8.763  -1.899  -8.675  1.00  0.00     0.041 C 
ATOM      4  O   UNL     1       8.287  -0.784  -9.013  1.00  0.00    -0.550 OA
ATOM      5  O   UNL     1      10.103  -1.995  -8.321  1.00  0.00    -0.550 OA
ENDBRANCH   2   3
ENDBRANCH   1   2
BRANCH   1   6
ATOM      6  C   UNL     1       7.158  -3.769  -6.377  1.00  0.00     0.000 C 
BRANCH   6   7
ATOM      7  C   UNL     1       5.974  -4.597  -5.862  1.00  0.00    -0.000 C 
BRANCH   7   8
ATOM      8  C   UNL     1       6.433  -5.985  -5.401  1.00  0.00    -0.003 C 
ATOM      9  C   UNL     1       7.846  -6.289  -5.891  1.00  0.00     0.004 C 
ENDBRANCH   7   8
ENDBRANCH   6   7
ENDBRANCH   1   6
TORSDOF 5
ENDMDL
MODEL 6
REMARK VINA RESULT:    -3.279      3.527      4.718
REMARK INTER + INTRA:          -4.399
REMARK INTER:                  -4.197
REMARK INTRA:                  -0.202
REMARK UNBOUND:                -0.162
REMARK SMILES CCCCCCC(=O)[O-]
REMARK SMILES IDX 5 1 6 2 7 3 8 4 9 5 4 6 3 7 2 8 1 9
REMARK H PARENT
REMARK Flexibility Score: inf
ROOT
ATOM      1  C   UNL     1       6.879  -3.018  -7.541  1.00  0.00     0.006 C 
ENDROOT
BRANCH   1   2
ATOM      2  C   UNL     1       8.051  -3.243  -8.502  1.00  0.00     0.053 C 
BRANCH   2   3
ATOM      3  C   UNL     1       8.897  -2.013  -8.592  1.00  0.00     0.041 C 
ATOM      4  O   UNL     1      10.113  -2.055  -8.268  1.00  0.00    -0.550 OA
ATOM      5  O   UNL     1       8.333  -0.808  -8.989  1.00  0.00    -0.550 OA
ENDBRANCH   2   3
ENDBRANCH   1   2
BRANCH   1   6
ATOM      6  C   UNL     1       6.913  -4.026  -6.387  1.00  0.00     0.000 C 
BRANCH   6   7
ATOM      7  C   UNL     1       5.496  -4.468  -6.000  1.00  0.00    -0.000 C 
BRANCH   7   8
ATOM      8  C   UNL     1       4.442  -3.703  -6.807  1.00  0.00    -0.003 C 
ATOM      9  C   UNL     1       3.506  -4.661  -7.539  1.00  0.00     0.004 C 
ENDBRANCH   7   8
ENDBRANCH   6   7
ENDBRANCH   1   6
TORSDOF 5
ENDMDL
MODEL 7
REMARK VINA RESULT:    -3.224      3.627      4.322
REMARK INTER + INTRA:          -4.328
REMARK INTER:                  -3.930
REMARK INTRA:                  -0.398
REMARK UNBOUND:                -0.162
REMARK SMILES CCCCCCC(=O)[O-]
REMARK SMILES IDX 5 1 6 2 7 3 8 4 9 5 4 6 3 7 2 8 1 9
REMARK H PARENT
REMARK Flexibility Score: inf
ROOT
ATOM      1  C   UNL     1       3.349  -4.635  -8.164  1.00  0.00     0.006 C 
ENDROOT
BRANCH   1   2
ATOM      2  C   UNL     1       4.107  -5.822  -8.766  1.00  0.00     0.053 C 
BRANCH   2   3
ATOM      3  C   UNL     1       4.139  -6.965  -7.802  1.00  0.00     0.041 C 
ATOM      4  O   UNL     1       3.067  -7.432  -7.336  1.00  0.00    -0.550 OA
ATOM      5  O   UNL     1       5.357  -7.485  -7.382  1.00  0.00    -0.550 OA
ENDBRANCH   2   3
ENDBRANCH   1   2
BRANCH   1   6
ATOM      6  C   UNL     1       4.173  -3.958  -7.062  1.00  0.00     0.000 C 
BRANCH   6   7
ATOM      7  C   UNL     1       5.233  -3.025  -7.661  1.00  0.00    -0.000 C 
BRANCH   7   8
ATOM      8  C   UNL     1       6.622  -3.334  -7.093  1.00  0.00    -0.003 C 
ATOM      9  C   UNL     1       6.554  -4.432  -6.036  1.00  0.00     0.004 C 
ENDBRANCH   7   8
ENDBRANCH   6   7
ENDBRANCH   1   6
TORSDOF 5
ENDMDL
MODEL 8
REMARK VINA RESULT:    -3.215      3.572      4.788
REMARK INTER + INTRA:          -4.316
REMARK INTER:                  -3.918
REMARK INTRA:                  -0.398
REMARK UNBOUND:                -0.162
REMARK SMILES CCCCCCC(=O)[O-]
REMARK SMILES IDX 5 1 6 2 7 3 8 4 9 5 4 6 3 7 2 8 1 9
REMARK H PARENT
REMARK Flexibility Score: inf
ROOT
ATOM      1  C   UNL     1       6.483  -3.026  -7.414  1.00  0.00     0.006 C 
ENDROOT
BRANCH   1   2
ATOM      2  C   UNL     1       6.395  -4.534  -7.160  1.00  0.00     0.053 C 
BRANCH   2   3
ATOM      3  C   UNL     1       5.548  -4.814  -5.960  1.00  0.00     0.041 C 
ATOM      4  O   UNL     1       5.900  -5.687  -5.124  1.00  0.00    -0.550 OA
ATOM      5  O   UNL     1       4.344  -4.143  -5.787  1.00  0.00    -0.550 OA
ENDBRANCH   2   3
ENDBRANCH   1   2
BRANCH   1   6
ATOM      6  C   UNL     1       6.014  -2.679  -8.832  1.00  0.00     0.000 C 
BRANCH   6   7
ATOM      7  C   UNL     1       4.524  -2.316  -8.845  1.00  0.00    -0.000 C 
BRANCH   7   8
ATOM      8  C   UNL     1       3.753  -3.197  -9.835  1.00  0.00    -0.003 C 
ATOM      9  C   UNL     1       3.161  -4.420  -9.139  1.00  0.00     0.004 C 
ENDBRANCH   7   8
ENDBRANCH   6   7
ENDBRANCH   1   6
TORSDOF 5
ENDMDL
MODEL 9
REMARK VINA RESULT:    -3.114      2.785      3.624
REMARK INTER + INTRA:          -4.186
REMARK INTER:                  -3.857
REMARK INTRA:                  -0.330
REMARK UNBOUND:                -0.162
REMARK SMILES CCCCCCC(=O)[O-]
REMARK SMILES IDX 5 1 6 2 7 3 8 4 9 5 4 6 3 7 2 8 1 9
REMARK H PARENT
REMARK Flexibility Score: inf
ROOT
ATOM      1  C   UNL     1       3.700  -4.084  -8.720  1.00  0.00     0.006 C 
ENDROOT
BRANCH   1   2
ATOM      2  C   UNL     1       5.002  -3.759  -9.458  1.00  0.00     0.053 C 
BRANCH   2   3
ATOM      3  C   UNL     1       5.282  -2.291  -9.403  1.00  0.00     0.041 C 
ATOM      4  O   UNL     1       6.468  -1.874  -9.330  1.00  0.00    -0.550 OA
ATOM      5  O   UNL     1       4.231  -1.383  -9.384  1.00  0.00    -0.550 OA
ENDBRANCH   2   3
ENDBRANCH   1   2
BRANCH   1   6
ATOM      6  C   UNL     1       3.973  -4.932  -7.472  1.00  0.00     0.000 C 
BRANCH   6   7
ATOM      7  C   UNL     1       4.642  -4.096  -6.373  1.00  0.00    -0.000 C 
BRANCH   7   8
ATOM      8  C   UNL     1       5.965  -4.730  -5.930  1.00  0.00    -0.003 C 
ATOM      9  C   UNL     1       7.151  -3.844  -6.301  1.00  0.00     0.004 C 
ENDBRANCH   7   8
ENDBRANCH   6   7
ENDBRANCH   1   6
TORSDOF 5
ENDMDL
