MODEL 1
REMARK VINA RESULT:    -3.342      0.000      0.000
REMARK INTER + INTRA:          -7.936
REMARK INTER:                  -5.883
REMARK INTRA:                  -2.053
REMARK UNBOUND:                -2.053
REMARK SMILES CCCCCCC=CCCCCCCCC(=O)[O-]
REMARK SMILES IDX 10 1 11 2 12 3 13 4 14 5 15 6 16 7 17 8 18 9 9 10 8 11 7 12
REMARK SMILES IDX 6 13 5 14 4 15 3 16 2 17 1 18
REMARK H PARENT
REMARK Flexibility Score: inf
ROOT
ATOM      1  C   UNL     1      60.467  31.549  58.354  1.00  0.00     0.004 C 
ENDROOT
BRANCH   1   2
ATOM      2  C   UNL     1      60.794  30.265  59.139  1.00  0.00     0.000 C 
BRANCH   2   3
ATOM      3  C   UNL     1      60.286  30.237  60.593  1.00  0.00     0.000 C 
BRANCH   3   4
ATOM      4  C   UNL     1      61.334  30.733  61.603  1.00  0.00     0.000 C 
BRANCH   4   5
ATOM      5  C   UNL     1      62.728  30.122  61.363  1.00  0.00     0.006 C 
BRANCH   5   6
ATOM      6  C   UNL     1      63.779  31.121  60.850  1.00  0.00     0.053 C 
BRANCH   6   7
ATOM      7  C   UNL     1      64.903  30.434  60.136  1.00  0.00     0.041 C 
ATOM      8  O   UNL     1      65.262  29.278  60.484  1.00  0.00    -0.550 OA
ATOM      9  O   UNL     1      65.533  31.059  59.069  1.00  0.00    -0.550 OA
ENDBRANCH   6   7
ENDBRANCH   5   6
ENDBRANCH   4   5
ENDBRANCH   3   4
ENDBRANCH   2   3
ENDBRANCH   1   2
BRANCH   1  10
ATOM     10  C   UNL     1      61.701  32.431  58.108  1.00  0.00     0.027 C 
BRANCH  10  11
ATOM     11  C   UNL     1      61.502  33.810  58.674  1.00  0.00    -0.031 C 
ATOM     12  C   UNL     1      61.597  34.051  59.990  1.00  0.00    -0.031 C 
BRANCH  12  13
ATOM     13  C   UNL     1      61.412  35.432  60.557  1.00  0.00     0.027 C 
BRANCH  13  14
ATOM     14  C   UNL     1      62.682  35.963  61.246  1.00  0.00     0.004 C 
BRANCH  14  15
ATOM     15  C   UNL     1      63.846  34.953  61.290  1.00  0.00     0.000 C 
BRANCH  15  16
ATOM     16  C   UNL     1      65.217  35.526  60.886  1.00  0.00    -0.000 C 
BRANCH  16  17
ATOM     17  C   UNL     1      65.329  35.871  59.385  1.00  0.00    -0.003 C 
ATOM     18  C   UNL     1      65.051  34.667  58.485  1.00  0.00     0.004 C 
ENDBRANCH  16  17
ENDBRANCH  15  16
ENDBRANCH  14  15
ENDBRANCH  13  14
ENDBRANCH  12  13
ENDBRANCH  10  11
ENDBRANCH   1  10
TORSDOF 13
ENDMDL
MODEL 2
REMARK VINA RESULT:    -3.309     10.687     12.832
REMARK INTER + INTRA:          -7.876
REMARK INTER:                  -5.915
REMARK INTRA:                  -1.961
REMARK UNBOUND:                -2.053
REMARK SMILES CCCCCCC=CCCCCCCCC(=O)[O-]
REMARK SMILES IDX 10 1 11 2 12 3 13 4 14 5 15 6 16 7 17 8 18 9 9 10 8 11 7 12
REMARK SMILES IDX 6 13 5 14 4 15 3 16 2 17 1 18
REMARK H PARENT
REMARK Flexibility Score: inf
ROOT
ATOM      1  C   UNL     1      57.488  29.164  51.509  1.00  0.00     0.004 C 
ENDROOT
BRANCH   1   2
ATOM      2  C   UNL     1      58.903  29.482  50.990  1.00  0.00     0.000 C 
BRANCH   2   3
ATOM      3  C   UNL     1      59.265  28.841  49.637  1.00  0.00     0.000 C 
BRANCH   3   4
ATOM      4  C   UNL     1      60.321  27.729  49.764  1.00  0.00     0.000 C 
BRANCH   4   5
ATOM      5  C   UNL     1      59.695  26.333  49.945  1.00  0.00     0.006 C 
BRANCH   5   6
ATOM      6  C   UNL     1      60.678  25.256  50.433  1.00  0.00     0.053 C 
BRANCH   6   7
ATOM      7  C   UNL     1      60.181  24.560  51.663  1.00  0.00     0.041 C 
ATOM      8  O   UNL     1      60.996  24.141  52.528  1.00  0.00    -0.550 OA
ATOM      9  O   UNL     1      58.817  24.401  51.869  1.00  0.00    -0.550 OA
ENDBRANCH   6   7
ENDBRANCH   5   6
ENDBRANCH   4   5
ENDBRANCH   3   4
ENDBRANCH   2   3
ENDBRANCH   1   2
BRANCH   1  10
ATOM     10  C   UNL     1      57.429  27.867  52.329  1.00  0.00     0.027 C 
BRANCH  10  11
ATOM     11  C   UNL     1      56.387  26.928  51.783  1.00  0.00    -0.031 C 
ATOM     12  C   UNL     1      56.039  26.941  50.488  1.00  0.00    -0.031 C 
BRANCH  12  13
ATOM     13  C   UNL     1      55.007  25.994  49.937  1.00  0.00     0.027 C 
BRANCH  13  14
ATOM     14  C   UNL     1      53.568  26.435  50.263  1.00  0.00     0.004 C 
BRANCH  14  15
ATOM     15  C   UNL     1      53.286  27.926  49.988  1.00  0.00     0.000 C 
BRANCH  15  16
ATOM     16  C   UNL     1      53.008  28.775  51.242  1.00  0.00    -0.000 C 
BRANCH  16  17
ATOM     17  C   UNL     1      53.932  30.005  51.378  1.00  0.00    -0.003 C 
ATOM     18  C   UNL     1      54.246  30.344  52.834  1.00  0.00     0.004 C 
ENDBRANCH  16  17
ENDBRANCH  15  16
ENDBRANCH  14  15
ENDBRANCH  13  14
ENDBRANCH  12  13
ENDBRANCH  10  11
ENDBRANCH   1  10
TORSDOF 13
ENDMDL
MODEL 3
REMARK VINA RESULT:    -3.293     12.101     14.428
REMARK INTER + INTRA:          -7.849
REMARK INTER:                  -7.187
REMARK INTRA:                  -0.663
REMARK UNBOUND:                -2.053
REMARK SMILES CCCCCCC=CCCCCCCCC(=O)[O-]
REMARK SMILES IDX 10 1 11 2 12 3 13 4 14 5 15 6 16 7 17 8 18 9 9 10 8 11 7 12
REMARK SMILES IDX 6 13 5 14 4 15 3 16 2 17 1 18
REMARK H PARENT
REMARK Flexibility Score: inf
ROOT
ATOM      1  C   UNL     1      61.466  22.995  50.359  1.00  0.00     0.004 C 
ENDROOT
BRANCH   1   2
ATOM      2  C   UNL     1      60.985  21.814  49.494  1.00  0.00     0.000 C 
BRANCH   2   3
ATOM      3  C   UNL     1      61.159  20.422  50.129  1.00  0.00     0.000 C 
BRANCH   3   4
ATOM      4  C   UNL     1      59.880  19.914  50.816  1.00  0.00     0.000 C 
BRANCH   4   5
ATOM      5  C   UNL     1      59.036  19.004  49.903  1.00  0.00     0.006 C 
BRANCH   5   6
ATOM      6  C   UNL     1      58.290  17.880  50.642  1.00  0.00     0.053 C 
BRANCH   6   7
ATOM      7  C   UNL     1      57.092  18.394  51.380  1.00  0.00     0.041 C 
ATOM      8  O   UNL     1      56.081  18.796  50.746  1.00  0.00    -0.550 OA
ATOM      9  O   UNL     1      57.081  18.400  52.769  1.00  0.00    -0.550 OA
ENDBRANCH   6   7
ENDBRANCH   5   6
ENDBRANCH   4   5
ENDBRANCH   3   4
ENDBRANCH   2   3
ENDBRANCH   1   2
BRANCH   1  10
ATOM     10  C   UNL     1      60.315  23.895  50.836  1.00  0.00     0.027 C 
BRANCH  10  11
ATOM     11  C   UNL     1      60.712  25.345  50.804  1.00  0.00    -0.031 C 
ATOM     12  C   UNL     1      60.099  26.224  49.997  1.00  0.00    -0.031 C 
BRANCH  12  13
ATOM     13  C   UNL     1      60.486  27.678  49.972  1.00  0.00     0.027 C 
BRANCH  13  14
ATOM     14  C   UNL     1      59.352  28.582  49.456  1.00  0.00     0.004 C 
BRANCH  14  15
ATOM     15  C   UNL     1      58.547  29.284  50.568  1.00  0.00     0.000 C 
BRANCH  15  16
ATOM     16  C   UNL     1      57.624  28.358  51.383  1.00  0.00    -0.000 C 
BRANCH  16  17
ATOM     17  C   UNL     1      56.289  28.034  50.679  1.00  0.00    -0.003 C 
ATOM     18  C   UNL     1      55.230  29.114  50.904  1.00  0.00     0.004 C 
ENDBRANCH  16  17
ENDBRANCH  15  16
ENDBRANCH  14  15
ENDBRANCH  13  14
ENDBRANCH  12  13
ENDBRANCH  10  11
ENDBRANCH   1  10
TORSDOF 13
ENDMDL
MODEL 4
REMARK VINA RESULT:    -3.269      4.184      6.339
REMARK INTER + INTRA:          -7.806
REMARK INTER:                  -6.959
REMARK INTRA:                  -0.847
REMARK UNBOUND:                -2.053
REMARK SMILES CCCCCCC=CCCCCCCCC(=O)[O-]
REMARK SMILES IDX 10 1 11 2 12 3 13 4 14 5 15 6 16 7 17 8 18 9 9 10 8 11 7 12
REMARK SMILES IDX 6 13 5 14 4 15 3 16 2 17 1 18
REMARK H PARENT
REMARK Flexibility Score: inf
ROOT
ATOM      1  C   UNL     1      66.369  28.214  60.297  1.00  0.00     0.004 C 
ENDROOT
BRANCH   1   2
ATOM      2  C   UNL     1      67.476  28.392  61.353  1.00  0.00     0.000 C 
BRANCH   2   3
ATOM      3  C   UNL     1      68.627  27.372  61.276  1.00  0.00     0.000 C 
BRANCH   3   4
ATOM      4  C   UNL     1      69.928  27.978  60.722  1.00  0.00     0.000 C 
BRANCH   4   5
ATOM      5  C   UNL     1      70.196  29.398  61.254  1.00  0.00     0.006 C 
BRANCH   5   6
ATOM      6  C   UNL     1      71.685  29.744  61.419  1.00  0.00     0.053 C 
BRANCH   6   7
ATOM      7  C   UNL     1      72.127  30.796  60.449  1.00  0.00     0.041 C 
ATOM      8  O   UNL     1      72.712  30.470  59.382  1.00  0.00    -0.550 OA
ATOM      9  O   UNL     1      71.866  32.135  60.708  1.00  0.00    -0.550 OA
ENDBRANCH   6   7
ENDBRANCH   5   6
ENDBRANCH   4   5
ENDBRANCH   3   4
ENDBRANCH   2   3
ENDBRANCH   1   2
BRANCH   1  10
ATOM     10  C   UNL     1      65.484  29.460  60.141  1.00  0.00     0.027 C 
BRANCH  10  11
ATOM     11  C   UNL     1      64.152  29.267  60.813  1.00  0.00    -0.031 C 
ATOM     12  C   UNL     1      63.291  30.282  60.972  1.00  0.00    -0.031 C 
BRANCH  12  13
ATOM     13  C   UNL     1      61.952  30.088  61.632  1.00  0.00     0.027 C 
BRANCH  13  14
ATOM     14  C   UNL     1      60.900  31.099  61.141  1.00  0.00     0.004 C 
BRANCH  14  15
ATOM     15  C   UNL     1      61.405  32.054  60.042  1.00  0.00     0.000 C 
BRANCH  15  16
ATOM     16  C   UNL     1      61.642  33.504  60.502  1.00  0.00    -0.000 C 
BRANCH  16  17
ATOM     17  C   UNL     1      62.978  34.103  60.011  1.00  0.00    -0.003 C 
ATOM     18  C   UNL     1      64.066  34.068  61.084  1.00  0.00     0.004 C 
ENDBRANCH  16  17
ENDBRANCH  15  16
ENDBRANCH  14  15
ENDBRANCH  13  14
ENDBRANCH  12  13
ENDBRANCH  10  11
ENDBRANCH   1  10
TORSDOF 13
ENDMDL
MODEL 5
REMARK VINA RESULT:    -3.259     11.727     14.150
REMARK INTER + INTRA:          -7.789
REMARK INTER:                  -6.884
REMARK INTRA:                  -0.905
REMARK UNBOUND:                -2.053
REMARK SMILES CCCCCCC=CCCCCCCCC(=O)[O-]
REMARK SMILES IDX 10 1 11 2 12 3 13 4 14 5 15 6 16 7 17 8 18 9 9 10 8 11 7 12
REMARK SMILES IDX 6 13 5 14 4 15 3 16 2 17 1 18
REMARK H PARENT
REMARK Flexibility Score: inf
ROOT
ATOM      1  C   UNL     1      60.268  24.674  50.920  1.00  0.00     0.004 C 
ENDROOT
BRANCH   1   2
ATOM      2  C   UNL     1      61.255  23.518  50.673  1.00  0.00     0.000 C 
BRANCH   2   3
ATOM      3  C   UNL     1      60.757  22.126  51.105  1.00  0.00     0.000 C 
BRANCH   3   4
ATOM      4  C   UNL     1      60.643  21.139  49.931  1.00  0.00     0.000 C 
BRANCH   4   5
ATOM      5  C   UNL     1      60.350  19.699  50.391  1.00  0.00     0.006 C 
BRANCH   5   6
ATOM      6  C   UNL     1      59.058  19.098  49.813  1.00  0.00     0.053 C 
BRANCH   6   7
ATOM      7  C   UNL     1      58.060  18.779  50.884  1.00  0.00     0.041 C 
ATOM      8  O   UNL     1      57.957  19.522  51.896  1.00  0.00    -0.550 OA
ATOM      9  O   UNL     1      57.224  17.679  50.750  1.00  0.00    -0.550 OA
ENDBRANCH   6   7
ENDBRANCH   5   6
ENDBRANCH   4   5
ENDBRANCH   3   4
ENDBRANCH   2   3
ENDBRANCH   1   2
BRANCH   1  10
ATOM     10  C   UNL     1      60.551  25.901  50.040  1.00  0.00     0.027 C 
BRANCH  10  11
ATOM     11  C   UNL     1      59.608  27.028  50.362  1.00  0.00    -0.031 C 
ATOM     12  C   UNL     1      59.598  28.163  49.646  1.00  0.00    -0.031 C 
BRANCH  12  13
ATOM     13  C   UNL     1      58.646  29.286  49.959  1.00  0.00     0.027 C 
BRANCH  13  14
ATOM     14  C   UNL     1      57.857  29.046  51.259  1.00  0.00     0.004 C 
BRANCH  14  15
ATOM     15  C   UNL     1      56.360  28.749  51.044  1.00  0.00     0.000 C 
BRANCH  15  16
ATOM     16  C   UNL     1      55.920  27.325  51.433  1.00  0.00    -0.000 C 
BRANCH  16  17
ATOM     17  C   UNL     1      56.000  26.310  50.273  1.00  0.00    -0.003 C 
ATOM     18  C   UNL     1      54.624  25.814  49.831  1.00  0.00     0.004 C 
ENDBRANCH  16  17
ENDBRANCH  15  16
ENDBRANCH  14  15
ENDBRANCH  13  14
ENDBRANCH  12  13
ENDBRANCH  10  11
ENDBRANCH   1  10
TORSDOF 13
ENDMDL
MODEL 6
REMARK VINA RESULT:    -3.259      9.208     12.073
REMARK INTER + INTRA:          -7.788
REMARK INTER:                  -5.290
REMARK INTRA:                  -2.499
REMARK UNBOUND:                -2.053
REMARK SMILES CCCCCCC=CCCCCCCCC(=O)[O-]
REMARK SMILES IDX 10 1 11 2 12 3 13 4 14 5 15 6 16 7 17 8 18 9 9 10 8 11 7 12
REMARK SMILES IDX 6 13 5 14 4 15 3 16 2 17 1 18
REMARK H PARENT
REMARK Flexibility Score: inf
ROOT
ATOM      1  C   UNL     1      60.796  29.536  51.708  1.00  0.00     0.004 C 
ENDROOT
BRANCH   1   2
ATOM      2  C   UNL     1      59.423  29.640  51.015  1.00  0.00     0.000 C 
BRANCH   2   3
ATOM      3  C   UNL     1      59.253  28.761  49.761  1.00  0.00     0.000 C 
BRANCH   3   4
ATOM      4  C   UNL     1      60.374  27.720  49.603  1.00  0.00     0.000 C 
BRANCH   4   5
ATOM      5  C   UNL     1      59.920  26.297  49.979  1.00  0.00     0.006 C 
BRANCH   5   6
ATOM      6  C   UNL     1      61.022  25.424  50.604  1.00  0.00     0.053 C 
BRANCH   6   7
ATOM      7  C   UNL     1      60.599  23.992  50.728  1.00  0.00     0.041 C 
ATOM      8  O   UNL     1      61.114  23.113  49.988  1.00  0.00    -0.550 OA
ATOM      9  O   UNL     1      59.659  23.625  51.682  1.00  0.00    -0.550 OA
ENDBRANCH   6   7
ENDBRANCH   5   6
ENDBRANCH   4   5
ENDBRANCH   3   4
ENDBRANCH   2   3
ENDBRANCH   1   2
BRANCH   1  10
ATOM     10  C   UNL     1      60.704  28.980  53.137  1.00  0.00     0.027 C 
BRANCH  10  11
ATOM     11  C   UNL     1      59.429  28.207  53.337  1.00  0.00    -0.031 C 
ATOM     12  C   UNL     1      59.438  26.890  53.591  1.00  0.00    -0.031 C 
BRANCH  12  13
ATOM     13  C   UNL     1      58.165  26.117  53.804  1.00  0.00     0.027 C 
BRANCH  13  14
ATOM     14  C   UNL     1      57.014  26.619  52.914  1.00  0.00     0.004 C 
BRANCH  14  15
ATOM     15  C   UNL     1      56.785  25.778  51.642  1.00  0.00     0.000 C 
BRANCH  15  16
ATOM     16  C   UNL     1      56.200  26.554  50.448  1.00  0.00    -0.000 C 
BRANCH  16  17
ATOM     17  C   UNL     1      55.762  27.993  50.795  1.00  0.00    -0.003 C 
ATOM     18  C   UNL     1      54.300  28.263  50.441  1.00  0.00     0.004 C 
ENDBRANCH  16  17
ENDBRANCH  15  16
ENDBRANCH  14  15
ENDBRANCH  13  14
ENDBRANCH  12  13
ENDBRANCH  10  11
ENDBRANCH   1  10
TORSDOF 13
ENDMDL
MODEL 7
REMARK VINA RESULT:    -3.203     10.492     12.459
REMARK INTER + INTRA:          -7.691
REMARK INTER:                  -5.714
REMARK INTRA:                  -1.977
REMARK UNBOUND:                -2.053
REMARK SMILES CCCCCCC=CCCCCCCCC(=O)[O-]
REMARK SMILES IDX 10 1 11 2 12 3 13 4 14 5 15 6 16 7 17 8 18 9 9 10 8 11 7 12
REMARK SMILES IDX 6 13 5 14 4 15 3 16 2 17 1 18
REMARK H PARENT
REMARK Flexibility Score: inf
ROOT
ATOM      1  C   UNL     1      55.134  26.201  49.999  1.00  0.00     0.004 C 
ENDROOT
BRANCH   1   2
ATOM      2  C   UNL     1      53.641  26.568  50.106  1.00  0.00     0.000 C 
BRANCH   2   3
ATOM      3  C   UNL     1      53.326  28.072  50.003  1.00  0.00     0.000 C 
BRANCH   3   4
ATOM      4  C   UNL     1      53.207  28.754  51.376  1.00  0.00     0.000 C 
BRANCH   4   5
ATOM      5  C   UNL     1      54.078  30.020  51.489  1.00  0.00     0.006 C 
BRANCH   5   6
ATOM      6  C   UNL     1      54.267  30.535  52.926  1.00  0.00     0.053 C 
BRANCH   6   7
ATOM      7  C   UNL     1      55.518  30.000  53.552  1.00  0.00     0.041 C 
ATOM      8  O   UNL     1      55.524  28.857  54.080  1.00  0.00    -0.550 OA
ATOM      9  O   UNL     1      56.685  30.752  53.526  1.00  0.00    -0.550 OA
ENDBRANCH   6   7
ENDBRANCH   5   6
ENDBRANCH   4   5
ENDBRANCH   3   4
ENDBRANCH   2   3
ENDBRANCH   1   2
BRANCH   1  10
ATOM     10  C   UNL     1      55.823  26.096  51.368  1.00  0.00     0.027 C 
BRANCH  10  11
ATOM     11  C   UNL     1      56.988  27.042  51.462  1.00  0.00    -0.031 C 
ATOM     12  C   UNL     1      57.051  28.156  50.717  1.00  0.00    -0.031 C 
BRANCH  12  13
ATOM     13  C   UNL     1      58.209  29.111  50.819  1.00  0.00     0.027 C 
BRANCH  13  14
ATOM     14  C   UNL     1      59.220  28.938  49.671  1.00  0.00     0.004 C 
BRANCH  14  15
ATOM     15  C   UNL     1      60.621  28.484  50.125  1.00  0.00     0.000 C 
BRANCH  15  16
ATOM     16  C   UNL     1      60.649  27.169  50.925  1.00  0.00    -0.000 C 
BRANCH  16  17
ATOM     17  C   UNL     1      60.195  25.937  50.114  1.00  0.00    -0.003 C 
ATOM     18  C   UNL     1      60.309  24.636  50.909  1.00  0.00     0.004 C 
ENDBRANCH  16  17
ENDBRANCH  15  16
ENDBRANCH  14  15
ENDBRANCH  13  14
ENDBRANCH  12  13
ENDBRANCH  10  11
ENDBRANCH   1  10
TORSDOF 13
ENDMDL
MODEL 8
REMARK VINA RESULT:    -3.167      2.627      5.215
REMARK INTER + INTRA:          -7.628
REMARK INTER:                  -5.323
REMARK INTRA:                  -2.305
REMARK UNBOUND:                -2.053
REMARK SMILES CCCCCCC=CCCCCCCCC(=O)[O-]
REMARK SMILES IDX 10 1 11 2 12 3 13 4 14 5 15 6 16 7 17 8 18 9 9 10 8 11 7 12
REMARK SMILES IDX 6 13 5 14 4 15 3 16 2 17 1 18
REMARK H PARENT
REMARK Flexibility Score: inf
ROOT
ATOM      1  C   UNL     1      62.152  33.172  57.728  1.00  0.00     0.004 C 
ENDROOT
BRANCH   1   2
ATOM      2  C   UNL     1      63.289  32.251  58.211  1.00  0.00     0.000 C 
BRANCH   2   3
ATOM      3  C   UNL     1      64.413  32.953  58.995  1.00  0.00     0.000 C 
BRANCH   3   4
ATOM      4  C   UNL     1      64.142  33.012  60.508  1.00  0.00     0.000 C 
BRANCH   4   5
ATOM      5  C   UNL     1      64.036  34.455  61.037  1.00  0.00     0.006 C 
BRANCH   5   6
ATOM      6  C   UNL     1      62.644  35.089  60.877  1.00  0.00     0.053 C 
BRANCH   6   7
ATOM      7  C   UNL     1      62.629  36.148  59.819  1.00  0.00     0.041 C 
ATOM      8  O   UNL     1      61.535  36.573  59.362  1.00  0.00    -0.550 OA
ATOM      9  O   UNL     1      63.822  36.687  59.358  1.00  0.00    -0.550 OA
ENDBRANCH   6   7
ENDBRANCH   5   6
ENDBRANCH   4   5
ENDBRANCH   3   4
ENDBRANCH   2   3
ENDBRANCH   1   2
BRANCH   1  10
ATOM     10  C   UNL     1      60.811  32.880  58.420  1.00  0.00     0.027 C 
BRANCH  10  11
ATOM     11  C   UNL     1      60.911  31.669  59.306  1.00  0.00    -0.031 C 
ATOM     12  C   UNL     1      60.743  31.753  60.634  1.00  0.00    -0.031 C 
BRANCH  12  13
ATOM     13  C   UNL     1      60.830  30.540  61.520  1.00  0.00     0.027 C 
BRANCH  13  14
ATOM     14  C   UNL     1      62.271  30.019  61.669  1.00  0.00     0.004 C 
BRANCH  14  15
ATOM     15  C   UNL     1      62.503  28.620  61.065  1.00  0.00     0.000 C 
BRANCH  15  16
ATOM     16  C   UNL     1      63.513  28.575  59.904  1.00  0.00    -0.000 C 
BRANCH  16  17
ATOM     17  C   UNL     1      64.980  28.426  60.360  1.00  0.00    -0.003 C 
ATOM     18  C   UNL     1      65.854  29.601  59.922  1.00  0.00     0.004 C 
ENDBRANCH  16  17
ENDBRANCH  15  16
ENDBRANCH  14  15
ENDBRANCH  13  14
ENDBRANCH  12  13
ENDBRANCH  10  11
ENDBRANCH   1  10
TORSDOF 13
ENDMDL
MODEL 9
REMARK VINA RESULT:    -3.139      8.899     11.959
REMARK INTER + INTRA:          -7.578
REMARK INTER:                  -5.252
REMARK INTRA:                  -2.326
REMARK UNBOUND:                -2.053
REMARK SMILES CCCCCCC=CCCCCCCCC(=O)[O-]
REMARK SMILES IDX 10 1 11 2 12 3 13 4 14 5 15 6 16 7 17 8 18 9 9 10 8 11 7 12
REMARK SMILES IDX 6 13 5 14 4 15 3 16 2 17 1 18
REMARK H PARENT
REMARK Flexibility Score: inf
ROOT
ATOM      1  C   UNL     1      59.437  29.168  53.597  1.00  0.00     0.004 C 
ENDROOT
BRANCH   1   2
ATOM      2  C   UNL     1      58.961  29.884  52.318  1.00  0.00     0.000 C 
BRANCH   2   3
ATOM      3  C   UNL     1      59.872  29.706  51.089  1.00  0.00     0.000 C 
BRANCH   3   4
ATOM      4  C   UNL     1      59.186  28.947  49.940  1.00  0.00     0.000 C 
BRANCH   4   5
ATOM      5  C   UNL     1      59.918  27.644  49.568  1.00  0.00     0.006 C 
BRANCH   5   6
ATOM      6  C   UNL     1      60.797  27.067  50.691  1.00  0.00     0.053 C 
BRANCH   6   7
ATOM      7  C   UNL     1      62.229  26.938  50.271  1.00  0.00     0.041 C 
ATOM      8  O   UNL     1      62.904  25.934  50.620  1.00  0.00    -0.550 OA
ATOM      9  O   UNL     1      62.810  27.913  49.470  1.00  0.00    -0.550 OA
ENDBRANCH   6   7
ENDBRANCH   5   6
ENDBRANCH   4   5
ENDBRANCH   3   4
ENDBRANCH   2   3
ENDBRANCH   1   2
BRANCH   1  10
ATOM     10  C   UNL     1      58.450  28.098  54.086  1.00  0.00     0.027 C 
BRANCH  10  11
ATOM     11  C   UNL     1      58.085  27.150  52.977  1.00  0.00    -0.031 C 
ATOM     12  C   UNL     1      56.932  26.464  52.989  1.00  0.00    -0.031 C 
BRANCH  12  13
ATOM     13  C   UNL     1      56.559  25.525  51.874  1.00  0.00     0.027 C 
BRANCH  13  14
ATOM     14  C   UNL     1      56.184  26.268  50.578  1.00  0.00     0.004 C 
BRANCH  14  15
ATOM     15  C   UNL     1      54.692  26.640  50.472  1.00  0.00     0.000 C 
BRANCH  15  16
ATOM     16  C   UNL     1      54.409  28.147  50.330  1.00  0.00    -0.000 C 
BRANCH  16  17
ATOM     17  C   UNL     1      55.527  29.047  50.898  1.00  0.00    -0.003 C 
ATOM     18  C   UNL     1      55.187  29.603  52.281  1.00  0.00     0.004 C 
ENDBRANCH  16  17
ENDBRANCH  15  16
ENDBRANCH  14  15
ENDBRANCH  13  14
ENDBRANCH  12  13
ENDBRANCH  10  11
ENDBRANCH   1  10
TORSDOF 13
ENDMDL
