MODEL 1
REMARK VINA RESULT:    -8.248      0.000      0.000
REMARK INTER + INTRA:         -10.098
REMARK INTER:                  -9.936
REMARK INTRA:                  -0.162
REMARK UNBOUND:                -0.162
REMARK SMILES Oc1cc(O)c2c(c1)O[C@@H](c1ccc(O)c(O)c1)[C@H](O)C2
REMARK SMILES IDX 21 1 19 2 10 3 9 4 7 5 8 6 2 7 3 8 4 9 6 10 20 11 11 13
REMARK SMILES IDX 18 14 12 15 16 16 13 17 14 18 17 19 15 21 5 23 1 25
REMARK H PARENT 20 12 17 20 15 22 5 24 1 26
REMARK Flexibility Score: inf
ROOT
ATOM      1  C   UNL     1      12.686  15.045  71.422  1.00  0.00     0.079 C 
ATOM      2  C   UNL     1      11.627  15.722  72.312  1.00  0.00     0.164 C 
ATOM      3  C   UNL     1      10.649  16.529  71.440  1.00  0.00     0.232 C 
ATOM      4  O   UNL     1      10.053  15.672  70.465  1.00  0.00    -0.482 OA
ATOM      5  C   UNL     1      10.773  14.667  69.814  1.00  0.00     0.131 A 
ATOM      6  C   UNL     1      10.181  13.995  68.741  1.00  0.00     0.093 A 
ATOM      7  C   UNL     1      10.885  12.996  68.060  1.00  0.00     0.122 A 
ATOM      8  C   UNL     1      12.187  12.676  68.448  1.00  0.00     0.092 A 
ATOM      9  C   UNL     1      12.796  13.340  69.520  1.00  0.00     0.126 A 
ATOM     10  C   UNL     1      12.073  14.320  70.241  1.00  0.00     0.039 A 
ENDROOT
BRANCH   2  11
ATOM     11  O   UNL     1      12.256  16.577  73.232  1.00  0.00    -0.389 OA
ATOM     12  H   UNL     1      11.574  17.238  73.521  1.00  0.00     0.211 HD
ENDBRANCH   2  11
BRANCH   3  13
ATOM     13  C   UNL     1       9.570  17.170  72.281  1.00  0.00    -0.001 A 
ATOM     14  C   UNL     1       9.123  16.553  73.463  1.00  0.00     0.057 A 
ATOM     15  C   UNL     1       9.033  18.414  71.914  1.00  0.00     0.012 A 
ATOM     16  C   UNL     1       8.140  17.162  74.257  1.00  0.00     0.157 A 
ATOM     17  C   UNL     1       8.054  19.022  72.703  1.00  0.00     0.050 A 
ATOM     18  C   UNL     1       7.602  18.402  73.873  1.00  0.00     0.157 A 
BRANCH  16  19
ATOM     19  O   UNL     1       7.699  16.540  75.424  1.00  0.00    -0.504 OA
ATOM     20  H   UNL     1       6.731  16.269  75.547  1.00  0.00     0.293 HD
ENDBRANCH  16  19
BRANCH  18  21
ATOM     21  O   UNL     1       6.624  19.032  74.639  1.00  0.00    -0.504 OA
ATOM     22  H   UNL     1       6.857  19.653  75.405  1.00  0.00     0.293 HD
ENDBRANCH  18  21
ENDBRANCH   3  13
BRANCH   9  23
ATOM     23  O   UNL     1      14.116  13.008  69.832  1.00  0.00    -0.507 OA
ATOM     24  H   UNL     1      14.372  12.431  70.623  1.00  0.00     0.293 HD
ENDBRANCH   9  23
BRANCH   7  25
ATOM     25  O   UNL     1      10.300  12.321  66.990  1.00  0.00    -0.508 OA
ATOM     26  H   UNL     1      10.136  12.778  66.101  1.00  0.00     0.293 HD
ENDBRANCH   7  25
TORSDOF 6
ENDMDL
MODEL 2
REMARK VINA RESULT:    -6.886      0.698      1.456
REMARK INTER + INTRA:          -8.457
REMARK INTER:                  -8.572
REMARK INTRA:                   0.115
REMARK UNBOUND:                -0.162
REMARK SMILES Oc1cc(O)c2c(c1)O[C@@H](c1ccc(O)c(O)c1)[C@H](O)C2
REMARK SMILES IDX 21 1 19 2 10 3 9 4 7 5 8 6 2 7 3 8 4 9 6 10 20 11 11 13
REMARK SMILES IDX 18 14 12 15 16 16 13 17 14 18 17 19 15 21 5 23 1 25
REMARK H PARENT 20 12 17 20 15 22 5 24 1 26
REMARK Flexibility Score: inf
ROOT
ATOM      1  C   UNL     1      12.650  15.033  71.433  1.00  0.00     0.079 C 
ATOM      2  C   UNL     1      11.549  15.608  72.343  1.00  0.00     0.164 C 
ATOM      3  C   UNL     1      10.513  16.366  71.495  1.00  0.00     0.232 C 
ATOM      4  O   UNL     1       9.976  15.496  70.498  1.00  0.00    -0.482 OA
ATOM      5  C   UNL     1      10.765  14.562  69.818  1.00  0.00     0.131 A 
ATOM      6  C   UNL     1      10.219  13.880  68.728  1.00  0.00     0.093 A 
ATOM      7  C   UNL     1      10.990  12.952  68.018  1.00  0.00     0.122 A 
ATOM      8  C   UNL     1      12.313  12.717  68.397  1.00  0.00     0.092 A 
ATOM      9  C   UNL     1      12.877  13.393  69.485  1.00  0.00     0.126 A 
ATOM     10  C   UNL     1      12.088  14.299  70.234  1.00  0.00     0.039 A 
ENDROOT
BRANCH   2  11
ATOM     11  O   UNL     1      12.118  16.481  73.285  1.00  0.00    -0.389 OA
ATOM     12  H   UNL     1      12.953  16.833  72.879  1.00  0.00     0.211 HD
ENDBRANCH   2  11
BRANCH   3  13
ATOM     13  C   UNL     1       9.393  16.904  72.354  1.00  0.00    -0.001 A 
ATOM     14  C   UNL     1       8.428  17.772  71.811  1.00  0.00     0.057 A 
ATOM     15  C   UNL     1       9.276  16.506  73.695  1.00  0.00     0.012 A 
ATOM     16  C   UNL     1       7.374  18.250  72.602  1.00  0.00     0.157 A 
ATOM     17  C   UNL     1       8.226  16.981  74.485  1.00  0.00     0.050 A 
ATOM     18  C   UNL     1       7.274  17.853  73.946  1.00  0.00     0.157 A 
BRANCH  16  19
ATOM     19  O   UNL     1       6.426  19.114  72.057  1.00  0.00    -0.504 OA
ATOM     20  H   UNL     1       5.673  18.774  71.469  1.00  0.00     0.293 HD
ENDBRANCH  16  19
BRANCH  18  21
ATOM     21  O   UNL     1       6.238  18.311  74.759  1.00  0.00    -0.504 OA
ATOM     22  H   UNL     1       5.827  19.230  74.640  1.00  0.00     0.293 HD
ENDBRANCH  18  21
ENDBRANCH   3  13
BRANCH   9  23
ATOM     23  O   UNL     1      14.218  13.148  69.787  1.00  0.00    -0.507 OA
ATOM     24  H   UNL     1      14.662  12.247  69.659  1.00  0.00     0.293 HD
ENDBRANCH   9  23
BRANCH   7  25
ATOM     25  O   UNL     1      10.453  12.266  66.932  1.00  0.00    -0.508 OA
ATOM     26  H   UNL     1      10.792  11.350  66.663  1.00  0.00     0.293 HD
ENDBRANCH   7  25
TORSDOF 6
ENDMDL
MODEL 3
REMARK VINA RESULT:    -6.802     18.189     20.816
REMARK INTER + INTRA:          -8.355
REMARK INTER:                  -8.300
REMARK INTRA:                  -0.055
REMARK UNBOUND:                -0.162
REMARK SMILES Oc1cc(O)c2c(c1)O[C@@H](c1ccc(O)c(O)c1)[C@H](O)C2
REMARK SMILES IDX 21 1 19 2 10 3 9 4 7 5 8 6 2 7 3 8 4 9 6 10 20 11 11 13
REMARK SMILES IDX 18 14 12 15 16 16 13 17 14 18 17 19 15 21 5 23 1 25
REMARK H PARENT 20 12 17 20 15 22 5 24 1 26
REMARK Flexibility Score: inf
ROOT
ATOM      1  C   UNL     1      21.237   0.463  67.629  1.00  0.00     0.079 C 
ATOM      2  C   UNL     1      22.018   0.819  66.349  1.00  0.00     0.164 C 
ATOM      3  C   UNL     1      21.830  -0.287  65.297  1.00  0.00     0.232 C 
ATOM      4  O   UNL     1      20.439  -0.472  65.034  1.00  0.00    -0.482 OA
ATOM      5  C   UNL     1      19.474  -0.412  66.044  1.00  0.00     0.131 A 
ATOM      6  C   UNL     1      18.160  -0.787  65.750  1.00  0.00     0.093 A 
ATOM      7  C   UNL     1      17.177  -0.753  66.745  1.00  0.00     0.122 A 
ATOM      8  C   UNL     1      17.513  -0.351  68.039  1.00  0.00     0.092 A 
ATOM      9  C   UNL     1      18.825   0.028  68.352  1.00  0.00     0.126 A 
ATOM     10  C   UNL     1      19.813   0.037  67.339  1.00  0.00     0.039 A 
ENDROOT
BRANCH   2  11
ATOM     11  O   UNL     1      23.384   0.959  66.650  1.00  0.00    -0.389 OA
ATOM     12  H   UNL     1      23.885   0.579  65.882  1.00  0.00     0.211 HD
ENDBRANCH   2  11
BRANCH   3  13
ATOM     13  C   UNL     1      22.548   0.054  64.012  1.00  0.00    -0.001 A 
ATOM     14  C   UNL     1      21.845   0.598  62.923  1.00  0.00     0.057 A 
ATOM     15  C   UNL     1      23.937  -0.125  63.909  1.00  0.00     0.012 A 
ATOM     16  C   UNL     1      22.516   0.939  61.740  1.00  0.00     0.157 A 
ATOM     17  C   UNL     1      24.608   0.215  62.731  1.00  0.00     0.050 A 
ATOM     18  C   UNL     1      23.905   0.745  61.645  1.00  0.00     0.157 A 
BRANCH  16  19
ATOM     19  O   UNL     1      21.810   1.471  60.663  1.00  0.00    -0.504 OA
ATOM     20  H   UNL     1      22.099   2.332  60.212  1.00  0.00     0.293 HD
ENDBRANCH  16  19
BRANCH  18  21
ATOM     21  O   UNL     1      24.601   1.073  60.482  1.00  0.00    -0.504 OA
ATOM     22  H   UNL     1      25.492   0.650  60.251  1.00  0.00     0.293 HD
ENDBRANCH  18  21
ENDBRANCH   3  13
BRANCH   9  23
ATOM     23  O   UNL     1      19.109   0.376  69.674  1.00  0.00    -0.507 OA
ATOM     24  H   UNL     1      19.722   1.140  69.928  1.00  0.00     0.293 HD
ENDBRANCH   9  23
BRANCH   7  25
ATOM     25  O   UNL     1      15.865  -1.125  66.459  1.00  0.00    -0.508 OA
ATOM     26  H   UNL     1      15.557  -2.087  66.540  1.00  0.00     0.293 HD
ENDBRANCH   7  25
TORSDOF 6
ENDMDL
MODEL 4
REMARK VINA RESULT:    -6.612      2.318      2.498
REMARK INTER + INTRA:          -8.127
REMARK INTER:                  -8.518
REMARK INTRA:                   0.391
REMARK UNBOUND:                -0.162
REMARK SMILES Oc1cc(O)c2c(c1)O[C@@H](c1ccc(O)c(O)c1)[C@H](O)C2
REMARK SMILES IDX 21 1 19 2 10 3 9 4 7 5 8 6 2 7 3 8 4 9 6 10 20 11 11 13
REMARK SMILES IDX 18 14 12 15 16 16 13 17 14 18 17 19 15 21 5 23 1 25
REMARK H PARENT 20 12 17 20 15 22 5 24 1 26
REMARK Flexibility Score: inf
ROOT
ATOM      1  C   UNL     1      11.867  15.034  70.390  1.00  0.00     0.079 C 
ATOM      2  C   UNL     1      10.722  15.387  71.358  1.00  0.00     0.164 C 
ATOM      3  C   UNL     1      10.648  16.912  71.547  1.00  0.00     0.232 C 
ATOM      4  O   UNL     1      10.484  17.548  70.279  1.00  0.00    -0.482 OA
ATOM      5  C   UNL     1      11.142  17.101  69.128  1.00  0.00     0.131 A 
ATOM      6  C   UNL     1      11.085  17.879  67.969  1.00  0.00     0.093 A 
ATOM      7  C   UNL     1      11.747  17.464  66.808  1.00  0.00     0.122 A 
ATOM      8  C   UNL     1      12.476  16.273  66.813  1.00  0.00     0.092 A 
ATOM      9  C   UNL     1      12.544  15.481  67.966  1.00  0.00     0.126 A 
ATOM     10  C   UNL     1      11.840  15.874  69.129  1.00  0.00     0.039 A 
ENDROOT
BRANCH   2  11
ATOM     11  O   UNL     1      10.942  14.767  72.600  1.00  0.00    -0.389 OA
ATOM     12  H   UNL     1      10.063  14.422  72.906  1.00  0.00     0.211 HD
ENDBRANCH   2  11
BRANCH   3  13
ATOM     13  C   UNL     1       9.505  17.294  72.457  1.00  0.00    -0.001 A 
ATOM     14  C   UNL     1       9.195  16.512  73.584  1.00  0.00     0.057 A 
ATOM     15  C   UNL     1       8.767  18.464  72.213  1.00  0.00     0.012 A 
ATOM     16  C   UNL     1       8.150  16.882  74.443  1.00  0.00     0.157 A 
ATOM     17  C   UNL     1       7.727  18.834  73.069  1.00  0.00     0.050 A 
ATOM     18  C   UNL     1       7.412  18.049  74.182  1.00  0.00     0.157 A 
BRANCH  16  19
ATOM     19  O   UNL     1       7.846  16.097  75.554  1.00  0.00    -0.504 OA
ATOM     20  H   UNL     1       7.501  16.506  76.415  1.00  0.00     0.293 HD
ENDBRANCH  16  19
BRANCH  18  21
ATOM     21  O   UNL     1       6.368  18.443  75.017  1.00  0.00    -0.504 OA
ATOM     22  H   UNL     1       5.480  18.766  74.652  1.00  0.00     0.293 HD
ENDBRANCH  18  21
ENDBRANCH   3  13
BRANCH   9  23
ATOM     23  O   UNL     1      13.325  14.325  67.922  1.00  0.00    -0.507 OA
ATOM     24  H   UNL     1      13.236  13.621  67.200  1.00  0.00     0.293 HD
ENDBRANCH   9  23
BRANCH   7  25
ATOM     25  O   UNL     1      11.694  18.234  65.648  1.00  0.00    -0.508 OA
ATOM     26  H   UNL     1      11.785  17.815  64.729  1.00  0.00     0.293 HD
ENDBRANCH   7  25
TORSDOF 6
ENDMDL
MODEL 5
REMARK VINA RESULT:    -6.480      1.934      7.097
REMARK INTER + INTRA:          -7.967
REMARK INTER:                  -7.620
REMARK INTRA:                  -0.347
REMARK UNBOUND:                -0.162
REMARK SMILES Oc1cc(O)c2c(c1)O[C@@H](c1ccc(O)c(O)c1)[C@H](O)C2
REMARK SMILES IDX 21 1 19 2 10 3 9 4 7 5 8 6 2 7 3 8 4 9 6 10 20 11 11 13
REMARK SMILES IDX 18 14 12 15 16 16 13 17 14 18 17 19 15 21 5 23 1 25
REMARK H PARENT 20 12 17 20 15 22 5 24 1 26
REMARK Flexibility Score: inf
ROOT
ATOM      1  C   UNL     1       8.615  18.147  71.498  1.00  0.00     0.079 C 
ATOM      2  C   UNL     1       9.662  17.206  70.872  1.00  0.00     0.164 C 
ATOM      3  C   UNL     1      10.709  16.812  71.928  1.00  0.00     0.232 C 
ATOM      4  O   UNL     1      10.060  16.213  73.050  1.00  0.00    -0.482 OA
ATOM      5  C   UNL     1       8.836  16.676  73.541  1.00  0.00     0.131 A 
ATOM      6  C   UNL     1       8.354  16.169  74.750  1.00  0.00     0.093 A 
ATOM      7  C   UNL     1       7.139  16.626  75.273  1.00  0.00     0.122 A 
ATOM      8  C   UNL     1       6.411  17.600  74.587  1.00  0.00     0.092 A 
ATOM      9  C   UNL     1       6.879  18.121  73.374  1.00  0.00     0.126 A 
ATOM     10  C   UNL     1       8.085  17.629  72.819  1.00  0.00     0.039 A 
ENDROOT
BRANCH   2  11
ATOM     11  O   UNL     1      10.294  17.848  69.794  1.00  0.00    -0.389 OA
ATOM     12  H   UNL     1       9.720  17.701  68.998  1.00  0.00     0.211 HD
ENDBRANCH   2  11
BRANCH   3  13
ATOM     13  C   UNL     1      11.725  15.852  71.357  1.00  0.00    -0.001 A 
ATOM     14  C   UNL     1      13.043  16.271  71.105  1.00  0.00     0.057 A 
ATOM     15  C   UNL     1      11.376  14.513  71.116  1.00  0.00     0.012 A 
ATOM     16  C   UNL     1      13.994  15.372  70.600  1.00  0.00     0.157 A 
ATOM     17  C   UNL     1      12.322  13.616  70.613  1.00  0.00     0.050 A 
ATOM     18  C   UNL     1      13.629  14.038  70.352  1.00  0.00     0.157 A 
BRANCH  16  19
ATOM     19  O   UNL     1      15.296  15.798  70.347  1.00  0.00    -0.504 OA
ATOM     20  H   UNL     1      16.070  15.145  70.303  1.00  0.00     0.293 HD
ENDBRANCH  16  19
BRANCH  18  21
ATOM     21  O   UNL     1      14.550  13.120  69.849  1.00  0.00    -0.504 OA
ATOM     22  H   UNL     1      15.501  13.068  70.195  1.00  0.00     0.293 HD
ENDBRANCH  18  21
ENDBRANCH   3  13
BRANCH   9  23
ATOM     23  O   UNL     1       6.130  19.125  72.758  1.00  0.00    -0.507 OA
ATOM     24  H   UNL     1       6.454  20.079  72.659  1.00  0.00     0.293 HD
ENDBRANCH   9  23
BRANCH   7  25
ATOM     25  O   UNL     1       6.651  16.124  76.477  1.00  0.00    -0.508 OA
ATOM     26  H   UNL     1       6.993  15.252  76.865  1.00  0.00     0.293 HD
ENDBRANCH   7  25
TORSDOF 6
ENDMDL
MODEL 6
REMARK VINA RESULT:    -6.084      1.811      1.891
REMARK INTER + INTRA:          -7.491
REMARK INTER:                  -7.891
REMARK INTRA:                   0.400
REMARK UNBOUND:                -0.162
REMARK SMILES Oc1cc(O)c2c(c1)O[C@@H](c1ccc(O)c(O)c1)[C@H](O)C2
REMARK SMILES IDX 21 1 19 2 10 3 9 4 7 5 8 6 2 7 3 8 4 9 6 10 20 11 11 13
REMARK SMILES IDX 18 14 12 15 16 16 13 17 14 18 17 19 15 21 5 23 1 25
REMARK H PARENT 20 12 17 20 15 22 5 24 1 26
REMARK Flexibility Score: inf
ROOT
ATOM      1  C   UNL     1      11.858  15.025  71.898  1.00  0.00     0.079 C 
ATOM      2  C   UNL     1      10.519  15.548  72.452  1.00  0.00     0.164 C 
ATOM      3  C   UNL     1      10.332  17.024  72.060  1.00  0.00     0.232 C 
ATOM      4  O   UNL     1      10.408  17.160  70.640  1.00  0.00    -0.482 OA
ATOM      5  C   UNL     1      11.314  16.428  69.867  1.00  0.00     0.131 A 
ATOM      6  C   UNL     1      11.464  16.747  68.515  1.00  0.00     0.093 A 
ATOM      7  C   UNL     1      12.376  16.042  67.721  1.00  0.00     0.122 A 
ATOM      8  C   UNL     1      13.144  15.022  68.286  1.00  0.00     0.092 A 
ATOM      9  C   UNL     1      13.008  14.690  69.639  1.00  0.00     0.126 A 
ATOM     10  C   UNL     1      12.055  15.370  70.436  1.00  0.00     0.039 A 
ENDROOT
BRANCH   2  11
ATOM     11  O   UNL     1      10.503  15.425  73.851  1.00  0.00    -0.389 OA
ATOM     12  H   UNL     1      11.403  15.102  74.119  1.00  0.00     0.211 HD
ENDBRANCH   2  11
BRANCH   3  13
ATOM     13  C   UNL     1       9.005  17.554  72.550  1.00  0.00    -0.001 A 
ATOM     14  C   UNL     1       8.495  17.162  73.800  1.00  0.00     0.057 A 
ATOM     15  C   UNL     1       8.287  18.484  71.780  1.00  0.00     0.012 A 
ATOM     16  C   UNL     1       7.276  17.676  74.266  1.00  0.00     0.157 A 
ATOM     17  C   UNL     1       7.072  18.997  72.243  1.00  0.00     0.050 A 
ATOM     18  C   UNL     1       6.562  18.597  73.482  1.00  0.00     0.157 A 
BRANCH  16  19
ATOM     19  O   UNL     1       6.776  17.277  75.504  1.00  0.00    -0.504 OA
ATOM     20  H   UNL     1       5.806  17.423  75.757  1.00  0.00     0.293 HD
ENDBRANCH  16  19
BRANCH  18  21
ATOM     21  O   UNL     1       5.347  19.125  73.916  1.00  0.00    -0.504 OA
ATOM     22  H   UNL     1       5.260  20.082  74.237  1.00  0.00     0.293 HD
ENDBRANCH  18  21
ENDBRANCH   3  13
BRANCH   9  23
ATOM     23  O   UNL     1      13.836  13.692  70.157  1.00  0.00    -0.507 OA
ATOM     24  H   UNL     1      13.602  13.143  70.975  1.00  0.00     0.293 HD
ENDBRANCH   9  23
BRANCH   7  25
ATOM     25  O   UNL     1      12.530  16.353  66.372  1.00  0.00    -0.508 OA
ATOM     26  H   UNL     1      12.149  15.760  65.644  1.00  0.00     0.293 HD
ENDBRANCH   7  25
TORSDOF 6
ENDMDL
MODEL 7
REMARK VINA RESULT:    -5.806      1.945      2.970
REMARK INTER + INTRA:          -7.156
REMARK INTER:                  -7.395
REMARK INTRA:                   0.238
REMARK UNBOUND:                -0.162
REMARK SMILES Oc1cc(O)c2c(c1)O[C@@H](c1ccc(O)c(O)c1)[C@H](O)C2
REMARK SMILES IDX 21 1 19 2 10 3 9 4 7 5 8 6 2 7 3 8 4 9 6 10 20 11 11 13
REMARK SMILES IDX 18 14 12 15 16 16 13 17 14 18 17 19 15 21 5 23 1 25
REMARK H PARENT 20 12 17 20 15 22 5 24 1 26
REMARK Flexibility Score: inf
ROOT
ATOM      1  C   UNL     1      11.423  16.344  68.657  1.00  0.00     0.079 C 
ATOM      2  C   UNL     1      10.541  17.115  69.657  1.00  0.00     0.164 C 
ATOM      3  C   UNL     1      10.239  16.231  70.879  1.00  0.00     0.232 C 
ATOM      4  O   UNL     1      11.462  15.798  71.475  1.00  0.00    -0.482 OA
ATOM      5  C   UNL     1      12.578  15.436  70.714  1.00  0.00     0.131 A 
ATOM      6  C   UNL     1      13.671  14.844  71.352  1.00  0.00     0.093 A 
ATOM      7  C   UNL     1      14.794  14.457  70.612  1.00  0.00     0.122 A 
ATOM      8  C   UNL     1      14.816  14.653  69.230  1.00  0.00     0.092 A 
ATOM      9  C   UNL     1      13.729  15.244  68.574  1.00  0.00     0.126 A 
ATOM     10  C   UNL     1      12.610  15.678  69.323  1.00  0.00     0.039 A 
ENDROOT
BRANCH   2  11
ATOM     11  O   UNL     1       9.338  17.492  69.037  1.00  0.00    -0.389 OA
ATOM     12  H   UNL     1       8.624  17.398  69.720  1.00  0.00     0.211 HD
ENDBRANCH   2  11
BRANCH   3  13
ATOM     13  C   UNL     1       9.413  16.976  71.901  1.00  0.00    -0.001 A 
ATOM     14  C   UNL     1       9.061  16.367  73.118  1.00  0.00     0.057 A 
ATOM     15  C   UNL     1       9.026  18.305  71.664  1.00  0.00     0.012 A 
ATOM     16  C   UNL     1       8.317  17.069  74.078  1.00  0.00     0.157 A 
ATOM     17  C   UNL     1       8.284  19.006  72.619  1.00  0.00     0.050 A 
ATOM     18  C   UNL     1       7.925  18.394  73.824  1.00  0.00     0.157 A 
BRANCH  16  19
ATOM     19  O   UNL     1       7.968  16.455  75.279  1.00  0.00    -0.504 OA
ATOM     20  H   UNL     1       7.889  16.981  76.141  1.00  0.00     0.293 HD
ENDBRANCH  16  19
BRANCH  18  21
ATOM     21  O   UNL     1       7.184  19.118  74.757  1.00  0.00    -0.504 OA
ATOM     22  H   UNL     1       7.425  20.068  75.016  1.00  0.00     0.293 HD
ENDBRANCH  18  21
ENDBRANCH   3  13
BRANCH   9  23
ATOM     23  O   UNL     1      13.792  15.373  67.185  1.00  0.00    -0.507 OA
ATOM     24  H   UNL     1      14.483  15.940  66.710  1.00  0.00     0.293 HD
ENDBRANCH   9  23
BRANCH   7  25
ATOM     25  O   UNL     1      15.889  13.867  71.241  1.00  0.00    -0.508 OA
ATOM     26  H   UNL     1      16.828  14.229  71.120  1.00  0.00     0.293 HD
ENDBRANCH   7  25
TORSDOF 6
ENDMDL
MODEL 8
REMARK VINA RESULT:    -5.362      2.639      6.789
REMARK INTER + INTRA:          -6.621
REMARK INTER:                  -6.407
REMARK INTRA:                  -0.215
REMARK UNBOUND:                -0.162
REMARK SMILES Oc1cc(O)c2c(c1)O[C@@H](c1ccc(O)c(O)c1)[C@H](O)C2
REMARK SMILES IDX 21 1 19 2 10 3 9 4 7 5 8 6 2 7 3 8 4 9 6 10 20 11 11 13
REMARK SMILES IDX 18 14 12 15 16 16 13 17 14 18 17 19 15 21 5 23 1 25
REMARK H PARENT 20 12 17 20 15 22 5 24 1 26
REMARK Flexibility Score: inf
ROOT
ATOM      1  C   UNL     1       9.764  16.125  73.085  1.00  0.00     0.079 C 
ATOM      2  C   UNL     1      10.545  16.613  71.850  1.00  0.00     0.164 C 
ATOM      3  C   UNL     1       9.595  16.740  70.647  1.00  0.00     0.232 C 
ATOM      4  O   UNL     1       8.517  17.617  70.973  1.00  0.00    -0.482 OA
ATOM      5  C   UNL     1       7.916  17.625  72.236  1.00  0.00     0.131 A 
ATOM      6  C   UNL     1       6.749  18.370  72.427  1.00  0.00     0.093 A 
ATOM      7  C   UNL     1       6.118  18.383  73.676  1.00  0.00     0.122 A 
ATOM      8  C   UNL     1       6.651  17.641  74.731  1.00  0.00     0.092 A 
ATOM      9  C   UNL     1       7.818  16.887  74.557  1.00  0.00     0.126 A 
ATOM     10  C   UNL     1       8.486  16.906  73.309  1.00  0.00     0.039 A 
ENDROOT
BRANCH   2  11
ATOM     11  O   UNL     1      11.573  15.705  71.547  1.00  0.00    -0.389 OA
ATOM     12  H   UNL     1      11.530  14.988  72.233  1.00  0.00     0.211 HD
ENDBRANCH   2  11
BRANCH   3  13
ATOM     13  C   UNL     1      10.322  17.261  69.429  1.00  0.00    -0.001 A 
ATOM     14  C   UNL     1      10.896  16.371  68.504  1.00  0.00     0.057 A 
ATOM     15  C   UNL     1      10.391  18.641  69.184  1.00  0.00     0.012 A 
ATOM     16  C   UNL     1      11.548  16.855  67.360  1.00  0.00     0.157 A 
ATOM     17  C   UNL     1      11.040  19.125  68.044  1.00  0.00     0.050 A 
ATOM     18  C   UNL     1      11.620  18.239  67.131  1.00  0.00     0.157 A 
BRANCH  16  19
ATOM     19  O   UNL     1      12.119  15.966  66.452  1.00  0.00    -0.504 OA
ATOM     20  H   UNL     1      11.973  16.060  65.453  1.00  0.00     0.293 HD
ENDBRANCH  16  19
BRANCH  18  21
ATOM     21  O   UNL     1      12.262  18.752  66.005  1.00  0.00    -0.504 OA
ATOM     22  H   UNL     1      13.103  19.311  66.072  1.00  0.00     0.293 HD
ENDBRANCH  18  21
ENDBRANCH   3  13
BRANCH   9  23
ATOM     23  O   UNL     1       8.277  16.129  75.636  1.00  0.00    -0.507 OA
ATOM     24  H   UNL     1       7.679  15.527  76.187  1.00  0.00     0.293 HD
ENDBRANCH   9  23
BRANCH   7  25
ATOM     25  O   UNL     1       4.955  19.125  73.874  1.00  0.00    -0.508 OA
ATOM     26  H   UNL     1       4.895  19.832  74.599  1.00  0.00     0.293 HD
ENDBRANCH   7  25
TORSDOF 6
ENDMDL
MODEL 9
REMARK VINA RESULT:    -5.354      2.531      6.806
REMARK INTER + INTRA:          -6.612
REMARK INTER:                  -6.980
REMARK INTRA:                   0.368
REMARK UNBOUND:                -0.162
REMARK SMILES Oc1cc(O)c2c(c1)O[C@@H](c1ccc(O)c(O)c1)[C@H](O)C2
REMARK SMILES IDX 21 1 19 2 10 3 9 4 7 5 8 6 2 7 3 8 4 9 6 10 20 11 11 13
REMARK SMILES IDX 18 14 12 15 16 16 13 17 14 18 17 19 15 21 5 23 1 25
REMARK H PARENT 20 12 17 20 15 22 5 24 1 26
REMARK Flexibility Score: inf
ROOT
ATOM      1  C   UNL     1      10.845  14.982  72.510  1.00  0.00     0.079 C 
ATOM      2  C   UNL     1      11.675  15.166  71.225  1.00  0.00     0.164 C 
ATOM      3  C   UNL     1      10.740  15.430  70.032  1.00  0.00     0.232 C 
ATOM      4  O   UNL     1       9.922  16.568  70.302  1.00  0.00    -0.482 OA
ATOM      5  C   UNL     1       9.389  16.821  71.570  1.00  0.00     0.131 A 
ATOM      6  C   UNL     1       8.447  17.843  71.718  1.00  0.00     0.093 A 
ATOM      7  C   UNL     1       7.884  18.107  72.972  1.00  0.00     0.122 A 
ATOM      8  C   UNL     1       8.259  17.339  74.076  1.00  0.00     0.092 A 
ATOM      9  C   UNL     1       9.200  16.310  73.946  1.00  0.00     0.126 A 
ATOM     10  C   UNL     1       9.805  16.068  72.689  1.00  0.00     0.039 A 
ENDROOT
BRANCH   2  11
ATOM     11  O   UNL     1      12.438  14.012  70.982  1.00  0.00    -0.389 OA
ATOM     12  H   UNL     1      13.288  14.121  71.483  1.00  0.00     0.211 HD
ENDBRANCH   2  11
BRANCH   3  13
ATOM     13  C   UNL     1      11.527  15.661  68.763  1.00  0.00    -0.001 A 
ATOM     14  C   UNL     1      11.192  16.716  67.896  1.00  0.00     0.057 A 
ATOM     15  C   UNL     1      12.632  14.850  68.459  1.00  0.00     0.012 A 
ATOM     16  C   UNL     1      11.939  16.946  66.731  1.00  0.00     0.157 A 
ATOM     17  C   UNL     1      13.378  15.078  67.299  1.00  0.00     0.050 A 
ATOM     18  C   UNL     1      13.037  16.121  66.432  1.00  0.00     0.157 A 
BRANCH  16  19
ATOM     19  O   UNL     1      11.597  17.991  65.875  1.00  0.00    -0.504 OA
ATOM     20  H   UNL     1      12.299  18.501  65.353  1.00  0.00     0.293 HD
ENDBRANCH  16  19
BRANCH  18  21
ATOM     21  O   UNL     1      13.799  16.323  65.283  1.00  0.00    -0.504 OA
ATOM     22  H   UNL     1      14.802  16.184  65.271  1.00  0.00     0.293 HD
ENDBRANCH  18  21
ENDBRANCH   3  13
BRANCH   9  23
ATOM     23  O   UNL     1       9.500  15.548  75.077  1.00  0.00    -0.507 OA
ATOM     24  H   UNL     1       8.821  14.966  75.551  1.00  0.00     0.293 HD
ENDBRANCH   9  23
BRANCH   7  25
ATOM     25  O   UNL     1       6.946  19.125  73.128  1.00  0.00    -0.508 OA
ATOM     26  H   UNL     1       7.132  20.070  72.812  1.00  0.00     0.293 HD
ENDBRANCH   7  25
TORSDOF 6
ENDMDL
