MODEL 1
REMARK VINA RESULT:    -5.494      0.000      0.000
REMARK INTER + INTRA:          -8.557
REMARK INTER:                  -7.422
REMARK INTRA:                  -1.135
REMARK UNBOUND:                -1.135
REMARK SMILES O=c1c(-c2ccc(O)cc2)coc2c([C@@H]3O[C@@H](CO)[C@@H](O)[C@@H](O)[C@@H]3O)c(O)ccc12
REMARK SMILES IDX 3 1 11 2 12 3 13 4 30 5 2 6 1 7 29 8 28 9 26 10 14 11 4 12
REMARK SMILES IDX 5 13 6 14 7 15 10 16 9 17 8 18 15 20 24 21 16 22 22 23 17 24
REMARK SMILES IDX 20 25 25 26 23 28 18 30 19 31 21 33 27 35
REMARK H PARENT 8 19 25 27 23 29 19 32 21 34 27 36
REMARK Flexibility Score: inf
ROOT
ATOM      1  C   UNL     1     -58.188  18.115 -17.332  1.00  0.00     0.065 A 
ATOM      2  C   UNL     1     -58.416  19.379 -16.772  1.00  0.00     0.208 A 
ATOM      3  O   UNL     1     -57.451  20.026 -16.131  1.00  0.00    -0.463 OA
ATOM      4  C   UNL     1     -56.224  19.534 -15.973  1.00  0.00     0.147 A 
ATOM      5  C   UNL     1     -55.910  18.257 -16.495  1.00  0.00     0.066 A 
ATOM      6  C   UNL     1     -56.911  17.544 -17.179  1.00  0.00     0.200 A 
ATOM      7  O   UNL     1     -56.673  16.390 -17.635  1.00  0.00    -0.288 OA
ATOM      8  C   UNL     1     -54.623  17.730 -16.310  1.00  0.00     0.020 A 
ATOM      9  C   UNL     1     -53.665  18.453 -15.605  1.00  0.00     0.047 A 
ATOM     10  C   UNL     1     -53.963  19.717 -15.081  1.00  0.00     0.125 A 
ATOM     11  C   UNL     1     -55.244  20.285 -15.281  1.00  0.00     0.069 A 
ENDROOT
BRANCH   1  12
ATOM     12  C   UNL     1     -59.281  17.416 -18.053  1.00  0.00    -0.011 A 
ATOM     13  C   UNL     1     -59.384  17.498 -19.453  1.00  0.00     0.013 A 
ATOM     14  C   UNL     1     -60.421  16.845 -20.125  1.00  0.00     0.047 A 
ATOM     15  C   UNL     1     -61.370  16.105 -19.408  1.00  0.00     0.115 A 
ATOM     16  C   UNL     1     -60.242  16.677 -17.339  1.00  0.00     0.013 A 
ATOM     17  C   UNL     1     -61.277  16.025 -18.015  1.00  0.00     0.047 A 
BRANCH  15  18
ATOM     18  O   UNL     1     -62.407  15.449 -20.067  1.00  0.00    -0.508 OA
ATOM     19  H   UNL     1     -62.713  14.525 -19.786  1.00  0.00     0.293 HD
ENDBRANCH  15  18
ENDBRANCH   1  12
BRANCH  11  20
ATOM     20  C   UNL     1     -55.607  21.647 -14.700  1.00  0.00     0.188 C 
ATOM     21  C   UNL     1     -56.169  21.487 -13.273  1.00  0.00     0.179 C 
ATOM     22  O   UNL     1     -54.475  22.506 -14.719  1.00  0.00    -0.362 OA
ATOM     23  C   UNL     1     -56.573  22.865 -12.717  1.00  0.00     0.177 C 
ATOM     24  C   UNL     1     -54.782  23.829 -14.296  1.00  0.00     0.176 C 
ATOM     25  C   UNL     1     -55.409  23.859 -12.872  1.00  0.00     0.177 C 
BRANCH  21  26
ATOM     26  O   UNL     1     -55.201  20.901 -12.439  1.00  0.00    -0.387 OA
ATOM     27  H   UNL     1     -55.343  19.919 -12.481  1.00  0.00     0.211 HD
ENDBRANCH  21  26
BRANCH  23  28
ATOM     28  O   UNL     1     -57.716  23.344 -13.379  1.00  0.00    -0.387 OA
ATOM     29  H   UNL     1     -58.092  24.070 -12.816  1.00  0.00     0.211 HD
ENDBRANCH  23  28
BRANCH  24  30
ATOM     30  C   UNL     1     -55.562  24.612 -15.376  1.00  0.00     0.191 C 
BRANCH  30  31
ATOM     31  O   UNL     1     -55.172  25.957 -15.374  1.00  0.00    -0.394 OA
ATOM     32  H   UNL     1     -54.706  26.111 -16.237  1.00  0.00     0.210 HD
ENDBRANCH  30  31
ENDBRANCH  24  30
BRANCH  25  33
ATOM     33  O   UNL     1     -55.841  25.151 -12.528  1.00  0.00    -0.388 OA
ATOM     34  H   UNL     1     -56.120  25.116 -11.576  1.00  0.00     0.211 HD
ENDBRANCH  25  33
ENDBRANCH  11  20
BRANCH  10  35
ATOM     35  O   UNL     1     -52.988  20.400 -14.355  1.00  0.00    -0.507 OA
ATOM     36  H   UNL     1     -52.006  20.354 -14.604  1.00  0.00     0.293 HD
ENDBRANCH  10  35
TORSDOF 9
ENDMDL
MODEL 2
REMARK VINA RESULT:    -4.787      6.695      8.665
REMARK INTER + INTRA:          -7.602
REMARK INTER:                  -7.571
REMARK INTRA:                  -0.031
REMARK UNBOUND:                -1.135
REMARK SMILES O=c1c(-c2ccc(O)cc2)coc2c([C@@H]3O[C@@H](CO)[C@@H](O)[C@@H](O)[C@@H]3O)c(O)ccc12
REMARK SMILES IDX 3 1 11 2 12 3 13 4 30 5 2 6 1 7 29 8 28 9 26 10 14 11 4 12
REMARK SMILES IDX 5 13 6 14 7 15 10 16 9 17 8 18 15 20 24 21 16 22 22 23 17 24
REMARK SMILES IDX 20 25 25 26 23 28 18 30 19 31 21 33 27 35
REMARK H PARENT 8 19 25 27 23 29 19 32 21 34 27 36
REMARK Flexibility Score: inf
ROOT
ATOM      1  C   UNL     1     -58.313  23.037 -10.824  1.00  0.00     0.065 A 
ATOM      2  C   UNL     1     -57.736  23.464 -12.028  1.00  0.00     0.208 A 
ATOM      3  O   UNL     1     -58.092  24.616 -12.584  1.00  0.00    -0.463 OA
ATOM      4  C   UNL     1     -59.001  25.431 -12.053  1.00  0.00     0.147 A 
ATOM      5  C   UNL     1     -59.643  25.072 -10.845  1.00  0.00     0.066 A 
ATOM      6  C   UNL     1     -59.291  23.857 -10.230  1.00  0.00     0.200 A 
ATOM      7  O   UNL     1     -59.863  23.493  -9.165  1.00  0.00    -0.288 OA
ATOM      8  C   UNL     1     -60.616  25.922 -10.298  1.00  0.00     0.020 A 
ATOM      9  C   UNL     1     -60.958  27.105 -10.948  1.00  0.00     0.047 A 
ATOM     10  C   UNL     1     -60.332  27.471 -12.146  1.00  0.00     0.125 A 
ATOM     11  C   UNL     1     -59.324  26.647 -12.702  1.00  0.00     0.069 A 
ENDROOT
BRANCH   1  12
ATOM     12  C   UNL     1     -57.892  21.750 -10.216  1.00  0.00    -0.011 A 
ATOM     13  C   UNL     1     -56.798  21.697  -9.335  1.00  0.00     0.013 A 
ATOM     14  C   UNL     1     -56.401  20.479  -8.773  1.00  0.00     0.047 A 
ATOM     15  C   UNL     1     -57.089  19.300  -9.088  1.00  0.00     0.115 A 
ATOM     16  C   UNL     1     -58.573  20.561 -10.533  1.00  0.00     0.013 A 
ATOM     17  C   UNL     1     -58.173  19.346  -9.970  1.00  0.00     0.047 A 
BRANCH  15  18
ATOM     18  O   UNL     1     -56.703  18.082  -8.534  1.00  0.00    -0.508 OA
ATOM     19  H   UNL     1     -56.327  18.023  -7.595  1.00  0.00     0.293 HD
ENDBRANCH  15  18
ENDBRANCH   1  12
BRANCH  11  20
ATOM     20  C   UNL     1     -58.643  27.006 -14.018  1.00  0.00     0.188 C 
ATOM     21  C   UNL     1     -57.247  27.604 -13.750  1.00  0.00     0.179 C 
ATOM     22  O   UNL     1     -58.566  25.863 -14.859  1.00  0.00    -0.362 OA
ATOM     23  C   UNL     1     -56.590  28.004 -15.084  1.00  0.00     0.177 C 
ATOM     24  C   UNL     1     -58.043  26.164 -16.147  1.00  0.00     0.176 C 
ATOM     25  C   UNL     1     -56.637  26.825 -16.071  1.00  0.00     0.177 C 
BRANCH  21  26
ATOM     26  O   UNL     1     -56.442  26.664 -13.085  1.00  0.00    -0.387 OA
ATOM     27  H   UNL     1     -55.504  26.847 -13.354  1.00  0.00     0.211 HD
ENDBRANCH  21  26
BRANCH  23  28
ATOM     28  O   UNL     1     -57.236  29.125 -15.632  1.00  0.00    -0.387 OA
ATOM     29  H   UNL     1     -57.183  29.035 -16.619  1.00  0.00     0.211 HD
ENDBRANCH  23  28
BRANCH  24  30
ATOM     30  C   UNL     1     -59.074  26.909 -17.027  1.00  0.00     0.191 C 
BRANCH  30  31
ATOM     31  O   UNL     1     -58.458  27.974 -17.696  1.00  0.00    -0.394 OA
ATOM     32  H   UNL     1     -58.326  28.688 -17.018  1.00  0.00     0.210 HD
ENDBRANCH  30  31
ENDBRANCH  24  30
BRANCH  25  33
ATOM     33  O   UNL     1     -56.199  27.248 -17.337  1.00  0.00    -0.388 OA
ATOM     34  H   UNL     1     -55.806  28.152 -17.217  1.00  0.00     0.211 HD
ENDBRANCH  25  33
ENDBRANCH  11  20
BRANCH  10  35
ATOM     35  O   UNL     1     -60.721  28.649 -12.784  1.00  0.00    -0.507 OA
ATOM     36  H   UNL     1     -60.046  29.353 -13.063  1.00  0.00     0.293 HD
ENDBRANCH  10  35
TORSDOF 9
ENDMDL
MODEL 3
REMARK VINA RESULT:    -4.735      5.710      8.302
REMARK INTER + INTRA:          -7.531
REMARK INTER:                  -6.582
REMARK INTRA:                  -0.948
REMARK UNBOUND:                -1.135
REMARK SMILES O=c1c(-c2ccc(O)cc2)coc2c([C@@H]3O[C@@H](CO)[C@@H](O)[C@@H](O)[C@@H]3O)c(O)ccc12
REMARK SMILES IDX 3 1 11 2 12 3 13 4 30 5 2 6 1 7 29 8 28 9 26 10 14 11 4 12
REMARK SMILES IDX 5 13 6 14 7 15 10 16 9 17 8 18 15 20 24 21 16 22 22 23 17 24
REMARK SMILES IDX 20 25 25 26 23 28 18 30 19 31 21 33 27 35
REMARK H PARENT 8 19 25 27 23 29 19 32 21 34 27 36
REMARK Flexibility Score: inf
ROOT
ATOM      1  C   UNL     1     -59.751  23.104  -9.799  1.00  0.00     0.065 A 
ATOM      2  C   UNL     1     -59.860  24.332 -10.464  1.00  0.00     0.208 A 
ATOM      3  O   UNL     1     -59.099  24.608 -11.517  1.00  0.00    -0.463 OA
ATOM      4  C   UNL     1     -58.196  23.761 -12.005  1.00  0.00     0.147 A 
ATOM      5  C   UNL     1     -58.011  22.502 -11.387  1.00  0.00     0.066 A 
ATOM      6  C   UNL     1     -58.800  22.178 -10.268  1.00  0.00     0.200 A 
ATOM      7  O   UNL     1     -58.642  21.075  -9.676  1.00  0.00    -0.288 OA
ATOM      8  C   UNL     1     -57.044  21.618 -11.890  1.00  0.00     0.020 A 
ATOM      9  C   UNL     1     -56.263  21.984 -12.984  1.00  0.00     0.047 A 
ATOM     10  C   UNL     1     -56.434  23.228 -13.603  1.00  0.00     0.125 A 
ATOM     11  C   UNL     1     -57.424  24.125 -13.135  1.00  0.00     0.069 A 
ENDROOT
BRANCH   1  12
ATOM     12  C   UNL     1     -60.619  22.814  -8.631  1.00  0.00    -0.011 A 
ATOM     13  C   UNL     1     -60.136  22.975  -7.320  1.00  0.00     0.013 A 
ATOM     14  C   UNL     1     -60.956  22.691  -6.224  1.00  0.00     0.047 A 
ATOM     15  C   UNL     1     -62.267  22.238  -6.424  1.00  0.00     0.115 A 
ATOM     16  C   UNL     1     -61.934  22.352  -8.822  1.00  0.00     0.013 A 
ATOM     17  C   UNL     1     -62.751  22.069  -7.725  1.00  0.00     0.047 A 
BRANCH  15  18
ATOM     18  O   UNL     1     -63.094  21.953  -5.339  1.00  0.00    -0.508 OA
ATOM     19  H   UNL     1     -63.215  22.612  -4.578  1.00  0.00     0.293 HD
ENDBRANCH  15  18
ENDBRANCH   1  12
BRANCH  11  20
ATOM     20  C   UNL     1     -57.618  25.496 -13.773  1.00  0.00     0.188 C 
ATOM     21  C   UNL     1     -56.867  26.572 -12.962  1.00  0.00     0.179 C 
ATOM     22  O   UNL     1     -57.188  25.473 -15.127  1.00  0.00    -0.362 OA
ATOM     23  C   UNL     1     -57.108  27.957 -13.591  1.00  0.00     0.177 C 
ATOM     24  C   UNL     1     -57.451  26.693 -15.808  1.00  0.00     0.176 C 
ATOM     25  C   UNL     1     -56.798  27.915 -15.097  1.00  0.00     0.177 C 
BRANCH  21  26
ATOM     26  O   UNL     1     -55.490  26.288 -12.946  1.00  0.00    -0.387 OA
ATOM     27  H   UNL     1     -55.027  27.092 -13.301  1.00  0.00     0.211 HD
ENDBRANCH  21  26
BRANCH  23  28
ATOM     28  O   UNL     1     -58.434  28.368 -13.376  1.00  0.00    -0.387 OA
ATOM     29  H   UNL     1     -58.696  28.918 -14.160  1.00  0.00     0.211 HD
ENDBRANCH  23  28
BRANCH  24  30
ATOM     30  C   UNL     1     -58.951  26.852 -16.145  1.00  0.00     0.191 C 
BRANCH  30  31
ATOM     31  O   UNL     1     -59.103  27.428 -17.413  1.00  0.00    -0.394 OA
ATOM     32  H   UNL     1     -58.209  27.777 -17.667  1.00  0.00     0.210 HD
ENDBRANCH  30  31
ENDBRANCH  24  30
BRANCH  25  33
ATOM     33  O   UNL     1     -57.187  29.124 -15.696  1.00  0.00    -0.388 OA
ATOM     34  H   UNL     1     -57.840  28.895 -16.407  1.00  0.00     0.211 HD
ENDBRANCH  25  33
ENDBRANCH  11  20
BRANCH  10  35
ATOM     35  O   UNL     1     -55.614  23.571 -14.678  1.00  0.00    -0.507 OA
ATOM     36  H   UNL     1     -55.704  24.462 -15.155  1.00  0.00     0.293 HD
ENDBRANCH  10  35
TORSDOF 9
ENDMDL
MODEL 4
REMARK VINA RESULT:    -4.652      7.877     10.525
REMARK INTER + INTRA:          -7.419
REMARK INTER:                  -6.316
REMARK INTRA:                  -1.103
REMARK UNBOUND:                -1.135
REMARK SMILES O=c1c(-c2ccc(O)cc2)coc2c([C@@H]3O[C@@H](CO)[C@@H](O)[C@@H](O)[C@@H]3O)c(O)ccc12
REMARK SMILES IDX 3 1 11 2 12 3 13 4 30 5 2 6 1 7 29 8 28 9 26 10 14 11 4 12
REMARK SMILES IDX 5 13 6 14 7 15 10 16 9 17 8 18 15 20 24 21 16 22 22 23 17 24
REMARK SMILES IDX 20 25 25 26 23 28 18 30 19 31 21 33 27 35
REMARK H PARENT 8 19 25 27 23 29 19 32 21 34 27 36
REMARK Flexibility Score: inf
ROOT
ATOM      1  C   UNL     1     -53.833  14.424 -11.514  1.00  0.00     0.065 A 
ATOM      2  C   UNL     1     -52.534  14.941 -11.614  1.00  0.00     0.208 A 
ATOM      3  O   UNL     1     -51.628  14.366 -12.395  1.00  0.00    -0.463 OA
ATOM      4  C   UNL     1     -51.878  13.279 -13.122  1.00  0.00     0.147 A 
ATOM      5  C   UNL     1     -53.159  12.682 -13.071  1.00  0.00     0.066 A 
ATOM      6  C   UNL     1     -54.143  13.266 -12.252  1.00  0.00     0.200 A 
ATOM      7  O   UNL     1     -55.289  12.744 -12.163  1.00  0.00    -0.288 OA
ATOM      8  C   UNL     1     -53.415  11.525 -13.822  1.00  0.00     0.020 A 
ATOM      9  C   UNL     1     -52.410  10.959 -14.601  1.00  0.00     0.047 A 
ATOM     10  C   UNL     1     -51.136  11.538 -14.658  1.00  0.00     0.125 A 
ATOM     11  C   UNL     1     -50.861  12.724 -13.935  1.00  0.00     0.069 A 
ENDROOT
BRANCH   1  12
ATOM     12  C   UNL     1     -54.831  15.090 -10.642  1.00  0.00    -0.011 A 
ATOM     13  C   UNL     1     -55.842  15.897 -11.196  1.00  0.00     0.013 A 
ATOM     14  C   UNL     1     -56.774  16.530 -10.368  1.00  0.00     0.047 A 
ATOM     15  C   UNL     1     -56.706  16.370  -8.978  1.00  0.00     0.115 A 
ATOM     16  C   UNL     1     -54.766  14.941  -9.245  1.00  0.00     0.013 A 
ATOM     17  C   UNL     1     -55.699  15.575  -8.421  1.00  0.00     0.047 A 
BRANCH  15  18
ATOM     18  O   UNL     1     -57.630  16.995  -8.144  1.00  0.00    -0.508 OA
ATOM     19  H   UNL     1     -58.628  16.899  -8.293  1.00  0.00     0.293 HD
ENDBRANCH  15  18
ENDBRANCH   1  12
BRANCH  11  20
ATOM     20  C   UNL     1     -49.477  13.363 -13.958  1.00  0.00     0.188 C 
ATOM     21  C   UNL     1     -48.545  12.652 -12.956  1.00  0.00     0.179 C 
ATOM     22  O   UNL     1     -48.943  13.334 -15.274  1.00  0.00    -0.362 OA
ATOM     23  C   UNL     1     -47.166  13.336 -12.956  1.00  0.00     0.177 C 
ATOM     24  C   UNL     1     -47.702  14.020 -15.379  1.00  0.00     0.176 C 
ATOM     25  C   UNL     1     -46.636  13.458 -14.395  1.00  0.00     0.177 C 
BRANCH  21  26
ATOM     26  O   UNL     1     -48.406  11.298 -13.307  1.00  0.00    -0.387 OA
ATOM     27  H   UNL     1     -47.905  10.861 -12.570  1.00  0.00     0.211 HD
ENDBRANCH  21  26
BRANCH  23  28
ATOM     28  O   UNL     1     -47.248  14.605 -12.356  1.00  0.00    -0.387 OA
ATOM     29  H   UNL     1     -46.431  14.717 -11.804  1.00  0.00     0.211 HD
ENDBRANCH  23  28
BRANCH  24  30
ATOM     30  C   UNL     1     -47.888  15.554 -15.344  1.00  0.00     0.191 C 
BRANCH  30  31
ATOM     31  O   UNL     1     -46.853  16.182 -16.048  1.00  0.00    -0.394 OA
ATOM     32  H   UNL     1     -46.818  17.116 -15.714  1.00  0.00     0.210 HD
ENDBRANCH  30  31
ENDBRANCH  24  30
BRANCH  25  33
ATOM     33  O   UNL     1     -45.467  14.237 -14.405  1.00  0.00    -0.388 OA
ATOM     34  H   UNL     1     -44.701  13.605 -14.416  1.00  0.00     0.211 HD
ENDBRANCH  25  33
ENDBRANCH  11  20
BRANCH  10  35
ATOM     35  O   UNL     1     -50.145  10.928 -15.427  1.00  0.00    -0.507 OA
ATOM     36  H   UNL     1     -50.029  11.135 -16.412  1.00  0.00     0.293 HD
ENDBRANCH  10  35
TORSDOF 9
ENDMDL
MODEL 5
REMARK VINA RESULT:    -4.601      6.829      8.454
REMARK INTER + INTRA:          -7.351
REMARK INTER:                  -7.239
REMARK INTRA:                  -0.112
REMARK UNBOUND:                -1.135
REMARK SMILES O=c1c(-c2ccc(O)cc2)coc2c([C@@H]3O[C@@H](CO)[C@@H](O)[C@@H](O)[C@@H]3O)c(O)ccc12
REMARK SMILES IDX 3 1 11 2 12 3 13 4 30 5 2 6 1 7 29 8 28 9 26 10 14 11 4 12
REMARK SMILES IDX 5 13 6 14 7 15 10 16 9 17 8 18 15 20 24 21 16 22 22 23 17 24
REMARK SMILES IDX 20 25 25 26 23 28 18 30 19 31 21 33 27 35
REMARK H PARENT 8 19 25 27 23 29 19 32 21 34 27 36
REMARK Flexibility Score: inf
ROOT
ATOM      1  C   UNL     1     -57.863  23.701 -10.287  1.00  0.00     0.065 A 
ATOM      2  C   UNL     1     -58.454  24.195 -11.457  1.00  0.00     0.208 A 
ATOM      3  O   UNL     1     -57.760  24.934 -12.314  1.00  0.00    -0.463 OA
ATOM      4  C   UNL     1     -56.482  25.257 -12.128  1.00  0.00     0.147 A 
ATOM      5  C   UNL     1     -55.809  24.811 -10.967  1.00  0.00     0.066 A 
ATOM      6  C   UNL     1     -56.516  24.027 -10.037  1.00  0.00     0.200 A 
ATOM      7  O   UNL     1     -55.955  23.635  -8.976  1.00  0.00    -0.288 OA
ATOM      8  C   UNL     1     -54.468  25.169 -10.762  1.00  0.00     0.020 A 
ATOM      9  C   UNL     1     -53.807  25.969 -11.691  1.00  0.00     0.047 A 
ATOM     10  C   UNL     1     -54.462  26.419 -12.843  1.00  0.00     0.125 A 
ATOM     11  C   UNL     1     -55.806  26.046 -13.089  1.00  0.00     0.069 A 
ENDROOT
BRANCH   1  12
ATOM     12  C   UNL     1     -58.656  22.868  -9.349  1.00  0.00    -0.011 A 
ATOM     13  C   UNL     1     -59.472  23.467  -8.373  1.00  0.00     0.013 A 
ATOM     14  C   UNL     1     -60.210  22.676  -7.486  1.00  0.00     0.047 A 
ATOM     15  C   UNL     1     -60.139  21.279  -7.562  1.00  0.00     0.115 A 
ATOM     16  C   UNL     1     -58.586  21.465  -9.414  1.00  0.00     0.013 A 
ATOM     17  C   UNL     1     -59.324  20.678  -8.527  1.00  0.00     0.047 A 
BRANCH  15  18
ATOM     18  O   UNL     1     -60.871  20.481  -6.685  1.00  0.00    -0.508 OA
ATOM     19  H   UNL     1     -61.515  19.776  -7.023  1.00  0.00     0.293 HD
ENDBRANCH  15  18
ENDBRANCH   1  12
BRANCH  11  20
ATOM     20  C   UNL     1     -56.553  26.540 -14.323  1.00  0.00     0.188 C 
ATOM     21  C   UNL     1     -56.370  25.550 -15.490  1.00  0.00     0.179 C 
ATOM     22  O   UNL     1     -57.927  26.736 -14.019  1.00  0.00    -0.362 OA
ATOM     23  C   UNL     1     -57.091  26.084 -16.741  1.00  0.00     0.177 C 
ATOM     24  C   UNL     1     -58.653  27.307 -15.101  1.00  0.00     0.176 C 
ATOM     25  C   UNL     1     -58.544  26.453 -16.397  1.00  0.00     0.177 C 
BRANCH  21  26
ATOM     26  O   UNL     1     -56.890  24.292 -15.140  1.00  0.00    -0.387 OA
ATOM     27  H   UNL     1     -56.873  23.735 -15.962  1.00  0.00     0.211 HD
ENDBRANCH  21  26
BRANCH  23  28
ATOM     28  O   UNL     1     -56.413  27.201 -17.258  1.00  0.00    -0.387 OA
ATOM     29  H   UNL     1     -57.055  27.958 -17.251  1.00  0.00     0.211 HD
ENDBRANCH  23  28
BRANCH  24  30
ATOM     30  C   UNL     1     -58.338  28.810 -15.274  1.00  0.00     0.191 C 
BRANCH  30  31
ATOM     31  O   UNL     1     -58.216  29.125 -16.634  1.00  0.00    -0.394 OA
ATOM     32  H   UNL     1     -57.271  28.941 -16.876  1.00  0.00     0.210 HD
ENDBRANCH  30  31
ENDBRANCH  24  30
BRANCH  25  33
ATOM     33  O   UNL     1     -59.141  27.101 -17.491  1.00  0.00    -0.388 OA
ATOM     34  H   UNL     1     -58.993  28.075 -17.362  1.00  0.00     0.211 HD
ENDBRANCH  25  33
ENDBRANCH  11  20
BRANCH  10  35
ATOM     35  O   UNL     1     -53.778  27.242 -13.737  1.00  0.00    -0.507 OA
ATOM     36  H   UNL     1     -54.266  27.881 -14.356  1.00  0.00     0.293 HD
ENDBRANCH  10  35
TORSDOF 9
ENDMDL
MODEL 6
REMARK VINA RESULT:    -4.596      5.549      8.387
REMARK INTER + INTRA:          -7.343
REMARK INTER:                  -6.964
REMARK INTRA:                  -0.379
REMARK UNBOUND:                -1.135
REMARK SMILES O=c1c(-c2ccc(O)cc2)coc2c([C@@H]3O[C@@H](CO)[C@@H](O)[C@@H](O)[C@@H]3O)c(O)ccc12
REMARK SMILES IDX 3 1 11 2 12 3 13 4 30 5 2 6 1 7 29 8 28 9 26 10 14 11 4 12
REMARK SMILES IDX 5 13 6 14 7 15 10 16 9 17 8 18 15 20 24 21 16 22 22 23 17 24
REMARK SMILES IDX 20 25 25 26 23 28 18 30 19 31 21 33 27 35
REMARK H PARENT 8 19 25 27 23 29 19 32 21 34 27 36
REMARK Flexibility Score: inf
ROOT
ATOM      1  C   UNL     1     -56.908  23.238 -13.111  1.00  0.00     0.065 A 
ATOM      2  C   UNL     1     -56.059  22.128 -13.012  1.00  0.00     0.208 A 
ATOM      3  O   UNL     1     -56.229  21.221 -12.057  1.00  0.00    -0.463 OA
ATOM      4  C   UNL     1     -57.194  21.297 -11.144  1.00  0.00     0.147 A 
ATOM      5  C   UNL     1     -58.090  22.392 -11.162  1.00  0.00     0.066 A 
ATOM      6  C   UNL     1     -57.936  23.372 -12.159  1.00  0.00     0.200 A 
ATOM      7  O   UNL     1     -58.701  24.376 -12.189  1.00  0.00    -0.288 OA
ATOM      8  C   UNL     1     -59.094  22.482 -10.186  1.00  0.00     0.020 A 
ATOM      9  C   UNL     1     -59.200  21.507  -9.198  1.00  0.00     0.047 A 
ATOM     10  C   UNL     1     -58.318  20.420  -9.167  1.00  0.00     0.125 A 
ATOM     11  C   UNL     1     -57.316  20.289 -10.159  1.00  0.00     0.069 A 
ENDROOT
BRANCH   1  12
ATOM     12  C   UNL     1     -56.704  24.233 -14.192  1.00  0.00    -0.011 A 
ATOM     13  C   UNL     1     -57.683  25.205 -14.467  1.00  0.00     0.013 A 
ATOM     14  C   UNL     1     -57.488  26.134 -15.494  1.00  0.00     0.047 A 
ATOM     15  C   UNL     1     -56.317  26.102 -16.262  1.00  0.00     0.115 A 
ATOM     16  C   UNL     1     -55.534  24.203 -14.973  1.00  0.00     0.013 A 
ATOM     17  C   UNL     1     -55.343  25.133 -15.998  1.00  0.00     0.047 A 
BRANCH  15  18
ATOM     18  O   UNL     1     -56.112  27.023 -17.286  1.00  0.00    -0.508 OA
ATOM     19  H   UNL     1     -56.211  26.761 -18.260  1.00  0.00     0.293 HD
ENDBRANCH  15  18
ENDBRANCH   1  12
BRANCH  11  20
ATOM     20  C   UNL     1     -56.326  19.130 -10.137  1.00  0.00     0.188 C 
ATOM     21  C   UNL     1     -55.147  19.453  -9.197  1.00  0.00     0.179 C 
ATOM     22  O   UNL     1     -56.982  17.930  -9.752  1.00  0.00    -0.362 OA
ATOM     23  C   UNL     1     -54.133  18.294  -9.219  1.00  0.00     0.177 C 
ATOM     24  C   UNL     1     -56.133  16.791  -9.825  1.00  0.00     0.176 C 
ATOM     25  C   UNL     1     -54.850  16.959  -8.960  1.00  0.00     0.177 C 
BRANCH  21  26
ATOM     26  O   UNL     1     -55.617  19.650  -7.887  1.00  0.00    -0.387 OA
ATOM     27  H   UNL     1     -56.011  18.788  -7.591  1.00  0.00     0.211 HD
ENDBRANCH  21  26
BRANCH  23  28
ATOM     28  O   UNL     1     -53.460  18.256 -10.453  1.00  0.00    -0.387 OA
ATOM     29  H   UNL     1     -53.213  17.309 -10.617  1.00  0.00     0.211 HD
ENDBRANCH  23  28
BRANCH  24  30
ATOM     30  C   UNL     1     -55.889  16.348 -11.286  1.00  0.00     0.191 C 
BRANCH  30  31
ATOM     31  O   UNL     1     -55.484  15.008 -11.323  1.00  0.00    -0.394 OA
ATOM     32  H   UNL     1     -55.640  14.697 -12.253  1.00  0.00     0.210 HD
ENDBRANCH  30  31
ENDBRANCH  24  30
BRANCH  25  33
ATOM     33  O   UNL     1     -53.956  15.894  -9.157  1.00  0.00    -0.388 OA
ATOM     34  H   UNL     1     -53.209  16.245  -9.708  1.00  0.00     0.211 HD
ENDBRANCH  25  33
ENDBRANCH  11  20
BRANCH  10  35
ATOM     35  O   UNL     1     -58.436  19.477  -8.146  1.00  0.00    -0.507 OA
ATOM     36  H   UNL     1     -59.189  19.514  -7.468  1.00  0.00     0.293 HD
ENDBRANCH  10  35
TORSDOF 9
ENDMDL
MODEL 7
REMARK VINA RESULT:    -4.545      7.088      9.412
REMARK INTER + INTRA:          -7.275
REMARK INTER:                  -6.315
REMARK INTRA:                  -0.960
REMARK UNBOUND:                -1.135
REMARK SMILES O=c1c(-c2ccc(O)cc2)coc2c([C@@H]3O[C@@H](CO)[C@@H](O)[C@@H](O)[C@@H]3O)c(O)ccc12
REMARK SMILES IDX 3 1 11 2 12 3 13 4 30 5 2 6 1 7 29 8 28 9 26 10 14 11 4 12
REMARK SMILES IDX 5 13 6 14 7 15 10 16 9 17 8 18 15 20 24 21 16 22 22 23 17 24
REMARK SMILES IDX 20 25 25 26 23 28 18 30 19 31 21 33 27 35
REMARK H PARENT 8 19 25 27 23 29 19 32 21 34 27 36
REMARK Flexibility Score: inf
ROOT
ATOM      1  C   UNL     1     -51.770  25.212 -14.938  1.00  0.00     0.065 A 
ATOM      2  C   UNL     1     -53.113  25.029 -15.296  1.00  0.00     0.208 A 
ATOM      3  O   UNL     1     -54.081  25.693 -14.676  1.00  0.00    -0.463 OA
ATOM      4  C   UNL     1     -53.855  26.559 -13.691  1.00  0.00     0.147 A 
ATOM      5  C   UNL     1     -52.530  26.796 -13.257  1.00  0.00     0.066 A 
ATOM      6  C   UNL     1     -51.480  26.107 -13.892  1.00  0.00     0.200 A 
ATOM      7  O   UNL     1     -50.287  26.274 -13.512  1.00  0.00    -0.288 OA
ATOM      8  C   UNL     1     -52.295  27.694 -12.205  1.00  0.00     0.020 A 
ATOM      9  C   UNL     1     -53.361  28.338 -11.583  1.00  0.00     0.047 A 
ATOM     10  C   UNL     1     -54.678  28.111 -12.001  1.00  0.00     0.125 A 
ATOM     11  C   UNL     1     -54.939  27.234 -13.081  1.00  0.00     0.069 A 
ENDROOT
BRANCH   1  12
ATOM     12  C   UNL     1     -50.705  24.466 -15.652  1.00  0.00    -0.011 A 
ATOM     13  C   UNL     1     -50.323  23.180 -15.229  1.00  0.00     0.013 A 
ATOM     14  C   UNL     1     -49.311  22.486 -15.901  1.00  0.00     0.047 A 
ATOM     15  C   UNL     1     -48.666  23.069 -16.999  1.00  0.00     0.115 A 
ATOM     16  C   UNL     1     -50.046  25.047 -16.751  1.00  0.00     0.013 A 
ATOM     17  C   UNL     1     -49.036  24.351 -17.420  1.00  0.00     0.047 A 
BRANCH  15  18
ATOM     18  O   UNL     1     -47.658  22.387 -17.676  1.00  0.00    -0.508 OA
ATOM     19  H   UNL     1     -47.499  22.524 -18.667  1.00  0.00     0.293 HD
ENDBRANCH  15  18
ENDBRANCH   1  12
BRANCH  11  20
ATOM     20  C   UNL     1     -56.364  26.947 -13.542  1.00  0.00     0.188 C 
ATOM     21  C   UNL     1     -57.007  25.866 -12.649  1.00  0.00     0.179 C 
ATOM     22  O   UNL     1     -57.131  28.143 -13.542  1.00  0.00    -0.362 OA
ATOM     23  C   UNL     1     -58.428  25.554 -13.154  1.00  0.00     0.177 C 
ATOM     24  C   UNL     1     -58.437  27.959 -14.073  1.00  0.00     0.176 C 
ATOM     25  C   UNL     1     -59.230  26.857 -13.313  1.00  0.00     0.177 C 
BRANCH  21  26
ATOM     26  O   UNL     1     -57.061  26.313 -11.317  1.00  0.00    -0.387 OA
ATOM     27  H   UNL     1     -57.231  27.291 -11.350  1.00  0.00     0.211 HD
ENDBRANCH  21  26
BRANCH  23  28
ATOM     28  O   UNL     1     -58.373  24.862 -14.376  1.00  0.00    -0.387 OA
ATOM     29  H   UNL     1     -57.830  24.046 -14.220  1.00  0.00     0.211 HD
ENDBRANCH  23  28
BRANCH  24  30
ATOM     30  C   UNL     1     -58.417  27.813 -15.612  1.00  0.00     0.191 C 
BRANCH  30  31
ATOM     31  O   UNL     1     -58.357  29.075 -16.217  1.00  0.00    -0.394 OA
ATOM     32  H   UNL     1     -58.930  29.672 -15.668  1.00  0.00     0.210 HD
ENDBRANCH  30  31
ENDBRANCH  24  30
BRANCH  25  33
ATOM     33  O   UNL     1     -60.458  26.584 -13.938  1.00  0.00    -0.388 OA
ATOM     34  H   UNL     1     -61.082  27.309 -13.672  1.00  0.00     0.211 HD
ENDBRANCH  25  33
ENDBRANCH  11  20
BRANCH  10  35
ATOM     35  O   UNL     1     -55.723  28.751 -11.335  1.00  0.00    -0.507 OA
ATOM     36  H   UNL     1     -55.561  29.338 -10.524  1.00  0.00     0.293 HD
ENDBRANCH  10  35
TORSDOF 9
ENDMDL
MODEL 8
REMARK VINA RESULT:    -4.516      2.772      5.895
REMARK INTER + INTRA:          -7.236
REMARK INTER:                  -6.072
REMARK INTRA:                  -1.164
REMARK UNBOUND:                -1.135
REMARK SMILES O=c1c(-c2ccc(O)cc2)coc2c([C@@H]3O[C@@H](CO)[C@@H](O)[C@@H](O)[C@@H]3O)c(O)ccc12
REMARK SMILES IDX 3 1 11 2 12 3 13 4 30 5 2 6 1 7 29 8 28 9 26 10 14 11 4 12
REMARK SMILES IDX 5 13 6 14 7 15 10 16 9 17 8 18 15 20 24 21 16 22 22 23 17 24
REMARK SMILES IDX 20 25 25 26 23 28 18 30 19 31 21 33 27 35
REMARK H PARENT 8 19 25 27 23 29 19 32 21 34 27 36
REMARK Flexibility Score: inf
ROOT
ATOM      1  C   UNL     1     -57.477  17.483 -17.694  1.00  0.00     0.065 A 
ATOM      2  C   UNL     1     -56.308  16.740 -17.906  1.00  0.00     0.208 A 
ATOM      3  O   UNL     1     -55.151  17.121 -17.377  1.00  0.00    -0.463 OA
ATOM      4  C   UNL     1     -55.018  18.213 -16.627  1.00  0.00     0.147 A 
ATOM      5  C   UNL     1     -56.145  19.030 -16.373  1.00  0.00     0.066 A 
ATOM      6  C   UNL     1     -57.385  18.655 -16.920  1.00  0.00     0.200 A 
ATOM      7  O   UNL     1     -58.406  19.375 -16.736  1.00  0.00    -0.288 OA
ATOM      8  C   UNL     1     -55.999  20.191 -15.600  1.00  0.00     0.020 A 
ATOM      9  C   UNL     1     -54.750  20.545 -15.097  1.00  0.00     0.047 A 
ATOM     10  C   UNL     1     -53.626  19.747 -15.343  1.00  0.00     0.125 A 
ATOM     11  C   UNL     1     -53.752  18.554 -16.094  1.00  0.00     0.069 A 
ENDROOT
BRANCH   1  12
ATOM     12  C   UNL     1     -58.760  17.031 -18.287  1.00  0.00    -0.011 A 
ATOM     13  C   UNL     1     -59.591  16.130 -17.597  1.00  0.00     0.013 A 
ATOM     14  C   UNL     1     -60.794  15.701 -18.166  1.00  0.00     0.047 A 
ATOM     15  C   UNL     1     -61.180  16.162 -19.431  1.00  0.00     0.115 A 
ATOM     16  C   UNL     1     -59.152  17.484 -19.560  1.00  0.00     0.013 A 
ATOM     17  C   UNL     1     -60.355  17.053 -20.125  1.00  0.00     0.047 A 
BRANCH  15  18
ATOM     18  O   UNL     1     -62.377  15.742 -20.006  1.00  0.00    -0.508 OA
ATOM     19  H   UNL     1     -62.573  15.891 -20.989  1.00  0.00     0.293 HD
ENDBRANCH  15  18
ENDBRANCH   1  12
BRANCH  11  20
ATOM     20  C   UNL     1     -52.542  17.677 -16.399  1.00  0.00     0.188 C 
ATOM     21  C   UNL     1     -51.806  18.202 -17.649  1.00  0.00     0.179 C 
ATOM     22  O   UNL     1     -51.678  17.623 -15.273  1.00  0.00    -0.362 OA
ATOM     23  C   UNL     1     -50.614  17.282 -17.973  1.00  0.00     0.177 C 
ATOM     24  C   UNL     1     -50.589  16.727 -15.459  1.00  0.00     0.176 C 
ATOM     25  C   UNL     1     -49.746  17.080 -16.719  1.00  0.00     0.177 C 
BRANCH  21  26
ATOM     26  O   UNL     1     -51.350  19.512 -17.424  1.00  0.00    -0.387 OA
ATOM     27  H   UNL     1     -51.437  19.998 -18.285  1.00  0.00     0.211 HD
ENDBRANCH  21  26
BRANCH  23  28
ATOM     28  O   UNL     1     -51.069  16.043 -18.457  1.00  0.00    -0.387 OA
ATOM     29  H   UNL     1     -51.258  16.164 -19.424  1.00  0.00     0.211 HD
ENDBRANCH  23  28
BRANCH  24  30
ATOM     30  C   UNL     1     -51.035  15.250 -15.358  1.00  0.00     0.191 C 
BRANCH  30  31
ATOM     31  O   UNL     1     -49.976  14.456 -14.902  1.00  0.00    -0.394 OA
ATOM     32  H   UNL     1     -49.906  14.622 -13.925  1.00  0.00     0.210 HD
ENDBRANCH  30  31
ENDBRANCH  24  30
BRANCH  25  33
ATOM     33  O   UNL     1     -48.767  16.105 -16.971  1.00  0.00    -0.388 OA
ATOM     34  H   UNL     1     -49.043  15.288 -16.479  1.00  0.00     0.211 HD
ENDBRANCH  25  33
ENDBRANCH  11  20
BRANCH  10  35
ATOM     35  O   UNL     1     -52.385  20.148 -14.848  1.00  0.00    -0.507 OA
ATOM     36  H   UNL     1     -52.105  21.123 -14.832  1.00  0.00     0.293 HD
ENDBRANCH  10  35
TORSDOF 9
ENDMDL
MODEL 9
REMARK VINA RESULT:    -4.482      6.063      7.230
REMARK INTER + INTRA:          -7.190
REMARK INTER:                  -6.246
REMARK INTRA:                  -0.943
REMARK UNBOUND:                -1.135
REMARK SMILES O=c1c(-c2ccc(O)cc2)coc2c([C@@H]3O[C@@H](CO)[C@@H](O)[C@@H](O)[C@@H]3O)c(O)ccc12
REMARK SMILES IDX 3 1 11 2 12 3 13 4 30 5 2 6 1 7 29 8 28 9 26 10 14 11 4 12
REMARK SMILES IDX 5 13 6 14 7 15 10 16 9 17 8 18 15 20 24 21 16 22 22 23 17 24
REMARK SMILES IDX 20 25 25 26 23 28 18 30 19 31 21 33 27 35
REMARK H PARENT 8 19 25 27 23 29 19 32 21 34 27 36
REMARK Flexibility Score: inf
ROOT
ATOM      1  C   UNL     1     -56.134  21.723 -11.147  1.00  0.00     0.065 A 
ATOM      2  C   UNL     1     -56.968  22.770 -11.561  1.00  0.00     0.208 A 
ATOM      3  O   UNL     1     -56.574  23.630 -12.492  1.00  0.00    -0.463 OA
ATOM      4  C   UNL     1     -55.384  23.566 -13.085  1.00  0.00     0.147 A 
ATOM      5  C   UNL     1     -54.472  22.548 -12.718  1.00  0.00     0.066 A 
ATOM      6  C   UNL     1     -54.859  21.621 -11.733  1.00  0.00     0.200 A 
ATOM      7  O   UNL     1     -54.060  20.716 -11.362  1.00  0.00    -0.288 OA
ATOM      8  C   UNL     1     -53.210  22.495 -13.329  1.00  0.00     0.020 A 
ATOM      9  C   UNL     1     -52.852  23.445 -14.281  1.00  0.00     0.047 A 
ATOM     10  C   UNL     1     -53.744  24.459 -14.651  1.00  0.00     0.125 A 
ATOM     11  C   UNL     1     -55.034  24.517 -14.073  1.00  0.00     0.069 A 
ENDROOT
BRANCH   1  12
ATOM     12  C   UNL     1     -56.601  20.768 -10.112  1.00  0.00    -0.011 A 
ATOM     13  C   UNL     1     -56.686  19.392 -10.392  1.00  0.00     0.013 A 
ATOM     14  C   UNL     1     -57.137  18.499  -9.415  1.00  0.00     0.047 A 
ATOM     15  C   UNL     1     -57.511  18.968  -8.149  1.00  0.00     0.115 A 
ATOM     16  C   UNL     1     -56.986  21.231  -8.841  1.00  0.00     0.013 A 
ATOM     17  C   UNL     1     -57.435  20.336  -7.867  1.00  0.00     0.047 A 
BRANCH  15  18
ATOM     18  O   UNL     1     -57.960  18.087  -7.168  1.00  0.00    -0.508 OA
ATOM     19  H   UNL     1     -58.175  18.404  -6.230  1.00  0.00     0.293 HD
ENDBRANCH  15  18
ENDBRANCH   1  12
BRANCH  11  20
ATOM     20  C   UNL     1     -56.018  25.624 -14.438  1.00  0.00     0.188 C 
ATOM     21  C   UNL     1     -55.802  26.851 -13.528  1.00  0.00     0.179 C 
ATOM     22  O   UNL     1     -55.885  25.967 -15.811  1.00  0.00    -0.362 OA
ATOM     23  C   UNL     1     -56.830  27.942 -13.877  1.00  0.00     0.177 C 
ATOM     24  C   UNL     1     -56.856  26.914 -16.237  1.00  0.00     0.176 C 
ATOM     25  C   UNL     1     -56.815  28.219 -15.390  1.00  0.00     0.177 C 
BRANCH  21  26
ATOM     26  O   UNL     1     -54.499  27.351 -13.697  1.00  0.00    -0.387 OA
ATOM     27  H   UNL     1     -53.935  26.588 -13.989  1.00  0.00     0.211 HD
ENDBRANCH  21  26
BRANCH  23  28
ATOM     28  O   UNL     1     -58.116  27.554 -13.464  1.00  0.00    -0.387 OA
ATOM     29  H   UNL     1     -58.704  27.605 -14.262  1.00  0.00     0.211 HD
ENDBRANCH  23  28
BRANCH  24  30
ATOM     30  C   UNL     1     -58.255  26.274 -16.393  1.00  0.00     0.191 C 
BRANCH  30  31
ATOM     31  O   UNL     1     -59.005  26.979 -17.342  1.00  0.00    -0.394 OA
ATOM     32  H   UNL     1     -59.958  26.780 -17.145  1.00  0.00     0.210 HD
ENDBRANCH  30  31
ENDBRANCH  24  30
BRANCH  25  33
ATOM     33  O   UNL     1     -57.872  29.082 -15.725  1.00  0.00    -0.388 OA
ATOM     34  H   UNL     1     -57.773  29.890 -15.157  1.00  0.00     0.211 HD
ENDBRANCH  25  33
ENDBRANCH  11  20
BRANCH  10  35
ATOM     35  O   UNL     1     -53.340  25.412 -15.587  1.00  0.00    -0.507 OA
ATOM     36  H   UNL     1     -53.327  25.212 -16.581  1.00  0.00     0.293 HD
ENDBRANCH  10  35
TORSDOF 9
ENDMDL
