MODEL 1
REMARK VINA RESULT:    -3.462      0.000      0.000
REMARK INTER + INTRA:          -4.098
REMARK INTER:                  -4.069
REMARK INTRA:                  -0.029
REMARK UNBOUND:                -0.029
REMARK SMILES O=C([O-])CCC(=O)[O-]
REMARK SMILES IDX 4 1 2 2 1 3 3 4 5 5 6 6 7 7 8 8
REMARK H PARENT
REMARK Flexibility Score: inf
ROOT
ATOM      1  C   UNL     1     135.958 136.275 129.980  1.00  0.00     0.059 C 
ENDROOT
BRANCH   1   2
ATOM      2  C   UNL     1     137.055 136.266 128.961  1.00  0.00     0.042 C 
ATOM      3  O   UNL     1     138.111 136.923 129.161  1.00  0.00    -0.550 OA
ATOM      4  O   UNL     1     136.931 135.498 127.810  1.00  0.00    -0.550 OA
ENDBRANCH   1   2
BRANCH   1   5
ATOM      5  C   UNL     1     135.986 135.016 130.853  1.00  0.00     0.059 C 
BRANCH   5   6
ATOM      6  C   UNL     1     134.740 134.888 131.675  1.00  0.00     0.042 C 
ATOM      7  O   UNL     1     134.317 133.751 132.011  1.00  0.00    -0.550 OA
ATOM      8  O   UNL     1     134.025 136.023 132.035  1.00  0.00    -0.550 OA
ENDBRANCH   5   6
ENDBRANCH   1   5
TORSDOF 3
ENDMDL
MODEL 2
REMARK VINA RESULT:    -3.443      1.942      2.351
REMARK INTER + INTRA:          -4.076
REMARK INTER:                  -3.993
REMARK INTRA:                  -0.083
REMARK UNBOUND:                -0.029
REMARK SMILES O=C([O-])CCC(=O)[O-]
REMARK SMILES IDX 4 1 2 2 1 3 3 4 5 5 6 6 7 7 8 8
REMARK H PARENT
REMARK Flexibility Score: inf
ROOT
ATOM      1  C   UNL     1     135.141 136.249 130.796  1.00  0.00     0.059 C 
ENDROOT
BRANCH   1   2
ATOM      2  C   UNL     1     136.309 137.102 131.181  1.00  0.00     0.042 C 
ATOM      3  O   UNL     1     136.272 137.787 132.238  1.00  0.00    -0.550 OA
ATOM      4  O   UNL     1     137.456 137.109 130.398  1.00  0.00    -0.550 OA
ENDBRANCH   1   2
BRANCH   1   5
ATOM      5  C   UNL     1     134.342 135.795 132.022  1.00  0.00     0.059 C 
BRANCH   5   6
ATOM      6  C   UNL     1     134.548 134.338 132.306  1.00  0.00     0.042 C 
ATOM      7  O   UNL     1     135.194 133.620 131.498  1.00  0.00    -0.550 OA
ATOM      8  O   UNL     1     133.991 133.767 133.443  1.00  0.00    -0.550 OA
ENDBRANCH   5   6
ENDBRANCH   1   5
TORSDOF 3
ENDMDL
MODEL 3
REMARK VINA RESULT:    -3.443      1.982      2.453
REMARK INTER + INTRA:          -4.076
REMARK INTER:                  -3.990
REMARK INTRA:                  -0.086
REMARK UNBOUND:                -0.029
REMARK SMILES O=C([O-])CCC(=O)[O-]
REMARK SMILES IDX 4 1 2 2 1 3 3 4 5 5 6 6 7 7 8 8
REMARK H PARENT
REMARK Flexibility Score: inf
ROOT
ATOM      1  C   UNL     1     135.162 136.257 130.817  1.00  0.00     0.059 C 
ENDROOT
BRANCH   1   2
ATOM      2  C   UNL     1     136.321 137.083 131.284  1.00  0.00     0.042 C 
ATOM      3  O   UNL     1     136.251 137.715 132.371  1.00  0.00    -0.550 OA
ATOM      4  O   UNL     1     137.494 137.121 130.540  1.00  0.00    -0.550 OA
ENDBRANCH   1   2
BRANCH   1   5
ATOM      5  C   UNL     1     134.292 135.789 131.988  1.00  0.00     0.059 C 
BRANCH   5   6
ATOM      6  C   UNL     1     134.521 134.342 132.302  1.00  0.00     0.042 C 
ATOM      7  O   UNL     1     134.073 133.846 133.368  1.00  0.00    -0.550 OA
ATOM      8  O   UNL     1     135.264 133.552 131.434  1.00  0.00    -0.550 OA
ENDBRANCH   5   6
ENDBRANCH   1   5
TORSDOF 3
ENDMDL
MODEL 4
REMARK VINA RESULT:    -3.434      1.954      4.227
REMARK INTER + INTRA:          -4.065
REMARK INTER:                  -3.988
REMARK INTRA:                  -0.078
REMARK UNBOUND:                -0.029
REMARK SMILES O=C([O-])CCC(=O)[O-]
REMARK SMILES IDX 4 1 2 2 1 3 3 4 5 5 6 6 7 7 8 8
REMARK H PARENT
REMARK Flexibility Score: inf
ROOT
ATOM      1  C   UNL     1     134.371 135.777 132.034  1.00  0.00     0.059 C 
ENDROOT
BRANCH   1   2
ATOM      2  C   UNL     1     134.516 134.309 132.294  1.00  0.00     0.042 C 
ATOM      3  O   UNL     1     135.182 133.589 131.504  1.00  0.00    -0.550 OA
ATOM      4  O   UNL     1     133.951 133.744 133.430  1.00  0.00    -0.550 OA
ENDBRANCH   1   2
BRANCH   1   5
ATOM      5  C   UNL     1     135.194 136.221 130.820  1.00  0.00     0.059 C 
BRANCH   5   6
ATOM      6  C   UNL     1     136.351 137.084 131.224  1.00  0.00     0.042 C 
ATOM      7  O   UNL     1     136.270 137.814 132.246  1.00  0.00    -0.550 OA
ATOM      8  O   UNL     1     137.502 137.111 130.447  1.00  0.00    -0.550 OA
ENDBRANCH   5   6
ENDBRANCH   1   5
TORSDOF 3
ENDMDL
MODEL 5
REMARK VINA RESULT:    -3.415      0.150      4.361
REMARK INTER + INTRA:          -4.043
REMARK INTER:                  -4.013
REMARK INTRA:                  -0.030
REMARK UNBOUND:                -0.029
REMARK SMILES O=C([O-])CCC(=O)[O-]
REMARK SMILES IDX 4 1 2 2 1 3 3 4 5 5 6 6 7 7 8 8
REMARK H PARENT
REMARK Flexibility Score: inf
ROOT
ATOM      1  C   UNL     1     135.915 134.924 130.846  1.00  0.00     0.059 C 
ENDROOT
BRANCH   1   2
ATOM      2  C   UNL     1     134.731 134.845 131.759  1.00  0.00     0.042 C 
ATOM      3  O   UNL     1     134.451 133.765 132.342  1.00  0.00    -0.550 OA
ATOM      4  O   UNL     1     133.961 135.976 132.001  1.00  0.00    -0.550 OA
ENDBRANCH   1   2
BRANCH   1   5
ATOM      5  C   UNL     1     135.914 136.220 130.029  1.00  0.00     0.059 C 
BRANCH   5   6
ATOM      6  C   UNL     1     137.013 136.230 129.011  1.00  0.00     0.042 C 
ATOM      7  O   UNL     1     138.036 136.943 129.189  1.00  0.00    -0.550 OA
ATOM      8  O   UNL     1     136.889 135.483 127.846  1.00  0.00    -0.550 OA
ENDBRANCH   5   6
ENDBRANCH   1   5
TORSDOF 3
ENDMDL
MODEL 6
REMARK VINA RESULT:    -3.321      1.179      4.235
REMARK INTER + INTRA:          -3.933
REMARK INTER:                  -3.847
REMARK INTRA:                  -0.085
REMARK UNBOUND:                -0.029
REMARK SMILES O=C([O-])CCC(=O)[O-]
REMARK SMILES IDX 4 1 2 2 1 3 3 4 5 5 6 6 7 7 8 8
REMARK H PARENT
REMARK Flexibility Score: inf
ROOT
ATOM      1  C   UNL     1     135.416 134.185 131.361  1.00  0.00     0.059 C 
ENDROOT
BRANCH   1   2
ATOM      2  C   UNL     1     134.422 134.636 132.386  1.00  0.00     0.042 C 
ATOM      3  O   UNL     1     133.895 135.777 132.299  1.00  0.00    -0.550 OA
ATOM      4  O   UNL     1     134.044 133.781 133.414  1.00  0.00    -0.550 OA
ENDBRANCH   1   2
BRANCH   1   5
ATOM      5  C   UNL     1     136.624 135.126 131.293  1.00  0.00     0.059 C 
BRANCH   5   6
ATOM      6  C   UNL     1     136.517 136.078 130.141  1.00  0.00     0.042 C 
ATOM      7  O   UNL     1     136.227 137.287 130.344  1.00  0.00    -0.550 OA
ATOM      8  O   UNL     1     136.697 135.621 128.842  1.00  0.00    -0.550 OA
ENDBRANCH   5   6
ENDBRANCH   1   5
TORSDOF 3
ENDMDL
MODEL 7
REMARK VINA RESULT:    -3.163      2.461      3.219
REMARK INTER + INTRA:          -3.746
REMARK INTER:                  -3.566
REMARK INTRA:                  -0.180
REMARK UNBOUND:                -0.029
REMARK SMILES O=C([O-])CCC(=O)[O-]
REMARK SMILES IDX 4 1 2 2 1 3 3 4 5 5 6 6 7 7 8 8
REMARK H PARENT
REMARK Flexibility Score: inf
ROOT
ATOM      1  C   UNL     1     134.214 134.386 131.774  1.00  0.00     0.059 C 
ENDROOT
BRANCH   1   2
ATOM      2  C   UNL     1     135.393 135.210 131.358  1.00  0.00     0.042 C 
ATOM      3  O   UNL     1     136.553 134.722 131.399  1.00  0.00    -0.550 OA
ATOM      4  O   UNL     1     135.207 136.503 130.885  1.00  0.00    -0.550 OA
ENDBRANCH   1   2
BRANCH   1   5
ATOM      5  C   UNL     1     134.342 133.905 133.223  1.00  0.00     0.059 C 
BRANCH   5   6
ATOM      6  C   UNL     1     134.448 135.055 134.178  1.00  0.00     0.042 C 
ATOM      7  O   UNL     1     133.503 135.880 134.284  1.00  0.00    -0.550 OA
ATOM      8  O   UNL     1     135.607 135.236 134.922  1.00  0.00    -0.550 OA
ENDBRANCH   5   6
ENDBRANCH   1   5
TORSDOF 3
ENDMDL
MODEL 8
REMARK VINA RESULT:    -3.014      1.908      4.325
REMARK INTER + INTRA:          -3.572
REMARK INTER:                  -3.538
REMARK INTRA:                  -0.033
REMARK UNBOUND:                -0.029
REMARK SMILES O=C([O-])CCC(=O)[O-]
REMARK SMILES IDX 4 1 2 2 1 3 3 4 5 5 6 6 7 7 8 8
REMARK H PARENT
REMARK Flexibility Score: inf
ROOT
ATOM      1  C   UNL     1     134.941 134.349 133.109  1.00  0.00     0.059 C 
ENDROOT
BRANCH   1   2
ATOM      2  C   UNL     1     134.029 135.521 133.295  1.00  0.00     0.042 C 
ATOM      3  O   UNL     1     133.655 135.856 134.450  1.00  0.00    -0.550 OA
ATOM      4  O   UNL     1     133.625 136.270 132.197  1.00  0.00    -0.550 OA
ENDBRANCH   1   2
BRANCH   1   5
ATOM      5  C   UNL     1     135.230 134.086 131.627  1.00  0.00     0.059 C 
BRANCH   5   6
ATOM      6  C   UNL     1     136.403 134.883 131.144  1.00  0.00     0.042 C 
ATOM      7  O   UNL     1     137.394 135.072 131.897  1.00  0.00    -0.550 OA
ATOM      8  O   UNL     1     136.382 135.452 129.877  1.00  0.00    -0.550 OA
ENDBRANCH   5   6
ENDBRANCH   1   5
TORSDOF 3
ENDMDL
MODEL 9
REMARK VINA RESULT:    -3.009      2.366      4.731
REMARK INTER + INTRA:          -3.566
REMARK INTER:                  -3.454
REMARK INTRA:                  -0.112
REMARK UNBOUND:                -0.029
REMARK SMILES O=C([O-])CCC(=O)[O-]
REMARK SMILES IDX 4 1 2 2 1 3 3 4 5 5 6 6 7 7 8 8
REMARK H PARENT
REMARK Flexibility Score: inf
ROOT
ATOM      1  C   UNL     1     134.024 135.798 133.098  1.00  0.00     0.059 C 
ENDROOT
BRANCH   1   2
ATOM      2  C   UNL     1     134.413 135.597 134.530  1.00  0.00     0.042 C 
ATOM      3  O   UNL     1     133.599 135.869 135.452  1.00  0.00    -0.550 OA
ATOM      4  O   UNL     1     135.658 135.067 134.846  1.00  0.00    -0.550 OA
ENDBRANCH   1   2
BRANCH   1   5
ATOM      5  C   UNL     1     135.248 136.045 132.209  1.00  0.00     0.059 C 
BRANCH   5   6
ATOM      6  C   UNL     1     135.523 134.876 131.312  1.00  0.00     0.042 C 
ATOM      7  O   UNL     1     135.062 133.739 131.595  1.00  0.00    -0.550 OA
ATOM      8  O   UNL     1     136.321 135.036 130.187  1.00  0.00    -0.550 OA
ENDBRANCH   5   6
ENDBRANCH   1   5
TORSDOF 3
ENDMDL
