MODEL 1
REMARK VINA RESULT:    -5.263      0.000      0.000
REMARK INTER + INTRA:         -10.865
REMARK INTER:                  -9.570
REMARK INTRA:                  -1.296
REMARK UNBOUND:                -1.296
REMARK SMILES CCCCCCCCCCCCCCCC(=O)[O-]
REMARK SMILES IDX 9 1 10 2 11 3 12 4 13 5 14 6 15 7 16 8 17 9 18 10 8 11 7 12
REMARK SMILES IDX 6 13 5 14 4 15 3 16 2 17 1 18
REMARK H PARENT
REMARK Flexibility Score: inf
ROOT
ATOM      1  C   UNL     1      12.482 -19.104 -26.937  1.00  0.00     0.000 C 
ENDROOT
BRANCH   1   2
ATOM      2  C   UNL     1      11.800 -19.108 -25.552  1.00  0.00     0.000 C 
BRANCH   2   3
ATOM      3  C   UNL     1      10.776 -17.974 -25.397  1.00  0.00     0.000 C 
BRANCH   3   4
ATOM      4  C   UNL     1      10.249 -17.517 -26.763  1.00  0.00     0.000 C 
BRANCH   4   5
ATOM      5  C   UNL     1       8.734 -17.739 -26.871  1.00  0.00     0.000 C 
BRANCH   5   6
ATOM      6  C   UNL     1       8.234 -17.798 -28.326  1.00  0.00     0.006 C 
BRANCH   6   7
ATOM      7  C   UNL     1       9.187 -17.143 -29.341  1.00  0.00     0.053 C 
BRANCH   7   8
ATOM      8  C   UNL     1       8.472 -16.593 -30.537  1.00  0.00     0.041 C 
ATOM      9  O   UNL     1       8.482 -17.222 -31.628  1.00  0.00    -0.550 OA
ATOM     10  O   UNL     1       7.820 -15.370 -30.455  1.00  0.00    -0.550 OA
ENDBRANCH   7   8
ENDBRANCH   6   7
ENDBRANCH   5   6
ENDBRANCH   4   5
ENDBRANCH   3   4
ENDBRANCH   2   3
ENDBRANCH   1   2
BRANCH   1  11
ATOM     11  C   UNL     1      12.390 -20.451 -27.679  1.00  0.00     0.000 C 
BRANCH  11  12
ATOM     12  C   UNL     1      12.102 -21.672 -26.785  1.00  0.00    -0.000 C 
BRANCH  12  13
ATOM     13  C   UNL     1      12.139 -23.030 -27.512  1.00  0.00    -0.000 C 
BRANCH  13  14
ATOM     14  C   UNL     1      12.090 -22.891 -29.042  1.00  0.00    -0.000 C 
BRANCH  14  15
ATOM     15  C   UNL     1      13.462 -23.108 -29.704  1.00  0.00    -0.000 C 
BRANCH  15  16
ATOM     16  C   UNL     1      14.477 -23.899 -28.854  1.00  0.00    -0.000 C 
BRANCH  16  17
ATOM     17  C   UNL     1      15.761 -23.131 -28.492  1.00  0.00    -0.003 C 
ATOM     18  C   UNL     1      15.871 -22.828 -26.998  1.00  0.00     0.004 C 
ENDBRANCH  16  17
ENDBRANCH  15  16
ENDBRANCH  14  15
ENDBRANCH  13  14
ENDBRANCH  12  13
ENDBRANCH  11  12
ENDBRANCH   1  11
TORSDOF 14
ENDMDL
MODEL 2
REMARK VINA RESULT:    -5.172      1.542      2.481
REMARK INTER + INTRA:         -10.701
REMARK INTER:                  -9.882
REMARK INTRA:                  -0.819
REMARK UNBOUND:                -1.296
REMARK SMILES CCCCCCCCCCCCCCCC(=O)[O-]
REMARK SMILES IDX 9 1 10 2 11 3 12 4 13 5 14 6 15 7 16 8 17 9 18 10 8 11 7 12
REMARK SMILES IDX 6 13 5 14 4 15 3 16 2 17 1 18
REMARK H PARENT
REMARK Flexibility Score: inf
ROOT
ATOM      1  C   UNL     1      12.029 -20.831 -27.768  1.00  0.00     0.000 C 
ENDROOT
BRANCH   1   2
ATOM      2  C   UNL     1      12.468 -19.523 -27.074  1.00  0.00     0.000 C 
BRANCH   2   3
ATOM      3  C   UNL     1      11.622 -19.202 -25.833  1.00  0.00     0.000 C 
BRANCH   3   4
ATOM      4  C   UNL     1      10.910 -17.852 -25.986  1.00  0.00     0.000 C 
BRANCH   4   5
ATOM      5  C   UNL     1       9.585 -18.012 -26.746  1.00  0.00     0.000 C 
BRANCH   5   6
ATOM      6  C   UNL     1       9.646 -17.472 -28.186  1.00  0.00     0.006 C 
BRANCH   6   7
ATOM      7  C   UNL     1       8.279 -17.051 -28.755  1.00  0.00     0.053 C 
BRANCH   7   8
ATOM      8  C   UNL     1       8.348 -16.654 -30.198  1.00  0.00     0.041 C 
ATOM      9  O   UNL     1       9.309 -17.036 -30.917  1.00  0.00    -0.550 OA
ATOM     10  O   UNL     1       7.366 -15.837 -30.742  1.00  0.00    -0.550 OA
ENDBRANCH   7   8
ENDBRANCH   6   7
ENDBRANCH   5   6
ENDBRANCH   4   5
ENDBRANCH   3   4
ENDBRANCH   2   3
ENDBRANCH   1   2
BRANCH   1  11
ATOM     11  C   UNL     1      11.963 -22.044 -26.821  1.00  0.00     0.000 C 
BRANCH  11  12
ATOM     12  C   UNL     1      13.215 -22.941 -26.817  1.00  0.00    -0.000 C 
BRANCH  12  13
ATOM     13  C   UNL     1      14.189 -22.701 -27.986  1.00  0.00    -0.000 C 
BRANCH  13  14
ATOM     14  C   UNL     1      15.485 -23.518 -27.863  1.00  0.00    -0.000 C 
BRANCH  14  15
ATOM     15  C   UNL     1      16.387 -23.032 -26.715  1.00  0.00    -0.000 C 
BRANCH  15  16
ATOM     16  C   UNL     1      16.806 -24.125 -25.710  1.00  0.00    -0.000 C 
BRANCH  16  17
ATOM     17  C   UNL     1      17.518 -23.609 -24.446  1.00  0.00    -0.003 C 
ATOM     18  C   UNL     1      16.939 -24.191 -23.158  1.00  0.00     0.004 C 
ENDBRANCH  16  17
ENDBRANCH  15  16
ENDBRANCH  14  15
ENDBRANCH  13  14
ENDBRANCH  12  13
ENDBRANCH  11  12
ENDBRANCH   1  11
TORSDOF 14
ENDMDL
MODEL 3
REMARK VINA RESULT:    -5.128      5.350      9.340
REMARK INTER + INTRA:         -10.621
REMARK INTER:                  -9.611
REMARK INTRA:                  -1.010
REMARK UNBOUND:                -1.296
REMARK SMILES CCCCCCCCCCCCCCCC(=O)[O-]
REMARK SMILES IDX 9 1 10 2 11 3 12 4 13 5 14 6 15 7 16 8 17 9 18 10 8 11 7 12
REMARK SMILES IDX 6 13 5 14 4 15 3 16 2 17 1 18
REMARK H PARENT
REMARK Flexibility Score: inf
ROOT
ATOM      1  C   UNL     1      15.458 -23.032 -27.586  1.00  0.00     0.000 C 
ENDROOT
BRANCH   1   2
ATOM      2  C   UNL     1      16.859 -23.680 -27.622  1.00  0.00     0.000 C 
BRANCH   2   3
ATOM      3  C   UNL     1      17.314 -24.178 -26.242  1.00  0.00     0.000 C 
BRANCH   3   4
ATOM      4  C   UNL     1      17.688 -25.664 -26.289  1.00  0.00     0.000 C 
BRANCH   4   5
ATOM      5  C   UNL     1      18.662 -25.951 -27.441  1.00  0.00     0.000 C 
BRANCH   5   6
ATOM      6  C   UNL     1      18.265 -27.183 -28.275  1.00  0.00     0.006 C 
BRANCH   6   7
ATOM      7  C   UNL     1      16.964 -27.002 -29.077  1.00  0.00     0.053 C 
BRANCH   7   8
ATOM      8  C   UNL     1      16.045 -28.180 -28.965  1.00  0.00     0.041 C 
ATOM      9  O   UNL     1      15.246 -28.454 -29.898  1.00  0.00    -0.550 OA
ATOM     10  O   UNL     1      16.048 -28.956 -27.813  1.00  0.00    -0.550 OA
ENDBRANCH   7   8
ENDBRANCH   6   7
ENDBRANCH   5   6
ENDBRANCH   4   5
ENDBRANCH   3   4
ENDBRANCH   2   3
ENDBRANCH   1   2
BRANCH   1  11
ATOM     11  C   UNL     1      14.530 -23.493 -28.725  1.00  0.00     0.000 C 
BRANCH  11  12
ATOM     12  C   UNL     1      13.141 -22.827 -28.748  1.00  0.00    -0.000 C 
BRANCH  12  13
ATOM     13  C   UNL     1      12.150 -23.359 -27.695  1.00  0.00    -0.000 C 
BRANCH  13  14
ATOM     14  C   UNL     1      11.997 -22.418 -26.489  1.00  0.00    -0.000 C 
BRANCH  14  15
ATOM     15  C   UNL     1      12.443 -20.978 -26.797  1.00  0.00    -0.000 C 
BRANCH  15  16
ATOM     16  C   UNL     1      11.582 -19.876 -26.146  1.00  0.00    -0.000 C 
BRANCH  16  17
ATOM     17  C   UNL     1      12.323 -18.560 -25.850  1.00  0.00    -0.003 C 
ATOM     18  C   UNL     1      12.737 -18.428 -24.385  1.00  0.00     0.004 C 
ENDBRANCH  16  17
ENDBRANCH  15  16
ENDBRANCH  14  15
ENDBRANCH  13  14
ENDBRANCH  12  13
ENDBRANCH  11  12
ENDBRANCH   1  11
TORSDOF 14
ENDMDL
MODEL 4
REMARK VINA RESULT:    -5.084      3.339      5.841
REMARK INTER + INTRA:         -10.541
REMARK INTER:                  -9.312
REMARK INTRA:                  -1.229
REMARK UNBOUND:                -1.296
REMARK SMILES CCCCCCCCCCCCCCCC(=O)[O-]
REMARK SMILES IDX 9 1 10 2 11 3 12 4 13 5 14 6 15 7 16 8 17 9 18 10 8 11 7 12
REMARK SMILES IDX 6 13 5 14 4 15 3 16 2 17 1 18
REMARK H PARENT
REMARK Flexibility Score: inf
ROOT
ATOM      1  C   UNL     1      14.966 -23.468 -28.370  1.00  0.00     0.000 C 
ENDROOT
BRANCH   1   2
ATOM      2  C   UNL     1      13.635 -22.687 -28.406  1.00  0.00     0.000 C 
BRANCH   2   3
ATOM      3  C   UNL     1      12.827 -22.840 -27.109  1.00  0.00     0.000 C 
BRANCH   3   4
ATOM      4  C   UNL     1      12.032 -21.565 -26.801  1.00  0.00     0.000 C 
BRANCH   4   5
ATOM      5  C   UNL     1      12.036 -20.610 -28.004  1.00  0.00     0.000 C 
BRANCH   5   6
ATOM      6  C   UNL     1      12.175 -19.131 -27.601  1.00  0.00     0.006 C 
BRANCH   6   7
ATOM      7  C   UNL     1      12.713 -18.920 -26.174  1.00  0.00     0.053 C 
BRANCH   7   8
ATOM      8  C   UNL     1      11.686 -18.348 -25.245  1.00  0.00     0.041 C 
ATOM      9  O   UNL     1      10.462 -18.418 -25.531  1.00  0.00    -0.550 OA
ATOM     10  O   UNL     1      12.083 -17.710 -24.077  1.00  0.00    -0.550 OA
ENDBRANCH   7   8
ENDBRANCH   6   7
ENDBRANCH   5   6
ENDBRANCH   4   5
ENDBRANCH   3   4
ENDBRANCH   2   3
ENDBRANCH   1   2
BRANCH   1  11
ATOM     11  C   UNL     1      15.888 -23.072 -27.202  1.00  0.00     0.000 C 
BRANCH  11  12
ATOM     12  C   UNL     1      17.284 -23.723 -27.220  1.00  0.00    -0.000 C 
BRANCH  12  13
ATOM     13  C   UNL     1      18.448 -22.771 -26.887  1.00  0.00    -0.000 C 
BRANCH  13  14
ATOM     14  C   UNL     1      19.244 -23.209 -25.647  1.00  0.00    -0.000 C 
BRANCH  14  15
ATOM     15  C   UNL     1      18.807 -22.473 -24.369  1.00  0.00    -0.000 C 
BRANCH  15  16
ATOM     16  C   UNL     1      18.243 -23.380 -23.256  1.00  0.00    -0.000 C 
BRANCH  16  17
ATOM     17  C   UNL     1      17.569 -24.673 -23.750  1.00  0.00    -0.003 C 
ATOM     18  C   UNL     1      16.050 -24.651 -23.589  1.00  0.00     0.004 C 
ENDBRANCH  16  17
ENDBRANCH  15  16
ENDBRANCH  14  15
ENDBRANCH  13  14
ENDBRANCH  12  13
ENDBRANCH  11  12
ENDBRANCH   1  11
TORSDOF 14
ENDMDL
MODEL 5
REMARK VINA RESULT:    -5.015      5.371      9.369
REMARK INTER + INTRA:         -10.415
REMARK INTER:                  -9.000
REMARK INTRA:                  -1.415
REMARK UNBOUND:                -1.296
REMARK SMILES CCCCCCCCCCCCCCCC(=O)[O-]
REMARK SMILES IDX 9 1 10 2 11 3 12 4 13 5 14 6 15 7 16 8 17 9 18 10 8 11 7 12
REMARK SMILES IDX 6 13 5 14 4 15 3 16 2 17 1 18
REMARK H PARENT
REMARK Flexibility Score: inf
ROOT
ATOM      1  C   UNL     1      16.942 -22.994 -26.730  1.00  0.00     0.000 C 
ENDROOT
BRANCH   1   2
ATOM      2  C   UNL     1      17.284 -24.009 -25.619  1.00  0.00     0.000 C 
BRANCH   2   3
ATOM      3  C   UNL     1      18.574 -24.789 -25.910  1.00  0.00     0.000 C 
BRANCH   3   4
ATOM      4  C   UNL     1      18.978 -24.655 -27.383  1.00  0.00     0.000 C 
BRANCH   4   5
ATOM      5  C   UNL     1      19.244 -26.032 -28.009  1.00  0.00     0.000 C 
BRANCH   5   6
ATOM      6  C   UNL     1      18.098 -27.033 -27.773  1.00  0.00     0.006 C 
BRANCH   6   7
ATOM      7  C   UNL     1      16.978 -26.961 -28.827  1.00  0.00     0.053 C 
BRANCH   7   8
ATOM      8  C   UNL     1      16.061 -28.145 -28.779  1.00  0.00     0.041 C 
ATOM      9  O   UNL     1      15.153 -28.281 -29.641  1.00  0.00    -0.550 OA
ATOM     10  O   UNL     1      16.188 -29.083 -27.762  1.00  0.00    -0.550 OA
ENDBRANCH   7   8
ENDBRANCH   6   7
ENDBRANCH   5   6
ENDBRANCH   4   5
ENDBRANCH   3   4
ENDBRANCH   2   3
ENDBRANCH   1   2
BRANCH   1  11
ATOM     11  C   UNL     1      15.462 -23.009 -27.154  1.00  0.00     0.000 C 
BRANCH  11  12
ATOM     12  C   UNL     1      15.192 -23.549 -28.571  1.00  0.00    -0.000 C 
BRANCH  12  13
ATOM     13  C   UNL     1      13.811 -23.187 -29.151  1.00  0.00    -0.000 C 
BRANCH  13  14
ATOM     14  C   UNL     1      12.668 -24.008 -28.531  1.00  0.00    -0.000 C 
BRANCH  14  15
ATOM     15  C   UNL     1      11.603 -23.129 -27.854  1.00  0.00    -0.000 C 
BRANCH  15  16
ATOM     16  C   UNL     1      12.080 -22.385 -26.589  1.00  0.00    -0.000 C 
BRANCH  16  17
ATOM     17  C   UNL     1      12.077 -20.850 -26.697  1.00  0.00    -0.003 C 
ATOM     18  C   UNL     1      11.939 -20.355 -28.136  1.00  0.00     0.004 C 
ENDBRANCH  16  17
ENDBRANCH  15  16
ENDBRANCH  14  15
ENDBRANCH  13  14
ENDBRANCH  12  13
ENDBRANCH  11  12
ENDBRANCH   1  11
TORSDOF 14
ENDMDL
MODEL 6
REMARK VINA RESULT:    -4.992      2.897      5.738
REMARK INTER + INTRA:         -10.374
REMARK INTER:                  -8.810
REMARK INTRA:                  -1.563
REMARK UNBOUND:                -1.296
REMARK SMILES CCCCCCCCCCCCCCCC(=O)[O-]
REMARK SMILES IDX 9 1 10 2 11 3 12 4 13 5 14 6 15 7 16 8 17 9 18 10 8 11 7 12
REMARK SMILES IDX 6 13 5 14 4 15 3 16 2 17 1 18
REMARK H PARENT
REMARK Flexibility Score: inf
ROOT
ATOM      1  C   UNL     1      16.012 -23.451 -28.615  1.00  0.00     0.000 C 
ENDROOT
BRANCH   1   2
ATOM      2  C   UNL     1      14.713 -24.053 -29.192  1.00  0.00     0.000 C 
BRANCH   2   3
ATOM      3  C   UNL     1      13.523 -23.087 -29.097  1.00  0.00     0.000 C 
BRANCH   3   4
ATOM      4  C   UNL     1      12.383 -23.697 -28.272  1.00  0.00     0.000 C 
BRANCH   4   5
ATOM      5  C   UNL     1      11.964 -22.758 -27.132  1.00  0.00     0.000 C 
BRANCH   5   6
ATOM      6  C   UNL     1      12.718 -21.416 -27.148  1.00  0.00     0.006 C 
BRANCH   6   7
ATOM      7  C   UNL     1      11.844 -20.203 -26.781  1.00  0.00     0.053 C 
BRANCH   7   8
ATOM      8  C   UNL     1      11.735 -19.208 -27.897  1.00  0.00     0.041 C 
ATOM      9  O   UNL     1      10.954 -19.418 -28.862  1.00  0.00    -0.550 OA
ATOM     10  O   UNL     1      12.521 -18.063 -27.886  1.00  0.00    -0.550 OA
ENDBRANCH   7   8
ENDBRANCH   6   7
ENDBRANCH   5   6
ENDBRANCH   4   5
ENDBRANCH   3   4
ENDBRANCH   2   3
ENDBRANCH   1   2
BRANCH   1  11
ATOM     11  C   UNL     1      15.886 -22.988 -27.151  1.00  0.00     0.000 C 
BRANCH  11  12
ATOM     12  C   UNL     1      17.162 -23.145 -26.303  1.00  0.00    -0.000 C 
BRANCH  12  13
ATOM     13  C   UNL     1      17.096 -24.247 -25.229  1.00  0.00    -0.000 C 
BRANCH  13  14
ATOM     14  C   UNL     1      18.061 -25.412 -25.506  1.00  0.00    -0.000 C 
BRANCH  14  15
ATOM     15  C   UNL     1      18.926 -25.182 -26.758  1.00  0.00    -0.000 C 
BRANCH  15  16
ATOM     16  C   UNL     1      18.648 -26.149 -27.927  1.00  0.00    -0.000 C 
BRANCH  16  17
ATOM     17  C   UNL     1      17.646 -27.275 -27.616  1.00  0.00    -0.003 C 
ATOM     18  C   UNL     1      16.776 -27.644 -28.817  1.00  0.00     0.004 C 
ENDBRANCH  16  17
ENDBRANCH  15  16
ENDBRANCH  14  15
ENDBRANCH  13  14
ENDBRANCH  12  13
ENDBRANCH  11  12
ENDBRANCH   1  11
TORSDOF 14
ENDMDL
MODEL 7
REMARK VINA RESULT:    -4.955      6.416      9.725
REMARK INTER + INTRA:         -10.306
REMARK INTER:                  -8.421
REMARK INTRA:                  -1.885
REMARK UNBOUND:                -1.296
REMARK SMILES CCCCCCCCCCCCCCCC(=O)[O-]
REMARK SMILES IDX 9 1 10 2 11 3 12 4 13 5 14 6 15 7 16 8 17 9 18 10 8 11 7 12
REMARK SMILES IDX 6 13 5 14 4 15 3 16 2 17 1 18
REMARK H PARENT
REMARK Flexibility Score: inf
ROOT
ATOM      1  C   UNL     1      18.876 -25.537 -26.431  1.00  0.00     0.000 C 
ENDROOT
BRANCH   1   2
ATOM      2  C   UNL     1      19.138 -25.947 -27.897  1.00  0.00     0.000 C 
BRANCH   2   3
ATOM      3  C   UNL     1      19.451 -24.743 -28.798  1.00  0.00     0.000 C 
BRANCH   3   4
ATOM      4  C   UNL     1      18.930 -24.972 -30.222  1.00  0.00     0.000 C 
BRANCH   4   5
ATOM      5  C   UNL     1      18.125 -26.277 -30.311  1.00  0.00     0.000 C 
BRANCH   5   6
ATOM      6  C   UNL     1      16.614 -26.043 -30.491  1.00  0.00     0.006 C 
BRANCH   6   7
ATOM      7  C   UNL     1      15.746 -26.695 -29.400  1.00  0.00     0.053 C 
BRANCH   7   8
ATOM      8  C   UNL     1      15.772 -28.192 -29.455  1.00  0.00     0.041 C 
ATOM      9  O   UNL     1      15.301 -28.799 -30.452  1.00  0.00    -0.550 OA
ATOM     10  O   UNL     1      16.287 -28.918 -28.389  1.00  0.00    -0.550 OA
ENDBRANCH   7   8
ENDBRANCH   6   7
ENDBRANCH   5   6
ENDBRANCH   4   5
ENDBRANCH   3   4
ENDBRANCH   2   3
ENDBRANCH   1   2
BRANCH   1  11
ATOM     11  C   UNL     1      17.435 -25.059 -26.168  1.00  0.00     0.000 C 
BRANCH  11  12
ATOM     12  C   UNL     1      17.301 -23.581 -25.753  1.00  0.00    -0.000 C 
BRANCH  12  13
ATOM     13  C   UNL     1      16.843 -22.631 -26.875  1.00  0.00    -0.000 C 
BRANCH  13  14
ATOM     14  C   UNL     1      15.897 -23.307 -27.881  1.00  0.00    -0.000 C 
BRANCH  14  15
ATOM     15  C   UNL     1      14.417 -22.972 -27.624  1.00  0.00    -0.000 C 
BRANCH  15  16
ATOM     16  C   UNL     1      13.430 -23.551 -28.659  1.00  0.00    -0.000 C 
BRANCH  16  17
ATOM     17  C   UNL     1      11.952 -23.535 -28.228  1.00  0.00    -0.003 C 
ATOM     18  C   UNL     1      11.773 -23.297 -26.729  1.00  0.00     0.004 C 
ENDBRANCH  16  17
ENDBRANCH  15  16
ENDBRANCH  14  15
ENDBRANCH  13  14
ENDBRANCH  12  13
ENDBRANCH  11  12
ENDBRANCH   1  11
TORSDOF 14
ENDMDL
MODEL 8
REMARK VINA RESULT:    -4.949      6.403      9.727
REMARK INTER + INTRA:         -10.294
REMARK INTER:                  -8.697
REMARK INTRA:                  -1.598
REMARK UNBOUND:                -1.296
REMARK SMILES CCCCCCCCCCCCCCCC(=O)[O-]
REMARK SMILES IDX 9 1 10 2 11 3 12 4 13 5 14 6 15 7 16 8 17 9 18 10 8 11 7 12
REMARK SMILES IDX 6 13 5 14 4 15 3 16 2 17 1 18
REMARK H PARENT
REMARK Flexibility Score: inf
ROOT
ATOM      1  C   UNL     1      17.896 -23.403 -24.945  1.00  0.00     0.000 C 
ENDROOT
BRANCH   1   2
ATOM      2  C   UNL     1      18.393 -24.865 -24.960  1.00  0.00     0.000 C 
BRANCH   2   3
ATOM      3  C   UNL     1      17.808 -25.674 -26.128  1.00  0.00     0.000 C 
BRANCH   3   4
ATOM      4  C   UNL     1      18.872 -25.939 -27.201  1.00  0.00     0.000 C 
BRANCH   4   5
ATOM      5  C   UNL     1      18.467 -27.118 -28.097  1.00  0.00     0.000 C 
BRANCH   5   6
ATOM      6  C   UNL     1      17.166 -26.863 -28.880  1.00  0.00     0.006 C 
BRANCH   6   7
ATOM      7  C   UNL     1      16.361 -28.139 -29.185  1.00  0.00     0.053 C 
BRANCH   7   8
ATOM      8  C   UNL     1      16.251 -28.418 -30.653  1.00  0.00     0.041 C 
ATOM      9  O   UNL     1      17.001 -27.823 -31.471  1.00  0.00    -0.550 OA
ATOM     10  O   UNL     1      15.297 -29.313 -31.121  1.00  0.00    -0.550 OA
ENDBRANCH   7   8
ENDBRANCH   6   7
ENDBRANCH   5   6
ENDBRANCH   4   5
ENDBRANCH   3   4
ENDBRANCH   2   3
ENDBRANCH   1   2
BRANCH   1  11
ATOM     11  C   UNL     1      18.509 -22.528 -26.055  1.00  0.00     0.000 C 
BRANCH  11  12
ATOM     12  C   UNL     1      17.495 -21.909 -27.035  1.00  0.00    -0.000 C 
BRANCH  12  13
ATOM     13  C   UNL     1      17.277 -22.710 -28.333  1.00  0.00    -0.000 C 
BRANCH  13  14
ATOM     14  C   UNL     1      15.878 -23.341 -28.419  1.00  0.00    -0.000 C 
BRANCH  14  15
ATOM     15  C   UNL     1      14.974 -22.948 -27.237  1.00  0.00    -0.000 C 
BRANCH  15  16
ATOM     16  C   UNL     1      13.567 -22.453 -27.631  1.00  0.00    -0.000 C 
BRANCH  16  17
ATOM     17  C   UNL     1      12.440 -22.861 -26.664  1.00  0.00    -0.003 C 
ATOM     18  C   UNL     1      11.312 -23.626 -27.355  1.00  0.00     0.004 C 
ENDBRANCH  16  17
ENDBRANCH  15  16
ENDBRANCH  14  15
ENDBRANCH  13  14
ENDBRANCH  12  13
ENDBRANCH  11  12
ENDBRANCH   1  11
TORSDOF 14
ENDMDL
MODEL 9
REMARK VINA RESULT:    -4.937      8.074     10.192
REMARK INTER + INTRA:         -10.274
REMARK INTER:                  -7.760
REMARK INTRA:                  -2.514
REMARK UNBOUND:                -1.296
REMARK SMILES CCCCCCCCCCCCCCCC(=O)[O-]
REMARK SMILES IDX 9 1 10 2 11 3 12 4 13 5 14 6 15 7 16 8 17 9 18 10 8 11 7 12
REMARK SMILES IDX 6 13 5 14 4 15 3 16 2 17 1 18
REMARK H PARENT
REMARK Flexibility Score: inf
ROOT
ATOM      1  C   UNL     1      18.027 -22.828 -28.292  1.00  0.00     0.000 C 
ENDROOT
BRANCH   1   2
ATOM      2  C   UNL     1      19.538 -22.970 -28.009  1.00  0.00     0.000 C 
BRANCH   2   3
ATOM      3  C   UNL     1      19.983 -24.437 -27.912  1.00  0.00     0.000 C 
BRANCH   3   4
ATOM      4  C   UNL     1      19.008 -25.359 -28.654  1.00  0.00     0.000 C 
BRANCH   4   5
ATOM      5  C   UNL     1      18.837 -26.692 -27.912  1.00  0.00     0.000 C 
BRANCH   5   6
ATOM      6  C   UNL     1      17.380 -27.190 -27.893  1.00  0.00     0.006 C 
BRANCH   6   7
ATOM      7  C   UNL     1      17.154 -28.492 -28.683  1.00  0.00     0.053 C 
BRANCH   7   8
ATOM      8  C   UNL     1      16.530 -28.255 -30.024  1.00  0.00     0.041 C 
ATOM      9  O   UNL     1      17.156 -27.623 -30.914  1.00  0.00    -0.550 OA
ATOM     10  O   UNL     1      15.241 -28.708 -30.280  1.00  0.00    -0.550 OA
ENDBRANCH   7   8
ENDBRANCH   6   7
ENDBRANCH   5   6
ENDBRANCH   4   5
ENDBRANCH   3   4
ENDBRANCH   2   3
ENDBRANCH   1   2
BRANCH   1  11
ATOM     11  C   UNL     1      17.188 -22.503 -27.042  1.00  0.00     0.000 C 
BRANCH  11  12
ATOM     12  C   UNL     1      16.360 -23.678 -26.486  1.00  0.00    -0.000 C 
BRANCH  12  13
ATOM     13  C   UNL     1      16.650 -24.036 -25.016  1.00  0.00    -0.000 C 
BRANCH  13  14
ATOM     14  C   UNL     1      17.857 -24.974 -24.855  1.00  0.00    -0.000 C 
BRANCH  14  15
ATOM     15  C   UNL     1      19.000 -24.340 -24.042  1.00  0.00    -0.000 C 
BRANCH  15  16
ATOM     16  C   UNL     1      18.897 -22.812 -23.858  1.00  0.00    -0.000 C 
BRANCH  16  17
ATOM     17  C   UNL     1      20.056 -22.004 -24.469  1.00  0.00    -0.003 C 
ATOM     18  C   UNL     1      19.623 -20.623 -24.959  1.00  0.00     0.004 C 
ENDBRANCH  16  17
ENDBRANCH  15  16
ENDBRANCH  14  15
ENDBRANCH  13  14
ENDBRANCH  12  13
ENDBRANCH  11  12
ENDBRANCH   1  11
TORSDOF 14
ENDMDL
