MODEL 1
REMARK VINA RESULT:    -3.265      0.000      0.000
REMARK INTER + INTRA:          -3.360
REMARK INTER:                  -3.360
REMARK INTRA:                   0.000
REMARK UNBOUND:                 0.000
REMARK SMILES Cc1cccc(O)c1C
REMARK SMILES IDX 1 1 2 2 8 3 6 4 5 5 4 6 3 7 9 8 7 9
REMARK H PARENT 7 10
REMARK Flexibility Score: inf
ROOT
ATOM      1  C   UNL     1     -21.717   6.160  -2.875  1.00  0.00     0.045 C 
ATOM      2  C   UNL     1     -20.243   5.856  -2.942  1.00  0.00    -0.045 A 
ATOM      3  C   UNL     1     -19.762   4.522  -2.970  1.00  0.00    -0.006 A 
ATOM      4  C   UNL     1     -18.371   4.291  -3.055  1.00  0.00     0.118 A 
ATOM      5  C   UNL     1     -17.480   5.371  -3.068  1.00  0.00     0.046 A 
ATOM      6  C   UNL     1     -17.956   6.679  -3.007  1.00  0.00     0.004 A 
ATOM      7  C   UNL     1     -19.327   6.922  -2.945  1.00  0.00     0.004 A 
ATOM      8  C   UNL     1     -20.722   3.356  -2.968  1.00  0.00     0.048 C 
ENDROOT
BRANCH   4   9
ATOM      9  O   UNL     1     -17.873   2.989  -3.127  1.00  0.00    -0.508 OA
ATOM     10  H   UNL     1     -17.390   2.560  -2.347  1.00  0.00     0.293 HD
ENDBRANCH   4   9
TORSDOF 1
ENDMDL
MODEL 2
REMARK VINA RESULT:    -3.110      0.765      2.596
REMARK INTER + INTRA:          -3.200
REMARK INTER:                  -3.200
REMARK INTRA:                   0.000
REMARK UNBOUND:                 0.000
REMARK SMILES Cc1cccc(O)c1C
REMARK SMILES IDX 1 1 2 2 8 3 6 4 5 5 4 6 3 7 9 8 7 9
REMARK H PARENT 7 10
REMARK Flexibility Score: inf
ROOT
ATOM      1  C   UNL     1     -19.420   7.646  -2.916  1.00  0.00     0.045 C 
ATOM      2  C   UNL     1     -19.691   6.164  -2.934  1.00  0.00    -0.045 A 
ATOM      3  C   UNL     1     -18.640   5.219  -3.042  1.00  0.00    -0.006 A 
ATOM      4  C   UNL     1     -18.946   3.840  -3.032  1.00  0.00     0.118 A 
ATOM      5  C   UNL     1     -20.281   3.419  -2.961  1.00  0.00     0.046 A 
ATOM      6  C   UNL     1     -21.312   4.352  -2.889  1.00  0.00     0.004 A 
ATOM      7  C   UNL     1     -21.022   5.715  -2.876  1.00  0.00     0.004 A 
ATOM      8  C   UNL     1     -17.200   5.671  -3.106  1.00  0.00     0.048 C 
ENDROOT
BRANCH   4   9
ATOM      9  O   UNL     1     -17.927   2.888  -3.093  1.00  0.00    -0.508 OA
ATOM     10  H   UNL     1     -17.783   2.315  -3.916  1.00  0.00     0.293 HD
ENDBRANCH   4   9
TORSDOF 1
ENDMDL
MODEL 3
REMARK VINA RESULT:    -2.351      1.747      2.804
REMARK INTER + INTRA:          -2.420
REMARK INTER:                  -2.420
REMARK INTRA:                   0.000
REMARK UNBOUND:                 0.000
REMARK SMILES Cc1cccc(O)c1C
REMARK SMILES IDX 1 1 2 2 8 3 6 4 5 5 4 6 3 7 9 8 7 9
REMARK H PARENT 7 10
REMARK Flexibility Score: inf
ROOT
ATOM      1  C   UNL     1     -21.638   2.971  -2.978  1.00  0.00     0.045 C 
ATOM      2  C   UNL     1     -20.424   3.862  -2.943  1.00  0.00    -0.045 A 
ATOM      3  C   UNL     1     -20.541   5.276  -2.975  1.00  0.00    -0.006 A 
ATOM      4  C   UNL     1     -19.372   6.066  -2.918  1.00  0.00     0.118 A 
ATOM      5  C   UNL     1     -18.112   5.455  -2.875  1.00  0.00     0.046 A 
ATOM      6  C   UNL     1     -18.002   4.066  -2.878  1.00  0.00     0.004 A 
ATOM      7  C   UNL     1     -19.148   3.274  -2.912  1.00  0.00     0.004 A 
ATOM      8  C   UNL     1     -21.898   5.937  -3.008  1.00  0.00     0.048 C 
ENDROOT
BRANCH   4   9
ATOM      9  O   UNL     1     -19.460   7.459  -2.904  1.00  0.00    -0.508 OA
ATOM     10  H   UNL     1     -19.514   7.980  -2.036  1.00  0.00     0.293 HD
ENDBRANCH   4   9
TORSDOF 1
ENDMDL
MODEL 4
REMARK VINA RESULT:    -2.340      1.877      2.883
REMARK INTER + INTRA:          -2.408
REMARK INTER:                  -2.408
REMARK INTRA:                   0.000
REMARK UNBOUND:                 0.000
REMARK SMILES Cc1cccc(O)c1C
REMARK SMILES IDX 1 1 2 2 8 3 6 4 5 5 4 6 3 7 9 8 7 9
REMARK H PARENT 7 10
REMARK Flexibility Score: inf
ROOT
ATOM      1  C   UNL     1     -18.374   2.964  -2.895  1.00  0.00     0.045 C 
ATOM      2  C   UNL     1     -18.810   4.406  -2.889  1.00  0.00    -0.045 A 
ATOM      3  C   UNL     1     -20.181   4.767  -2.923  1.00  0.00    -0.006 A 
ATOM      4  C   UNL     1     -20.537   6.133  -2.894  1.00  0.00     0.118 A 
ATOM      5  C   UNL     1     -19.540   7.117  -2.875  1.00  0.00     0.046 A 
ATOM      6  C   UNL     1     -18.194   6.758  -2.875  1.00  0.00     0.004 A 
ATOM      7  C   UNL     1     -17.829   5.413  -2.882  1.00  0.00     0.004 A 
ATOM      8  C   UNL     1     -21.257   3.706  -2.931  1.00  0.00     0.048 C 
ENDROOT
BRANCH   4   9
ATOM      9  O   UNL     1     -21.880   6.514  -2.883  1.00  0.00    -0.508 OA
ATOM     10  H   UNL     1     -22.279   7.078  -3.624  1.00  0.00     0.293 HD
ENDBRANCH   4   9
TORSDOF 1
ENDMDL
MODEL 5
REMARK VINA RESULT:    -1.862      1.340      2.777
REMARK INTER + INTRA:          -1.917
REMARK INTER:                  -1.917
REMARK INTRA:                   0.000
REMARK UNBOUND:                 0.000
REMARK SMILES Cc1cccc(O)c1C
REMARK SMILES IDX 1 1 2 2 8 3 6 4 5 5 4 6 3 7 9 8 7 9
REMARK H PARENT 7 10
REMARK Flexibility Score: inf
ROOT
ATOM      1  C   UNL     1     -17.000   5.812  -2.996  1.00  0.00     0.045 C 
ATOM      2  C   UNL     1     -18.495   5.626  -2.989  1.00  0.00    -0.045 A 
ATOM      3  C   UNL     1     -19.083   4.342  -3.116  1.00  0.00    -0.006 A 
ATOM      4  C   UNL     1     -20.490   4.220  -3.081  1.00  0.00     0.118 A 
ATOM      5  C   UNL     1     -21.290   5.363  -2.966  1.00  0.00     0.046 A 
ATOM      6  C   UNL     1     -20.708   6.626  -2.875  1.00  0.00     0.004 A 
ATOM      7  C   UNL     1     -19.321   6.759  -2.886  1.00  0.00     0.004 A 
ATOM      8  C   UNL     1     -18.221   3.107  -3.227  1.00  0.00     0.048 C 
ENDROOT
BRANCH   4   9
ATOM      9  O   UNL     1     -21.093   2.964  -3.160  1.00  0.00    -0.508 OA
ATOM     10  H   UNL     1     -21.715   2.719  -3.922  1.00  0.00     0.293 HD
ENDBRANCH   4   9
TORSDOF 1
ENDMDL
