MODEL 1
REMARK VINA RESULT:    -3.403      0.000      0.000
REMARK INTER + INTRA:          -7.711
REMARK INTER:                  -5.790
REMARK INTRA:                  -1.921
REMARK UNBOUND:                -1.921
REMARK SMILES CCCCCCCCCCCCCC(=O)[O-]
REMARK SMILES IDX 8 1 9 2 10 3 11 4 12 5 13 6 14 7 15 8 16 9 7 10 6 11 5 12
REMARK SMILES IDX 4 13 3 14 2 15 1 16
REMARK H PARENT
REMARK Flexibility Score: inf
ROOT
ATOM      1  C   UNL     1      16.541  15.525  30.414  1.00  0.00     0.000 C 
ENDROOT
BRANCH   1   2
ATOM      2  C   UNL     1      16.235  15.877  28.947  1.00  0.00     0.000 C 
BRANCH   2   3
ATOM      3  C   UNL     1      15.341  14.866  28.203  1.00  0.00     0.000 C 
BRANCH   3   4
ATOM      4  C   UNL     1      15.677  14.754  26.710  1.00  0.00     0.000 C 
BRANCH   4   5
ATOM      5  C   UNL     1      16.261  16.071  26.177  1.00  0.00     0.006 C 
BRANCH   5   6
ATOM      6  C   UNL     1      17.671  15.889  25.600  1.00  0.00     0.053 C 
BRANCH   6   7
ATOM      7  C   UNL     1      17.739  14.731  24.652  1.00  0.00     0.041 C 
ATOM      8  O   UNL     1      18.525  13.774  24.876  1.00  0.00    -0.550 OA
ATOM      9  O   UNL     1      16.959  14.725  23.503  1.00  0.00    -0.550 OA
ENDBRANCH   6   7
ENDBRANCH   5   6
ENDBRANCH   4   5
ENDBRANCH   3   4
ENDBRANCH   2   3
ENDBRANCH   1   2
BRANCH   1  10
ATOM     10  C   UNL     1      16.049  14.123  30.810  1.00  0.00     0.000 C 
BRANCH  10  11
ATOM     11  C   UNL     1      17.023  13.403  31.758  1.00  0.00    -0.000 C 
BRANCH  11  12
ATOM     12  C   UNL     1      18.398  14.084  31.823  1.00  0.00    -0.000 C 
BRANCH  12  13
ATOM     13  C   UNL     1      19.378  13.435  30.838  1.00  0.00    -0.000 C 
BRANCH  13  14
ATOM     14  C   UNL     1      19.980  14.479  29.889  1.00  0.00    -0.000 C 
BRANCH  14  15
ATOM     15  C   UNL     1      19.523  14.239  28.446  1.00  0.00    -0.003 C 
ATOM     16  C   UNL     1      18.632  13.004  28.348  1.00  0.00     0.004 C 
ENDBRANCH  14  15
ENDBRANCH  13  14
ENDBRANCH  12  13
ENDBRANCH  11  12
ENDBRANCH  10  11
ENDBRANCH   1  10
TORSDOF 12
ENDMDL
MODEL 2
REMARK VINA RESULT:    -3.372      3.763      5.632
REMARK INTER + INTRA:          -7.659
REMARK INTER:                  -6.031
REMARK INTRA:                  -1.628
REMARK UNBOUND:                -1.921
REMARK SMILES CCCCCCCCCCCCCC(=O)[O-]
REMARK SMILES IDX 8 1 9 2 10 3 11 4 12 5 13 6 14 7 15 8 16 9 7 10 6 11 5 12
REMARK SMILES IDX 4 13 3 14 2 15 1 16
REMARK H PARENT
REMARK Flexibility Score: inf
ROOT
ATOM      1  C   UNL     1      17.828  14.085  31.519  1.00  0.00     0.000 C 
ENDROOT
BRANCH   1   2
ATOM      2  C   UNL     1      16.453  13.408  31.673  1.00  0.00     0.000 C 
BRANCH   2   3
ATOM      3  C   UNL     1      16.166  12.273  30.671  1.00  0.00     0.000 C 
BRANCH   3   4
ATOM      4  C   UNL     1      14.770  12.368  30.040  1.00  0.00     0.000 C 
BRANCH   4   5
ATOM      5  C   UNL     1      13.837  13.237  30.898  1.00  0.00     0.006 C 
BRANCH   5   6
ATOM      6  C   UNL     1      13.050  14.250  30.056  1.00  0.00     0.053 C 
BRANCH   6   7
ATOM      7  C   UNL     1      11.590  14.236  30.390  1.00  0.00     0.041 C 
ATOM      8  O   UNL     1      11.032  15.272  30.838  1.00  0.00    -0.550 OA
ATOM      9  O   UNL     1      10.853  13.069  30.237  1.00  0.00    -0.550 OA
ENDBRANCH   6   7
ENDBRANCH   5   6
ENDBRANCH   4   5
ENDBRANCH   3   4
ENDBRANCH   2   3
ENDBRANCH   1   2
BRANCH   1  10
ATOM     10  C   UNL     1      17.911  15.000  30.286  1.00  0.00     0.000 C 
BRANCH  10  11
ATOM     11  C   UNL     1      16.644  15.849  30.096  1.00  0.00    -0.000 C 
BRANCH  11  12
ATOM     12  C   UNL     1      16.046  15.715  28.686  1.00  0.00    -0.000 C 
BRANCH  12  13
ATOM     13  C   UNL     1      16.779  14.633  27.882  1.00  0.00    -0.000 C 
BRANCH  13  14
ATOM     14  C   UNL     1      16.338  14.645  26.413  1.00  0.00    -0.000 C 
BRANCH  14  15
ATOM     15  C   UNL     1      16.247  16.079  25.878  1.00  0.00    -0.003 C 
ATOM     16  C   UNL     1      15.806  16.094  24.418  1.00  0.00     0.004 C 
ENDBRANCH  14  15
ENDBRANCH  13  14
ENDBRANCH  12  13
ENDBRANCH  11  12
ENDBRANCH  10  11
ENDBRANCH   1  10
TORSDOF 12
ENDMDL
MODEL 3
REMARK VINA RESULT:    -3.342      3.612      6.443
REMARK INTER + INTRA:          -7.607
REMARK INTER:                  -6.524
REMARK INTRA:                  -1.083
REMARK UNBOUND:                -1.921
REMARK SMILES CCCCCCCCCCCCCC(=O)[O-]
REMARK SMILES IDX 8 1 9 2 10 3 11 4 12 5 13 6 14 7 15 8 16 9 7 10 6 11 5 12
REMARK SMILES IDX 4 13 3 14 2 15 1 16
REMARK H PARENT
REMARK Flexibility Score: inf
ROOT
ATOM      1  C   UNL     1      16.478  15.150  28.476  1.00  0.00     0.000 C 
ENDROOT
BRANCH   1   2
ATOM      2  C   UNL     1      16.415  15.884  29.828  1.00  0.00     0.000 C 
BRANCH   2   3
ATOM      3  C   UNL     1      17.274  15.266  30.949  1.00  0.00     0.000 C 
BRANCH   3   4
ATOM      4  C   UNL     1      16.944  13.790  31.212  1.00  0.00     0.000 C 
BRANCH   4   5
ATOM      5  C   UNL     1      17.804  13.230  32.356  1.00  0.00     0.006 C 
BRANCH   5   6
ATOM      6  C   UNL     1      19.036  14.101  32.635  1.00  0.00     0.053 C 
BRANCH   6   7
ATOM      7  C   UNL     1      20.258  13.573  31.947  1.00  0.00     0.041 C 
ATOM      8  O   UNL     1      21.019  12.763  32.539  1.00  0.00    -0.550 OA
ATOM      9  O   UNL     1      20.575  14.003  30.665  1.00  0.00    -0.550 OA
ENDBRANCH   6   7
ENDBRANCH   5   6
ENDBRANCH   4   5
ENDBRANCH   3   4
ENDBRANCH   2   3
ENDBRANCH   1   2
BRANCH   1  10
ATOM     10  C   UNL     1      15.089  14.913  27.857  1.00  0.00     0.000 C 
BRANCH  10  11
ATOM     11  C   UNL     1      14.333  13.758  28.533  1.00  0.00    -0.000 C 
BRANCH  11  12
ATOM     12  C   UNL     1      13.190  14.246  29.436  1.00  0.00    -0.000 C 
BRANCH  12  13
ATOM     13  C   UNL     1      13.279  13.606  30.827  1.00  0.00    -0.000 C 
BRANCH  13  14
ATOM     14  C   UNL     1      12.047  13.949  31.673  1.00  0.00    -0.000 C 
BRANCH  14  15
ATOM     15  C   UNL     1      11.112  14.903  30.920  1.00  0.00    -0.003 C 
ATOM     16  C   UNL     1       9.682  14.371  30.900  1.00  0.00     0.004 C 
ENDBRANCH  14  15
ENDBRANCH  13  14
ENDBRANCH  12  13
ENDBRANCH  11  12
ENDBRANCH  10  11
ENDBRANCH   1  10
TORSDOF 12
ENDMDL
MODEL 4
REMARK VINA RESULT:    -3.254      1.319      1.964
REMARK INTER + INTRA:          -7.458
REMARK INTER:                  -5.950
REMARK INTRA:                  -1.507
REMARK UNBOUND:                -1.921
REMARK SMILES CCCCCCCCCCCCCC(=O)[O-]
REMARK SMILES IDX 8 1 9 2 10 3 11 4 12 5 13 6 14 7 15 8 16 9 7 10 6 11 5 12
REMARK SMILES IDX 4 13 3 14 2 15 1 16
REMARK H PARENT
REMARK Flexibility Score: inf
ROOT
ATOM      1  C   UNL     1      16.791  13.647  31.405  1.00  0.00     0.000 C 
ENDROOT
BRANCH   1   2
ATOM      2  C   UNL     1      17.151  15.039  30.853  1.00  0.00     0.000 C 
BRANCH   2   3
ATOM      3  C   UNL     1      16.080  15.682  29.950  1.00  0.00     0.000 C 
BRANCH   3   4
ATOM      4  C   UNL     1      15.746  14.831  28.718  1.00  0.00     0.000 C 
BRANCH   4   5
ATOM      5  C   UNL     1      16.502  15.336  27.479  1.00  0.00     0.006 C 
BRANCH   5   6
ATOM      6  C   UNL     1      15.757  15.020  26.175  1.00  0.00     0.053 C 
BRANCH   6   7
ATOM      7  C   UNL     1      16.319  15.781  25.014  1.00  0.00     0.041 C 
ATOM      8  O   UNL     1      17.184  16.677  25.203  1.00  0.00    -0.550 OA
ATOM      9  O   UNL     1      15.864  15.525  23.727  1.00  0.00    -0.550 OA
ENDBRANCH   6   7
ENDBRANCH   5   6
ENDBRANCH   4   5
ENDBRANCH   3   4
ENDBRANCH   2   3
ENDBRANCH   1   2
BRANCH   1  10
ATOM     10  C   UNL     1      17.843  13.099  32.384  1.00  0.00     0.000 C 
BRANCH  10  11
ATOM     11  C   UNL     1      18.937  14.130  32.711  1.00  0.00    -0.000 C 
BRANCH  11  12
ATOM     12  C   UNL     1      20.310  13.734  32.148  1.00  0.00    -0.000 C 
BRANCH  12  13
ATOM     13  C   UNL     1      20.475  14.231  30.706  1.00  0.00    -0.000 C 
BRANCH  13  14
ATOM     14  C   UNL     1      20.470  13.061  29.715  1.00  0.00    -0.000 C 
BRANCH  14  15
ATOM     15  C   UNL     1      19.593  13.375  28.498  1.00  0.00    -0.003 C 
ATOM     16  C   UNL     1      18.518  12.310  28.303  1.00  0.00     0.004 C 
ENDBRANCH  14  15
ENDBRANCH  13  14
ENDBRANCH  12  13
ENDBRANCH  11  12
ENDBRANCH  10  11
ENDBRANCH   1  10
TORSDOF 12
ENDMDL
MODEL 5
REMARK VINA RESULT:    -3.235      2.815      5.723
REMARK INTER + INTRA:          -7.425
REMARK INTER:                  -5.934
REMARK INTRA:                  -1.490
REMARK UNBOUND:                -1.921
REMARK SMILES CCCCCCCCCCCCCC(=O)[O-]
REMARK SMILES IDX 8 1 9 2 10 3 11 4 12 5 13 6 14 7 15 8 16 9 7 10 6 11 5 12
REMARK SMILES IDX 4 13 3 14 2 15 1 16
REMARK H PARENT
REMARK Flexibility Score: inf
ROOT
ATOM      1  C   UNL     1      16.331  15.874  29.621  1.00  0.00     0.000 C 
ENDROOT
BRANCH   1   2
ATOM      2  C   UNL     1      17.008  15.293  30.877  1.00  0.00     0.000 C 
BRANCH   2   3
ATOM      3  C   UNL     1      16.871  13.768  31.048  1.00  0.00     0.000 C 
BRANCH   3   4
ATOM      4  C   UNL     1      17.624  13.232  32.273  1.00  0.00     0.000 C 
BRANCH   4   5
ATOM      5  C   UNL     1      18.871  14.080  32.566  1.00  0.00     0.006 C 
BRANCH   5   6
ATOM      6  C   UNL     1      20.171  13.335  32.232  1.00  0.00     0.053 C 
BRANCH   6   7
ATOM      7  C   UNL     1      20.527  13.460  30.783  1.00  0.00     0.041 C 
ATOM      8  O   UNL     1      21.091  12.507  30.184  1.00  0.00    -0.550 OA
ATOM      9  O   UNL     1      20.267  14.643  30.102  1.00  0.00    -0.550 OA
ENDBRANCH   6   7
ENDBRANCH   5   6
ENDBRANCH   4   5
ENDBRANCH   3   4
ENDBRANCH   2   3
ENDBRANCH   1   2
BRANCH   1  10
ATOM     10  C   UNL     1      16.828  15.226  28.318  1.00  0.00     0.000 C 
BRANCH  10  11
ATOM     11  C   UNL     1      15.926  15.554  27.116  1.00  0.00    -0.000 C 
BRANCH  11  12
ATOM     12  C   UNL     1      15.175  14.323  26.586  1.00  0.00    -0.000 C 
BRANCH  12  13
ATOM     13  C   UNL     1      15.086  13.231  27.659  1.00  0.00    -0.000 C 
BRANCH  13  14
ATOM     14  C   UNL     1      13.631  12.982  28.074  1.00  0.00    -0.000 C 
BRANCH  14  15
ATOM     15  C   UNL     1      13.078  14.165  28.878  1.00  0.00    -0.003 C 
ATOM     16  C   UNL     1      13.228  13.931  30.378  1.00  0.00     0.004 C 
ENDBRANCH  14  15
ENDBRANCH  13  14
ENDBRANCH  12  13
ENDBRANCH  11  12
ENDBRANCH  10  11
ENDBRANCH   1  10
TORSDOF 12
ENDMDL
MODEL 6
REMARK VINA RESULT:    -3.174      3.920      5.698
REMARK INTER + INTRA:          -7.322
REMARK INTER:                  -5.909
REMARK INTRA:                  -1.413
REMARK UNBOUND:                -1.921
REMARK SMILES CCCCCCCCCCCCCC(=O)[O-]
REMARK SMILES IDX 8 1 9 2 10 3 11 4 12 5 13 6 14 7 15 8 16 9 7 10 6 11 5 12
REMARK SMILES IDX 4 13 3 14 2 15 1 16
REMARK H PARENT
REMARK Flexibility Score: inf
ROOT
ATOM      1  C   UNL     1      15.089  13.212  27.532  1.00  0.00     0.000 C 
ENDROOT
BRANCH   1   2
ATOM      2  C   UNL     1      13.716  13.373  28.210  1.00  0.00     0.000 C 
BRANCH   2   3
ATOM      3  C   UNL     1      13.612  12.778  29.628  1.00  0.00     0.000 C 
BRANCH   3   4
ATOM      4  C   UNL     1      13.398  13.845  30.711  1.00  0.00     0.000 C 
BRANCH   4   5
ATOM      5  C   UNL     1      11.910  13.966  31.076  1.00  0.00     0.006 C 
BRANCH   5   6
ATOM      6  C   UNL     1      11.233  15.148  30.369  1.00  0.00     0.053 C 
BRANCH   6   7
ATOM      7  C   UNL     1      10.423  14.701  29.191  1.00  0.00     0.041 C 
ATOM      8  O   UNL     1       9.916  15.550  28.411  1.00  0.00    -0.550 OA
ATOM      9  O   UNL     1      10.200  13.348  28.973  1.00  0.00    -0.550 OA
ENDBRANCH   6   7
ENDBRANCH   5   6
ENDBRANCH   4   5
ENDBRANCH   3   4
ENDBRANCH   2   3
ENDBRANCH   1   2
BRANCH   1  10
ATOM     10  C   UNL     1      15.580  14.504  26.858  1.00  0.00     0.000 C 
BRANCH  10  11
ATOM     11  C   UNL     1      15.928  15.604  27.874  1.00  0.00    -0.000 C 
BRANCH  11  12
ATOM     12  C   UNL     1      17.061  15.192  28.827  1.00  0.00    -0.000 C 
BRANCH  12  13
ATOM     13  C   UNL     1      16.748  15.619  30.267  1.00  0.00    -0.000 C 
BRANCH  13  14
ATOM     14  C   UNL     1      17.518  14.759  31.276  1.00  0.00    -0.000 C 
BRANCH  14  15
ATOM     15  C   UNL     1      16.823  13.410  31.494  1.00  0.00    -0.003 C 
ATOM     16  C   UNL     1      17.530  12.593  32.571  1.00  0.00     0.004 C 
ENDBRANCH  14  15
ENDBRANCH  13  14
ENDBRANCH  12  13
ENDBRANCH  11  12
ENDBRANCH  10  11
ENDBRANCH   1  10
TORSDOF 12
ENDMDL
MODEL 7
REMARK VINA RESULT:    -3.167      3.078      5.618
REMARK INTER + INTRA:          -7.310
REMARK INTER:                  -5.761
REMARK INTRA:                  -1.549
REMARK UNBOUND:                -1.921
REMARK SMILES CCCCCCCCCCCCCC(=O)[O-]
REMARK SMILES IDX 8 1 9 2 10 3 11 4 12 5 13 6 14 7 15 8 16 9 7 10 6 11 5 12
REMARK SMILES IDX 4 13 3 14 2 15 1 16
REMARK H PARENT
REMARK Flexibility Score: inf
ROOT
ATOM      1  C   UNL     1      15.423  11.700  29.707  1.00  0.00     0.000 C 
ENDROOT
BRANCH   1   2
ATOM      2  C   UNL     1      16.403  12.189  30.789  1.00  0.00     0.000 C 
BRANCH   2   3
ATOM      3  C   UNL     1      16.158  13.625  31.293  1.00  0.00     0.000 C 
BRANCH   3   4
ATOM      4  C   UNL     1      17.386  14.533  31.136  1.00  0.00     0.000 C 
BRANCH   4   5
ATOM      5  C   UNL     1      17.026  15.817  30.372  1.00  0.00     0.006 C 
BRANCH   5   6
ATOM      6  C   UNL     1      15.885  15.595  29.370  1.00  0.00     0.053 C 
BRANCH   6   7
ATOM      7  C   UNL     1      16.402  15.291  27.997  1.00  0.00     0.041 C 
ATOM      8  O   UNL     1      17.226  14.356  27.823  1.00  0.00    -0.550 OA
ATOM      9  O   UNL     1      15.998  16.063  26.915  1.00  0.00    -0.550 OA
ENDBRANCH   6   7
ENDBRANCH   5   6
ENDBRANCH   4   5
ENDBRANCH   3   4
ENDBRANCH   2   3
ENDBRANCH   1   2
BRANCH   1  10
ATOM     10  C   UNL     1      14.032  12.345  29.822  1.00  0.00     0.000 C 
BRANCH  10  11
ATOM     11  C   UNL     1      13.484  12.809  28.463  1.00  0.00    -0.000 C 
BRANCH  11  12
ATOM     12  C   UNL     1      12.638  14.087  28.570  1.00  0.00    -0.000 C 
BRANCH  12  13
ATOM     13  C   UNL     1      12.474  14.514  30.035  1.00  0.00    -0.000 C 
BRANCH  13  14
ATOM     14  C   UNL     1      11.020  14.893  30.339  1.00  0.00    -0.000 C 
BRANCH  14  15
ATOM     15  C   UNL     1      10.750  14.872  31.849  1.00  0.00    -0.003 C 
ATOM     16  C   UNL     1      11.538  13.758  32.533  1.00  0.00     0.004 C 
ENDBRANCH  14  15
ENDBRANCH  13  14
ENDBRANCH  12  13
ENDBRANCH  11  12
ENDBRANCH  10  11
ENDBRANCH   1  10
TORSDOF 12
ENDMDL
MODEL 8
REMARK VINA RESULT:    -3.161      2.977      6.272
REMARK INTER + INTRA:          -7.300
REMARK INTER:                  -5.924
REMARK INTRA:                  -1.376
REMARK UNBOUND:                -1.921
REMARK SMILES CCCCCCCCCCCCCC(=O)[O-]
REMARK SMILES IDX 8 1 9 2 10 3 11 4 12 5 13 6 14 7 15 8 16 9 7 10 6 11 5 12
REMARK SMILES IDX 4 13 3 14 2 15 1 16
REMARK H PARENT
REMARK Flexibility Score: inf
ROOT
ATOM      1  C   UNL     1      17.431  15.503  26.063  1.00  0.00     0.000 C 
ENDROOT
BRANCH   1   2
ATOM      2  C   UNL     1      17.063  14.913  27.437  1.00  0.00     0.000 C 
BRANCH   2   3
ATOM      3  C   UNL     1      15.940  15.654  28.188  1.00  0.00     0.000 C 
BRANCH   3   4
ATOM      4  C   UNL     1      15.759  15.165  29.631  1.00  0.00     0.000 C 
BRANCH   4   5
ATOM      5  C   UNL     1      16.967  15.553  30.499  1.00  0.00     0.006 C 
BRANCH   5   6
ATOM      6  C   UNL     1      17.379  14.427  31.456  1.00  0.00     0.053 C 
BRANCH   6   7
ATOM      7  C   UNL     1      18.852  14.160  31.400  1.00  0.00     0.041 C 
ATOM      8  O   UNL     1      19.509  14.004  32.463  1.00  0.00    -0.550 OA
ATOM      9  O   UNL     1      19.506  14.117  30.176  1.00  0.00    -0.550 OA
ENDBRANCH   6   7
ENDBRANCH   5   6
ENDBRANCH   4   5
ENDBRANCH   3   4
ENDBRANCH   2   3
ENDBRANCH   1   2
BRANCH   1  10
ATOM     10  C   UNL     1      16.311  16.369  25.463  1.00  0.00     0.000 C 
BRANCH  10  11
ATOM     11  C   UNL     1      15.797  15.822  24.121  1.00  0.00    -0.000 C 
BRANCH  11  12
ATOM     12  C   UNL     1      15.461  14.324  24.182  1.00  0.00    -0.000 C 
BRANCH  12  13
ATOM     13  C   UNL     1      13.992  14.077  23.818  1.00  0.00    -0.000 C 
BRANCH  13  14
ATOM     14  C   UNL     1      13.334  13.107  24.807  1.00  0.00    -0.000 C 
BRANCH  14  15
ATOM     15  C   UNL     1      14.136  13.023  26.111  1.00  0.00    -0.003 C 
ATOM     16  C   UNL     1      13.255  13.322  27.320  1.00  0.00     0.004 C 
ENDBRANCH  14  15
ENDBRANCH  13  14
ENDBRANCH  12  13
ENDBRANCH  11  12
ENDBRANCH  10  11
ENDBRANCH   1  10
TORSDOF 12
ENDMDL
MODEL 9
REMARK VINA RESULT:    -3.139      4.518      5.803
REMARK INTER + INTRA:          -7.263
REMARK INTER:                  -5.465
REMARK INTRA:                  -1.798
REMARK UNBOUND:                -1.921
REMARK SMILES CCCCCCCCCCCCCC(=O)[O-]
REMARK SMILES IDX 8 1 9 2 10 3 11 4 12 5 13 6 14 7 15 8 16 9 7 10 6 11 5 12
REMARK SMILES IDX 4 13 3 14 2 15 1 16
REMARK H PARENT
REMARK Flexibility Score: inf
ROOT
ATOM      1  C   UNL     1      16.348  14.904  28.074  1.00  0.00     0.000 C 
ENDROOT
BRANCH   1   2
ATOM      2  C   UNL     1      14.933  14.878  28.679  1.00  0.00     0.000 C 
BRANCH   2   3
ATOM      3  C   UNL     1      13.939  13.929  27.980  1.00  0.00     0.000 C 
BRANCH   3   4
ATOM      4  C   UNL     1      12.885  13.355  28.936  1.00  0.00     0.000 C 
BRANCH   4   5
ATOM      5  C   UNL     1      12.858  14.136  30.259  1.00  0.00     0.006 C 
BRANCH   5   6
ATOM      6  C   UNL     1      11.537  14.888  30.463  1.00  0.00     0.053 C 
BRANCH   6   7
ATOM      7  C   UNL     1      10.771  14.361  31.637  1.00  0.00     0.041 C 
ATOM      8  O   UNL     1       9.572  13.999  31.501  1.00  0.00    -0.550 OA
ATOM      9  O   UNL     1      11.370  14.299  32.888  1.00  0.00    -0.550 OA
ENDBRANCH   6   7
ENDBRANCH   5   6
ENDBRANCH   4   5
ENDBRANCH   3   4
ENDBRANCH   2   3
ENDBRANCH   1   2
BRANCH   1  10
ATOM     10  C   UNL     1      17.453  15.039  29.136  1.00  0.00     0.000 C 
BRANCH  10  11
ATOM     11  C   UNL     1      16.892  15.081  30.567  1.00  0.00    -0.000 C 
BRANCH  11  12
ATOM     12  C   UNL     1      17.863  14.492  31.601  1.00  0.00    -0.000 C 
BRANCH  12  13
ATOM     13  C   UNL     1      17.393  13.110  32.070  1.00  0.00    -0.000 C 
BRANCH  13  14
ATOM     14  C   UNL     1      15.966  12.820  31.588  1.00  0.00    -0.000 C 
BRANCH  14  15
ATOM     15  C   UNL     1      15.846  11.389  31.052  1.00  0.00    -0.003 C 
ATOM     16  C   UNL     1      15.997  11.355  29.534  1.00  0.00     0.004 C 
ENDBRANCH  14  15
ENDBRANCH  13  14
ENDBRANCH  12  13
ENDBRANCH  11  12
ENDBRANCH  10  11
ENDBRANCH   1  10
TORSDOF 12
ENDMDL
