MODEL 1
REMARK VINA RESULT:    -4.767      0.000      0.000
REMARK INTER + INTRA:          -5.479
REMARK INTER:                  -5.464
REMARK INTRA:                  -0.015
REMARK UNBOUND:                -0.015
REMARK SMILES COc1cc(C(=O)[O-])ccc1O
REMARK SMILES IDX 5 1 9 2 4 3 10 4 3 5 11 6 6 7 7 8 8 9 2 10 1 11 12 12
REMARK H PARENT 12 13
REMARK Flexibility Score: inf
ROOT
ATOM      1  C   UNL     1      28.359  46.303 139.631  1.00  0.00     0.001 A 
ATOM      2  C   UNL     1      27.464  46.868 138.708  1.00  0.00     0.014 A 
ATOM      3  C   UNL     1      28.250  44.936 139.940  1.00  0.00     0.060 A 
ATOM      4  C   UNL     1      26.480  46.082 138.106  1.00  0.00     0.051 A 
ATOM      5  C   UNL     1      27.257  44.137 139.335  1.00  0.00     0.161 A 
ATOM      6  C   UNL     1      26.372  44.723 138.414  1.00  0.00     0.157 A 
ENDROOT
BRANCH   1   7
ATOM      7  C   UNL     1      29.401  47.141 140.265  1.00  0.00     0.072 C 
ATOM      8  O   UNL     1      29.132  48.305 140.665  1.00  0.00    -0.545 OA
ATOM      9  O   UNL     1      30.694  46.656 140.428  1.00  0.00    -0.545 OA
ENDBRANCH   1   7
BRANCH   5  10
ATOM     10  O   UNL     1      27.125  42.769 139.625  1.00  0.00    -0.493 OA
ATOM     11  C   UNL     1      27.574  41.715 138.779  1.00  0.00     0.278 C 
ENDBRANCH   5  10
BRANCH   6  12
ATOM     12  O   UNL     1      25.375  43.970 137.792  1.00  0.00    -0.504 OA
ATOM     13  H   UNL     1      25.533  43.020 137.479  1.00  0.00     0.293 HD
ENDBRANCH   6  12
TORSDOF 3
ENDMDL
MODEL 2
REMARK VINA RESULT:    -4.636     11.607     13.134
REMARK INTER + INTRA:          -5.328
REMARK INTER:                  -5.305
REMARK INTRA:                  -0.024
REMARK UNBOUND:                -0.015
REMARK SMILES COc1cc(C(=O)[O-])ccc1O
REMARK SMILES IDX 5 1 9 2 4 3 10 4 3 5 11 6 6 7 7 8 8 9 2 10 1 11 12 12
REMARK H PARENT 12 13
REMARK Flexibility Score: inf
ROOT
ATOM      1  C   UNL     1      23.402  35.515 146.947  1.00  0.00     0.001 A 
ATOM      2  C   UNL     1      22.181  35.216 146.319  1.00  0.00     0.014 A 
ATOM      3  C   UNL     1      23.718  36.857 147.223  1.00  0.00     0.060 A 
ATOM      4  C   UNL     1      21.295  36.240 145.975  1.00  0.00     0.051 A 
ATOM      5  C   UNL     1      22.827  37.894 146.877  1.00  0.00     0.161 A 
ATOM      6  C   UNL     1      21.610  37.573 146.250  1.00  0.00     0.157 A 
ENDROOT
BRANCH   1   7
ATOM      7  C   UNL     1      24.337  34.427 147.310  1.00  0.00     0.072 C 
ATOM      8  O   UNL     1      25.418  34.683 147.904  1.00  0.00    -0.545 OA
ATOM      9  O   UNL     1      24.036  33.106 146.999  1.00  0.00    -0.545 OA
ENDBRANCH   1   7
BRANCH   5  10
ATOM     10  O   UNL     1      23.117  39.243 147.141  1.00  0.00    -0.493 OA
ATOM     11  C   UNL     1      22.568  39.992 148.220  1.00  0.00     0.278 C 
ENDBRANCH   5  10
BRANCH   6  12
ATOM     12  O   UNL     1      20.699  38.566 145.891  1.00  0.00    -0.504 OA
ATOM     13  H   UNL     1      19.749  38.353 145.616  1.00  0.00     0.293 HD
ENDBRANCH   6  12
TORSDOF 3
ENDMDL
MODEL 3
REMARK VINA RESULT:    -4.630      1.667      2.757
REMARK INTER + INTRA:          -5.321
REMARK INTER:                  -5.221
REMARK INTRA:                  -0.100
REMARK UNBOUND:                -0.015
REMARK SMILES COc1cc(C(=O)[O-])ccc1O
REMARK SMILES IDX 5 1 9 2 4 3 10 4 3 5 11 6 6 7 7 8 8 9 2 10 1 11 12 12
REMARK H PARENT 12 13
REMARK Flexibility Score: inf
ROOT
ATOM      1  C   UNL     1      27.363  46.478 138.835  1.00  0.00     0.001 A 
ATOM      2  C   UNL     1      28.292  45.985 139.766  1.00  0.00     0.014 A 
ATOM      3  C   UNL     1      26.596  45.567 138.086  1.00  0.00     0.060 A 
ATOM      4  C   UNL     1      28.451  44.609 139.945  1.00  0.00     0.051 A 
ATOM      5  C   UNL     1      26.753  44.177 138.263  1.00  0.00     0.161 A 
ATOM      6  C   UNL     1      27.689  43.705 139.200  1.00  0.00     0.157 A 
ENDROOT
BRANCH   1   7
ATOM      7  C   UNL     1      27.198  47.937 138.650  1.00  0.00     0.072 C 
ATOM      8  O   UNL     1      27.318  48.724 139.626  1.00  0.00    -0.545 OA
ATOM      9  O   UNL     1      26.906  48.460 137.396  1.00  0.00    -0.545 OA
ENDBRANCH   1   7
BRANCH   5  10
ATOM     10  O   UNL     1      26.001  43.245 137.529  1.00  0.00    -0.493 OA
ATOM     11  C   UNL     1      26.324  42.798 136.216  1.00  0.00     0.278 C 
ENDBRANCH   5  10
BRANCH   6  12
ATOM     12  O   UNL     1      27.877  42.338 139.407  1.00  0.00    -0.504 OA
ATOM     13  H   UNL     1      27.389  41.638 138.861  1.00  0.00     0.293 HD
ENDBRANCH   6  12
TORSDOF 3
ENDMDL
MODEL 4
REMARK VINA RESULT:    -4.544      9.884     11.977
REMARK INTER + INTRA:          -5.223
REMARK INTER:                  -5.146
REMARK INTRA:                  -0.077
REMARK UNBOUND:                -0.015
REMARK SMILES COc1cc(C(=O)[O-])ccc1O
REMARK SMILES IDX 5 1 9 2 4 3 10 4 3 5 11 6 6 7 7 8 8 9 2 10 1 11 12 12
REMARK H PARENT 12 13
REMARK Flexibility Score: inf
ROOT
ATOM      1  C   UNL     1      23.216  37.565 146.671  1.00  0.00     0.001 A 
ATOM      2  C   UNL     1      22.932  36.191 146.739  1.00  0.00     0.014 A 
ATOM      3  C   UNL     1      24.544  37.980 146.471  1.00  0.00     0.060 A 
ATOM      4  C   UNL     1      23.957  35.252 146.608  1.00  0.00     0.051 A 
ATOM      5  C   UNL     1      25.582  37.035 146.339  1.00  0.00     0.161 A 
ATOM      6  C   UNL     1      25.276  35.664 146.410  1.00  0.00     0.157 A 
ENDROOT
BRANCH   1   7
ATOM      7  C   UNL     1      22.126  38.557 146.809  1.00  0.00     0.072 C 
ATOM      8  O   UNL     1      21.226  38.647 145.933  1.00  0.00    -0.545 OA
ATOM      9  O   UNL     1      22.081  39.407 147.909  1.00  0.00    -0.545 OA
ENDBRANCH   1   7
BRANCH   5  10
ATOM     10  O   UNL     1      26.918  37.421 146.138  1.00  0.00    -0.493 OA
ATOM     11  C   UNL     1      27.326  38.585 145.428  1.00  0.00     0.278 C 
ENDBRANCH   5  10
BRANCH   6  12
ATOM     12  O   UNL     1      26.272  34.696 146.284  1.00  0.00    -0.504 OA
ATOM     13  H   UNL     1      26.195  33.784 146.717  1.00  0.00     0.293 HD
ENDBRANCH   6  12
TORSDOF 3
ENDMDL
MODEL 5
REMARK VINA RESULT:    -4.454      2.457      4.193
REMARK INTER + INTRA:          -5.119
REMARK INTER:                  -5.041
REMARK INTRA:                  -0.079
REMARK UNBOUND:                -0.015
REMARK SMILES COc1cc(C(=O)[O-])ccc1O
REMARK SMILES IDX 5 1 9 2 4 3 10 4 3 5 11 6 6 7 7 8 8 9 2 10 1 11 12 12
REMARK H PARENT 12 13
REMARK Flexibility Score: inf
ROOT
ATOM      1  C   UNL     1      28.849  48.578 140.376  1.00  0.00     0.001 A 
ATOM      2  C   UNL     1      30.185  49.008 140.438  1.00  0.00     0.014 A 
ATOM      3  C   UNL     1      28.576  47.199 140.323  1.00  0.00     0.060 A 
ATOM      4  C   UNL     1      31.226  48.077 140.448  1.00  0.00     0.051 A 
ATOM      5  C   UNL     1      29.624  46.256 140.333  1.00  0.00     0.161 A 
ATOM      6  C   UNL     1      30.954  46.708 140.395  1.00  0.00     0.157 A 
ENDROOT
BRANCH   1   7
ATOM      7  C   UNL     1      27.749  49.568 140.367  1.00  0.00     0.072 C 
ATOM      8  O   UNL     1      27.834  50.627 141.044  1.00  0.00    -0.545 OA
ATOM      9  O   UNL     1      26.604  49.343 139.610  1.00  0.00    -0.545 OA
ENDBRANCH   1   7
BRANCH   5  10
ATOM     10  O   UNL     1      29.381  44.873 140.282  1.00  0.00    -0.493 OA
ATOM     11  C   UNL     1      28.196  44.279 139.762  1.00  0.00     0.278 C 
ENDBRANCH   5  10
BRANCH   6  12
ATOM     12  O   UNL     1      32.021  45.810 140.407  1.00  0.00    -0.504 OA
ATOM     13  H   UNL     1      32.058  45.024 141.044  1.00  0.00     0.293 HD
ENDBRANCH   6  12
TORSDOF 3
ENDMDL
MODEL 6
REMARK VINA RESULT:    -4.331     11.089     12.454
REMARK INTER + INTRA:          -4.979
REMARK INTER:                  -4.906
REMARK INTRA:                  -0.073
REMARK UNBOUND:                -0.015
REMARK SMILES COc1cc(C(=O)[O-])ccc1O
REMARK SMILES IDX 5 1 9 2 4 3 10 4 3 5 11 6 6 7 7 8 8 9 2 10 1 11 12 12
REMARK H PARENT 12 13
REMARK Flexibility Score: inf
ROOT
ATOM      1  C   UNL     1      23.433  37.683 146.738  1.00  0.00     0.001 A 
ATOM      2  C   UNL     1      24.672  38.181 146.301  1.00  0.00     0.014 A 
ATOM      3  C   UNL     1      23.323  36.322 147.071  1.00  0.00     0.060 A 
ATOM      4  C   UNL     1      25.777  37.334 146.201  1.00  0.00     0.051 A 
ATOM      5  C   UNL     1      24.436  35.462 146.971  1.00  0.00     0.161 A 
ATOM      6  C   UNL     1      25.667  35.981 146.532  1.00  0.00     0.157 A 
ENDROOT
BRANCH   1   7
ATOM      7  C   UNL     1      22.265  38.585 146.843  1.00  0.00     0.072 C 
ATOM      8  O   UNL     1      21.391  38.610 145.936  1.00  0.00    -0.545 OA
ATOM      9  O   UNL     1      22.116  39.421 147.944  1.00  0.00    -0.545 OA
ENDBRANCH   1   7
BRANCH   5  10
ATOM     10  O   UNL     1      24.354  34.098 147.298  1.00  0.00    -0.493 OA
ATOM     11  C   UNL     1      23.162  33.432 147.700  1.00  0.00     0.278 C 
ENDBRANCH   5  10
BRANCH   6  12
ATOM     12  O   UNL     1      26.794  35.167 146.419  1.00  0.00    -0.504 OA
ATOM     13  H   UNL     1      27.171  34.890 145.521  1.00  0.00     0.293 HD
ENDBRANCH   6  12
TORSDOF 3
ENDMDL
MODEL 7
REMARK VINA RESULT:    -4.322      2.196      5.137
REMARK INTER + INTRA:          -4.968
REMARK INTER:                  -4.880
REMARK INTRA:                  -0.089
REMARK UNBOUND:                -0.015
REMARK SMILES COc1cc(C(=O)[O-])ccc1O
REMARK SMILES IDX 5 1 9 2 4 3 10 4 3 5 11 6 6 7 7 8 8 9 2 10 1 11 12 12
REMARK H PARENT 12 13
REMARK Flexibility Score: inf
ROOT
ATOM      1  C   UNL     1      27.061  41.441 138.347  1.00  0.00     0.001 A 
ATOM      2  C   UNL     1      26.654  41.661 137.021  1.00  0.00     0.014 A 
ATOM      3  C   UNL     1      27.286  42.547 139.186  1.00  0.00     0.060 A 
ATOM      4  C   UNL     1      26.474  42.962 136.545  1.00  0.00     0.051 A 
ATOM      5  C   UNL     1      27.106  43.861 138.710  1.00  0.00     0.161 A 
ATOM      6  C   UNL     1      26.698  44.060 137.379  1.00  0.00     0.157 A 
ENDROOT
BRANCH   1   7
ATOM      7  C   UNL     1      27.249  40.061 138.847  1.00  0.00     0.072 C 
ATOM      8  O   UNL     1      28.269  39.396 138.524  1.00  0.00    -0.545 OA
ATOM      9  O   UNL     1      26.302  39.477 139.680  1.00  0.00    -0.545 OA
ENDBRANCH   1   7
BRANCH   5  10
ATOM     10  O   UNL     1      27.323  44.984 139.526  1.00  0.00    -0.493 OA
ATOM     11  C   UNL     1      28.566  45.314 140.136  1.00  0.00     0.278 C 
ENDBRANCH   5  10
BRANCH   6  12
ATOM     12  O   UNL     1      26.508  45.343 136.867  1.00  0.00    -0.504 OA
ATOM     13  H   UNL     1      25.804  45.972 137.233  1.00  0.00     0.293 HD
ENDBRANCH   6  12
TORSDOF 3
ENDMDL
MODEL 8
REMARK VINA RESULT:    -4.313     11.147     12.324
REMARK INTER + INTRA:          -4.958
REMARK INTER:                  -4.878
REMARK INTRA:                  -0.080
REMARK UNBOUND:                -0.015
REMARK SMILES COc1cc(C(=O)[O-])ccc1O
REMARK SMILES IDX 5 1 9 2 4 3 10 4 3 5 11 6 6 7 7 8 8 9 2 10 1 11 12 12
REMARK H PARENT 12 13
REMARK Flexibility Score: inf
ROOT
ATOM      1  C   UNL     1      24.662  36.766 146.677  1.00  0.00     0.001 A 
ATOM      2  C   UNL     1      24.365  38.137 146.738  1.00  0.00     0.014 A 
ATOM      3  C   UNL     1      23.613  35.847 146.497  1.00  0.00     0.060 A 
ATOM      4  C   UNL     1      23.046  38.580 146.620  1.00  0.00     0.051 A 
ATOM      5  C   UNL     1      22.279  36.289 146.378  1.00  0.00     0.161 A 
ATOM      6  C   UNL     1      22.004  37.667 146.441  1.00  0.00     0.157 A 
ENDROOT
BRANCH   1   7
ATOM      7  C   UNL     1      26.061  36.302 146.802  1.00  0.00     0.072 C 
ATOM      8  O   UNL     1      27.008  36.987 146.332  1.00  0.00    -0.545 OA
ATOM      9  O   UNL     1      26.352  35.101 147.439  1.00  0.00    -0.545 OA
ENDBRANCH   1   7
BRANCH   5  10
ATOM     10  O   UNL     1      21.212  35.393 146.196  1.00  0.00    -0.493 OA
ATOM     11  C   UNL     1      21.179  34.062 146.699  1.00  0.00     0.278 C 
ENDBRANCH   5  10
BRANCH   6  12
ATOM     12  O   UNL     1      20.700  38.148 146.327  1.00  0.00    -0.504 OA
ATOM     13  H   UNL     1      20.434  39.068 146.656  1.00  0.00     0.293 HD
ENDBRANCH   6  12
TORSDOF 3
ENDMDL
MODEL 9
REMARK VINA RESULT:    -4.243      1.499      4.410
REMARK INTER + INTRA:          -4.877
REMARK INTER:                  -4.789
REMARK INTRA:                  -0.088
REMARK UNBOUND:                -0.015
REMARK SMILES COc1cc(C(=O)[O-])ccc1O
REMARK SMILES IDX 5 1 9 2 4 3 10 4 3 5 11 6 6 7 7 8 8 9 2 10 1 11 12 12
REMARK H PARENT 12 13
REMARK Flexibility Score: inf
ROOT
ATOM      1  C   UNL     1      27.428  45.375 139.276  1.00  0.00     0.001 A 
ATOM      2  C   UNL     1      26.607  45.857 138.244  1.00  0.00     0.014 A 
ATOM      3  C   UNL     1      28.290  46.267 139.938  1.00  0.00     0.060 A 
ATOM      4  C   UNL     1      26.648  47.205 137.881  1.00  0.00     0.051 A 
ATOM      5  C   UNL     1      28.335  47.629 139.575  1.00  0.00     0.161 A 
ATOM      6  C   UNL     1      27.505  48.091 138.539  1.00  0.00     0.157 A 
ENDROOT
BRANCH   1   7
ATOM      7  C   UNL     1      27.381  43.945 139.657  1.00  0.00     0.072 C 
ATOM      8  O   UNL     1      27.758  43.054 138.850  1.00  0.00    -0.545 OA
ATOM      9  O   UNL     1      26.918  43.564 140.912  1.00  0.00    -0.545 OA
ENDBRANCH   1   7
BRANCH   5  10
ATOM     10  O   UNL     1      29.186  48.542 140.220  1.00  0.00    -0.493 OA
ATOM     11  C   UNL     1      30.603  48.423 140.282  1.00  0.00     0.278 C 
ENDBRANCH   5  10
BRANCH   6  12
ATOM     12  O   UNL     1      27.517  49.430 138.148  1.00  0.00    -0.504 OA
ATOM     13  H   UNL     1      26.714  49.874 137.720  1.00  0.00     0.293 HD
ENDBRANCH   6  12
TORSDOF 3
ENDMDL
