MODEL 1
REMARK VINA RESULT:    -3.990      0.000      0.000
REMARK INTER + INTRA:          -3.990
REMARK INTER:                  -3.990
REMARK INTRA:                   0.000
REMARK UNBOUND:                 0.000
REMARK SMILES CC1=CC[C@@H]2[C@@H](C1)C2(C)C
REMARK SMILES IDX 1 1 2 2 3 3 4 4 5 5 6 6 7 7 8 8 9 9 10 10
REMARK H PARENT
REMARK Flexibility Score: inf
ROOT
ATOM      1  C   UNL     1      15.718   2.407  18.411  1.00  0.00     0.039 C 
ATOM      2  C   UNL     1      14.764   3.430  17.863  1.00  0.00    -0.077 C 
ATOM      3  C   UNL     1      15.044   4.043  16.675  1.00  0.00    -0.028 C 
ATOM      4  C   UNL     1      14.128   5.109  16.080  1.00  0.00     0.031 C 
ATOM      5  C   UNL     1      13.309   5.717  17.224  1.00  0.00     0.003 C 
ATOM      6  C   UNL     1      12.508   4.458  17.727  1.00  0.00     0.003 C 
ATOM      7  C   UNL     1      13.525   3.817  18.679  1.00  0.00     0.034 C 
ATOM      8  C   UNL     1      11.844   5.809  17.588  1.00  0.00    -0.029 C 
ATOM      9  C   UNL     1      10.880   5.991  16.412  1.00  0.00     0.012 C 
ATOM     10  C   UNL     1      11.498   6.515  18.902  1.00  0.00     0.012 C 
ENDROOT
TORSDOF 0
ENDMDL
MODEL 2
REMARK VINA RESULT:    -3.769      1.467      2.754
REMARK INTER + INTRA:          -3.769
REMARK INTER:                  -3.769
REMARK INTRA:                   0.000
REMARK UNBOUND:                 0.000
REMARK SMILES CC1=CC[C@@H]2[C@@H](C1)C2(C)C
REMARK SMILES IDX 1 1 2 2 3 3 4 4 5 5 6 6 7 7 8 8 9 9 10 10
REMARK H PARENT
REMARK Flexibility Score: inf
ROOT
ATOM      1  C   UNL     1      14.839   4.035  15.875  1.00  0.00     0.039 C 
ATOM      2  C   UNL     1      13.809   4.816  16.639  1.00  0.00    -0.077 C 
ATOM      3  C   UNL     1      13.095   4.202  17.629  1.00  0.00    -0.028 C 
ATOM      4  C   UNL     1      12.017   4.936  18.422  1.00  0.00     0.031 C 
ATOM      5  C   UNL     1      11.528   6.115  17.574  1.00  0.00     0.003 C 
ATOM      6  C   UNL     1      12.849   6.962  17.441  1.00  0.00     0.003 C 
ATOM      7  C   UNL     1      13.528   6.273  16.251  1.00  0.00     0.034 C 
ATOM      8  C   UNL     1      11.514   7.621  17.704  1.00  0.00    -0.029 C 
ATOM      9  C   UNL     1      11.273   8.161  19.116  1.00  0.00     0.012 C 
ATOM     10  C   UNL     1      10.925   8.414  16.533  1.00  0.00     0.012 C 
ENDROOT
TORSDOF 0
ENDMDL
MODEL 3
REMARK VINA RESULT:    -3.720      0.971      1.138
REMARK INTER + INTRA:          -3.720
REMARK INTER:                  -3.720
REMARK INTRA:                   0.000
REMARK UNBOUND:                 0.000
REMARK SMILES CC1=CC[C@@H]2[C@@H](C1)C2(C)C
REMARK SMILES IDX 1 1 2 2 3 3 4 4 5 5 6 6 7 7 8 8 9 9 10 10
REMARK H PARENT
REMARK Flexibility Score: inf
ROOT
ATOM      1  C   UNL     1      14.546   2.836  20.027  1.00  0.00     0.039 C 
ATOM      2  C   UNL     1      13.910   3.715  18.988  1.00  0.00    -0.077 C 
ATOM      3  C   UNL     1      14.414   3.728  17.718  1.00  0.00    -0.028 C 
ATOM      4  C   UNL     1      13.828   4.619  16.626  1.00  0.00     0.031 C 
ATOM      5  C   UNL     1      13.103   5.785  17.307  1.00  0.00     0.003 C 
ATOM      6  C   UNL     1      11.987   5.019  18.112  1.00  0.00     0.003 C 
ATOM      7  C   UNL     1      12.748   4.632  19.386  1.00  0.00     0.034 C 
ATOM      8  C   UNL     1      11.682   6.300  17.369  1.00  0.00    -0.029 C 
ATOM      9  C   UNL     1      10.876   6.175  16.073  1.00  0.00     0.012 C 
ATOM     10  C   UNL     1      11.427   7.529  18.245  1.00  0.00     0.012 C 
ENDROOT
TORSDOF 0
ENDMDL
MODEL 4
REMARK VINA RESULT:    -3.664      1.510      4.405
REMARK INTER + INTRA:          -3.664
REMARK INTER:                  -3.664
REMARK INTRA:                   0.000
REMARK UNBOUND:                 0.000
REMARK SMILES CC1=CC[C@@H]2[C@@H](C1)C2(C)C
REMARK SMILES IDX 1 1 2 2 3 3 4 4 5 5 6 6 7 7 8 8 9 9 10 10
REMARK H PARENT
REMARK Flexibility Score: inf
ROOT
ATOM      1  C   UNL     1      10.875   9.562  18.157  1.00  0.00     0.039 C 
ATOM      2  C   UNL     1      11.369   8.237  17.648  1.00  0.00    -0.077 C 
ATOM      3  C   UNL     1      10.887   7.748  16.467  1.00  0.00    -0.028 C 
ATOM      4  C   UNL     1      11.330   6.397  15.911  1.00  0.00     0.031 C 
ATOM      5  C   UNL     1      11.841   5.550  17.083  1.00  0.00     0.003 C 
ATOM      6  C   UNL     1      13.058   6.419  17.577  1.00  0.00     0.003 C 
ATOM      7  C   UNL     1      12.356   7.425  18.495  1.00  0.00     0.034 C 
ATOM      8  C   UNL     1      13.155   4.913  17.477  1.00  0.00    -0.029 C 
ATOM      9  C   UNL     1      13.987   4.345  16.324  1.00  0.00     0.012 C 
ATOM     10  C   UNL     1      13.189   4.163  18.811  1.00  0.00     0.012 C 
ENDROOT
TORSDOF 0
ENDMDL
MODEL 5
REMARK VINA RESULT:    -3.615      1.255      3.914
REMARK INTER + INTRA:          -3.615
REMARK INTER:                  -3.615
REMARK INTRA:                   0.000
REMARK UNBOUND:                 0.000
REMARK SMILES CC1=CC[C@@H]2[C@@H](C1)C2(C)C
REMARK SMILES IDX 1 1 2 2 3 3 4 4 5 5 6 6 7 7 8 8 9 9 10 10
REMARK H PARENT
REMARK Flexibility Score: inf
ROOT
ATOM      1  C   UNL     1      11.940   7.097  21.021  1.00  0.00     0.039 C 
ATOM      2  C   UNL     1      12.284   6.255  19.826  1.00  0.00    -0.077 C 
ATOM      3  C   UNL     1      11.337   6.025  18.869  1.00  0.00    -0.028 C 
ATOM      4  C   UNL     1      11.617   5.156  17.646  1.00  0.00     0.031 C 
ATOM      5  C   UNL     1      12.778   4.216  17.992  1.00  0.00     0.003 C 
ATOM      6  C   UNL     1      13.934   5.250  18.266  1.00  0.00     0.003 C 
ATOM      7  C   UNL     1      13.673   5.611  19.733  1.00  0.00     0.034 C 
ATOM      8  C   UNL     1      14.182   3.982  17.481  1.00  0.00    -0.029 C 
ATOM      9  C   UNL     1      14.368   4.127  15.968  1.00  0.00     0.012 C 
ATOM     10  C   UNL     1      15.011   2.912  18.196  1.00  0.00     0.012 C 
ENDROOT
TORSDOF 0
ENDMDL
MODEL 6
REMARK VINA RESULT:    -3.597      1.368      4.313
REMARK INTER + INTRA:          -3.597
REMARK INTER:                  -3.597
REMARK INTRA:                   0.000
REMARK UNBOUND:                 0.000
REMARK SMILES CC1=CC[C@@H]2[C@@H](C1)C2(C)C
REMARK SMILES IDX 1 1 2 2 3 3 4 4 5 5 6 6 7 7 8 8 9 9 10 10
REMARK H PARENT
REMARK Flexibility Score: inf
ROOT
ATOM      1  C   UNL     1      11.027   6.436  16.231  1.00  0.00     0.039 C 
ATOM      2  C   UNL     1      11.636   5.904  17.497  1.00  0.00    -0.077 C 
ATOM      3  C   UNL     1      11.349   6.510  18.688  1.00  0.00    -0.028 C 
ATOM      4  C   UNL     1      11.958   6.033  20.004  1.00  0.00     0.031 C 
ATOM      5  C   UNL     1      13.252   5.278  19.678  1.00  0.00     0.003 C 
ATOM      6  C   UNL     1      12.697   4.085  18.812  1.00  0.00     0.003 C 
ATOM      7  C   UNL     1      12.621   4.732  17.424  1.00  0.00     0.034 C 
ATOM      8  C   UNL     1      13.767   3.867  19.859  1.00  0.00    -0.029 C 
ATOM      9  C   UNL     1      13.340   3.168  21.152  1.00  0.00     0.012 C 
ATOM     10  C   UNL     1      15.168   3.566  19.320  1.00  0.00     0.012 C 
ENDROOT
TORSDOF 0
ENDMDL
MODEL 7
REMARK VINA RESULT:    -3.525      1.652      2.603
REMARK INTER + INTRA:          -3.525
REMARK INTER:                  -3.525
REMARK INTRA:                   0.000
REMARK UNBOUND:                 0.000
REMARK SMILES CC1=CC[C@@H]2[C@@H](C1)C2(C)C
REMARK SMILES IDX 1 1 2 2 3 3 4 4 5 5 6 6 7 7 8 8 9 9 10 10
REMARK H PARENT
REMARK Flexibility Score: inf
ROOT
ATOM      1  C   UNL     1      17.498   6.309  16.664  1.00  0.00     0.039 C 
ATOM      2  C   UNL     1      16.050   5.910  16.651  1.00  0.00    -0.077 C 
ATOM      3  C   UNL     1      15.714   4.599  16.459  1.00  0.00    -0.028 C 
ATOM      4  C   UNL     1      14.261   4.136  16.409  1.00  0.00     0.031 C 
ATOM      5  C   UNL     1      13.395   5.341  16.024  1.00  0.00     0.003 C 
ATOM      6  C   UNL     1      13.669   6.311  17.234  1.00  0.00     0.003 C 
ATOM      7  C   UNL     1      14.970   6.989  16.786  1.00  0.00     0.034 C 
ATOM      8  C   UNL     1      12.279   6.133  16.668  1.00  0.00    -0.029 C 
ATOM      9  C   UNL     1      11.287   5.320  17.504  1.00  0.00     0.012 C 
ATOM     10  C   UNL     1      11.729   7.324  15.878  1.00  0.00     0.012 C 
ENDROOT
TORSDOF 0
ENDMDL
MODEL 8
REMARK VINA RESULT:    -3.439      1.872      3.065
REMARK INTER + INTRA:          -3.439
REMARK INTER:                  -3.439
REMARK INTRA:                   0.000
REMARK UNBOUND:                 0.000
REMARK SMILES CC1=CC[C@@H]2[C@@H](C1)C2(C)C
REMARK SMILES IDX 1 1 2 2 3 3 4 4 5 5 6 6 7 7 8 8 9 9 10 10
REMARK H PARENT
REMARK Flexibility Score: inf
ROOT
ATOM      1  C   UNL     1      13.537   3.262  20.790  1.00  0.00     0.039 C 
ATOM      2  C   UNL     1      12.993   4.468  20.078  1.00  0.00    -0.077 C 
ATOM      3  C   UNL     1      12.603   5.558  20.803  1.00  0.00    -0.028 C 
ATOM      4  C   UNL     1      12.018   6.803  20.140  1.00  0.00     0.031 C 
ATOM      5  C   UNL     1      11.445   6.387  18.780  1.00  0.00     0.003 C 
ATOM      6  C   UNL     1      12.742   5.876  18.048  1.00  0.00     0.003 C 
ATOM      7  C   UNL     1      12.824   4.431  18.555  1.00  0.00     0.034 C 
ATOM      8  C   UNL     1      11.718   6.726  17.332  1.00  0.00    -0.029 C 
ATOM      9  C   UNL     1      12.096   8.183  17.053  1.00  0.00     0.012 C 
ATOM     10  C   UNL     1      10.875   6.000  16.279  1.00  0.00     0.012 C 
ENDROOT
TORSDOF 0
ENDMDL
