MODEL 1
REMARK VINA RESULT:     0.000      0.000      0.000
REMARK INTER + INTRA:          -5.192
REMARK INTER:                   0.000
REMARK INTRA:                  -5.192
REMARK UNBOUND:                -5.192
REMARK SMILES CCCCCCCCCCCCCCCCCCCCCC(=O)[O-]
REMARK SMILES IDX 12 1 11 2 10 3 9 4 8 5 7 6 6 7 5 8 4 9 3 10 2 11 1 12 13 13
REMARK SMILES IDX 14 14 15 15 16 16 17 17 18 18 19 19 20 20 21 21 22 22 23 23
REMARK SMILES IDX 24 24
REMARK H PARENT
REMARK Flexibility Score: inf
ROOT
ATOM      1  C   UNL     1     185.852 184.049 184.094  1.00  0.00     0.000 C 
ENDROOT
BRANCH   1   2
ATOM      2  C   UNL     1     185.732 183.135 185.325  1.00  0.00     0.000 C 
BRANCH   2   3
ATOM      3  C   UNL     1     187.067 182.947 186.060  1.00  0.00     0.000 C 
BRANCH   3   4
ATOM      4  C   UNL     1     186.834 182.494 187.509  1.00  0.00    -0.000 C 
BRANCH   4   5
ATOM      5  C   UNL     1     185.343 182.439 187.882  1.00  0.00    -0.000 C 
BRANCH   5   6
ATOM      6  C   UNL     1     184.873 181.014 188.223  1.00  0.00    -0.000 C 
BRANCH   6   7
ATOM      7  C   UNL     1     183.499 180.683 187.617  1.00  0.00    -0.000 C 
BRANCH   7   8
ATOM      8  C   UNL     1     183.590 180.192 186.165  1.00  0.00    -0.000 C 
BRANCH   8   9
ATOM      9  C   UNL     1     184.771 179.224 185.987  1.00  0.00    -0.000 C 
BRANCH   9  10
ATOM     10  C   UNL     1     185.566 179.493 184.700  1.00  0.00    -0.000 C 
BRANCH  10  11
ATOM     11  C   UNL     1     187.085 179.480 184.930  1.00  0.00    -0.003 C 
ATOM     12  C   UNL     1     187.423 178.997 186.339  1.00  0.00     0.004 C 
ENDBRANCH  10  11
ENDBRANCH   9  10
ENDBRANCH   8   9
ENDBRANCH   7   8
ENDBRANCH   6   7
ENDBRANCH   5   6
ENDBRANCH   4   5
ENDBRANCH   3   4
ENDBRANCH   2   3
ENDBRANCH   1   2
BRANCH   1  13
ATOM     13  C   UNL     1     184.704 183.839 183.090  1.00  0.00     0.000 C 
BRANCH  13  14
ATOM     14  C   UNL     1     183.935 182.530 183.336  1.00  0.00     0.000 C 
BRANCH  14  15
ATOM     15  C   UNL     1     182.412 182.741 183.393  1.00  0.00     0.000 C 
BRANCH  15  16
ATOM     16  C   UNL     1     182.014 183.925 184.290  1.00  0.00     0.000 C 
BRANCH  16  17
ATOM     17  C   UNL     1     182.029 183.568 185.785  1.00  0.00     0.000 C 
BRANCH  17  18
ATOM     18  C   UNL     1     182.637 184.706 186.614  1.00  0.00     0.000 C 
BRANCH  18  19
ATOM     19  C   UNL     1     182.995 185.906 185.724  1.00  0.00     0.000 C 
BRANCH  19  20
ATOM     20  C   UNL     1     184.258 186.647 186.202  1.00  0.00     0.006 C 
BRANCH  20  21
ATOM     21  C   UNL     1     184.853 186.104 187.510  1.00  0.00     0.053 C 
BRANCH  21  22
ATOM     22  C   UNL     1     186.348 186.204 187.532  1.00  0.00     0.041 C 
ATOM     23  O   UNL     1     186.972 186.592 186.509  1.00  0.00    -0.550 OA
ATOM     24  O   UNL     1     187.050 185.887 188.687  1.00  0.00    -0.550 OA
ENDBRANCH  21  22
ENDBRANCH  20  21
ENDBRANCH  19  20
ENDBRANCH  18  19
ENDBRANCH  17  18
ENDBRANCH  16  17
ENDBRANCH  15  16
ENDBRANCH  14  15
ENDBRANCH  13  14
ENDBRANCH   1  13
TORSDOF 20
ENDMDL
MODEL 2
REMARK VINA RESULT:     0.048     10.122     13.206
REMARK INTER + INTRA:          -5.088
REMARK INTER:                   0.000
REMARK INTRA:                  -5.088
REMARK UNBOUND:                -5.192
REMARK SMILES CCCCCCCCCCCCCCCCCCCCCC(=O)[O-]
REMARK SMILES IDX 12 1 11 2 10 3 9 4 8 5 7 6 6 7 5 8 4 9 3 10 2 11 1 12 13 13
REMARK SMILES IDX 14 14 15 15 16 16 17 17 18 18 19 19 20 20 21 21 22 22 23 23
REMARK SMILES IDX 24 24
REMARK H PARENT
REMARK Flexibility Score: inf
ROOT
ATOM      1  C   UNL     1     184.752 182.030 173.974  1.00  0.00     0.000 C 
ENDROOT
BRANCH   1   2
ATOM      2  C   UNL     1     183.836 181.782 175.184  1.00  0.00     0.000 C 
BRANCH   2   3
ATOM      3  C   UNL     1     184.255 182.587 176.423  1.00  0.00     0.000 C 
BRANCH   3   4
ATOM      4  C   UNL     1     185.782 182.741 176.483  1.00  0.00    -0.000 C 
BRANCH   4   5
ATOM      5  C   UNL     1     186.228 184.212 176.542  1.00  0.00    -0.000 C 
BRANCH   5   6
ATOM      6  C   UNL     1     187.178 184.587 175.392  1.00  0.00    -0.000 C 
BRANCH   6   7
ATOM      7  C   UNL     1     186.510 185.493 174.344  1.00  0.00    -0.000 C 
BRANCH   7   8
ATOM      8  C   UNL     1     185.057 185.843 174.698  1.00  0.00    -0.000 C 
BRANCH   8   9
ATOM      9  C   UNL     1     184.147 185.712 173.467  1.00  0.00    -0.000 C 
BRANCH   9  10
ATOM     10  C   UNL     1     182.773 185.113 173.810  1.00  0.00    -0.000 C 
BRANCH  10  11
ATOM     11  C   UNL     1     182.127 184.395 172.615  1.00  0.00    -0.003 C 
ATOM     12  C   UNL     1     181.131 183.337 173.083  1.00  0.00     0.004 C 
ENDBRANCH  10  11
ENDBRANCH   9  10
ENDBRANCH   8   9
ENDBRANCH   7   8
ENDBRANCH   6   7
ENDBRANCH   5   6
ENDBRANCH   4   5
ENDBRANCH   3   4
ENDBRANCH   2   3
ENDBRANCH   1   2
BRANCH   1  13
ATOM     13  C   UNL     1     184.281 181.280 172.715  1.00  0.00     0.000 C 
BRANCH  13  14
ATOM     14  C   UNL     1     184.766 181.943 171.416  1.00  0.00     0.000 C 
BRANCH  14  15
ATOM     15  C   UNL     1     185.841 183.017 171.665  1.00  0.00     0.000 C 
BRANCH  15  16
ATOM     16  C   UNL     1     187.249 182.541 171.275  1.00  0.00     0.000 C 
BRANCH  16  17
ATOM     17  C   UNL     1     188.296 182.830 172.362  1.00  0.00     0.000 C 
BRANCH  17  18
ATOM     18  C   UNL     1     188.367 181.681 173.374  1.00  0.00     0.000 C 
BRANCH  18  19
ATOM     19  C   UNL     1     188.159 180.324 172.683  1.00  0.00     0.000 C 
BRANCH  19  20
ATOM     20  C   UNL     1     187.356 179.333 173.544  1.00  0.00     0.006 C 
BRANCH  20  21
ATOM     21  C   UNL     1     187.388 179.633 175.051  1.00  0.00     0.053 C 
BRANCH  21  22
ATOM     22  C   UNL     1     186.201 179.061 175.763  1.00  0.00     0.041 C 
ATOM     23  O   UNL     1     185.326 178.421 175.124  1.00  0.00    -0.550 OA
ATOM     24  O   UNL     1     186.071 179.219 177.138  1.00  0.00    -0.550 OA
ENDBRANCH  21  22
ENDBRANCH  20  21
ENDBRANCH  19  20
ENDBRANCH  18  19
ENDBRANCH  17  18
ENDBRANCH  16  17
ENDBRANCH  15  16
ENDBRANCH  14  15
ENDBRANCH  13  14
ENDBRANCH   1  13
TORSDOF 20
ENDMDL
MODEL 3
REMARK VINA RESULT:     0.090      4.348      7.067
REMARK INTER + INTRA:          -4.996
REMARK INTER:                   0.000
REMARK INTRA:                  -4.996
REMARK UNBOUND:                -5.192
REMARK SMILES CCCCCCCCCCCCCCCCCCCCCC(=O)[O-]
REMARK SMILES IDX 12 1 11 2 10 3 9 4 8 5 7 6 6 7 5 8 4 9 3 10 2 11 1 12 13 13
REMARK SMILES IDX 14 14 15 15 16 16 17 17 18 18 19 19 20 20 21 21 22 22 23 23
REMARK SMILES IDX 24 24
REMARK H PARENT
REMARK Flexibility Score: inf
ROOT
ATOM      1  C   UNL     1     180.234 184.836 182.975  1.00  0.00     0.000 C 
ENDROOT
BRANCH   1   2
ATOM      2  C   UNL     1     180.576 183.386 183.356  1.00  0.00     0.000 C 
BRANCH   2   3
ATOM      3  C   UNL     1     179.335 182.484 183.444  1.00  0.00     0.000 C 
BRANCH   3   4
ATOM      4  C   UNL     1     179.737 181.027 183.715  1.00  0.00    -0.000 C 
BRANCH   4   5
ATOM      5  C   UNL     1     181.229 180.763 183.451  1.00  0.00    -0.000 C 
BRANCH   5   6
ATOM      6  C   UNL     1     181.963 180.232 184.695  1.00  0.00    -0.000 C 
BRANCH   6   7
ATOM      7  C   UNL     1     183.270 180.990 184.980  1.00  0.00    -0.000 C 
BRANCH   7   8
ATOM      8  C   UNL     1     183.092 182.123 186.002  1.00  0.00    -0.000 C 
BRANCH   8   9
ATOM      9  C   UNL     1     181.804 181.928 186.817  1.00  0.00    -0.000 C 
BRANCH   9  10
ATOM     10  C   UNL     1     181.154 183.261 187.222  1.00  0.00    -0.000 C 
BRANCH  10  11
ATOM     11  C   UNL     1     179.633 183.265 187.006  1.00  0.00    -0.003 C 
ATOM     12  C   UNL     1     179.143 184.646 186.577  1.00  0.00     0.004 C 
ENDBRANCH  10  11
ENDBRANCH   9  10
ENDBRANCH   8   9
ENDBRANCH   7   8
ENDBRANCH   6   7
ENDBRANCH   5   6
ENDBRANCH   4   5
ENDBRANCH   3   4
ENDBRANCH   2   3
ENDBRANCH   1   2
BRANCH   1  13
ATOM     13  C   UNL     1     181.384 185.812 183.280  1.00  0.00     0.000 C 
BRANCH  13  14
ATOM     14  C   UNL     1     182.285 185.325 184.427  1.00  0.00     0.000 C 
BRANCH  14  15
ATOM     15  C   UNL     1     183.775 185.312 184.043  1.00  0.00     0.000 C 
BRANCH  15  16
ATOM     16  C   UNL     1     184.005 184.875 182.588  1.00  0.00     0.000 C 
BRANCH  16  17
ATOM     17  C   UNL     1     184.270 183.367 182.455  1.00  0.00     0.000 C 
BRANCH  17  18
ATOM     18  C   UNL     1     183.540 182.787 181.238  1.00  0.00     0.000 C 
BRANCH  18  19
ATOM     19  C   UNL     1     182.833 183.893 180.440  1.00  0.00     0.000 C 
BRANCH  19  20
ATOM     20  C   UNL     1     181.755 183.346 179.487  1.00  0.00     0.006 C 
BRANCH  20  21
ATOM     21  C   UNL     1     181.081 182.053 179.971  1.00  0.00     0.053 C 
BRANCH  21  22
ATOM     22  C   UNL     1     179.603 182.064 179.727  1.00  0.00     0.041 C 
ATOM     23  O   UNL     1     178.929 183.099 179.969  1.00  0.00    -0.550 OA
ATOM     24  O   UNL     1     178.973 180.937 179.215  1.00  0.00    -0.550 OA
ENDBRANCH  21  22
ENDBRANCH  20  21
ENDBRANCH  19  20
ENDBRANCH  18  19
ENDBRANCH  17  18
ENDBRANCH  16  17
ENDBRANCH  15  16
ENDBRANCH  14  15
ENDBRANCH  13  14
ENDBRANCH   1  13
TORSDOF 20
ENDMDL
MODEL 4
REMARK VINA RESULT:     0.092      6.032      8.486
REMARK INTER + INTRA:          -4.992
REMARK INTER:                   0.000
REMARK INTRA:                  -4.992
REMARK UNBOUND:                -5.192
REMARK SMILES CCCCCCCCCCCCCCCCCCCCCC(=O)[O-]
REMARK SMILES IDX 12 1 11 2 10 3 9 4 8 5 7 6 6 7 5 8 4 9 3 10 2 11 1 12 13 13
REMARK SMILES IDX 14 14 15 15 16 16 17 17 18 18 19 19 20 20 21 21 22 22 23 23
REMARK SMILES IDX 24 24
REMARK H PARENT
REMARK Flexibility Score: inf
ROOT
ATOM      1  C   UNL     1     186.642 186.623 177.541  1.00  0.00     0.000 C 
ENDROOT
BRANCH   1   2
ATOM      2  C   UNL     1     187.059 185.403 176.703  1.00  0.00     0.000 C 
BRANCH   2   3
ATOM      3  C   UNL     1     185.883 184.774 175.941  1.00  0.00     0.000 C 
BRANCH   3   4
ATOM      4  C   UNL     1     185.938 183.241 176.022  1.00  0.00    -0.000 C 
BRANCH   4   5
ATOM      5  C   UNL     1     184.670 182.633 176.644  1.00  0.00    -0.000 C 
BRANCH   5   6
ATOM      6  C   UNL     1     184.892 181.198 177.153  1.00  0.00    -0.000 C 
BRANCH   6   7
ATOM      7  C   UNL     1     184.226 180.944 178.516  1.00  0.00    -0.000 C 
BRANCH   7   8
ATOM      8  C   UNL     1     184.778 179.698 179.225  1.00  0.00    -0.000 C 
BRANCH   8   9
ATOM      9  C   UNL     1     185.250 180.041 180.647  1.00  0.00    -0.000 C 
BRANCH   9  10
ATOM     10  C   UNL     1     184.394 181.135 181.306  1.00  0.00    -0.000 C 
BRANCH  10  11
ATOM     11  C   UNL     1     184.913 181.534 182.695  1.00  0.00    -0.003 C 
ATOM     12  C   UNL     1     186.437 181.449 182.758  1.00  0.00     0.004 C 
ENDBRANCH  10  11
ENDBRANCH   9  10
ENDBRANCH   8   9
ENDBRANCH   7   8
ENDBRANCH   6   7
ENDBRANCH   5   6
ENDBRANCH   4   5
ENDBRANCH   3   4
ENDBRANCH   2   3
ENDBRANCH   1   2
BRANCH   1  13
ATOM     13  C   UNL     1     185.138 186.932 177.424  1.00  0.00     0.000 C 
BRANCH  13  14
ATOM     14  C   UNL     1     184.401 186.799 178.766  1.00  0.00     0.000 C 
BRANCH  14  15
ATOM     15  C   UNL     1     183.639 185.467 178.892  1.00  0.00     0.000 C 
BRANCH  15  16
ATOM     16  C   UNL     1     184.340 184.474 179.832  1.00  0.00     0.000 C 
BRANCH  16  17
ATOM     17  C   UNL     1     185.334 185.159 180.784  1.00  0.00     0.000 C 
BRANCH  17  18
ATOM     18  C   UNL     1     186.738 184.560 180.635  1.00  0.00     0.000 C 
BRANCH  18  19
ATOM     19  C   UNL     1     186.734 183.385 179.645  1.00  0.00     0.000 C 
BRANCH  19  20
ATOM     20  C   UNL     1     188.150 182.881 179.312  1.00  0.00     0.006 C 
BRANCH  20  21
ATOM     21  C   UNL     1     188.211 181.407 178.883  1.00  0.00     0.053 C 
BRANCH  21  22
ATOM     22  C   UNL     1     188.661 181.253 177.462  1.00  0.00     0.041 C 
ATOM     23  O   UNL     1     189.392 182.129 176.931  1.00  0.00    -0.550 OA
ATOM     24  O   UNL     1     188.288 180.132 176.731  1.00  0.00    -0.550 OA
ENDBRANCH  21  22
ENDBRANCH  20  21
ENDBRANCH  19  20
ENDBRANCH  18  19
ENDBRANCH  17  18
ENDBRANCH  16  17
ENDBRANCH  15  16
ENDBRANCH  14  15
ENDBRANCH  13  14
ENDBRANCH   1  13
TORSDOF 20
ENDMDL
MODEL 5
REMARK VINA RESULT:     0.092      5.259      8.338
REMARK INTER + INTRA:          -4.992
REMARK INTER:                   0.000
REMARK INTRA:                  -4.992
REMARK UNBOUND:                -5.192
REMARK SMILES CCCCCCCCCCCCCCCCCCCCCC(=O)[O-]
REMARK SMILES IDX 12 1 11 2 10 3 9 4 8 5 7 6 6 7 5 8 4 9 3 10 2 11 1 12 13 13
REMARK SMILES IDX 14 14 15 15 16 16 17 17 18 18 19 19 20 20 21 21 22 22 23 23
REMARK SMILES IDX 24 24
REMARK H PARENT
REMARK Flexibility Score: inf
ROOT
ATOM      1  C   UNL     1     178.984 186.027 179.573  1.00  0.00     0.000 C 
ENDROOT
BRANCH   1   2
ATOM      2  C   UNL     1     179.689 184.692 179.279  1.00  0.00     0.000 C 
BRANCH   2   3
ATOM      3  C   UNL     1     178.708 183.568 178.912  1.00  0.00     0.000 C 
BRANCH   3   4
ATOM      4  C   UNL     1     178.800 182.413 179.920  1.00  0.00    -0.000 C 
BRANCH   4   5
ATOM      5  C   UNL     1     177.527 182.264 180.770  1.00  0.00    -0.000 C 
BRANCH   5   6
ATOM      6  C   UNL     1     177.808 182.384 182.278  1.00  0.00    -0.000 C 
BRANCH   6   7
ATOM      7  C   UNL     1     179.194 182.978 182.577  1.00  0.00    -0.000 C 
BRANCH   7   8
ATOM      8  C   UNL     1     179.132 184.454 182.995  1.00  0.00    -0.000 C 
BRANCH   8   9
ATOM      9  C   UNL     1     180.518 185.111 182.897  1.00  0.00    -0.000 C 
BRANCH   9  10
ATOM     10  C   UNL     1     180.536 186.540 183.461  1.00  0.00    -0.000 C 
BRANCH  10  11
ATOM     11  C   UNL     1     179.132 187.052 183.819  1.00  0.00    -0.003 C 
ATOM     12  C   UNL     1     179.055 187.463 185.288  1.00  0.00     0.004 C 
ENDBRANCH  10  11
ENDBRANCH   9  10
ENDBRANCH   8   9
ENDBRANCH   7   8
ENDBRANCH   6   7
ENDBRANCH   5   6
ENDBRANCH   4   5
ENDBRANCH   3   4
ENDBRANCH   2   3
ENDBRANCH   1   2
BRANCH   1  13
ATOM     13  C   UNL     1     177.456 185.876 179.675  1.00  0.00     0.000 C 
BRANCH  13  14
ATOM     14  C   UNL     1     176.886 186.488 180.964  1.00  0.00     0.000 C 
BRANCH  14  15
ATOM     15  C   UNL     1     175.878 185.560 181.664  1.00  0.00     0.000 C 
BRANCH  15  16
ATOM     16  C   UNL     1     175.644 185.945 183.134  1.00  0.00     0.000 C 
BRANCH  16  17
ATOM     17  C   UNL     1     175.550 184.723 184.060  1.00  0.00     0.000 C 
BRANCH  17  18
ATOM     18  C   UNL     1     176.274 184.982 185.387  1.00  0.00     0.000 C 
BRANCH  18  19
ATOM     19  C   UNL     1     176.956 183.705 185.901  1.00  0.00     0.000 C 
BRANCH  19  20
ATOM     20  C   UNL     1     178.312 183.983 186.576  1.00  0.00     0.006 C 
BRANCH  20  21
ATOM     21  C   UNL     1     179.373 182.898 186.333  1.00  0.00     0.053 C 
BRANCH  21  22
ATOM     22  C   UNL     1     180.754 183.473 186.245  1.00  0.00     0.041 C 
ATOM     23  O   UNL     1     180.947 184.696 186.469  1.00  0.00    -0.550 OA
ATOM     24  O   UNL     1     181.831 182.652 185.935  1.00  0.00    -0.550 OA
ENDBRANCH  21  22
ENDBRANCH  20  21
ENDBRANCH  19  20
ENDBRANCH  18  19
ENDBRANCH  17  18
ENDBRANCH  16  17
ENDBRANCH  15  16
ENDBRANCH  14  15
ENDBRANCH  13  14
ENDBRANCH   1  13
TORSDOF 20
ENDMDL
MODEL 6
REMARK VINA RESULT:     0.098      6.746      9.327
REMARK INTER + INTRA:          -4.980
REMARK INTER:                   0.000
REMARK INTRA:                  -4.980
REMARK UNBOUND:                -5.192
REMARK SMILES CCCCCCCCCCCCCCCCCCCCCC(=O)[O-]
REMARK SMILES IDX 12 1 11 2 10 3 9 4 8 5 7 6 6 7 5 8 4 9 3 10 2 11 1 12 13 13
REMARK SMILES IDX 14 14 15 15 16 16 17 17 18 18 19 19 20 20 21 21 22 22 23 23
REMARK SMILES IDX 24 24
REMARK H PARENT
REMARK Flexibility Score: inf
ROOT
ATOM      1  C   UNL     1     180.826 183.949 180.861  1.00  0.00     0.000 C 
ENDROOT
BRANCH   1   2
ATOM      2  C   UNL     1     179.822 184.153 182.008  1.00  0.00     0.000 C 
BRANCH   2   3
ATOM      3  C   UNL     1     178.430 183.587 181.689  1.00  0.00     0.000 C 
BRANCH   3   4
ATOM      4  C   UNL     1     177.813 182.924 182.930  1.00  0.00    -0.000 C 
BRANCH   4   5
ATOM      5  C   UNL     1     177.409 181.461 182.683  1.00  0.00    -0.000 C 
BRANCH   5   6
ATOM      6  C   UNL     1     177.784 180.976 181.271  1.00  0.00    -0.000 C 
BRANCH   6   7
ATOM      7  C   UNL     1     178.349 179.547 181.267  1.00  0.00    -0.000 C 
BRANCH   7   8
ATOM      8  C   UNL     1     179.448 179.337 182.318  1.00  0.00    -0.000 C 
BRANCH   8   9
ATOM      9  C   UNL     1     180.791 179.900 181.827  1.00  0.00    -0.000 C 
BRANCH   9  10
ATOM     10  C   UNL     1     181.426 180.874 182.832  1.00  0.00    -0.000 C 
BRANCH  10  11
ATOM     11  C   UNL     1     180.726 180.853 184.199  1.00  0.00    -0.003 C 
ATOM     12  C   UNL     1     180.898 182.185 184.925  1.00  0.00     0.004 C 
ENDBRANCH  10  11
ENDBRANCH   9  10
ENDBRANCH   8   9
ENDBRANCH   7   8
ENDBRANCH   6   7
ENDBRANCH   5   6
ENDBRANCH   4   5
ENDBRANCH   3   4
ENDBRANCH   2   3
ENDBRANCH   1   2
BRANCH   1  13
ATOM     13  C   UNL     1     180.162 183.387 179.591  1.00  0.00     0.000 C 
BRANCH  13  14
ATOM     14  C   UNL     1     180.898 182.158 179.033  1.00  0.00     0.000 C 
BRANCH  14  15
ATOM     15  C   UNL     1     179.955 181.185 178.303  1.00  0.00     0.000 C 
BRANCH  15  16
ATOM     16  C   UNL     1     178.919 181.912 177.431  1.00  0.00     0.000 C 
BRANCH  16  17
ATOM     17  C   UNL     1     177.618 181.112 177.263  1.00  0.00     0.000 C 
BRANCH  17  18
ATOM     18  C   UNL     1     176.482 181.732 178.086  1.00  0.00     0.000 C 
BRANCH  18  19
ATOM     19  C   UNL     1     176.716 183.235 178.302  1.00  0.00     0.000 C 
BRANCH  19  20
ATOM     20  C   UNL     1     175.677 183.871 179.243  1.00  0.00     0.006 C 
BRANCH  20  21
ATOM     21  C   UNL     1     174.806 182.858 180.000  1.00  0.00     0.053 C 
BRANCH  21  22
ATOM     22  C   UNL     1     174.467 183.329 181.382  1.00  0.00     0.041 C 
ATOM     23  O   UNL     1     174.764 184.498 181.743  1.00  0.00    -0.550 OA
ATOM     24  O   UNL     1     173.804 182.484 182.263  1.00  0.00    -0.550 OA
ENDBRANCH  21  22
ENDBRANCH  20  21
ENDBRANCH  19  20
ENDBRANCH  18  19
ENDBRANCH  17  18
ENDBRANCH  16  17
ENDBRANCH  15  16
ENDBRANCH  14  15
ENDBRANCH  13  14
ENDBRANCH   1  13
TORSDOF 20
ENDMDL
MODEL 7
REMARK VINA RESULT:     0.108      8.356     10.912
REMARK INTER + INTRA:          -4.957
REMARK INTER:                   0.000
REMARK INTRA:                  -4.957
REMARK UNBOUND:                -5.192
REMARK SMILES CCCCCCCCCCCCCCCCCCCCCC(=O)[O-]
REMARK SMILES IDX 12 1 11 2 10 3 9 4 8 5 7 6 6 7 5 8 4 9 3 10 2 11 1 12 13 13
REMARK SMILES IDX 14 14 15 15 16 16 17 17 18 18 19 19 20 20 21 21 22 22 23 23
REMARK SMILES IDX 24 24
REMARK H PARENT
REMARK Flexibility Score: inf
ROOT
ATOM      1  C   UNL     1     182.137 177.587 180.817  1.00  0.00     0.000 C 
ENDROOT
BRANCH   1   2
ATOM      2  C   UNL     1     181.205 176.462 180.336  1.00  0.00     0.000 C 
BRANCH   2   3
ATOM      3  C   UNL     1     180.332 176.881 179.143  1.00  0.00     0.000 C 
BRANCH   3   4
ATOM      4  C   UNL     1     178.896 176.363 179.309  1.00  0.00    -0.000 C 
BRANCH   4   5
ATOM      5  C   UNL     1     178.746 175.397 180.496  1.00  0.00    -0.000 C 
BRANCH   5   6
ATOM      6  C   UNL     1     177.458 175.646 181.301  1.00  0.00    -0.000 C 
BRANCH   6   7
ATOM      7  C   UNL     1     177.624 175.329 182.796  1.00  0.00    -0.000 C 
BRANCH   7   8
ATOM      8  C   UNL     1     176.767 176.232 183.695  1.00  0.00    -0.000 C 
BRANCH   8   9
ATOM      9  C   UNL     1     175.655 176.916 182.884  1.00  0.00    -0.000 C 
BRANCH   9  10
ATOM     10  C   UNL     1     175.063 178.137 183.606  1.00  0.00    -0.000 C 
BRANCH  10  11
ATOM     11  C   UNL     1     176.086 178.843 184.510  1.00  0.00    -0.003 C 
ATOM     12  C   UNL     1     176.133 180.341 184.221  1.00  0.00     0.004 C 
ENDBRANCH  10  11
ENDBRANCH   9  10
ENDBRANCH   8   9
ENDBRANCH   7   8
ENDBRANCH   6   7
ENDBRANCH   5   6
ENDBRANCH   4   5
ENDBRANCH   3   4
ENDBRANCH   2   3
ENDBRANCH   1   2
BRANCH   1  13
ATOM     13  C   UNL     1     182.102 177.767 182.346  1.00  0.00     0.000 C 
BRANCH  13  14
ATOM     14  C   UNL     1     180.945 177.000 183.005  1.00  0.00     0.000 C 
BRANCH  14  15
ATOM     15  C   UNL     1     180.056 177.905 183.877  1.00  0.00     0.000 C 
BRANCH  15  16
ATOM     16  C   UNL     1     179.678 179.216 183.170  1.00  0.00     0.000 C 
BRANCH  16  17
ATOM     17  C   UNL     1     178.728 178.998 181.982  1.00  0.00     0.000 C 
BRANCH  17  18
ATOM     18  C   UNL     1     179.107 179.902 180.803  1.00  0.00     0.000 C 
BRANCH  18  19
ATOM     19  C   UNL     1     177.899 180.147 179.886  1.00  0.00     0.000 C 
BRANCH  19  20
ATOM     20  C   UNL     1     176.591 179.566 180.454  1.00  0.00     0.006 C 
BRANCH  20  21
ATOM     21  C   UNL     1     175.911 178.531 179.545  1.00  0.00     0.053 C 
BRANCH  21  22
ATOM     22  C   UNL     1     175.862 178.983 178.118  1.00  0.00     0.041 C 
ATOM     23  O   UNL     1     175.130 179.952 177.784  1.00  0.00    -0.550 OA
ATOM     24  O   UNL     1     176.640 178.347 177.159  1.00  0.00    -0.550 OA
ENDBRANCH  21  22
ENDBRANCH  20  21
ENDBRANCH  19  20
ENDBRANCH  18  19
ENDBRANCH  17  18
ENDBRANCH  16  17
ENDBRANCH  15  16
ENDBRANCH  14  15
ENDBRANCH  13  14
ENDBRANCH   1  13
TORSDOF 20
ENDMDL
MODEL 8
REMARK VINA RESULT:     0.109      2.826      5.033
REMARK INTER + INTRA:          -4.956
REMARK INTER:                   0.000
REMARK INTRA:                  -4.956
REMARK UNBOUND:                -5.192
REMARK SMILES CCCCCCCCCCCCCCCCCCCCCC(=O)[O-]
REMARK SMILES IDX 12 1 11 2 10 3 9 4 8 5 7 6 6 7 5 8 4 9 3 10 2 11 1 12 13 13
REMARK SMILES IDX 14 14 15 15 16 16 17 17 18 18 19 19 20 20 21 21 22 22 23 23
REMARK SMILES IDX 24 24
REMARK H PARENT
REMARK Flexibility Score: inf
ROOT
ATOM      1  C   UNL     1     183.137 182.902 181.553  1.00  0.00     0.000 C 
ENDROOT
BRANCH   1   2
ATOM      2  C   UNL     1     183.854 184.109 182.180  1.00  0.00     0.000 C 
BRANCH   2   3
ATOM      3  C   UNL     1     184.841 183.707 183.286  1.00  0.00     0.000 C 
BRANCH   3   4
ATOM      4  C   UNL     1     185.461 184.949 183.943  1.00  0.00    -0.000 C 
BRANCH   4   5
ATOM      5  C   UNL     1     186.754 184.631 184.714  1.00  0.00    -0.000 C 
BRANCH   5   6
ATOM      6  C   UNL     1     186.953 183.121 184.933  1.00  0.00    -0.000 C 
BRANCH   6   7
ATOM      7  C   UNL     1     188.391 182.665 184.639  1.00  0.00    -0.000 C 
BRANCH   7   8
ATOM      8  C   UNL     1     188.450 181.421 183.740  1.00  0.00    -0.000 C 
BRANCH   8   9
ATOM      9  C   UNL     1     188.687 181.815 182.274  1.00  0.00    -0.000 C 
BRANCH   9  10
ATOM     10  C   UNL     1     187.422 181.670 181.412  1.00  0.00    -0.000 C 
BRANCH  10  11
ATOM     11  C   UNL     1     187.125 182.928 180.582  1.00  0.00    -0.003 C 
ATOM     12  C   UNL     1     187.894 184.134 181.117  1.00  0.00     0.004 C 
ENDBRANCH  10  11
ENDBRANCH   9  10
ENDBRANCH   8   9
ENDBRANCH   7   8
ENDBRANCH   6   7
ENDBRANCH   5   6
ENDBRANCH   4   5
ENDBRANCH   3   4
ENDBRANCH   2   3
ENDBRANCH   1   2
BRANCH   1  13
ATOM     13  C   UNL     1     183.826 181.567 181.889  1.00  0.00     0.000 C 
BRANCH  13  14
ATOM     14  C   UNL     1     182.857 180.536 182.489  1.00  0.00     0.000 C 
BRANCH  14  15
ATOM     15  C   UNL     1     183.550 179.577 183.474  1.00  0.00     0.000 C 
BRANCH  15  16
ATOM     16  C   UNL     1     184.997 179.993 183.781  1.00  0.00     0.000 C 
BRANCH  16  17
ATOM     17  C   UNL     1     185.340 179.889 185.276  1.00  0.00     0.000 C 
BRANCH  17  18
ATOM     18  C   UNL     1     184.123 180.229 186.143  1.00  0.00     0.000 C 
BRANCH  18  19
ATOM     19  C   UNL     1     184.355 181.525 186.935  1.00  0.00     0.000 C 
BRANCH  19  20
ATOM     20  C   UNL     1     183.460 182.684 186.458  1.00  0.00     0.006 C 
BRANCH  20  21
ATOM     21  C   UNL     1     182.199 182.239 185.702  1.00  0.00     0.053 C 
BRANCH  21  22
ATOM     22  C   UNL     1     181.558 183.374 184.962  1.00  0.00     0.041 C 
ATOM     23  O   UNL     1     181.916 184.560 185.186  1.00  0.00    -0.550 OA
ATOM     24  O   UNL     1     180.579 183.119 184.010  1.00  0.00    -0.550 OA
ENDBRANCH  21  22
ENDBRANCH  20  21
ENDBRANCH  19  20
ENDBRANCH  18  19
ENDBRANCH  17  18
ENDBRANCH  16  17
ENDBRANCH  15  16
ENDBRANCH  14  15
ENDBRANCH  13  14
ENDBRANCH   1  13
TORSDOF 20
ENDMDL
MODEL 9
REMARK VINA RESULT:     0.110      4.699      7.255
REMARK INTER + INTRA:          -4.955
REMARK INTER:                   0.000
REMARK INTRA:                  -4.955
REMARK UNBOUND:                -5.192
REMARK SMILES CCCCCCCCCCCCCCCCCCCCCC(=O)[O-]
REMARK SMILES IDX 12 1 11 2 10 3 9 4 8 5 7 6 6 7 5 8 4 9 3 10 2 11 1 12 13 13
REMARK SMILES IDX 14 14 15 15 16 16 17 17 18 18 19 19 20 20 21 21 22 22 23 23
REMARK SMILES IDX 24 24
REMARK H PARENT
REMARK Flexibility Score: inf
ROOT
ATOM      1  C   UNL     1     181.022 180.870 181.158  1.00  0.00     0.000 C 
ENDROOT
BRANCH   1   2
ATOM      2  C   UNL     1     181.806 182.129 181.564  1.00  0.00     0.000 C 
BRANCH   2   3
ATOM      3  C   UNL     1     181.253 182.791 182.835  1.00  0.00     0.000 C 
BRANCH   3   4
ATOM      4  C   UNL     1     182.133 183.976 183.260  1.00  0.00    -0.000 C 
BRANCH   4   5
ATOM      5  C   UNL     1     182.669 184.778 182.062  1.00  0.00    -0.000 C 
BRANCH   5   6
ATOM      6  C   UNL     1     184.205 184.863 182.049  1.00  0.00    -0.000 C 
BRANCH   6   7
ATOM      7  C   UNL     1     184.819 184.277 180.767  1.00  0.00    -0.000 C 
BRANCH   7   8
ATOM      8  C   UNL     1     185.531 182.938 181.006  1.00  0.00    -0.000 C 
BRANCH   8   9
ATOM      9  C   UNL     1     185.598 182.612 182.506  1.00  0.00    -0.000 C 
BRANCH   9  10
ATOM     10  C   UNL     1     185.305 181.133 182.803  1.00  0.00    -0.000 C 
BRANCH  10  11
ATOM     11  C   UNL     1     184.349 180.947 183.991  1.00  0.00    -0.003 C 
ATOM     12  C   UNL     1     183.496 179.692 183.819  1.00  0.00     0.004 C 
ENDBRANCH  10  11
ENDBRANCH   9  10
ENDBRANCH   8   9
ENDBRANCH   7   8
ENDBRANCH   6   7
ENDBRANCH   5   6
ENDBRANCH   4   5
ENDBRANCH   3   4
ENDBRANCH   2   3
ENDBRANCH   1   2
BRANCH   1  13
ATOM     13  C   UNL     1     181.672 180.126 179.977  1.00  0.00     0.000 C 
BRANCH  13  14
ATOM     14  C   UNL     1     183.180 180.400 179.864  1.00  0.00     0.000 C 
BRANCH  14  15
ATOM     15  C   UNL     1     183.593 180.867 178.457  1.00  0.00     0.000 C 
BRANCH  15  16
ATOM     16  C   UNL     1     182.517 181.735 177.785  1.00  0.00     0.000 C 
BRANCH  16  17
ATOM     17  C   UNL     1     182.813 183.239 177.897  1.00  0.00     0.000 C 
BRANCH  17  18
ATOM     18  C   UNL     1     181.612 183.992 178.482  1.00  0.00     0.000 C 
BRANCH  18  19
ATOM     19  C   UNL     1     180.308 183.213 178.254  1.00  0.00     0.000 C 
BRANCH  19  20
ATOM     20  C   UNL     1     179.214 183.568 179.277  1.00  0.00     0.006 C 
BRANCH  20  21
ATOM     21  C   UNL     1     179.539 184.787 180.153  1.00  0.00     0.053 C 
BRANCH  21  22
ATOM     22  C   UNL     1     178.424 185.114 181.099  1.00  0.00     0.041 C 
ATOM     23  O   UNL     1     177.737 186.156 180.933  1.00  0.00    -0.550 OA
ATOM     24  O   UNL     1     178.131 184.257 182.153  1.00  0.00    -0.550 OA
ENDBRANCH  21  22
ENDBRANCH  20  21
ENDBRANCH  19  20
ENDBRANCH  18  19
ENDBRANCH  17  18
ENDBRANCH  16  17
ENDBRANCH  15  16
ENDBRANCH  14  15
ENDBRANCH  13  14
ENDBRANCH   1  13
TORSDOF 20
ENDMDL
