MODEL 1
REMARK VINA RESULT:    -5.298      0.000      0.000
REMARK INTER + INTRA:          -8.182
REMARK INTER:                  -8.086
REMARK INTRA:                  -0.096
REMARK UNBOUND:                -0.096
REMARK SMILES CC1=CCC[C@H](C)C(=O)C[C@H](C(C)C)C(=O)C1
REMARK SMILES IDX 8 1 9 2 6 3 7 4 5 5 4 6 3 7 2 8 1 9 10 11 11 12 15 13 16 14
REMARK SMILES IDX 17 15 12 17 13 18 14 19
REMARK H PARENT
REMARK Flexibility Score: 70.00
ROOT
ATOM      1  C   UNL     1      -7.409  29.947  23.162  1.00  0.00     0.136 C 
ATOM      2  O   UNL     1      -6.337  29.363  23.238  1.00  0.00    -0.299 OA
ENDROOT
BRANCH   1   3
ATOM      3  C   UNL     1      -8.686  29.133  23.278  1.00  0.00     0.053 C 
ATOM      4  C   UNL     1      -8.629  27.893  22.375  1.00  0.00     0.016 C 
BRANCH   3   5
ATOM      5  C   UNL     1      -8.932  28.741  24.755  1.00  0.00     0.015 C 
BRANCH   5   6
ATOM      6  C   UNL     1      -9.831  29.753  25.501  1.00  0.00     0.028 C 
BRANCH   6   7
ATOM      7  C   UNL     1      -9.032  30.653  26.415  1.00  0.00    -0.028 C 
ATOM      8  C   UNL     1      -8.971  32.002  26.322  1.00  0.00    -0.070 CG0
ATOM      9  C   UNL     1      -8.099  32.744  27.304  1.00  0.00     0.039 C 
ATOM     10  G   UNL     1      -9.728  32.801  25.274  1.00  0.00     0.000 G0
ENDBRANCH   6   7
ENDBRANCH   5   6
ENDBRANCH   3   5
ENDBRANCH   1   3
BRANCH   1  11
ATOM     11  C   UNL     1      -7.373  31.457  22.987  1.00  0.00     0.087 C 
BRANCH  11  12
ATOM     12  C   UNL     1      -8.742  32.194  22.927  1.00  0.00     0.066 C 
BRANCH  12  13
ATOM     13  C   UNL     1      -8.901  33.181  24.073  1.00  0.00     0.140 C 
ATOM     14  O   UNL     1      -8.413  34.299  23.984  1.00  0.00    -0.299 OA
BRANCH  13  15
ATOM     15  C   UNL     1      -9.733  32.822  25.284  1.00  0.00     0.106 CG0
ATOM     16  G   UNL     1      -8.957  32.009  26.307  1.00  0.00     0.000 G0
ENDBRANCH  13  15
ENDBRANCH  12  13
BRANCH  12  17
ATOM     17  C   UNL     1      -9.009  32.900  21.558  1.00  0.00    -0.006 C 
ATOM     18  C   UNL     1      -7.867  33.816  21.084  1.00  0.00     0.008 C 
ATOM     19  C   UNL     1      -9.359  31.891  20.452  1.00  0.00     0.008 C 
ENDBRANCH  12  17
ENDBRANCH  11  12
ENDBRANCH   1  11
TORSDOF 1
ENDMDL
MODEL 2
REMARK VINA RESULT:    -5.131      1.602      3.914
REMARK INTER + INTRA:          -7.926
REMARK INTER:                  -8.196
REMARK INTRA:                   0.270
REMARK UNBOUND:                -0.096
REMARK SMILES CC1=CCC[C@H](C)C(=O)C[C@H](C(C)C)C(=O)C1
REMARK SMILES IDX 8 1 9 2 6 3 7 4 5 5 4 6 3 7 2 8 1 9 10 11 11 12 15 13 16 14
REMARK SMILES IDX 17 15 12 17 13 18 14 19
REMARK H PARENT
REMARK Flexibility Score: 70.00
ROOT
ATOM      1  C   UNL     1      -7.678  34.581  23.796  1.00  0.00     0.136 C 
ATOM      2  O   UNL     1      -6.646  34.875  23.209  1.00  0.00    -0.299 OA
ENDROOT
BRANCH   1   3
ATOM      3  C   UNL     1      -8.069  35.391  25.020  1.00  0.00     0.053 C 
ATOM      4  C   UNL     1      -9.480  35.974  24.865  1.00  0.00     0.016 C 
BRANCH   3   5
ATOM      5  C   UNL     1      -7.960  34.515  26.292  1.00  0.00     0.015 C 
BRANCH   5   6
ATOM      6  C   UNL     1      -9.015  33.387  26.334  1.00  0.00     0.028 C 
BRANCH   6   7
ATOM      7  C   UNL     1      -8.406  32.056  26.710  1.00  0.00    -0.028 C 
ATOM      8  C   UNL     1      -8.391  30.955  25.923  1.00  0.00    -0.070 CG0
ATOM      9  C   UNL     1      -7.762  29.698  26.471  1.00  0.00     0.039 C 
ATOM     10  G   UNL     1      -8.983  30.922  24.524  1.00  0.00     0.000 G0
ENDBRANCH   6   7
ENDBRANCH   5   6
ENDBRANCH   3   5
ENDBRANCH   1   3
BRANCH   1  11
ATOM     11  C   UNL     1      -8.506  33.438  23.230  1.00  0.00     0.087 C 
BRANCH  11  12
ATOM     12  C   UNL     1      -7.729  32.236  22.622  1.00  0.00     0.066 C 
BRANCH  12  13
ATOM     13  C   UNL     1      -7.958  30.958  23.415  1.00  0.00     0.140 C 
ATOM     14  O   UNL     1      -7.254  29.980  23.207  1.00  0.00    -0.299 OA
BRANCH  13  15
ATOM     15  C   UNL     1      -8.991  30.917  24.520  1.00  0.00     0.106 CG0
ATOM     16  G   UNL     1      -8.368  30.962  25.905  1.00  0.00     0.000 G0
ENDBRANCH  13  15
ENDBRANCH  12  13
BRANCH  12  17
ATOM     17  C   UNL     1      -8.034  31.999  21.108  1.00  0.00    -0.006 C 
ATOM     18  C   UNL     1      -9.496  31.631  20.806  1.00  0.00     0.008 C 
ATOM     19  C   UNL     1      -7.611  33.200  20.245  1.00  0.00     0.008 C 
ENDBRANCH  12  17
ENDBRANCH  11  12
ENDBRANCH   1  11
TORSDOF 1
ENDMDL
MODEL 3
REMARK VINA RESULT:    -4.973      1.914      3.797
REMARK INTER + INTRA:          -7.685
REMARK INTER:                  -7.618
REMARK INTRA:                  -0.066
REMARK UNBOUND:                -0.096
REMARK SMILES CC1=CCC[C@H](C)C(=O)C[C@H](C(C)C)C(=O)C1
REMARK SMILES IDX 8 1 9 2 6 3 7 4 5 5 4 6 3 7 2 8 1 9 10 11 11 12 15 13 16 14
REMARK SMILES IDX 17 15 12 17 13 18 14 19
REMARK H PARENT
REMARK Flexibility Score: 70.00
ROOT
ATOM      1  C   UNL     1      -7.831  33.670  22.092  1.00  0.00     0.136 C 
ATOM      2  O   UNL     1      -7.815  34.808  21.643  1.00  0.00    -0.299 OA
ENDROOT
BRANCH   1   3
ATOM      3  C   UNL     1      -8.078  32.518  21.133  1.00  0.00     0.053 C 
ATOM      4  C   UNL     1      -7.475  32.814  19.753  1.00  0.00     0.016 C 
BRANCH   3   5
ATOM      5  C   UNL     1      -7.508  31.205  21.725  1.00  0.00     0.015 C 
BRANCH   5   6
ATOM      6  C   UNL     1      -8.612  30.217  22.162  1.00  0.00     0.028 C 
BRANCH   6   7
ATOM      7  C   UNL     1      -8.320  29.602  23.512  1.00  0.00    -0.028 C 
ATOM      8  C   UNL     1      -8.798  30.055  24.695  1.00  0.00    -0.070 CG0
ATOM      9  C   UNL     1      -8.381  29.334  25.952  1.00  0.00     0.039 C 
ATOM     10  G   UNL     1      -9.723  31.254  24.816  1.00  0.00     0.000 G0
ENDBRANCH   6   7
ENDBRANCH   5   6
ENDBRANCH   3   5
ENDBRANCH   1   3
BRANCH   1  11
ATOM     11  C   UNL     1      -7.572  33.500  23.581  1.00  0.00     0.087 C 
BRANCH  11  12
ATOM     12  C   UNL     1      -8.779  33.715  24.537  1.00  0.00     0.066 C 
BRANCH  12  13
ATOM     13  C   UNL     1      -9.041  32.489  25.399  1.00  0.00     0.140 C 
ATOM     14  O   UNL     1      -8.763  32.513  26.589  1.00  0.00    -0.299 OA
BRANCH  13  15
ATOM     15  C   UNL     1      -9.724  31.273  24.813  1.00  0.00     0.106 CG0
ATOM     16  G   UNL     1      -8.799  30.071  24.717  1.00  0.00     0.000 G0
ENDBRANCH  13  15
ENDBRANCH  12  13
BRANCH  12  17
ATOM     17  C   UNL     1      -8.646  34.991  25.431  1.00  0.00    -0.006 C 
ATOM     18  C   UNL     1      -7.197  35.376  25.773  1.00  0.00     0.008 C 
ATOM     19  C   UNL     1      -9.374  36.198  24.816  1.00  0.00     0.008 C 
ENDBRANCH  12  17
ENDBRANCH  11  12
ENDBRANCH   1  11
TORSDOF 1
ENDMDL
MODEL 4
REMARK VINA RESULT:    -4.767      1.617      3.876
REMARK INTER + INTRA:          -7.371
REMARK INTER:                  -7.248
REMARK INTRA:                  -0.123
REMARK UNBOUND:                -0.096
REMARK SMILES CC1=CCC[C@H](C)C(=O)C[C@H](C(C)C)C(=O)C1
REMARK SMILES IDX 8 1 9 2 6 3 7 4 5 5 4 6 3 7 2 8 1 9 10 11 11 12 15 13 16 14
REMARK SMILES IDX 17 15 12 17 13 18 14 19
REMARK H PARENT
REMARK Flexibility Score: 70.00
ROOT
ATOM      1  C   UNL     1      -9.286  32.488  22.498  1.00  0.00     0.136 C 
ATOM      2  O   UNL     1     -10.064  32.765  21.596  1.00  0.00    -0.299 OA
ENDROOT
BRANCH   1   3
ATOM      3  C   UNL     1      -8.092  33.399  22.727  1.00  0.00     0.053 C 
ATOM      4  C   UNL     1      -7.502  33.876  21.393  1.00  0.00     0.016 C 
BRANCH   3   5
ATOM      5  C   UNL     1      -8.504  34.596  23.620  1.00  0.00     0.015 C 
BRANCH   5   6
ATOM      6  C   UNL     1      -9.378  34.174  24.822  1.00  0.00     0.028 C 
BRANCH   6   7
ATOM      7  C   UNL     1      -8.547  33.859  26.044  1.00  0.00    -0.028 C 
ATOM      8  C   UNL     1      -8.600  32.703  26.746  1.00  0.00    -0.070 CG0
ATOM      9  C   UNL     1      -7.716  32.569  27.961  1.00  0.00     0.039 C 
ATOM     10  G   UNL     1      -9.510  31.544  26.377  1.00  0.00     0.000 G0
ENDBRANCH   6   7
ENDBRANCH   5   6
ENDBRANCH   3   5
ENDBRANCH   1   3
BRANCH   1  11
ATOM     11  C   UNL     1      -9.596  31.260  23.340  1.00  0.00     0.087 C 
BRANCH  11  12
ATOM     12  C   UNL     1      -8.424  30.656  24.166  1.00  0.00     0.066 C 
BRANCH  12  13
ATOM     13  C   UNL     1      -8.810  30.449  25.623  1.00  0.00     0.140 C 
ATOM     14  O   UNL     1      -8.479  29.423  26.199  1.00  0.00    -0.299 OA
BRANCH  13  15
ATOM     15  C   UNL     1      -9.524  31.541  26.389  1.00  0.00     0.106 CG0
ATOM     16  G   UNL     1      -8.604  32.692  26.761  1.00  0.00     0.000 G0
ENDBRANCH  13  15
ENDBRANCH  12  13
BRANCH  12  17
ATOM     17  C   UNL     1      -7.853  29.333  23.561  1.00  0.00    -0.006 C 
ATOM     18  C   UNL     1      -8.682  28.758  22.399  1.00  0.00     0.008 C 
ATOM     19  C   UNL     1      -6.386  29.490  23.125  1.00  0.00     0.008 C 
ENDBRANCH  12  17
ENDBRANCH  11  12
ENDBRANCH   1  11
TORSDOF 1
ENDMDL
MODEL 5
REMARK VINA RESULT:    -4.765      1.644      4.114
REMARK INTER + INTRA:          -7.368
REMARK INTER:                  -7.445
REMARK INTRA:                   0.077
REMARK UNBOUND:                -0.096
REMARK SMILES CC1=CCC[C@H](C)C(=O)C[C@H](C(C)C)C(=O)C1
REMARK SMILES IDX 8 1 9 2 6 3 7 4 5 5 4 6 3 7 2 8 1 9 10 11 11 12 15 13 16 14
REMARK SMILES IDX 17 15 12 17 13 18 14 19
REMARK H PARENT
REMARK Flexibility Score: 70.00
ROOT
ATOM      1  C   UNL     1      -8.910  30.017  24.110  1.00  0.00     0.136 C 
ATOM      2  O   UNL     1      -9.174  28.843  24.331  1.00  0.00    -0.299 OA
ENDROOT
BRANCH   1   3
ATOM      3  C   UNL     1      -7.897  30.338  23.025  1.00  0.00     0.053 C 
ATOM      4  C   UNL     1      -6.689  29.395  23.106  1.00  0.00     0.016 C 
BRANCH   3   5
ATOM      5  C   UNL     1      -8.572  30.267  21.633  1.00  0.00     0.015 C 
BRANCH   5   6
ATOM      6  C   UNL     1      -9.154  31.625  21.180  1.00  0.00     0.028 C 
BRANCH   6   7
ATOM      7  C   UNL     1      -8.209  32.769  21.463  1.00  0.00    -0.028 C 
ATOM      8  C   UNL     1      -8.332  33.648  22.485  1.00  0.00    -0.070 CG0
ATOM      9  C   UNL     1      -7.308  34.749  22.602  1.00  0.00     0.039 C 
ATOM     10  G   UNL     1      -9.451  33.583  23.511  1.00  0.00     0.000 G0
ENDBRANCH   6   7
ENDBRANCH   5   6
ENDBRANCH   3   5
ENDBRANCH   1   3
BRANCH   1  11
ATOM     11  C   UNL     1      -9.645  31.067  24.928  1.00  0.00     0.087 C 
BRANCH  11  12
ATOM     12  C   UNL     1      -8.778  32.159  25.619  1.00  0.00     0.066 C 
BRANCH  12  13
ATOM     13  C   UNL     1      -8.937  33.514  24.946  1.00  0.00     0.140 C 
ATOM     14  O   UNL     1      -8.588  34.528  25.533  1.00  0.00    -0.299 OA
BRANCH  13  15
ATOM     15  C   UNL     1      -9.441  33.608  23.523  1.00  0.00     0.106 CG0
ATOM     16  G   UNL     1      -8.314  33.650  22.505  1.00  0.00     0.000 G0
ENDBRANCH  13  15
ENDBRANCH  12  13
BRANCH  12  17
ATOM     17  C   UNL     1      -9.038  32.280  27.156  1.00  0.00    -0.006 C 
ATOM     18  C   UNL     1      -9.981  31.206  27.725  1.00  0.00     0.008 C 
ATOM     19  C   UNL     1      -7.726  32.298  27.958  1.00  0.00     0.008 C 
ENDBRANCH  12  17
ENDBRANCH  11  12
ENDBRANCH   1  11
TORSDOF 1
ENDMDL
MODEL 6
REMARK VINA RESULT:    -4.628      1.968      4.051
REMARK INTER + INTRA:          -7.158
REMARK INTER:                  -7.370
REMARK INTRA:                   0.212
REMARK UNBOUND:                -0.096
REMARK SMILES CC1=CCC[C@H](C)C(=O)C[C@H](C(C)C)C(=O)C1
REMARK SMILES IDX 8 1 9 2 6 3 7 4 5 5 4 6 3 7 2 8 1 9 10 11 11 12 15 13 16 14
REMARK SMILES IDX 17 15 12 17 13 18 14 19
REMARK H PARENT
REMARK Flexibility Score: 70.00
ROOT
ATOM      1  C   UNL     1      -8.467  33.311  26.001  1.00  0.00     0.136 C 
ATOM      2  O   UNL     1      -8.339  34.474  26.359  1.00  0.00    -0.299 OA
ENDROOT
BRANCH   1   3
ATOM      3  C   UNL     1      -7.979  32.212  26.929  1.00  0.00     0.053 C 
ATOM      4  C   UNL     1      -8.298  32.547  28.392  1.00  0.00     0.016 C 
BRANCH   3   5
ATOM      5  C   UNL     1      -8.599  30.855  26.515  1.00  0.00     0.015 C 
BRANCH   5   6
ATOM      6  C   UNL     1      -7.571  29.899  25.868  1.00  0.00     0.028 C 
BRANCH   6   7
ATOM      7  C   UNL     1      -8.218  28.958  24.878  1.00  0.00    -0.028 C 
ATOM      8  C   UNL     1      -8.247  29.136  23.537  1.00  0.00    -0.070 CG0
ATOM      9  C   UNL     1      -8.963  28.107  22.699  1.00  0.00     0.039 C 
ATOM     10  G   UNL     1      -7.605  30.324  22.839  1.00  0.00     0.000 G0
ENDBRANCH   6   7
ENDBRANCH   5   6
ENDBRANCH   3   5
ENDBRANCH   1   3
BRANCH   1  11
ATOM     11  C   UNL     1      -9.136  33.059  24.659  1.00  0.00     0.087 C 
BRANCH  11  12
ATOM     12  C   UNL     1      -8.204  32.805  23.441  1.00  0.00     0.066 C 
BRANCH  12  13
ATOM     13  C   UNL     1      -8.547  31.504  22.730  1.00  0.00     0.140 C 
ATOM     14  O   UNL     1      -9.547  31.441  22.029  1.00  0.00    -0.299 OA
BRANCH  13  15
ATOM     15  C   UNL     1      -7.614  30.317  22.812  1.00  0.00     0.106 CG0
ATOM     16  G   UNL     1      -8.235  29.133  23.535  1.00  0.00     0.000 G0
ENDBRANCH  13  15
ENDBRANCH  12  13
BRANCH  12  17
ATOM     17  C   UNL     1      -8.172  33.990  22.423  1.00  0.00    -0.006 C 
ATOM     18  C   UNL     1      -7.365  35.211  22.897  1.00  0.00     0.008 C 
ATOM     19  C   UNL     1      -7.671  33.542  21.039  1.00  0.00     0.008 C 
ENDBRANCH  12  17
ENDBRANCH  11  12
ENDBRANCH   1  11
TORSDOF 1
ENDMDL
MODEL 7
REMARK VINA RESULT:    -4.574      1.773      2.532
REMARK INTER + INTRA:          -7.077
REMARK INTER:                  -7.244
REMARK INTRA:                   0.168
REMARK UNBOUND:                -0.096
REMARK SMILES CC1=CCC[C@H](C)C(=O)C[C@H](C(C)C)C(=O)C1
REMARK SMILES IDX 8 1 9 2 6 3 7 4 5 5 4 6 3 7 2 8 1 9 10 11 11 12 15 13 16 14
REMARK SMILES IDX 17 15 12 17 13 18 14 19
REMARK H PARENT
REMARK Flexibility Score: 70.00
ROOT
ATOM      1  C   UNL     1      -8.544  31.217  22.825  1.00  0.00     0.136 C 
ATOM      2  O   UNL     1      -9.441  31.733  22.171  1.00  0.00    -0.299 OA
ENDROOT
BRANCH   1   3
ATOM      3  C   UNL     1      -8.254  29.741  22.614  1.00  0.00     0.053 C 
ATOM      4  C   UNL     1      -6.768  29.436  22.846  1.00  0.00     0.016 C 
BRANCH   3   5
ATOM      5  C   UNL     1      -9.154  28.886  23.539  1.00  0.00     0.015 C 
BRANCH   5   6
ATOM      6  C   UNL     1     -10.070  29.743  24.442  1.00  0.00     0.028 C 
BRANCH   6   7
ATOM      7  C   UNL     1      -9.764  29.548  25.908  1.00  0.00    -0.028 C 
ATOM      8  C   UNL     1      -9.710  30.535  26.832  1.00  0.00    -0.070 CG0
ATOM      9  C   UNL     1      -9.362  30.162  28.251  1.00  0.00     0.039 C 
ATOM     10  G   UNL     1      -9.974  31.996  26.508  1.00  0.00     0.000 G0
ENDBRANCH   6   7
ENDBRANCH   5   6
ENDBRANCH   3   5
ENDBRANCH   1   3
BRANCH   1  11
ATOM     11  C   UNL     1      -7.770  32.111  23.781  1.00  0.00     0.087 C 
BRANCH  11  12
ATOM     12  C   UNL     1      -8.589  33.154  24.593  1.00  0.00     0.066 C 
BRANCH  12  13
ATOM     13  C   UNL     1      -8.730  32.747  26.053  1.00  0.00     0.140 C 
ATOM     14  O   UNL     1      -7.875  33.078  26.861  1.00  0.00    -0.299 OA
BRANCH  13  15
ATOM     15  C   UNL     1      -9.965  32.013  26.527  1.00  0.00     0.106 CG0
ATOM     16  G   UNL     1      -9.698  30.546  26.817  1.00  0.00     0.000 G0
ENDBRANCH  13  15
ENDBRANCH  12  13
BRANCH  12  17
ATOM     17  C   UNL     1      -8.026  34.608  24.485  1.00  0.00    -0.006 C 
ATOM     18  C   UNL     1      -7.438  34.958  23.108  1.00  0.00     0.008 C 
ATOM     19  C   UNL     1      -9.076  35.659  24.884  1.00  0.00     0.008 C 
ENDBRANCH  12  17
ENDBRANCH  11  12
ENDBRANCH   1  11
TORSDOF 1
ENDMDL
MODEL 8
REMARK VINA RESULT:    -4.520      2.288      4.127
REMARK INTER + INTRA:          -6.993
REMARK INTER:                  -6.846
REMARK INTRA:                  -0.147
REMARK UNBOUND:                -0.096
REMARK SMILES CC1=CCC[C@H](C)C(=O)C[C@H](C(C)C)C(=O)C1
REMARK SMILES IDX 8 1 9 2 6 3 7 4 5 5 4 6 3 7 2 8 1 9 10 11 11 12 15 13 16 14
REMARK SMILES IDX 17 15 12 17 13 18 14 19
REMARK H PARENT
REMARK Flexibility Score: 70.00
ROOT
ATOM      1  C   UNL     1      -9.257  31.160  25.399  1.00  0.00     0.136 C 
ATOM      2  O   UNL     1     -10.125  30.862  26.208  1.00  0.00    -0.299 OA
ENDROOT
BRANCH   1   3
ATOM      3  C   UNL     1      -8.008  30.299  25.329  1.00  0.00     0.053 C 
ATOM      4  C   UNL     1      -7.501  29.952  26.735  1.00  0.00     0.016 C 
BRANCH   3   5
ATOM      5  C   UNL     1      -8.292  29.020  24.503  1.00  0.00     0.015 C 
BRANCH   5   6
ATOM      6  C   UNL     1      -7.649  29.058  23.098  1.00  0.00     0.028 C 
BRANCH   6   7
ATOM      7  C   UNL     1      -8.640  29.466  22.033  1.00  0.00    -0.028 C 
ATOM      8  C   UNL     1      -8.652  30.659  21.394  1.00  0.00    -0.070 CG0
ATOM      9  C   UNL     1      -9.734  30.908  20.374  1.00  0.00     0.039 C 
ATOM     10  G   UNL     1      -7.638  31.759  21.662  1.00  0.00     0.000 G0
ENDBRANCH   6   7
ENDBRANCH   5   6
ENDBRANCH   3   5
ENDBRANCH   1   3
BRANCH   1  11
ATOM     11  C   UNL     1      -9.515  32.362  24.503  1.00  0.00     0.087 C 
BRANCH  11  12
ATOM     12  C   UNL     1      -8.272  33.062  23.885  1.00  0.00     0.066 C 
BRANCH  12  13
ATOM     13  C   UNL     1      -8.265  32.961  22.367  1.00  0.00     0.140 C 
ATOM     14  O   UNL     1      -8.691  33.888  21.694  1.00  0.00    -0.299 OA
BRANCH  13  15
ATOM     15  C   UNL     1      -7.653  31.758  21.683  1.00  0.00     0.106 CG0
ATOM     16  G   UNL     1      -8.668  30.661  21.409  1.00  0.00     0.000 G0
ENDBRANCH  13  15
ENDBRANCH  12  13
BRANCH  12  17
ATOM     17  C   UNL     1      -8.111  34.552  24.331  1.00  0.00    -0.006 C 
ATOM     18  C   UNL     1      -8.278  34.781  25.843  1.00  0.00     0.008 C 
ATOM     19  C   UNL     1      -6.774  35.148  23.860  1.00  0.00     0.008 C 
ENDBRANCH  12  17
ENDBRANCH  11  12
ENDBRANCH   1  11
TORSDOF 1
ENDMDL
MODEL 9
REMARK VINA RESULT:    -4.107      1.934      5.375
REMARK INTER + INTRA:          -6.363
REMARK INTER:                  -6.754
REMARK INTRA:                   0.391
REMARK UNBOUND:                -0.096
REMARK SMILES CC1=CCC[C@H](C)C(=O)C[C@H](C(C)C)C(=O)C1
REMARK SMILES IDX 8 1 9 2 6 3 7 4 5 5 4 6 3 7 2 8 1 9 10 11 11 12 15 13 16 14
REMARK SMILES IDX 17 15 12 17 13 18 14 19
REMARK H PARENT
REMARK Flexibility Score: 70.00
ROOT
ATOM      1  C   UNL     1      -8.303  33.772  26.008  1.00  0.00     0.136 C 
ATOM      2  O   UNL     1      -7.965  34.782  26.610  1.00  0.00    -0.299 OA
ENDROOT
BRANCH   1   3
ATOM      3  C   UNL     1      -8.847  33.920  24.598  1.00  0.00     0.053 C 
ATOM      4  C   UNL     1      -8.870  35.394  24.170  1.00  0.00     0.016 C 
BRANCH   3   5
ATOM      5  C   UNL     1      -8.011  33.063  23.615  1.00  0.00     0.015 C 
BRANCH   5   6
ATOM      6  C   UNL     1      -8.884  32.151  22.724  1.00  0.00     0.028 C 
BRANCH   6   7
ATOM      7  C   UNL     1      -8.214  30.826  22.442  1.00  0.00    -0.028 C 
ATOM      8  C   UNL     1      -8.356  29.705  23.188  1.00  0.00    -0.070 CG0
ATOM      9  C   UNL     1      -7.588  28.475  22.774  1.00  0.00     0.039 C 
ATOM     10  G   UNL     1      -9.239  29.631  24.422  1.00  0.00     0.000 G0
ENDBRANCH   6   7
ENDBRANCH   5   6
ENDBRANCH   3   5
ENDBRANCH   1   3
BRANCH   1  11
ATOM     11  C   UNL     1      -8.121  32.439  26.717  1.00  0.00     0.087 C 
BRANCH  11  12
ATOM     12  C   UNL     1      -9.177  31.335  26.427  1.00  0.00     0.066 C 
BRANCH  12  13
ATOM     13  C   UNL     1      -8.574  30.162  25.670  1.00  0.00     0.140 C 
ATOM     14  O   UNL     1      -7.574  29.609  26.105  1.00  0.00    -0.299 OA
BRANCH  13  15
ATOM     15  C   UNL     1      -9.252  29.620  24.432  1.00  0.00     0.106 CG0
ATOM     16  G   UNL     1      -8.367  29.698  23.198  1.00  0.00     0.000 G0
ENDBRANCH  13  15
ENDBRANCH  12  13
BRANCH  12  17
ATOM     17  C   UNL     1      -9.920  30.833  27.708  1.00  0.00    -0.006 C 
ATOM     18  C   UNL     1     -10.058  29.303  27.800  1.00  0.00     0.008 C 
ATOM     19  C   UNL     1      -9.274  31.375  28.994  1.00  0.00     0.008 C 
ENDBRANCH  12  17
ENDBRANCH  11  12
ENDBRANCH   1  11
TORSDOF 1
ENDMDL
