MODEL 1
REMARK VINA RESULT:    -2.245      0.000      0.000
REMARK INTER + INTRA:          -2.245
REMARK INTER:                  -2.245
REMARK INTRA:                   0.000
REMARK UNBOUND:                 0.000
REMARK SMILES CC(=O)[O-]
REMARK SMILES IDX 1 1 2 2 3 3 4 4
REMARK H PARENT
REMARK Flexibility Score: inf
ROOT
ATOM      1  C   UNL     1       9.716   1.541  36.801  1.00  0.00     0.063 C 
ATOM      2  C   UNL     1       8.648   1.412  35.767  1.00  0.00     0.038 C 
ATOM      3  O   UNL     1       7.540   0.895  36.066  1.00  0.00    -0.550 OA
ATOM      4  O   UNL     1       8.853   1.913  34.489  1.00  0.00    -0.550 OA
ENDROOT
TORSDOF 0
ENDMDL
MODEL 2
REMARK VINA RESULT:    -2.237      1.864      2.122
REMARK INTER + INTRA:          -2.237
REMARK INTER:                  -2.237
REMARK INTRA:                   0.000
REMARK UNBOUND:                 0.000
REMARK SMILES CC(=O)[O-]
REMARK SMILES IDX 1 1 2 2 3 3 4 4
REMARK H PARENT
REMARK Flexibility Score: inf
ROOT
ATOM      1  C   UNL     1       8.153   0.866  35.903  1.00  0.00     0.063 C 
ATOM      2  C   UNL     1       9.346   1.438  36.590  1.00  0.00     0.038 C 
ATOM      3  O   UNL     1       9.202   2.148  37.619  1.00  0.00    -0.550 OA
ATOM      4  O   UNL     1      10.622   1.144  36.128  1.00  0.00    -0.550 OA
ENDROOT
TORSDOF 0
ENDMDL
MODEL 3
REMARK VINA RESULT:    -2.230      0.091      1.619
REMARK INTER + INTRA:          -2.230
REMARK INTER:                  -2.230
REMARK INTRA:                   0.000
REMARK UNBOUND:                 0.000
REMARK SMILES CC(=O)[O-]
REMARK SMILES IDX 1 1 2 2 3 3 4 4
REMARK H PARENT
REMARK Flexibility Score: inf
ROOT
ATOM      1  C   UNL     1       9.740   1.517  36.756  1.00  0.00     0.063 C 
ATOM      2  C   UNL     1       8.666   1.443  35.723  1.00  0.00     0.038 C 
ATOM      3  O   UNL     1       8.859   1.925  34.577  1.00  0.00    -0.550 OA
ATOM      4  O   UNL     1       7.473   0.791  36.006  1.00  0.00    -0.550 OA
ENDROOT
TORSDOF 0
ENDMDL
MODEL 4
REMARK VINA RESULT:    -2.219      3.871      4.209
REMARK INTER + INTRA:          -2.219
REMARK INTER:                  -2.219
REMARK INTRA:                   0.000
REMARK UNBOUND:                 0.000
REMARK SMILES CC(=O)[O-]
REMARK SMILES IDX 1 1 2 2 3 3 4 4
REMARK H PARENT
REMARK Flexibility Score: inf
ROOT
ATOM      1  C   UNL     1      12.882   0.331  34.561  1.00  0.00     0.063 C 
ATOM      2  C   UNL     1      12.540   1.286  35.654  1.00  0.00     0.038 C 
ATOM      3  O   UNL     1      11.421   1.216  36.226  1.00  0.00    -0.550 OA
ATOM      4  O   UNL     1      13.475   2.219  36.081  1.00  0.00    -0.550 OA
ENDROOT
TORSDOF 0
ENDMDL
MODEL 5
REMARK VINA RESULT:    -2.191     18.885     19.306
REMARK INTER + INTRA:          -2.191
REMARK INTER:                  -2.191
REMARK INTRA:                   0.000
REMARK UNBOUND:                 0.000
REMARK SMILES CC(=O)[O-]
REMARK SMILES IDX 1 1 2 2 3 3 4 4
REMARK H PARENT
REMARK Flexibility Score: inf
ROOT
ATOM      1  C   UNL     1      13.564 -12.126  47.480  1.00  0.00     0.063 C 
ATOM      2  C   UNL     1      13.063 -11.924  48.870  1.00  0.00     0.038 C 
ATOM      3  O   UNL     1      13.414 -10.909  49.526  1.00  0.00    -0.550 OA
ATOM      4  O   UNL     1      12.164 -12.826  49.423  1.00  0.00    -0.550 OA
ENDROOT
TORSDOF 0
ENDMDL
MODEL 6
REMARK VINA RESULT:    -2.187      1.422      2.203
REMARK INTER + INTRA:          -2.187
REMARK INTER:                  -2.187
REMARK INTRA:                   0.000
REMARK UNBOUND:                 0.000
REMARK SMILES CC(=O)[O-]
REMARK SMILES IDX 1 1 2 2 3 3 4 4
REMARK H PARENT
REMARK Flexibility Score: inf
ROOT
ATOM      1  C   UNL     1       7.591   0.661  36.009  1.00  0.00     0.063 C 
ATOM      2  C   UNL     1       8.832   1.488  36.036  1.00  0.00     0.038 C 
ATOM      3  O   UNL     1       9.357   1.872  34.959  1.00  0.00    -0.550 OA
ATOM      4  O   UNL     1       9.378   1.885  37.250  1.00  0.00    -0.550 OA
ENDROOT
TORSDOF 0
ENDMDL
MODEL 7
REMARK VINA RESULT:    -2.134     18.174     18.732
REMARK INTER + INTRA:          -2.134
REMARK INTER:                  -2.134
REMARK INTRA:                   0.000
REMARK UNBOUND:                 0.000
REMARK SMILES CC(=O)[O-]
REMARK SMILES IDX 1 1 2 2 3 3 4 4
REMARK H PARENT
REMARK Flexibility Score: inf
ROOT
ATOM      1  C   UNL     1      13.215 -12.230  49.499  1.00  0.00     0.063 C 
ATOM      2  C   UNL     1      13.253 -11.843  48.059  1.00  0.00     0.038 C 
ATOM      3  O   UNL     1      14.026 -12.441  47.265  1.00  0.00    -0.550 OA
ATOM      4  O   UNL     1      12.397 -10.861  47.579  1.00  0.00    -0.550 OA
ENDROOT
TORSDOF 0
ENDMDL
MODEL 8
REMARK VINA RESULT:    -2.108      3.570      4.120
REMARK INTER + INTRA:          -2.108
REMARK INTER:                  -2.108
REMARK INTRA:                   0.000
REMARK UNBOUND:                 0.000
REMARK SMILES CC(=O)[O-]
REMARK SMILES IDX 1 1 2 2 3 3 4 4
REMARK H PARENT
REMARK Flexibility Score: inf
ROOT
ATOM      1  C   UNL     1      10.739  -0.094  33.796  1.00  0.00     0.063 C 
ATOM      2  C   UNL     1      11.862   0.470  34.598  1.00  0.00     0.038 C 
ATOM      3  O   UNL     1      13.038   0.061  34.412  1.00  0.00    -0.550 OA
ATOM      4  O   UNL     1      11.622   1.487  35.513  1.00  0.00    -0.550 OA
ENDROOT
TORSDOF 0
ENDMDL
MODEL 9
REMARK VINA RESULT:    -2.062      2.350      2.958
REMARK INTER + INTRA:          -2.062
REMARK INTER:                  -2.062
REMARK INTRA:                   0.000
REMARK UNBOUND:                 0.000
REMARK SMILES CC(=O)[O-]
REMARK SMILES IDX 1 1 2 2 3 3 4 4
REMARK H PARENT
REMARK Flexibility Score: inf
ROOT
ATOM      1  C   UNL     1       9.735   1.455  36.746  1.00  0.00     0.063 C 
ATOM      2  C   UNL     1      10.939   1.756  35.920  1.00  0.00     0.038 C 
ATOM      3  O   UNL     1      10.870   2.600  34.989  1.00  0.00    -0.550 OA
ATOM      4  O   UNL     1      12.153   1.148  36.211  1.00  0.00    -0.550 OA
ENDROOT
TORSDOF 0
ENDMDL
