MODEL 1
REMARK VINA RESULT:    -4.129      0.000      0.000
REMARK INTER + INTRA:          -6.293
REMARK INTER:                  -5.819
REMARK INTRA:                  -0.474
REMARK UNBOUND:                -0.474
REMARK SMILES C=CCCCCCCC(=O)[O-]
REMARK SMILES IDX 6 1 7 2 8 3 9 4 10 5 11 6 5 7 4 8 3 9 2 10 1 11
REMARK H PARENT
REMARK Flexibility Score: inf
ROOT
ATOM      1  C   UNL     1     -28.527  -7.719  23.331  1.00  0.00     0.000 C 
ENDROOT
BRANCH   1   2
ATOM      2  C   UNL     1     -27.955  -8.455  22.104  1.00  0.00     0.006 C 
BRANCH   2   3
ATOM      3  C   UNL     1     -29.004  -8.794  21.028  1.00  0.00     0.053 C 
BRANCH   3   4
ATOM      4  C   UNL     1     -28.660  -8.223  19.684  1.00  0.00     0.041 C 
ATOM      5  O   UNL     1     -28.383  -8.986  18.721  1.00  0.00    -0.550 OA
ATOM      6  O   UNL     1     -28.687  -6.848  19.484  1.00  0.00    -0.550 OA
ENDBRANCH   3   4
ENDBRANCH   2   3
ENDBRANCH   1   2
BRANCH   1   7
ATOM      7  C   UNL     1     -28.977  -6.271  23.075  1.00  0.00     0.000 C 
BRANCH   7   8
ATOM      8  C   UNL     1     -28.261  -5.251  23.977  1.00  0.00     0.004 C 
BRANCH   8   9
ATOM      9  C   UNL     1     -27.262  -5.923  24.929  1.00  0.00     0.027 C 
BRANCH   9  10
ATOM     10  C   UNL     1     -27.586  -5.662  26.377  1.00  0.00    -0.035 C 
ATOM     11  C   UNL     1     -28.545  -6.336  27.017  1.00  0.00     0.004 C 
ENDBRANCH   9  10
ENDBRANCH   8   9
ENDBRANCH   7   8
ENDBRANCH   1   7
TORSDOF 7
ENDMDL
MODEL 2
REMARK VINA RESULT:    -4.072      3.437      5.995
REMARK INTER + INTRA:          -6.213
REMARK INTER:                  -5.803
REMARK INTRA:                  -0.410
REMARK UNBOUND:                -0.474
REMARK SMILES C=CCCCCCCC(=O)[O-]
REMARK SMILES IDX 6 1 7 2 8 3 9 4 10 5 11 6 5 7 4 8 3 9 2 10 1 11
REMARK H PARENT
REMARK Flexibility Score: inf
ROOT
ATOM      1  C   UNL     1     -28.478  -5.573  23.556  1.00  0.00     0.000 C 
ENDROOT
BRANCH   1   2
ATOM      2  C   UNL     1     -27.432  -6.141  24.535  1.00  0.00     0.006 C 
BRANCH   2   3
ATOM      3  C   UNL     1     -27.383  -5.416  25.894  1.00  0.00     0.053 C 
BRANCH   3   4
ATOM      4  C   UNL     1     -28.246  -6.071  26.931  1.00  0.00     0.041 C 
ATOM      5  O   UNL     1     -28.166  -5.722  28.138  1.00  0.00    -0.550 OA
ATOM      6  O   UNL     1     -29.171  -7.038  26.556  1.00  0.00    -0.550 OA
ENDBRANCH   3   4
ENDBRANCH   2   3
ENDBRANCH   1   2
BRANCH   1   7
ATOM      7  C   UNL     1     -29.087  -6.598  22.584  1.00  0.00     0.000 C 
BRANCH   7   8
ATOM      8  C   UNL     1     -28.735  -8.051  22.946  1.00  0.00     0.004 C 
BRANCH   8   9
ATOM      9  C   UNL     1     -28.007  -8.770  21.801  1.00  0.00     0.027 C 
BRANCH   9  10
ATOM     10  C   UNL     1     -28.339  -8.184  20.454  1.00  0.00    -0.035 C 
ATOM     11  C   UNL     1     -28.703  -8.951  19.423  1.00  0.00     0.004 C 
ENDBRANCH   9  10
ENDBRANCH   8   9
ENDBRANCH   7   8
ENDBRANCH   1   7
TORSDOF 7
ENDMDL
MODEL 3
REMARK VINA RESULT:    -3.822     11.472     12.872
REMARK INTER + INTRA:          -5.861
REMARK INTER:                  -4.979
REMARK INTRA:                  -0.881
REMARK UNBOUND:                -0.474
REMARK SMILES C=CCCCCCCC(=O)[O-]
REMARK SMILES IDX 6 1 7 2 8 3 9 4 10 5 11 6 5 7 4 8 3 9 2 10 1 11
REMARK H PARENT
REMARK Flexibility Score: inf
ROOT
ATOM      1  C   UNL     1     -35.343   2.939  19.481  1.00  0.00     0.000 C 
ENDROOT
BRANCH   1   2
ATOM      2  C   UNL     1     -33.906   2.382  19.535  1.00  0.00     0.006 C 
BRANCH   2   3
ATOM      3  C   UNL     1     -33.227   2.259  18.159  1.00  0.00     0.053 C 
BRANCH   3   4
ATOM      4  C   UNL     1     -33.071   0.834  17.716  1.00  0.00     0.041 C 
ATOM      5  O   UNL     1     -33.621  -0.096  18.362  1.00  0.00    -0.550 OA
ATOM      6  O   UNL     1     -32.353   0.538  16.564  1.00  0.00    -0.550 OA
ENDBRANCH   3   4
ENDBRANCH   2   3
ENDBRANCH   1   2
BRANCH   1   7
ATOM      7  C   UNL     1     -36.443   1.890  19.253  1.00  0.00     0.000 C 
BRANCH   7   8
ATOM      8  C   UNL     1     -36.979   1.886  17.810  1.00  0.00     0.004 C 
BRANCH   8   9
ATOM      9  C   UNL     1     -36.747   3.230  17.105  1.00  0.00     0.027 C 
BRANCH   9  10
ATOM     10  C   UNL     1     -35.999   3.074  15.807  1.00  0.00    -0.035 C 
ATOM     11  C   UNL     1     -35.709   1.873  15.301  1.00  0.00     0.004 C 
ENDBRANCH   9  10
ENDBRANCH   8   9
ENDBRANCH   7   8
ENDBRANCH   1   7
TORSDOF 7
ENDMDL
MODEL 4
REMARK VINA RESULT:    -3.820     12.145     13.146
REMARK INTER + INTRA:          -5.858
REMARK INTER:                  -4.989
REMARK INTRA:                  -0.869
REMARK UNBOUND:                -0.474
REMARK SMILES C=CCCCCCCC(=O)[O-]
REMARK SMILES IDX 6 1 7 2 8 3 9 4 10 5 11 6 5 7 4 8 3 9 2 10 1 11
REMARK H PARENT
REMARK Flexibility Score: inf
ROOT
ATOM      1  C   UNL     1     -34.522   0.445  16.833  1.00  0.00     0.000 C 
ENDROOT
BRANCH   1   2
ATOM      2  C   UNL     1     -35.109   1.225  15.640  1.00  0.00     0.006 C 
BRANCH   2   3
ATOM      3  C   UNL     1     -36.519   1.792  15.890  1.00  0.00     0.053 C 
BRANCH   3   4
ATOM      4  C   UNL     1     -36.536   3.290  15.968  1.00  0.00     0.041 C 
ATOM      5  O   UNL     1     -37.378   3.880  16.695  1.00  0.00    -0.550 OA
ATOM      6  O   UNL     1     -35.592   4.033  15.271  1.00  0.00    -0.550 OA
ENDBRANCH   3   4
ENDBRANCH   2   3
ENDBRANCH   1   2
BRANCH   1   7
ATOM      7  C   UNL     1     -33.227   1.028  17.422  1.00  0.00     0.000 C 
BRANCH   7   8
ATOM      8  C   UNL     1     -33.403   2.458  17.961  1.00  0.00     0.004 C 
BRANCH   8   9
ATOM      9  C   UNL     1     -33.902   2.471  19.412  1.00  0.00     0.027 C 
BRANCH   9  10
ATOM     10  C   UNL     1     -35.354   2.856  19.516  1.00  0.00    -0.035 C 
ATOM     11  C   UNL     1     -36.306   1.953  19.766  1.00  0.00     0.004 C 
ENDBRANCH   9  10
ENDBRANCH   8   9
ENDBRANCH   7   8
ENDBRANCH   1   7
TORSDOF 7
ENDMDL
MODEL 5
REMARK VINA RESULT:    -3.803     12.069     13.198
REMARK INTER + INTRA:          -5.834
REMARK INTER:                  -5.037
REMARK INTRA:                  -0.797
REMARK UNBOUND:                -0.474
REMARK SMILES C=CCCCCCCC(=O)[O-]
REMARK SMILES IDX 6 1 7 2 8 3 9 4 10 5 11 6 5 7 4 8 3 9 2 10 1 11
REMARK H PARENT
REMARK Flexibility Score: inf
ROOT
ATOM      1  C   UNL     1     -36.407   1.689  18.824  1.00  0.00     0.000 C 
ENDROOT
BRANCH   1   2
ATOM      2  C   UNL     1     -37.168   2.093  17.545  1.00  0.00     0.006 C 
BRANCH   2   3
ATOM      3  C   UNL     1     -36.757   3.463  16.973  1.00  0.00     0.053 C 
BRANCH   3   4
ATOM      4  C   UNL     1     -35.996   3.348  15.686  1.00  0.00     0.041 C 
ATOM      5  O   UNL     1     -35.647   2.218  15.252  1.00  0.00    -0.550 OA
ATOM      6  O   UNL     1     -35.709   4.486  14.943  1.00  0.00    -0.550 OA
ENDBRANCH   3   4
ENDBRANCH   2   3
ENDBRANCH   1   2
BRANCH   1   7
ATOM      7  C   UNL     1     -35.511   2.785  19.424  1.00  0.00     0.000 C 
BRANCH   7   8
ATOM      8  C   UNL     1     -34.033   2.367  19.518  1.00  0.00     0.004 C 
BRANCH   8   9
ATOM      9  C   UNL     1     -33.268   2.654  18.218  1.00  0.00     0.027 C 
BRANCH   9  10
ATOM     10  C   UNL     1     -32.967   1.399  17.442  1.00  0.00    -0.035 C 
ATOM     11  C   UNL     1     -33.207   0.185  17.945  1.00  0.00     0.004 C 
ENDBRANCH   9  10
ENDBRANCH   8   9
ENDBRANCH   7   8
ENDBRANCH   1   7
TORSDOF 7
ENDMDL
MODEL 6
REMARK VINA RESULT:    -3.790      4.221      5.782
REMARK INTER + INTRA:          -5.815
REMARK INTER:                  -5.404
REMARK INTRA:                  -0.411
REMARK UNBOUND:                -0.474
REMARK SMILES C=CCCCCCCC(=O)[O-]
REMARK SMILES IDX 6 1 7 2 8 3 9 4 10 5 11 6 5 7 4 8 3 9 2 10 1 11
REMARK H PARENT
REMARK Flexibility Score: inf
ROOT
ATOM      1  C   UNL     1     -28.896  -6.629  27.344  1.00  0.00     0.000 C 
ENDROOT
BRANCH   1   2
ATOM      2  C   UNL     1     -29.900  -7.345  26.418  1.00  0.00     0.006 C 
BRANCH   2   3
ATOM      3  C   UNL     1     -30.975  -8.157  27.163  1.00  0.00     0.053 C 
BRANCH   3   4
ATOM      4  C   UNL     1     -32.344  -7.555  27.040  1.00  0.00     0.041 C 
ATOM      5  O   UNL     1     -33.154  -7.987  26.179  1.00  0.00    -0.550 OA
ATOM      6  O   UNL     1     -32.740  -6.545  27.908  1.00  0.00    -0.550 OA
ENDBRANCH   3   4
ENDBRANCH   2   3
ENDBRANCH   1   2
BRANCH   1   7
ATOM      7  C   UNL     1     -27.795  -5.834  26.624  1.00  0.00     0.000 C 
BRANCH   7   8
ATOM      8  C   UNL     1     -27.811  -6.031  25.098  1.00  0.00     0.004 C 
BRANCH   8   9
ATOM      9  C   UNL     1     -27.559  -4.718  24.344  1.00  0.00     0.027 C 
BRANCH   9  10
ATOM     10  C   UNL     1     -28.542  -4.505  23.222  1.00  0.00    -0.035 C 
ATOM     11  C   UNL     1     -29.301  -5.497  22.752  1.00  0.00     0.004 C 
ENDBRANCH   9  10
ENDBRANCH   8   9
ENDBRANCH   7   8
ENDBRANCH   1   7
TORSDOF 7
ENDMDL
MODEL 7
REMARK VINA RESULT:    -3.789     12.297     13.673
REMARK INTER + INTRA:          -5.813
REMARK INTER:                  -5.227
REMARK INTRA:                  -0.587
REMARK UNBOUND:                -0.474
REMARK SMILES C=CCCCCCCC(=O)[O-]
REMARK SMILES IDX 6 1 7 2 8 3 9 4 10 5 11 6 5 7 4 8 3 9 2 10 1 11
REMARK H PARENT
REMARK Flexibility Score: inf
ROOT
ATOM      1  C   UNL     1     -34.539   0.598  16.873  1.00  0.00     0.000 C 
ENDROOT
BRANCH   1   2
ATOM      2  C   UNL     1     -33.178   1.259  17.169  1.00  0.00     0.006 C 
BRANCH   2   3
ATOM      3  C   UNL     1     -33.277   2.585  17.945  1.00  0.00     0.053 C 
BRANCH   3   4
ATOM      4  C   UNL     1     -33.730   2.393  19.363  1.00  0.00     0.041 C 
ATOM      5  O   UNL     1     -32.986   1.808  20.194  1.00  0.00    -0.550 OA
ATOM      6  O   UNL     1     -34.955   2.900  19.777  1.00  0.00    -0.550 OA
ENDBRANCH   3   4
ENDBRANCH   2   3
ENDBRANCH   1   2
BRANCH   1   7
ATOM      7  C   UNL     1     -35.398   1.313  15.818  1.00  0.00     0.000 C 
BRANCH   7   8
ATOM      8  C   UNL     1     -36.740   1.816  16.377  1.00  0.00     0.004 C 
BRANCH   8   9
ATOM      9  C   UNL     1     -36.672   3.290  16.801  1.00  0.00     0.027 C 
BRANCH   9  10
ATOM     10  C   UNL     1     -36.905   4.229  15.646  1.00  0.00    -0.035 C 
ATOM     11  C   UNL     1     -35.898   4.859  15.036  1.00  0.00     0.004 C 
ENDBRANCH   9  10
ENDBRANCH   8   9
ENDBRANCH   7   8
ENDBRANCH   1   7
TORSDOF 7
ENDMDL
MODEL 8
REMARK VINA RESULT:    -3.755      3.228      4.647
REMARK INTER + INTRA:          -5.765
REMARK INTER:                  -5.471
REMARK INTRA:                  -0.294
REMARK UNBOUND:                -0.474
REMARK SMILES C=CCCCCCCC(=O)[O-]
REMARK SMILES IDX 6 1 7 2 8 3 9 4 10 5 11 6 5 7 4 8 3 9 2 10 1 11
REMARK H PARENT
REMARK Flexibility Score: inf
ROOT
ATOM      1  C   UNL     1     -27.792  -5.642  26.670  1.00  0.00     0.000 C 
ENDROOT
BRANCH   1   2
ATOM      2  C   UNL     1     -27.496  -5.935  25.185  1.00  0.00     0.006 C 
BRANCH   2   3
ATOM      3  C   UNL     1     -27.633  -4.710  24.262  1.00  0.00     0.053 C 
BRANCH   3   4
ATOM      4  C   UNL     1     -28.656  -4.910  23.183  1.00  0.00     0.041 C 
ATOM      5  O   UNL     1     -29.460  -5.878  23.241  1.00  0.00    -0.550 OA
ATOM      6  O   UNL     1     -28.750  -4.002  22.136  1.00  0.00    -0.550 OA
ENDBRANCH   3   4
ENDBRANCH   2   3
ENDBRANCH   1   2
BRANCH   1   7
ATOM      7  C   UNL     1     -28.759  -6.625  27.350  1.00  0.00     0.000 C 
BRANCH   7   8
ATOM      8  C   UNL     1     -29.661  -7.369  26.350  1.00  0.00     0.004 C 
BRANCH   8   9
ATOM      9  C   UNL     1     -30.944  -7.892  27.010  1.00  0.00     0.027 C 
BRANCH   9  10
ATOM     10  C   UNL     1     -31.749  -8.766  26.084  1.00  0.00    -0.035 C 
ATOM     11  C   UNL     1     -33.081  -8.831  26.157  1.00  0.00     0.004 C 
ENDBRANCH   9  10
ENDBRANCH   8   9
ENDBRANCH   7   8
ENDBRANCH   1   7
TORSDOF 7
ENDMDL
MODEL 9
REMARK VINA RESULT:    -3.733      2.531      5.549
REMARK INTER + INTRA:          -5.735
REMARK INTER:                  -5.338
REMARK INTRA:                  -0.396
REMARK UNBOUND:                -0.474
REMARK SMILES C=CCCCCCCC(=O)[O-]
REMARK SMILES IDX 6 1 7 2 8 3 9 4 10 5 11 6 5 7 4 8 3 9 2 10 1 11
REMARK H PARENT
REMARK Flexibility Score: inf
ROOT
ATOM      1  C   UNL     1     -29.233  -8.235  23.250  1.00  0.00     0.000 C 
ENDROOT
BRANCH   1   2
ATOM      2  C   UNL     1     -29.156  -7.099  24.289  1.00  0.00     0.006 C 
BRANCH   2   3
ATOM      3  C   UNL     1     -27.932  -6.178  24.125  1.00  0.00     0.053 C 
BRANCH   3   4
ATOM      4  C   UNL     1     -28.284  -4.852  23.518  1.00  0.00     0.041 C 
ATOM      5  O   UNL     1     -27.574  -3.838  23.750  1.00  0.00    -0.550 OA
ATOM      6  O   UNL     1     -29.371  -4.746  22.660  1.00  0.00    -0.550 OA
ENDBRANCH   3   4
ENDBRANCH   2   3
ENDBRANCH   1   2
BRANCH   1   7
ATOM      7  C   UNL     1     -27.929  -8.508  22.482  1.00  0.00     0.000 C 
BRANCH   7   8
ATOM      8  C   UNL     1     -28.118  -8.492  20.955  1.00  0.00     0.004 C 
BRANCH   8   9
ATOM      9  C   UNL     1     -29.485  -9.050  20.537  1.00  0.00     0.027 C 
BRANCH   9  10
ATOM     10  C   UNL     1     -29.431  -9.768  19.214  1.00  0.00    -0.035 C 
ATOM     11  C   UNL     1     -28.756  -9.276  18.172  1.00  0.00     0.004 C 
ENDBRANCH   9  10
ENDBRANCH   8   9
ENDBRANCH   7   8
ENDBRANCH   1   7
TORSDOF 7
ENDMDL
