MODEL 1
REMARK VINA RESULT:    -6.504      0.000      0.000
REMARK INTER + INTRA:         -10.777
REMARK INTER:                 -10.116
REMARK INTRA:                  -0.661
REMARK UNBOUND:                -0.661
REMARK SMILES COc1cc(CNC(=O)CCCCC=CC(C)C)ccc1O
REMARK SMILES IDX 11 1 12 2 13 3 14 4 15 5 16 6 17 7 18 8 10 9 8 10 9 11 7 12
REMARK SMILES IDX 6 14 5 15 4 16 19 17 3 18 20 19 21 20 2 21 1 22 22 23
REMARK H PARENT 7 13 22 24
REMARK Flexibility Score: inf
ROOT
ATOM      1  C   UNL     1      10.068   9.646 -15.804  1.00  0.00     0.010 C 
ENDROOT
BRANCH   1   2
ATOM      2  C   UNL     1      10.473   8.257 -15.295  1.00  0.00     0.005 C 
BRANCH   2   3
ATOM      3  C   UNL     1       9.247   7.470 -14.818  1.00  0.00     0.027 C 
BRANCH   3   4
ATOM      4  C   UNL     1       8.481   8.228 -13.768  1.00  0.00    -0.031 C 
ATOM      5  C   UNL     1       7.474   7.661 -13.085  1.00  0.00    -0.028 C 
BRANCH   5   6
ATOM      6  C   UNL     1       6.718   8.425 -12.022  1.00  0.00     0.005 C 
ATOM      7  C   UNL     1       7.070   7.893 -10.629  1.00  0.00     0.012 C 
ATOM      8  C   UNL     1       7.028   9.922 -12.117  1.00  0.00     0.012 C 
ENDBRANCH   5   6
ENDBRANCH   3   4
ENDBRANCH   2   3
ENDBRANCH   1   2
BRANCH   1   9
ATOM      9  C   UNL     1      10.429   9.819 -17.282  1.00  0.00     0.100 C 
BRANCH   9  10
ATOM     10  C   UNL     1       9.360  10.590 -17.994  1.00  0.00     0.220 C 
ATOM     11  O   UNL     1       8.153  10.409 -17.682  1.00  0.00    -0.275 OA
ATOM     12  N   UNL     1       9.707  11.499 -19.047  1.00  0.00    -0.352 N 
ATOM     13  H   UNL     1      10.714  11.625 -19.296  1.00  0.00     0.163 HD
BRANCH  12  14
ATOM     14  C   UNL     1       8.705  12.246 -19.803  1.00  0.00     0.151 C 
BRANCH  14  15
ATOM     15  C   UNL     1       8.919  13.727 -19.642  1.00  0.00    -0.025 A 
ATOM     16  C   UNL     1       8.442  14.616 -20.617  1.00  0.00     0.056 A 
ATOM     17  C   UNL     1       9.609  14.230 -18.530  1.00  0.00     0.009 A 
ATOM     18  C   UNL     1       8.655  16.004 -20.490  1.00  0.00     0.160 A 
ATOM     19  C   UNL     1       9.815  15.604 -18.393  1.00  0.00     0.050 A 
ATOM     20  C   UNL     1       9.345  16.492 -19.365  1.00  0.00     0.157 A 
BRANCH  18  21
ATOM     21  O   UNL     1       8.201  16.917 -21.455  1.00  0.00    -0.493 OA
ATOM     22  C   UNL     1       8.533  16.866 -22.838  1.00  0.00     0.278 C 
ENDBRANCH  18  21
BRANCH  20  23
ATOM     23  O   UNL     1       9.576  17.857 -19.197  1.00  0.00    -0.504 OA
ATOM     24  H   UNL     1       8.944  18.559 -19.560  1.00  0.00     0.293 HD
ENDBRANCH  20  23
ENDBRANCH  14  15
ENDBRANCH  12  14
ENDBRANCH   9  10
ENDBRANCH   1   9
TORSDOF 10
ENDMDL
MODEL 2
REMARK VINA RESULT:    -6.363      1.539      2.664
REMARK INTER + INTRA:         -10.557
REMARK INTER:                  -9.931
REMARK INTRA:                  -0.626
REMARK UNBOUND:                -0.661
REMARK SMILES COc1cc(CNC(=O)CCCCC=CC(C)C)ccc1O
REMARK SMILES IDX 11 1 12 2 13 3 14 4 15 5 16 6 17 7 18 8 10 9 8 10 9 11 7 12
REMARK SMILES IDX 6 14 5 15 4 16 19 17 3 18 20 19 21 20 2 21 1 22 22 23
REMARK H PARENT 7 13 22 24
REMARK Flexibility Score: inf
ROOT
ATOM      1  C   UNL     1       9.358   8.189 -14.767  1.00  0.00     0.010 C 
ENDROOT
BRANCH   1   2
ATOM      2  C   UNL     1       8.179   7.502 -14.067  1.00  0.00     0.005 C 
BRANCH   2   3
ATOM      3  C   UNL     1       7.275   8.531 -13.380  1.00  0.00     0.027 C 
BRANCH   3   4
ATOM      4  C   UNL     1       6.830   8.055 -12.024  1.00  0.00    -0.031 C 
ATOM      5  C   UNL     1       7.015   8.798 -10.922  1.00  0.00    -0.028 C 
BRANCH   5   6
ATOM      6  C   UNL     1       6.554   8.318  -9.565  1.00  0.00     0.005 C 
ATOM      7  C   UNL     1       6.280   6.811  -9.595  1.00  0.00     0.012 C 
ATOM      8  C   UNL     1       7.601   8.650  -8.496  1.00  0.00     0.012 C 
ENDBRANCH   5   6
ENDBRANCH   3   4
ENDBRANCH   2   3
ENDBRANCH   1   2
BRANCH   1   9
ATOM      9  C   UNL     1       8.898   8.918 -16.033  1.00  0.00     0.100 C 
BRANCH   9  10
ATOM     10  C   UNL     1       9.289  10.363 -15.973  1.00  0.00     0.220 C 
ATOM     11  O   UNL     1       9.250  10.971 -14.871  1.00  0.00    -0.275 OA
ATOM     12  N   UNL     1       9.669  11.057 -17.170  1.00  0.00    -0.352 N 
ATOM     13  H   UNL     1       9.683  10.535 -18.075  1.00  0.00     0.163 HD
BRANCH  12  14
ATOM     14  C   UNL     1      10.019  12.475 -17.178  1.00  0.00     0.151 C 
BRANCH  14  15
ATOM     15  C   UNL     1       9.526  13.132 -18.440  1.00  0.00    -0.025 A 
ATOM     16  C   UNL     1       9.571  14.528 -18.569  1.00  0.00     0.056 A 
ATOM     17  C   UNL     1       9.003  12.360 -19.487  1.00  0.00     0.009 A 
ATOM     18  C   UNL     1       9.092  15.158 -19.737  1.00  0.00     0.160 A 
ATOM     19  C   UNL     1       8.536  12.975 -20.649  1.00  0.00     0.050 A 
ATOM     20  C   UNL     1       8.576  14.367 -20.779  1.00  0.00     0.157 A 
BRANCH  18  21
ATOM     21  O   UNL     1       9.112  16.553 -19.890  1.00  0.00    -0.493 OA
ATOM     22  C   UNL     1       8.490  17.475 -19.002  1.00  0.00     0.278 C 
ENDBRANCH  18  21
BRANCH  20  23
ATOM     23  O   UNL     1       8.093  14.946 -21.952  1.00  0.00    -0.504 OA
ATOM     24  H   UNL     1       8.627  14.945 -22.813  1.00  0.00     0.293 HD
ENDBRANCH  20  23
ENDBRANCH  14  15
ENDBRANCH  12  14
ENDBRANCH   9  10
ENDBRANCH   1   9
TORSDOF 10
ENDMDL
MODEL 3
REMARK VINA RESULT:    -6.355      2.317      9.701
REMARK INTER + INTRA:         -10.545
REMARK INTER:                  -9.946
REMARK INTRA:                  -0.599
REMARK UNBOUND:                -0.661
REMARK SMILES COc1cc(CNC(=O)CCCCC=CC(C)C)ccc1O
REMARK SMILES IDX 11 1 12 2 13 3 14 4 15 5 16 6 17 7 18 8 10 9 8 10 9 11 7 12
REMARK SMILES IDX 6 14 5 15 4 16 19 17 3 18 20 19 21 20 2 21 1 22 22 23
REMARK H PARENT 7 13 22 24
REMARK Flexibility Score: inf
ROOT
ATOM      1  C   UNL     1       8.532  13.901 -19.784  1.00  0.00     0.010 C 
ENDROOT
BRANCH   1   2
ATOM      2  C   UNL     1       8.419  14.408 -21.227  1.00  0.00     0.005 C 
BRANCH   2   3
ATOM      3  C   UNL     1       8.468  15.939 -21.276  1.00  0.00     0.027 C 
BRANCH   3   4
ATOM      4  C   UNL     1       8.850  16.434 -22.644  1.00  0.00    -0.031 C 
ATOM      5  C   UNL     1       9.245  15.592 -23.612  1.00  0.00    -0.028 C 
BRANCH   5   6
ATOM      6  C   UNL     1       9.615  16.094 -24.988  1.00  0.00     0.005 C 
ATOM      7  C   UNL     1      10.874  15.385 -25.497  1.00  0.00     0.012 C 
ATOM      8  C   UNL     1       8.452  15.885 -25.964  1.00  0.00     0.012 C 
ENDBRANCH   5   6
ENDBRANCH   3   4
ENDBRANCH   2   3
ENDBRANCH   1   2
BRANCH   1   9
ATOM      9  C   UNL     1       8.876  12.409 -19.749  1.00  0.00     0.100 C 
BRANCH   9  10
ATOM     10  C   UNL     1       9.699  12.092 -18.537  1.00  0.00     0.220 C 
ATOM     11  O   UNL     1      10.053  13.024 -17.767  1.00  0.00    -0.275 OA
ATOM     12  N   UNL     1      10.109  10.743 -18.278  1.00  0.00    -0.352 N 
ATOM     13  H   UNL     1       9.813   9.988 -18.937  1.00  0.00     0.163 HD
BRANCH  12  14
ATOM     14  C   UNL     1      10.946  10.381 -17.137  1.00  0.00     0.151 C 
BRANCH  14  15
ATOM     15  C   UNL     1      10.106   9.800 -16.030  1.00  0.00    -0.025 A 
ATOM     16  C   UNL     1       9.172  10.605 -15.361  1.00  0.00     0.056 A 
ATOM     17  C   UNL     1      10.261   8.460 -15.648  1.00  0.00     0.009 A 
ATOM     18  C   UNL     1       8.395  10.079 -14.308  1.00  0.00     0.160 A 
ATOM     19  C   UNL     1       9.488   7.930 -14.614  1.00  0.00     0.050 A 
ATOM     20  C   UNL     1       8.559   8.731 -13.941  1.00  0.00     0.157 A 
BRANCH  18  21
ATOM     21  O   UNL     1       7.461  10.862 -13.611  1.00  0.00    -0.493 OA
ATOM     22  C   UNL     1       7.795  11.847 -12.639  1.00  0.00     0.278 C 
ENDBRANCH  18  21
BRANCH  20  23
ATOM     23  O   UNL     1       7.811   8.168 -12.908  1.00  0.00    -0.504 OA
ATOM     24  H   UNL     1       8.117   8.198 -11.944  1.00  0.00     0.293 HD
ENDBRANCH  20  23
ENDBRANCH  14  15
ENDBRANCH  12  14
ENDBRANCH   9  10
ENDBRANCH   1   9
TORSDOF 10
ENDMDL
MODEL 4
REMARK VINA RESULT:    -6.271      2.845      9.717
REMARK INTER + INTRA:         -10.414
REMARK INTER:                  -9.860
REMARK INTRA:                  -0.554
REMARK UNBOUND:                -0.661
REMARK SMILES COc1cc(CNC(=O)CCCCC=CC(C)C)ccc1O
REMARK SMILES IDX 11 1 12 2 13 3 14 4 15 5 16 6 17 7 18 8 10 9 8 10 9 11 7 12
REMARK SMILES IDX 6 14 5 15 4 16 19 17 3 18 20 19 21 20 2 21 1 22 22 23
REMARK H PARENT 7 13 22 24
REMARK Flexibility Score: inf
ROOT
ATOM      1  C   UNL     1       9.241  12.917 -18.905  1.00  0.00     0.010 C 
ENDROOT
BRANCH   1   2
ATOM      2  C   UNL     1       8.863  12.749 -20.382  1.00  0.00     0.005 C 
BRANCH   2   3
ATOM      3  C   UNL     1       7.789  13.764 -20.792  1.00  0.00     0.027 C 
BRANCH   3   4
ATOM      4  C   UNL     1       8.400  14.985 -21.424  1.00  0.00    -0.031 C 
ATOM      5  C   UNL     1       8.750  15.006 -22.720  1.00  0.00    -0.028 C 
BRANCH   5   6
ATOM      6  C   UNL     1       9.350  16.240 -23.352  1.00  0.00     0.005 C 
ATOM      7  C   UNL     1       9.884  15.919 -24.752  1.00  0.00     0.012 C 
ATOM      8  C   UNL     1       8.312  17.365 -23.420  1.00  0.00     0.012 C 
ENDBRANCH   5   6
ENDBRANCH   3   4
ENDBRANCH   2   3
ENDBRANCH   1   2
BRANCH   1   9
ATOM      9  C   UNL     1       9.638  11.576 -18.281  1.00  0.00     0.100 C 
BRANCH   9  10
ATOM     10  C   UNL     1       9.844  11.728 -16.805  1.00  0.00     0.220 C 
ATOM     11  O   UNL     1      11.012  11.869 -16.353  1.00  0.00    -0.275 OA
ATOM     12  N   UNL     1       8.723  11.679 -15.912  1.00  0.00    -0.352 N 
ATOM     13  H   UNL     1       7.765  11.551 -16.309  1.00  0.00     0.163 HD
BRANCH  12  14
ATOM     14  C   UNL     1       8.868  11.780 -14.462  1.00  0.00     0.151 C 
BRANCH  14  15
ATOM     15  C   UNL     1       8.187  10.622 -13.782  1.00  0.00    -0.025 A 
ATOM     16  C   UNL     1       8.373   9.317 -14.263  1.00  0.00     0.056 A 
ATOM     17  C   UNL     1       7.351  10.837 -12.677  1.00  0.00     0.009 A 
ATOM     18  C   UNL     1       7.723   8.226 -13.649  1.00  0.00     0.160 A 
ATOM     19  C   UNL     1       6.713   9.760 -12.059  1.00  0.00     0.050 A 
ATOM     20  C   UNL     1       6.893   8.459 -12.539  1.00  0.00     0.157 A 
BRANCH  18  21
ATOM     21  O   UNL     1       7.879   6.911 -14.115  1.00  0.00    -0.493 OA
ATOM     22  C   UNL     1       7.497   6.460 -15.410  1.00  0.00     0.278 C 
ENDBRANCH  18  21
BRANCH  20  23
ATOM     23  O   UNL     1       6.233   7.410 -11.899  1.00  0.00    -0.504 OA
ATOM     24  H   UNL     1       6.569   6.456 -11.943  1.00  0.00     0.293 HD
ENDBRANCH  20  23
ENDBRANCH  14  15
ENDBRANCH  12  14
ENDBRANCH   9  10
ENDBRANCH   1   9
TORSDOF 10
ENDMDL
MODEL 5
REMARK VINA RESULT:    -6.249      1.414      2.069
REMARK INTER + INTRA:         -10.381
REMARK INTER:                  -9.630
REMARK INTRA:                  -0.751
REMARK UNBOUND:                -0.661
REMARK SMILES COc1cc(CNC(=O)CCCCC=CC(C)C)ccc1O
REMARK SMILES IDX 11 1 12 2 13 3 14 4 15 5 16 6 17 7 18 8 10 9 8 10 9 11 7 12
REMARK SMILES IDX 6 14 5 15 4 16 19 17 3 18 20 19 21 20 2 21 1 22 22 23
REMARK H PARENT 7 13 22 24
REMARK Flexibility Score: inf
ROOT
ATOM      1  C   UNL     1       8.117  11.179 -14.684  1.00  0.00     0.010 C 
ENDROOT
BRANCH   1   2
ATOM      2  C   UNL     1       7.187  10.523 -13.656  1.00  0.00     0.005 C 
BRANCH   2   3
ATOM      3  C   UNL     1       7.412   9.008 -13.602  1.00  0.00     0.027 C 
BRANCH   3   4
ATOM      4  C   UNL     1       6.879   8.418 -12.324  1.00  0.00    -0.031 C 
ATOM      5  C   UNL     1       7.104   8.997 -11.134  1.00  0.00    -0.028 C 
BRANCH   5   6
ATOM      6  C   UNL     1       6.554   8.407  -9.857  1.00  0.00     0.005 C 
ATOM      7  C   UNL     1       6.025   6.990 -10.106  1.00  0.00     0.012 C 
ATOM      8  C   UNL     1       7.631   8.391  -8.767  1.00  0.00     0.012 C 
ENDBRANCH   5   6
ENDBRANCH   3   4
ENDBRANCH   2   3
ENDBRANCH   1   2
BRANCH   1   9
ATOM      9  C   UNL     1       9.163  10.183 -15.195  1.00  0.00     0.100 C 
BRANCH   9  10
ATOM     10  C   UNL     1       9.662  10.598 -16.546  1.00  0.00     0.220 C 
ATOM     11  O   UNL     1      10.836  10.301 -16.892  1.00  0.00    -0.275 OA
ATOM     12  N   UNL     1       8.819  11.359 -17.422  1.00  0.00    -0.352 N 
ATOM     13  H   UNL     1       7.852  11.604 -17.109  1.00  0.00     0.163 HD
BRANCH  12  14
ATOM     14  C   UNL     1       9.265  11.826 -18.732  1.00  0.00     0.151 C 
BRANCH  14  15
ATOM     15  C   UNL     1       9.436  13.322 -18.728  1.00  0.00    -0.025 A 
ATOM     16  C   UNL     1       8.907  14.093 -19.774  1.00  0.00     0.056 A 
ATOM     17  C   UNL     1      10.137  13.956 -17.692  1.00  0.00     0.009 A 
ATOM     18  C   UNL     1       9.079  15.493 -19.794  1.00  0.00     0.160 A 
ATOM     19  C   UNL     1      10.304  15.341 -17.700  1.00  0.00     0.050 A 
ATOM     20  C   UNL     1       9.781  16.112 -18.744  1.00  0.00     0.157 A 
BRANCH  18  21
ATOM     21  O   UNL     1       8.573  16.289 -20.832  1.00  0.00    -0.493 OA
ATOM     22  C   UNL     1       8.953  16.174 -22.200  1.00  0.00     0.278 C 
ENDBRANCH  18  21
BRANCH  20  23
ATOM     23  O   UNL     1       9.973  17.493 -18.721  1.00  0.00    -0.504 OA
ATOM     24  H   UNL     1       9.769  18.078 -19.521  1.00  0.00     0.293 HD
ENDBRANCH  20  23
ENDBRANCH  14  15
ENDBRANCH  12  14
ENDBRANCH   9  10
ENDBRANCH   1   9
TORSDOF 10
ENDMDL
MODEL 6
REMARK VINA RESULT:    -6.198      2.130      8.808
REMARK INTER + INTRA:         -10.300
REMARK INTER:                  -9.440
REMARK INTRA:                  -0.860
REMARK UNBOUND:                -0.661
REMARK SMILES COc1cc(CNC(=O)CCCCC=CC(C)C)ccc1O
REMARK SMILES IDX 11 1 12 2 13 3 14 4 15 5 16 6 17 7 18 8 10 9 8 10 9 11 7 12
REMARK SMILES IDX 6 14 5 15 4 16 19 17 3 18 20 19 21 20 2 21 1 22 22 23
REMARK H PARENT 7 13 22 24
REMARK Flexibility Score: inf
ROOT
ATOM      1  C   UNL     1       7.971  14.023 -20.464  1.00  0.00     0.010 C 
ENDROOT
BRANCH   1   2
ATOM      2  C   UNL     1       8.508  14.654 -21.755  1.00  0.00     0.005 C 
BRANCH   2   3
ATOM      3  C   UNL     1       8.875  16.126 -21.534  1.00  0.00     0.027 C 
BRANCH   3   4
ATOM      4  C   UNL     1       8.216  16.677 -20.299  1.00  0.00    -0.031 C 
ATOM      5  C   UNL     1       8.910  17.360 -19.376  1.00  0.00    -0.028 C 
BRANCH   5   6
ATOM      6  C   UNL     1       8.239  17.922 -18.144  1.00  0.00     0.005 C 
ATOM      7  C   UNL     1       7.984  19.424 -18.313  1.00  0.00     0.012 C 
ATOM      8  C   UNL     1       6.925  17.185 -17.868  1.00  0.00     0.012 C 
ENDBRANCH   5   6
ENDBRANCH   3   4
ENDBRANCH   2   3
ENDBRANCH   1   2
BRANCH   1   9
ATOM      9  C   UNL     1       8.734  12.741 -20.119  1.00  0.00     0.100 C 
BRANCH   9  10
ATOM     10  C   UNL     1       9.260  12.809 -18.717  1.00  0.00     0.220 C 
ATOM     11  O   UNL     1       9.084  13.856 -18.039  1.00  0.00    -0.275 OA
ATOM     12  N   UNL     1       9.989  11.703 -18.167  1.00  0.00    -0.352 N 
ATOM     13  H   UNL     1      10.133  10.850 -18.752  1.00  0.00     0.163 HD
BRANCH  12  14
ATOM     14  C   UNL     1      10.561  11.730 -16.823  1.00  0.00     0.151 C 
BRANCH  14  15
ATOM     15  C   UNL     1      10.063  10.561 -16.015  1.00  0.00    -0.025 A 
ATOM     16  C   UNL     1       8.882  10.676 -15.267  1.00  0.00     0.056 A 
ATOM     17  C   UNL     1      10.780   9.356 -15.990  1.00  0.00     0.009 A 
ATOM     18  C   UNL     1       8.416   9.596 -14.488  1.00  0.00     0.160 A 
ATOM     19  C   UNL     1      10.320   8.280 -15.230  1.00  0.00     0.050 A 
ATOM     20  C   UNL     1       9.146   8.393 -14.479  1.00  0.00     0.157 A 
BRANCH  18  21
ATOM     21  O   UNL     1       7.246   9.685 -13.719  1.00  0.00    -0.493 OA
ATOM     22  C   UNL     1       7.209  10.014 -12.335  1.00  0.00     0.278 C 
ENDBRANCH  18  21
BRANCH  20  23
ATOM     23  O   UNL     1       8.721   7.299 -13.726  1.00  0.00    -0.504 OA
ATOM     24  H   UNL     1       7.789   7.244 -13.334  1.00  0.00     0.293 HD
ENDBRANCH  20  23
ENDBRANCH  14  15
ENDBRANCH  12  14
ENDBRANCH   9  10
ENDBRANCH   1   9
TORSDOF 10
ENDMDL
MODEL 7
REMARK VINA RESULT:    -6.186      2.852      9.621
REMARK INTER + INTRA:         -10.282
REMARK INTER:                  -9.607
REMARK INTRA:                  -0.674
REMARK UNBOUND:                -0.661
REMARK SMILES COc1cc(CNC(=O)CCCCC=CC(C)C)ccc1O
REMARK SMILES IDX 11 1 12 2 13 3 14 4 15 5 16 6 17 7 18 8 10 9 8 10 9 11 7 12
REMARK SMILES IDX 6 14 5 15 4 16 19 17 3 18 20 19 21 20 2 21 1 22 22 23
REMARK H PARENT 7 13 22 24
REMARK Flexibility Score: inf
ROOT
ATOM      1  C   UNL     1      10.544  14.003 -16.754  1.00  0.00     0.010 C 
ENDROOT
BRANCH   1   2
ATOM      2  C   UNL     1      11.098  15.274 -17.409  1.00  0.00     0.005 C 
BRANCH   2   3
ATOM      3  C   UNL     1       9.962  16.203 -17.851  1.00  0.00     0.027 C 
BRANCH   3   4
ATOM      4  C   UNL     1       9.236  15.652 -19.048  1.00  0.00    -0.031 C 
ATOM      5  C   UNL     1       9.206  16.311 -20.217  1.00  0.00    -0.028 C 
BRANCH   5   6
ATOM      6  C   UNL     1       8.486  15.745 -21.419  1.00  0.00     0.005 C 
ATOM      7  C   UNL     1       9.189  16.170 -22.712  1.00  0.00     0.012 C 
ATOM      8  C   UNL     1       8.411  14.218 -21.328  1.00  0.00     0.012 C 
ENDBRANCH   5   6
ENDBRANCH   3   4
ENDBRANCH   2   3
ENDBRANCH   1   2
BRANCH   1   9
ATOM      9  C   UNL     1      10.288  14.219 -15.259  1.00  0.00     0.100 C 
BRANCH   9  10
ATOM     10  C   UNL     1       9.013  13.548 -14.847  1.00  0.00     0.220 C 
ATOM     11  O   UNL     1       7.979  13.694 -15.550  1.00  0.00    -0.275 OA
ATOM     12  N   UNL     1       8.964  12.775 -13.639  1.00  0.00    -0.352 N 
ATOM     13  H   UNL     1       9.832  12.676 -13.066  1.00  0.00     0.163 HD
BRANCH  12  14
ATOM     14  C   UNL     1       7.741  12.133 -13.166  1.00  0.00     0.151 C 
BRANCH  14  15
ATOM     15  C   UNL     1       7.818  10.642 -13.360  1.00  0.00    -0.025 A 
ATOM     16  C   UNL     1       7.118   9.784 -12.498  1.00  0.00     0.056 A 
ATOM     17  C   UNL     1       8.601  10.098 -14.388  1.00  0.00     0.009 A 
ATOM     18  C   UNL     1       7.200   8.385 -12.655  1.00  0.00     0.160 A 
ATOM     19  C   UNL     1       8.678   8.714 -14.555  1.00  0.00     0.050 A 
ATOM     20  C   UNL     1       7.986   7.857 -13.695  1.00  0.00     0.157 A 
BRANCH  18  21
ATOM     21  O   UNL     1       6.522   7.501 -11.801  1.00  0.00    -0.493 OA
ATOM     22  C   UNL     1       6.590   7.535 -10.380  1.00  0.00     0.278 C 
ENDBRANCH  18  21
BRANCH  20  23
ATOM     23  O   UNL     1       8.093   6.480 -13.889  1.00  0.00    -0.504 OA
ATOM     24  H   UNL     1       8.729   5.908 -13.347  1.00  0.00     0.293 HD
ENDBRANCH  20  23
ENDBRANCH  14  15
ENDBRANCH  12  14
ENDBRANCH   9  10
ENDBRANCH   1   9
TORSDOF 10
ENDMDL
MODEL 8
REMARK VINA RESULT:    -6.181      2.000      3.038
REMARK INTER + INTRA:         -10.275
REMARK INTER:                  -9.629
REMARK INTRA:                  -0.646
REMARK UNBOUND:                -0.661
REMARK SMILES COc1cc(CNC(=O)CCCCC=CC(C)C)ccc1O
REMARK SMILES IDX 11 1 12 2 13 3 14 4 15 5 16 6 17 7 18 8 10 9 8 10 9 11 7 12
REMARK SMILES IDX 6 14 5 15 4 16 19 17 3 18 20 19 21 20 2 21 1 22 22 23
REMARK H PARENT 7 13 22 24
REMARK Flexibility Score: inf
ROOT
ATOM      1  C   UNL     1       8.342  10.257 -14.200  1.00  0.00     0.010 C 
ENDROOT
BRANCH   1   2
ATOM      2  C   UNL     1       7.178   9.838 -13.294  1.00  0.00     0.005 C 
BRANCH   2   3
ATOM      3  C   UNL     1       7.071   8.311 -13.209  1.00  0.00     0.027 C 
BRANCH   3   4
ATOM      4  C   UNL     1       6.817   7.855 -11.798  1.00  0.00    -0.031 C 
ATOM      5  C   UNL     1       6.858   8.710 -10.764  1.00  0.00    -0.028 C 
BRANCH   5   6
ATOM      6  C   UNL     1       6.588   8.247  -9.351  1.00  0.00     0.005 C 
ATOM      7  C   UNL     1       6.456   6.722  -9.304  1.00  0.00     0.012 C 
ATOM      8  C   UNL     1       7.705   8.716  -8.413  1.00  0.00     0.012 C 
ENDBRANCH   5   6
ENDBRANCH   3   4
ENDBRANCH   2   3
ENDBRANCH   1   2
BRANCH   1   9
ATOM      9  C   UNL     1       8.417  11.782 -14.332  1.00  0.00     0.100 C 
BRANCH   9  10
ATOM     10  C   UNL     1       9.403  12.165 -15.393  1.00  0.00     0.220 C 
ATOM     11  O   UNL     1       9.962  11.265 -16.075  1.00  0.00    -0.275 OA
ATOM     12  N   UNL     1       9.733  13.544 -15.605  1.00  0.00    -0.352 N 
ATOM     13  H   UNL     1       9.265  14.273 -15.021  1.00  0.00     0.163 HD
BRANCH  12  14
ATOM     14  C   UNL     1      10.716  13.974 -16.596  1.00  0.00     0.151 C 
BRANCH  14  15
ATOM     15  C   UNL     1      10.033  14.625 -17.769  1.00  0.00    -0.025 A 
ATOM     16  C   UNL     1       9.966  16.024 -17.855  1.00  0.00     0.056 A 
ATOM     17  C   UNL     1       9.444  13.844 -18.774  1.00  0.00     0.009 A 
ATOM     18  C   UNL     1       9.309  16.647 -18.937  1.00  0.00     0.160 A 
ATOM     19  C   UNL     1       8.801  14.454 -19.852  1.00  0.00     0.050 A 
ATOM     20  C   UNL     1       8.729  15.848 -19.938  1.00  0.00     0.157 A 
BRANCH  18  21
ATOM     21  O   UNL     1       9.215  18.043 -19.044  1.00  0.00    -0.493 OA
ATOM     22  C   UNL     1       8.222  18.839 -18.406  1.00  0.00     0.278 C 
ENDBRANCH  18  21
BRANCH  20  23
ATOM     23  O   UNL     1       8.072  16.421 -21.027  1.00  0.00    -0.504 OA
ATOM     24  H   UNL     1       7.075  16.596 -21.023  1.00  0.00     0.293 HD
ENDBRANCH  20  23
ENDBRANCH  14  15
ENDBRANCH  12  14
ENDBRANCH   9  10
ENDBRANCH   1   9
TORSDOF 10
ENDMDL
MODEL 9
REMARK VINA RESULT:    -6.156      2.307      3.158
REMARK INTER + INTRA:         -10.236
REMARK INTER:                  -9.571
REMARK INTRA:                  -0.665
REMARK UNBOUND:                -0.661
REMARK SMILES COc1cc(CNC(=O)CCCCC=CC(C)C)ccc1O
REMARK SMILES IDX 11 1 12 2 13 3 14 4 15 5 16 6 17 7 18 8 10 9 8 10 9 11 7 12
REMARK SMILES IDX 6 14 5 15 4 16 19 17 3 18 20 19 21 20 2 21 1 22 22 23
REMARK H PARENT 7 13 22 24
REMARK Flexibility Score: inf
ROOT
ATOM      1  C   UNL     1       8.221  10.942 -13.758  1.00  0.00     0.010 C 
ENDROOT
BRANCH   1   2
ATOM      2  C   UNL     1       6.918  10.264 -13.316  1.00  0.00     0.005 C 
BRANCH   2   3
ATOM      3  C   UNL     1       7.055   8.737 -13.356  1.00  0.00     0.027 C 
BRANCH   3   4
ATOM      4  C   UNL     1       6.801   8.127 -12.005  1.00  0.00    -0.031 C 
ATOM      5  C   UNL     1       6.776   8.873 -10.889  1.00  0.00    -0.028 C 
BRANCH   5   6
ATOM      6  C   UNL     1       6.506   8.255  -9.537  1.00  0.00     0.005 C 
ATOM      7  C   UNL     1       6.343   6.737  -9.665  1.00  0.00     0.012 C 
ATOM      8  C   UNL     1       7.638   8.590  -8.560  1.00  0.00     0.012 C 
ENDBRANCH   5   6
ENDBRANCH   3   4
ENDBRANCH   2   3
ENDBRANCH   1   2
BRANCH   1   9
ATOM      9  C   UNL     1       7.949  12.335 -14.335  1.00  0.00     0.100 C 
BRANCH   9  10
ATOM     10  C   UNL     1       9.028  12.719 -15.301  1.00  0.00     0.220 C 
ATOM     11  O   UNL     1       9.797  11.831 -15.757  1.00  0.00    -0.275 OA
ATOM     12  N   UNL     1       9.205  14.092 -15.674  1.00  0.00    -0.352 N 
ATOM     13  H   UNL     1       8.562  14.813 -15.274  1.00  0.00     0.163 HD
BRANCH  12  14
ATOM     14  C   UNL     1      10.265  14.531 -16.578  1.00  0.00     0.151 C 
BRANCH  14  15
ATOM     15  C   UNL     1       9.684  14.992 -17.888  1.00  0.00    -0.025 A 
ATOM     16  C   UNL     1       9.003  14.084 -18.713  1.00  0.00     0.056 A 
ATOM     17  C   UNL     1       9.831  16.323 -18.303  1.00  0.00     0.009 A 
ATOM     18  C   UNL     1       8.473  14.497 -19.953  1.00  0.00     0.160 A 
ATOM     19  C   UNL     1       9.301  16.742 -19.524  1.00  0.00     0.050 A 
ATOM     20  C   UNL     1       8.625  15.838 -20.351  1.00  0.00     0.157 A 
BRANCH  18  21
ATOM     21  O   UNL     1       7.798  13.610 -20.805  1.00  0.00    -0.493 OA
ATOM     22  C   UNL     1       6.485  13.107 -20.576  1.00  0.00     0.278 C 
ENDBRANCH  18  21
BRANCH  20  23
ATOM     23  O   UNL     1       8.115  16.291 -21.567  1.00  0.00    -0.504 OA
ATOM     24  H   UNL     1       8.395  15.887 -22.452  1.00  0.00     0.293 HD
ENDBRANCH  20  23
ENDBRANCH  14  15
ENDBRANCH  12  14
ENDBRANCH   9  10
ENDBRANCH   1   9
TORSDOF 10
ENDMDL
