MODEL 1
REMARK VINA RESULT:    -3.696      0.000      0.000
REMARK INTER + INTRA:          -6.598
REMARK INTER:                  -5.640
REMARK INTRA:                  -0.958
REMARK UNBOUND:                -0.958
REMARK SMILES O=C([O-])CCCCCCCCC(=O)[O-]
REMARK SMILES IDX 7 1 6 2 5 3 4 4 2 5 1 6 3 7 8 8 9 9 10 10 11 11 12 12 13 13
REMARK SMILES IDX 14 14
REMARK H PARENT
REMARK Flexibility Score: inf
ROOT
ATOM      1  C   UNL     1      10.929 -22.437  41.609  1.00  0.00     0.000 C 
ENDROOT
BRANCH   1   2
ATOM      2  C   UNL     1       9.792 -22.788  40.641  1.00  0.00     0.000 C 
BRANCH   2   3
ATOM      3  C   UNL     1       9.339 -24.242  40.827  1.00  0.00     0.006 C 
BRANCH   3   4
ATOM      4  C   UNL     1      10.473 -25.217  40.495  1.00  0.00     0.053 C 
BRANCH   4   5
ATOM      5  C   UNL     1      10.427 -25.602  39.051  1.00  0.00     0.041 C 
ATOM      6  O   UNL     1      11.462 -26.028  38.475  1.00  0.00    -0.550 OA
ATOM      7  O   UNL     1       9.251 -25.445  38.327  1.00  0.00    -0.550 OA
ENDBRANCH   4   5
ENDBRANCH   3   4
ENDBRANCH   2   3
ENDBRANCH   1   2
BRANCH   1   8
ATOM      8  C   UNL     1      12.142 -21.878  40.851  1.00  0.00     0.000 C 
BRANCH   8   9
ATOM      9  C   UNL     1      13.383 -22.777  40.975  1.00  0.00     0.000 C 
BRANCH   9  10
ATOM     10  C   UNL     1      13.697 -23.536  39.675  1.00  0.00     0.006 C 
BRANCH  10  11
ATOM     11  C   UNL     1      13.146 -22.817  38.438  1.00  0.00     0.053 C 
BRANCH  11  12
ATOM     12  C   UNL     1      14.209 -22.592  37.406  1.00  0.00     0.041 C 
ATOM     13  O   UNL     1      15.420 -22.787  37.691  1.00  0.00    -0.550 OA
ATOM     14  O   UNL     1      13.858 -22.203  36.119  1.00  0.00    -0.550 OA
ENDBRANCH  11  12
ENDBRANCH  10  11
ENDBRANCH   9  10
ENDBRANCH   8   9
ENDBRANCH   1   8
TORSDOF 9
ENDMDL
MODEL 2
REMARK VINA RESULT:    -3.646      1.926      2.552
REMARK INTER + INTRA:          -6.522
REMARK INTER:                  -5.876
REMARK INTRA:                  -0.646
REMARK UNBOUND:                -0.958
REMARK SMILES O=C([O-])CCCCCCCCC(=O)[O-]
REMARK SMILES IDX 7 1 6 2 5 3 4 4 2 5 1 6 3 7 8 8 9 9 10 10 11 11 12 12 13 13
REMARK SMILES IDX 14 14
REMARK H PARENT
REMARK Flexibility Score: inf
ROOT
ATOM      1  C   UNL     1      13.351 -21.929  41.092  1.00  0.00     0.000 C 
ENDROOT
BRANCH   1   2
ATOM      2  C   UNL     1      12.185 -21.800  42.080  1.00  0.00     0.000 C 
BRANCH   2   3
ATOM      3  C   UNL     1      10.869 -22.267  41.444  1.00  0.00     0.006 C 
BRANCH   3   4
ATOM      4  C   UNL     1      11.120 -22.926  40.084  1.00  0.00     0.053 C 
BRANCH   4   5
ATOM      5  C   UNL     1      10.316 -24.179  39.954  1.00  0.00     0.041 C 
ATOM      6  O   UNL     1       9.791 -24.705  40.971  1.00  0.00    -0.550 OA
ATOM      7  O   UNL     1      10.185 -24.796  38.716  1.00  0.00    -0.550 OA
ENDBRANCH   4   5
ENDBRANCH   3   4
ENDBRANCH   2   3
ENDBRANCH   1   2
BRANCH   1   8
ATOM      8  C   UNL     1      14.157 -20.623  41.020  1.00  0.00     0.000 C 
BRANCH   8   9
ATOM      9  C   UNL     1      13.842 -19.803  39.759  1.00  0.00     0.000 C 
BRANCH   9  10
ATOM     10  C   UNL     1      13.673 -20.681  38.507  1.00  0.00     0.006 C 
BRANCH  10  11
ATOM     11  C   UNL     1      13.913 -19.895  37.213  1.00  0.00     0.053 C 
BRANCH  11  12
ATOM     12  C   UNL     1      14.335 -20.792  36.089  1.00  0.00     0.041 C 
ATOM     13  O   UNL     1      15.422 -21.422  36.154  1.00  0.00    -0.550 OA
ATOM     14  O   UNL     1      13.507 -20.958  34.985  1.00  0.00    -0.550 OA
ENDBRANCH  11  12
ENDBRANCH  10  11
ENDBRANCH   9  10
ENDBRANCH   8   9
ENDBRANCH   1   8
TORSDOF 9
ENDMDL
MODEL 3
REMARK VINA RESULT:    -3.636      1.607      5.190
REMARK INTER + INTRA:          -6.507
REMARK INTER:                  -5.689
REMARK INTRA:                  -0.818
REMARK UNBOUND:                -0.958
REMARK SMILES O=C([O-])CCCCCCCCC(=O)[O-]
REMARK SMILES IDX 7 1 6 2 5 3 4 4 2 5 1 6 3 7 8 8 9 9 10 10 11 11 12 12 13 13
REMARK SMILES IDX 14 14
REMARK H PARENT
REMARK Flexibility Score: inf
ROOT
ATOM      1  C   UNL     1      12.155 -21.795  41.277  1.00  0.00     0.000 C 
ENDROOT
BRANCH   1   2
ATOM      2  C   UNL     1      13.400 -22.685  41.377  1.00  0.00     0.000 C 
BRANCH   2   3
ATOM      3  C   UNL     1      13.645 -23.438  40.064  1.00  0.00     0.006 C 
BRANCH   3   4
ATOM      4  C   UNL     1      13.130 -22.635  38.866  1.00  0.00     0.053 C 
BRANCH   4   5
ATOM      5  C   UNL     1      13.792 -23.092  37.605  1.00  0.00     0.041 C 
ATOM      6  O   UNL     1      14.220 -24.272  37.506  1.00  0.00    -0.550 OA
ATOM      7  O   UNL     1      13.980 -22.201  36.556  1.00  0.00    -0.550 OA
ENDBRANCH   4   5
ENDBRANCH   3   4
ENDBRANCH   2   3
ENDBRANCH   1   2
BRANCH   1   8
ATOM      8  C   UNL     1      10.905 -22.543  41.764  1.00  0.00     0.000 C 
BRANCH   8   9
ATOM      9  C   UNL     1       9.837 -22.685  40.667  1.00  0.00     0.000 C 
BRANCH   9  10
ATOM     10  C   UNL     1       9.495 -24.153  40.361  1.00  0.00     0.006 C 
BRANCH  10  11
ATOM     11  C   UNL     1      10.390 -25.130  41.133  1.00  0.00     0.053 C 
BRANCH  11  12
ATOM     12  C   UNL     1       9.642 -26.362  41.545  1.00  0.00     0.041 C 
ATOM     13  O   UNL     1       8.392 -26.417  41.414  1.00  0.00    -0.550 OA
ATOM     14  O   UNL     1      10.334 -27.461  42.039  1.00  0.00    -0.550 OA
ENDBRANCH  11  12
ENDBRANCH  10  11
ENDBRANCH   9  10
ENDBRANCH   8   9
ENDBRANCH   1   8
TORSDOF 9
ENDMDL
MODEL 4
REMARK VINA RESULT:    -3.619      1.657      1.867
REMARK INTER + INTRA:          -6.481
REMARK INTER:                  -5.679
REMARK INTRA:                  -0.803
REMARK UNBOUND:                -0.958
REMARK SMILES O=C([O-])CCCCCCCCC(=O)[O-]
REMARK SMILES IDX 7 1 6 2 5 3 4 4 2 5 1 6 3 7 8 8 9 9 10 10 11 11 12 12 13 13
REMARK SMILES IDX 14 14
REMARK H PARENT
REMARK Flexibility Score: inf
ROOT
ATOM      1  C   UNL     1      10.863 -22.848  41.736  1.00  0.00     0.000 C 
ENDROOT
BRANCH   1   2
ATOM      2  C   UNL     1       9.774 -22.798  40.656  1.00  0.00     0.000 C 
BRANCH   2   3
ATOM      3  C   UNL     1       9.497 -24.196  40.089  1.00  0.00     0.006 C 
BRANCH   3   4
ATOM      4  C   UNL     1      10.324 -25.259  40.819  1.00  0.00     0.053 C 
BRANCH   4   5
ATOM      5  C   UNL     1       9.427 -26.259  41.476  1.00  0.00     0.041 C 
ATOM      6  O   UNL     1       9.917 -27.216  42.132  1.00  0.00    -0.550 OA
ATOM      7  O   UNL     1       8.049 -26.162  41.326  1.00  0.00    -0.550 OA
ENDBRANCH   4   5
ENDBRANCH   3   4
ENDBRANCH   2   3
ENDBRANCH   1   2
BRANCH   1   8
ATOM      8  C   UNL     1      11.929 -21.770  41.491  1.00  0.00     0.000 C 
BRANCH   8   9
ATOM      9  C   UNL     1      13.342 -22.357  41.353  1.00  0.00     0.000 C 
BRANCH   9  10
ATOM     10  C   UNL     1      13.488 -23.267  40.121  1.00  0.00     0.006 C 
BRANCH  10  11
ATOM     11  C   UNL     1      13.033 -22.573  38.832  1.00  0.00     0.053 C 
BRANCH  11  12
ATOM     12  C   UNL     1      13.756 -23.103  37.631  1.00  0.00     0.041 C 
ATOM     13  O   UNL     1      13.980 -22.355  36.644  1.00  0.00    -0.550 OA
ATOM     14  O   UNL     1      14.213 -24.415  37.619  1.00  0.00    -0.550 OA
ENDBRANCH  11  12
ENDBRANCH  10  11
ENDBRANCH   9  10
ENDBRANCH   8   9
ENDBRANCH   1   8
TORSDOF 9
ENDMDL
MODEL 5
REMARK VINA RESULT:    -3.569      1.372      5.088
REMARK INTER + INTRA:          -6.405
REMARK INTER:                  -5.775
REMARK INTRA:                  -0.630
REMARK UNBOUND:                -0.958
REMARK SMILES O=C([O-])CCCCCCCCC(=O)[O-]
REMARK SMILES IDX 7 1 6 2 5 3 4 4 2 5 1 6 3 7 8 8 9 9 10 10 11 11 12 12 13 13
REMARK SMILES IDX 14 14
REMARK H PARENT
REMARK Flexibility Score: inf
ROOT
ATOM      1  C   UNL     1      13.340 -22.540  40.671  1.00  0.00     0.000 C 
ENDROOT
BRANCH   1   2
ATOM      2  C   UNL     1      14.267 -21.905  39.626  1.00  0.00     0.000 C 
BRANCH   2   3
ATOM      3  C   UNL     1      13.467 -21.085  38.606  1.00  0.00     0.006 C 
BRANCH   3   4
ATOM      4  C   UNL     1      14.396 -20.426  37.581  1.00  0.00     0.053 C 
BRANCH   4   5
ATOM      5  C   UNL     1      14.241 -21.073  36.243  1.00  0.00     0.041 C 
ATOM      6  O   UNL     1      14.388 -20.398  35.190  1.00  0.00    -0.550 OA
ATOM      7  O   UNL     1      13.886 -22.414  36.155  1.00  0.00    -0.550 OA
ENDBRANCH   4   5
ENDBRANCH   3   4
ENDBRANCH   2   3
ENDBRANCH   1   2
BRANCH   1   8
ATOM      8  C   UNL     1      12.134 -21.633  40.958  1.00  0.00     0.000 C 
BRANCH   8   9
ATOM      9  C   UNL     1      10.980 -22.383  41.641  1.00  0.00     0.000 C 
BRANCH   9  10
ATOM     10  C   UNL     1       9.839 -22.728  40.670  1.00  0.00     0.006 C 
BRANCH  10  11
ATOM     11  C   UNL     1       9.538 -24.231  40.640  1.00  0.00     0.053 C 
BRANCH  11  12
ATOM     12  C   UNL     1      10.656 -25.008  40.012  1.00  0.00     0.041 C 
ATOM     13  O   UNL     1      11.102 -26.043  40.573  1.00  0.00    -0.550 OA
ATOM     14  O   UNL     1      11.179 -24.606  38.789  1.00  0.00    -0.550 OA
ENDBRANCH  11  12
ENDBRANCH  10  11
ENDBRANCH   9  10
ENDBRANCH   8   9
ENDBRANCH   1   8
TORSDOF 9
ENDMDL
MODEL 6
REMARK VINA RESULT:    -3.505      3.092      4.693
REMARK INTER + INTRA:          -6.307
REMARK INTER:                  -5.502
REMARK INTRA:                  -0.804
REMARK UNBOUND:                -0.958
REMARK SMILES O=C([O-])CCCCCCCCC(=O)[O-]
REMARK SMILES IDX 7 1 6 2 5 3 4 4 2 5 1 6 3 7 8 8 9 9 10 10 11 11 12 12 13 13
REMARK SMILES IDX 14 14
REMARK H PARENT
REMARK Flexibility Score: inf
ROOT
ATOM      1  C   UNL     1      10.870 -24.413  39.401  1.00  0.00     0.000 C 
ENDROOT
BRANCH   1   2
ATOM      2  C   UNL     1      11.567 -25.711  39.825  1.00  0.00     0.000 C 
BRANCH   2   3
ATOM      3  C   UNL     1      13.054 -25.469  40.116  1.00  0.00     0.006 C 
BRANCH   3   4
ATOM      4  C   UNL     1      13.683 -24.572  39.045  1.00  0.00     0.053 C 
BRANCH   4   5
ATOM      5  C   UNL     1      14.178 -25.395  37.899  1.00  0.00     0.041 C 
ATOM      6  O   UNL     1      13.662 -25.268  36.757  1.00  0.00    -0.550 OA
ATOM      7  O   UNL     1      15.179 -26.338  38.100  1.00  0.00    -0.550 OA
ENDBRANCH   4   5
ENDBRANCH   3   4
ENDBRANCH   2   3
ENDBRANCH   1   2
BRANCH   1   8
ATOM      8  C   UNL     1       9.774 -24.025  40.405  1.00  0.00     0.000 C 
BRANCH   8   9
ATOM      9  C   UNL     1       9.855 -22.550  40.828  1.00  0.00     0.000 C 
BRANCH   9  10
ATOM     10  C   UNL     1      11.260 -22.148  41.309  1.00  0.00     0.006 C 
BRANCH  10  11
ATOM     11  C   UNL     1      11.580 -22.718  42.697  1.00  0.00     0.053 C 
BRANCH  11  12
ATOM     12  C   UNL     1      12.702 -21.973  43.357  1.00  0.00     0.041 C 
ATOM     13  O   UNL     1      13.316 -21.069  42.733  1.00  0.00    -0.550 OA
ATOM     14  O   UNL     1      13.042 -22.257  44.674  1.00  0.00    -0.550 OA
ENDBRANCH  11  12
ENDBRANCH  10  11
ENDBRANCH   9  10
ENDBRANCH   8   9
ENDBRANCH   1   8
TORSDOF 9
ENDMDL
MODEL 7
REMARK VINA RESULT:    -3.410      1.727      2.600
REMARK INTER + INTRA:          -6.163
REMARK INTER:                  -4.967
REMARK INTRA:                  -1.196
REMARK UNBOUND:                -0.958
REMARK SMILES O=C([O-])CCCCCCCCC(=O)[O-]
REMARK SMILES IDX 7 1 6 2 5 3 4 4 2 5 1 6 3 7 8 8 9 9 10 10 11 11 12 12 13 13
REMARK SMILES IDX 14 14
REMARK H PARENT
REMARK Flexibility Score: inf
ROOT
ATOM      1  C   UNL     1       9.637 -24.125  40.219  1.00  0.00     0.000 C 
ENDROOT
BRANCH   1   2
ATOM      2  C   UNL     1      10.214 -25.060  41.289  1.00  0.00     0.000 C 
BRANCH   2   3
ATOM      3  C   UNL     1      10.815 -26.320  40.653  1.00  0.00     0.006 C 
BRANCH   3   4
ATOM      4  C   UNL     1      10.512 -26.376  39.153  1.00  0.00     0.053 C 
BRANCH   4   5
ATOM      5  C   UNL     1      11.594 -27.110  38.428  1.00  0.00     0.041 C 
ATOM      6  O   UNL     1      11.834 -26.854  37.218  1.00  0.00    -0.550 OA
ATOM      7  O   UNL     1      12.308 -28.112  39.073  1.00  0.00    -0.550 OA
ENDBRANCH   4   5
ENDBRANCH   3   4
ENDBRANCH   2   3
ENDBRANCH   1   2
BRANCH   1   8
ATOM      8  C   UNL     1       9.731 -22.658  40.664  1.00  0.00     0.000 C 
BRANCH   8   9
ATOM      9  C   UNL     1      11.007 -22.365  41.470  1.00  0.00     0.000 C 
BRANCH   9  10
ATOM     10  C   UNL     1      12.203 -22.000  40.574  1.00  0.00     0.006 C 
BRANCH  10  11
ATOM     11  C   UNL     1      13.356 -23.003  40.711  1.00  0.00     0.053 C 
BRANCH  11  12
ATOM     12  C   UNL     1      13.413 -23.946  39.547  1.00  0.00     0.041 C 
ATOM     13  O   UNL     1      14.094 -25.001  39.619  1.00  0.00    -0.550 OA
ATOM     14  O   UNL     1      12.682 -23.673  38.397  1.00  0.00    -0.550 OA
ENDBRANCH  11  12
ENDBRANCH  10  11
ENDBRANCH   9  10
ENDBRANCH   8   9
ENDBRANCH   1   8
TORSDOF 9
ENDMDL
MODEL 8
REMARK VINA RESULT:    -3.403      1.790      2.537
REMARK INTER + INTRA:          -6.152
REMARK INTER:                  -5.413
REMARK INTRA:                  -0.739
REMARK UNBOUND:                -0.958
REMARK SMILES O=C([O-])CCCCCCCCC(=O)[O-]
REMARK SMILES IDX 7 1 6 2 5 3 4 4 2 5 1 6 3 7 8 8 9 9 10 10 11 11 12 12 13 13
REMARK SMILES IDX 14 14
REMARK H PARENT
REMARK Flexibility Score: inf
ROOT
ATOM      1  C   UNL     1      11.419 -22.607  40.148  1.00  0.00     0.000 C 
ENDROOT
BRANCH   1   2
ATOM      2  C   UNL     1      11.304 -23.989  40.803  1.00  0.00     0.000 C 
BRANCH   2   3
ATOM      3  C   UNL     1      11.724 -25.097  39.828  1.00  0.00     0.006 C 
BRANCH   3   4
ATOM      4  C   UNL     1      13.240 -25.092  39.612  1.00  0.00     0.053 C 
BRANCH   4   5
ATOM      5  C   UNL     1      13.563 -25.270  38.163  1.00  0.00     0.041 C 
ATOM      6  O   UNL     1      12.826 -25.981  37.432  1.00  0.00    -0.550 OA
ATOM      7  O   UNL     1      14.706 -24.687  37.629  1.00  0.00    -0.550 OA
ENDBRANCH   4   5
ENDBRANCH   3   4
ENDBRANCH   2   3
ENDBRANCH   1   2
BRANCH   1   8
ATOM      8  C   UNL     1      12.331 -21.684  40.970  1.00  0.00     0.000 C 
BRANCH   8   9
ATOM      9  C   UNL     1      13.236 -20.809  40.088  1.00  0.00     0.000 C 
BRANCH   9  10
ATOM     10  C   UNL     1      13.718 -21.540  38.823  1.00  0.00     0.006 C 
BRANCH  10  11
ATOM     11  C   UNL     1      14.361 -20.583  37.811  1.00  0.00     0.053 C 
BRANCH  11  12
ATOM     12  C   UNL     1      14.771 -21.295  36.558  1.00  0.00     0.041 C 
ATOM     13  O   UNL     1      15.989 -21.405  36.260  1.00  0.00    -0.550 OA
ATOM     14  O   UNL     1      13.806 -21.867  35.738  1.00  0.00    -0.550 OA
ENDBRANCH  11  12
ENDBRANCH  10  11
ENDBRANCH   9  10
ENDBRANCH   8   9
ENDBRANCH   1   8
TORSDOF 9
ENDMDL
MODEL 9
REMARK VINA RESULT:    -3.397      3.030      4.528
REMARK INTER + INTRA:          -6.142
REMARK INTER:                  -5.307
REMARK INTRA:                  -0.834
REMARK UNBOUND:                -0.958
REMARK SMILES O=C([O-])CCCCCCCCC(=O)[O-]
REMARK SMILES IDX 7 1 6 2 5 3 4 4 2 5 1 6 3 7 8 8 9 9 10 10 11 11 12 12 13 13
REMARK SMILES IDX 14 14
REMARK H PARENT
REMARK Flexibility Score: inf
ROOT
ATOM      1  C   UNL     1       9.705 -22.970  40.336  1.00  0.00     0.000 C 
ENDROOT
BRANCH   1   2
ATOM      2  C   UNL     1      10.472 -22.719  41.640  1.00  0.00     0.000 C 
BRANCH   2   3
ATOM      3  C   UNL     1      11.698 -21.830  41.395  1.00  0.00     0.006 C 
BRANCH   3   4
ATOM      4  C   UNL     1      12.941 -22.409  42.078  1.00  0.00     0.053 C 
BRANCH   4   5
ATOM      5  C   UNL     1      13.171 -21.745  43.398  1.00  0.00     0.041 C 
ATOM      6  O   UNL     1      12.762 -22.285  44.459  1.00  0.00    -0.550 OA
ATOM      7  O   UNL     1      13.795 -20.505  43.453  1.00  0.00    -0.550 OA
ENDBRANCH   4   5
ENDBRANCH   3   4
ENDBRANCH   2   3
ENDBRANCH   1   2
BRANCH   1   8
ATOM      8  C   UNL     1       9.937 -24.401  39.830  1.00  0.00     0.000 C 
BRANCH   8   9
ATOM      9  C   UNL     1      10.485 -25.333  40.922  1.00  0.00     0.000 C 
BRANCH   9  10
ATOM     10  C   UNL     1      11.535 -26.322  40.386  1.00  0.00     0.006 C 
BRANCH  10  11
ATOM     11  C   UNL     1      12.923 -25.682  40.265  1.00  0.00     0.053 C 
BRANCH  11  12
ATOM     12  C   UNL     1      13.387 -25.626  38.841  1.00  0.00     0.041 C 
ATOM     13  O   UNL     1      14.181 -26.496  38.398  1.00  0.00    -0.550 OA
ATOM     14  O   UNL     1      12.912 -24.631  37.996  1.00  0.00    -0.550 OA
ENDBRANCH  11  12
ENDBRANCH  10  11
ENDBRANCH   9  10
ENDBRANCH   8   9
ENDBRANCH   1   8
TORSDOF 9
ENDMDL
