MODEL 1
REMARK VINA RESULT:    -4.276      0.000      0.000
REMARK INTER + INTRA:          -6.102
REMARK INTER:                  -6.525
REMARK INTRA:                   0.424
REMARK UNBOUND:                 0.424
REMARK SMILES CC1=CCC[C@@H](C)C(=O)C[C@@H](C(C)C)C(=O)C1
REMARK SMILES IDX 8 1 9 2 6 3 7 4 5 5 4 6 3 7 2 8 1 9 10 11 11 12 15 13 16 14
REMARK SMILES IDX 17 15 12 17 13 18 14 19
REMARK H PARENT
REMARK Flexibility Score: 70.00
ROOT
ATOM      1  C   UNL     1     -17.335  13.669 -31.258  1.00  0.00     0.136 C 
ATOM      2  O   UNL     1     -17.552  14.012 -32.413  1.00  0.00    -0.299 OA
ENDROOT
BRANCH   1   3
ATOM      3  C   UNL     1     -18.229  12.595 -30.656  1.00  0.00     0.053 C 
ATOM      4  C   UNL     1     -19.414  13.156 -29.851  1.00  0.00     0.016 C 
BRANCH   3   5
ATOM      5  C   UNL     1     -17.419  11.526 -29.889  1.00  0.00     0.015 C 
BRANCH   5   6
ATOM      6  C   UNL     1     -17.419  11.710 -28.358  1.00  0.00     0.028 C 
BRANCH   6   7
ATOM      7  C   UNL     1     -16.218  11.084 -27.695  1.00  0.00    -0.028 C 
ATOM      8  C   UNL     1     -14.969  11.612 -27.679  1.00  0.00    -0.070 CG0
ATOM      9  C   UNL     1     -13.909  10.881 -26.894  1.00  0.00     0.039 C 
ATOM     10  G   UNL     1     -14.581  12.877 -28.434  1.00  0.00     0.000 G0
ENDBRANCH   6   7
ENDBRANCH   5   6
ENDBRANCH   3   5
ENDBRANCH   1   3
BRANCH   1  11
ATOM     11  C   UNL     1     -16.212  14.355 -30.506  1.00  0.00     0.087 C 
BRANCH  11  12
ATOM     12  C   UNL     1     -14.813  13.799 -30.887  1.00  0.00     0.066 C 
BRANCH  12  13
ATOM     13  C   UNL     1     -14.383  12.694 -29.933  1.00  0.00     0.140 C 
ATOM     14  O   UNL     1     -13.937  11.640 -30.365  1.00  0.00    -0.299 OA
BRANCH  13  15
ATOM     15  C   UNL     1     -14.547  12.874 -28.443  1.00  0.00     0.106 CG0
ATOM     16  G   UNL     1     -14.959  11.600 -27.716  1.00  0.00     0.000 G0
ENDBRANCH  13  15
ENDBRANCH  12  13
BRANCH  12  17
ATOM     17  C   UNL     1     -13.718  14.908 -31.021  1.00  0.00    -0.006 C 
ATOM     18  C   UNL     1     -14.260  16.342 -30.868  1.00  0.00     0.008 C 
ATOM     19  C   UNL     1     -12.949  14.783 -32.347  1.00  0.00     0.008 C 
ENDBRANCH  12  17
ENDBRANCH  11  12
ENDBRANCH   1  11
TORSDOF 1
ENDMDL
MODEL 2
REMARK VINA RESULT:    -3.956      1.604      4.085
REMARK INTER + INTRA:          -5.614
REMARK INTER:                  -6.184
REMARK INTRA:                   0.570
REMARK UNBOUND:                 0.424
REMARK SMILES CC1=CCC[C@@H](C)C(=O)C[C@@H](C(C)C)C(=O)C1
REMARK SMILES IDX 8 1 9 2 6 3 7 4 5 5 4 6 3 7 2 8 1 9 10 11 11 12 15 13 16 14
REMARK SMILES IDX 17 15 12 17 13 18 14 19
REMARK H PARENT
REMARK Flexibility Score: 70.00
ROOT
ATOM      1  C   UNL     1     -14.222  14.149 -32.129  1.00  0.00     0.136 C 
ATOM      2  O   UNL     1     -13.893  13.380 -33.022  1.00  0.00    -0.299 OA
ENDROOT
BRANCH   1   3
ATOM      3  C   UNL     1     -13.211  15.195 -31.684  1.00  0.00     0.053 C 
ATOM      4  C   UNL     1     -11.790  14.949 -32.216  1.00  0.00     0.016 C 
BRANCH   3   5
ATOM      5  C   UNL     1     -13.261  15.442 -30.160  1.00  0.00     0.015 C 
BRANCH   5   6
ATOM      6  C   UNL     1     -12.237  14.619 -29.352  1.00  0.00     0.028 C 
BRANCH   6   7
ATOM      7  C   UNL     1     -12.875  13.821 -28.242  1.00  0.00    -0.028 C 
ATOM      8  C   UNL     1     -13.349  12.556 -28.361  1.00  0.00    -0.070 CG0
ATOM      9  C   UNL     1     -13.880  11.887 -27.118  1.00  0.00     0.039 C 
ATOM     10  G   UNL     1     -13.401  11.797 -29.681  1.00  0.00     0.000 G0
ENDBRANCH   6   7
ENDBRANCH   5   6
ENDBRANCH   3   5
ENDBRANCH   1   3
BRANCH   1  11
ATOM     11  C   UNL     1     -15.599  13.987 -31.516  1.00  0.00     0.087 C 
BRANCH  11  12
ATOM     12  C   UNL     1     -15.583  13.105 -30.238  1.00  0.00     0.066 C 
BRANCH  12  13
ATOM     13  C   UNL     1     -14.689  11.887 -30.423  1.00  0.00     0.140 C 
ATOM     14  O   UNL     1     -15.036  10.967 -31.150  1.00  0.00    -0.299 OA
BRANCH  13  15
ATOM     15  C   UNL     1     -13.384  11.784 -29.670  1.00  0.00     0.106 CG0
ATOM     16  G   UNL     1     -13.376  12.552 -28.354  1.00  0.00     0.000 G0
ENDBRANCH  13  15
ENDBRANCH  12  13
BRANCH  12  17
ATOM     17  C   UNL     1     -17.011  12.704 -29.740  1.00  0.00    -0.006 C 
ATOM     18  C   UNL     1     -18.098  12.789 -30.830  1.00  0.00     0.008 C 
ATOM     19  C   UNL     1     -17.435  13.536 -28.519  1.00  0.00     0.008 C 
ENDBRANCH  12  17
ENDBRANCH  11  12
ENDBRANCH   1  11
TORSDOF 1
ENDMDL
MODEL 3
REMARK VINA RESULT:    -3.642      1.758      4.072
REMARK INTER + INTRA:          -5.134
REMARK INTER:                  -5.483
REMARK INTRA:                   0.349
REMARK UNBOUND:                 0.424
REMARK SMILES CC1=CCC[C@@H](C)C(=O)C[C@@H](C(C)C)C(=O)C1
REMARK SMILES IDX 8 1 9 2 6 3 7 4 5 5 4 6 3 7 2 8 1 9 10 11 11 12 15 13 16 14
REMARK SMILES IDX 17 15 12 17 13 18 14 19
REMARK H PARENT
REMARK Flexibility Score: 70.00
ROOT
ATOM      1  C   UNL     1     -12.088  12.443 -29.789  1.00  0.00     0.136 C 
ATOM      2  O   UNL     1     -12.014  11.306 -30.235  1.00  0.00    -0.299 OA
ENDROOT
BRANCH   1   3
ATOM      3  C   UNL     1     -11.883  12.635 -28.293  1.00  0.00     0.053 C 
ATOM      4  C   UNL     1     -11.144  11.469 -27.615  1.00  0.00     0.016 C 
BRANCH   3   5
ATOM      5  C   UNL     1     -13.190  13.034 -27.573  1.00  0.00     0.015 C 
BRANCH   5   6
ATOM      6  C   UNL     1     -14.239  11.906 -27.494  1.00  0.00     0.028 C 
BRANCH   6   7
ATOM      7  C   UNL     1     -15.604  12.345 -27.963  1.00  0.00    -0.028 C 
ATOM      8  C   UNL     1     -16.078  12.211 -29.227  1.00  0.00    -0.070 CG0
ATOM      9  C   UNL     1     -17.501  12.635 -29.490  1.00  0.00     0.039 C 
ATOM     10  G   UNL     1     -15.240  11.689 -30.388  1.00  0.00     0.000 G0
ENDBRANCH   6   7
ENDBRANCH   5   6
ENDBRANCH   3   5
ENDBRANCH   1   3
BRANCH   1  11
ATOM     11  C   UNL     1     -12.401  13.572 -30.751  1.00  0.00     0.087 C 
BRANCH  11  12
ATOM     12  C   UNL     1     -13.910  13.936 -30.771  1.00  0.00     0.066 C 
BRANCH  12  13
ATOM     13  C   UNL     1     -14.746  12.787 -31.317  1.00  0.00     0.140 C 
ATOM     14  O   UNL     1     -15.061  12.756 -32.499  1.00  0.00    -0.299 OA
BRANCH  13  15
ATOM     15  C   UNL     1     -15.234  11.699 -30.391  1.00  0.00     0.106 CG0
ATOM     16  G   UNL     1     -16.081  12.215 -29.235  1.00  0.00     0.000 G0
ENDBRANCH  13  15
ENDBRANCH  12  13
BRANCH  12  17
ATOM     17  C   UNL     1     -14.216  15.279 -31.515  1.00  0.00    -0.006 C 
ATOM     18  C   UNL     1     -13.070  15.765 -32.422  1.00  0.00     0.008 C 
ATOM     19  C   UNL     1     -14.604  16.392 -30.528  1.00  0.00     0.008 C 
ENDBRANCH  12  17
ENDBRANCH  11  12
ENDBRANCH   1  11
TORSDOF 1
ENDMDL
MODEL 4
REMARK VINA RESULT:    -3.562      1.983      2.729
REMARK INTER + INTRA:          -5.012
REMARK INTER:                  -5.496
REMARK INTRA:                   0.484
REMARK UNBOUND:                 0.424
REMARK SMILES CC1=CCC[C@@H](C)C(=O)C[C@@H](C(C)C)C(=O)C1
REMARK SMILES IDX 8 1 9 2 6 3 7 4 5 5 4 6 3 7 2 8 1 9 10 11 11 12 15 13 16 14
REMARK SMILES IDX 17 15 12 17 13 18 14 19
REMARK H PARENT
REMARK Flexibility Score: 70.00
ROOT
ATOM      1  C   UNL     1     -14.889  13.743 -32.352  1.00  0.00     0.136 C 
ATOM      2  O   UNL     1     -14.863  13.155 -33.424  1.00  0.00    -0.299 OA
ENDROOT
BRANCH   1   3
ATOM      3  C   UNL     1     -16.094  13.521 -31.449  1.00  0.00     0.053 C 
ATOM      4  C   UNL     1     -17.395  14.138 -31.989  1.00  0.00     0.016 C 
BRANCH   3   5
ATOM      5  C   UNL     1     -15.799  13.903 -29.981  1.00  0.00     0.015 C 
BRANCH   5   6
ATOM      6  C   UNL     1     -15.935  12.734 -28.984  1.00  0.00     0.028 C 
BRANCH   6   7
ATOM      7  C   UNL     1     -14.693  11.881 -28.911  1.00  0.00    -0.028 C 
ATOM      8  C   UNL     1     -13.420  12.350 -28.914  1.00  0.00    -0.070 CG0
ATOM      9  C   UNL     1     -12.304  11.349 -28.752  1.00  0.00     0.039 C 
ATOM     10  G   UNL     1     -13.066  13.820 -29.105  1.00  0.00     0.000 G0
ENDBRANCH   6   7
ENDBRANCH   5   6
ENDBRANCH   3   5
ENDBRANCH   1   3
BRANCH   1  11
ATOM     11  C   UNL     1     -13.735  14.665 -32.012  1.00  0.00     0.087 C 
BRANCH  11  12
ATOM     12  C   UNL     1     -12.437  13.890 -31.656  1.00  0.00     0.066 C 
BRANCH  12  13
ATOM     13  C   UNL     1     -12.056  14.099 -30.197  1.00  0.00     0.140 C 
ATOM     14  O   UNL     1     -10.923  14.448 -29.896  1.00  0.00    -0.299 OA
BRANCH  13  15
ATOM     15  C   UNL     1     -13.064  13.829 -29.105  1.00  0.00     0.106 CG0
ATOM     16  G   UNL     1     -13.389  12.352 -28.925  1.00  0.00     0.000 G0
ENDBRANCH  13  15
ENDBRANCH  12  13
BRANCH  12  17
ATOM     17  C   UNL     1     -11.243  14.202 -32.617  1.00  0.00    -0.006 C 
ATOM     18  C   UNL     1     -11.213  15.657 -33.123  1.00  0.00     0.008 C 
ATOM     19  C   UNL     1     -11.215  13.236 -33.812  1.00  0.00     0.008 C 
ENDBRANCH  12  17
ENDBRANCH  11  12
ENDBRANCH   1  11
TORSDOF 1
ENDMDL
MODEL 5
REMARK VINA RESULT:    -3.454      1.983      4.112
REMARK INTER + INTRA:          -4.848
REMARK INTER:                  -5.628
REMARK INTRA:                   0.780
REMARK UNBOUND:                 0.424
REMARK SMILES CC1=CCC[C@@H](C)C(=O)C[C@@H](C(C)C)C(=O)C1
REMARK SMILES IDX 8 1 9 2 6 3 7 4 5 5 4 6 3 7 2 8 1 9 10 11 11 12 15 13 16 14
REMARK SMILES IDX 17 15 12 17 13 18 14 19
REMARK H PARENT
REMARK Flexibility Score: 70.00
ROOT
ATOM      1  C   UNL     1     -16.182  12.585 -29.528  1.00  0.00     0.136 C 
ATOM      2  O   UNL     1     -16.454  11.499 -30.020  1.00  0.00    -0.299 OA
ENDROOT
BRANCH   1   3
ATOM      3  C   UNL     1     -16.731  13.831 -30.207  1.00  0.00     0.053 C 
ATOM      4  C   UNL     1     -17.260  13.579 -31.629  1.00  0.00     0.016 C 
BRANCH   3   5
ATOM      5  C   UNL     1     -15.750  15.022 -30.121  1.00  0.00     0.015 C 
BRANCH   5   6
ATOM      6  C   UNL     1     -14.793  15.141 -31.323  1.00  0.00     0.028 C 
BRANCH   6   7
ATOM      7  C   UNL     1     -13.350  15.290 -30.909  1.00  0.00    -0.028 C 
ATOM      8  C   UNL     1     -12.449  14.279 -30.834  1.00  0.00    -0.070 CG0
ATOM      9  C   UNL     1     -11.027  14.633 -30.478  1.00  0.00     0.039 C 
ATOM     10  G   UNL     1     -12.807  12.815 -31.058  1.00  0.00     0.000 G0
ENDBRANCH   6   7
ENDBRANCH   5   6
ENDBRANCH   3   5
ENDBRANCH   1   3
BRANCH   1  11
ATOM     11  C   UNL     1     -15.299  12.612 -28.295  1.00  0.00     0.087 C 
BRANCH  11  12
ATOM     12  C   UNL     1     -13.811  12.899 -28.634  1.00  0.00     0.066 C 
BRANCH  12  13
ATOM     13  C   UNL     1     -13.360  12.099 -29.848  1.00  0.00     0.140 C 
ATOM     14  O   UNL     1     -13.404  10.877 -29.837  1.00  0.00    -0.299 OA
BRANCH  13  15
ATOM     15  C   UNL     1     -12.809  12.810 -31.061  1.00  0.00     0.106 CG0
ATOM     16  G   UNL     1     -12.467  14.273 -30.808  1.00  0.00     0.000 G0
ENDBRANCH  13  15
ENDBRANCH  12  13
BRANCH  12  17
ATOM     17  C   UNL     1     -12.847  12.699 -27.418  1.00  0.00    -0.006 C 
ATOM     18  C   UNL     1     -13.426  11.807 -26.303  1.00  0.00     0.008 C 
ATOM     19  C   UNL     1     -12.401  14.046 -26.826  1.00  0.00     0.008 C 
ENDBRANCH  12  17
ENDBRANCH  11  12
ENDBRANCH   1  11
TORSDOF 1
ENDMDL
MODEL 6
REMARK VINA RESULT:    -2.716      1.974      3.926
REMARK INTER + INTRA:          -3.721
REMARK INTER:                  -4.876
REMARK INTRA:                   1.156
REMARK UNBOUND:                 0.424
REMARK SMILES CC1=CCC[C@@H](C)C(=O)C[C@@H](C(C)C)C(=O)C1
REMARK SMILES IDX 8 1 9 2 6 3 7 4 5 5 4 6 3 7 2 8 1 9 10 11 11 12 15 13 16 14
REMARK SMILES IDX 17 15 12 17 13 18 14 19
REMARK H PARENT
REMARK Flexibility Score: 70.00
ROOT
ATOM      1  C   UNL     1     -13.611  14.356 -30.341  1.00  0.00     0.136 C 
ATOM      2  O   UNL     1     -12.722  15.012 -30.867  1.00  0.00    -0.299 OA
ENDROOT
BRANCH   1   3
ATOM      3  C   UNL     1     -14.814  13.977 -31.192  1.00  0.00     0.053 C 
ATOM      4  C   UNL     1     -14.576  14.130 -32.703  1.00  0.00     0.016 C 
BRANCH   3   5
ATOM      5  C   UNL     1     -16.111  14.660 -30.704  1.00  0.00     0.015 C 
BRANCH   5   6
ATOM      6  C   UNL     1     -17.406  13.966 -31.172  1.00  0.00     0.028 C 
BRANCH   6   7
ATOM      7  C   UNL     1     -17.598  12.606 -30.549  1.00  0.00    -0.028 C 
ATOM      8  C   UNL     1     -17.266  12.274 -29.276  1.00  0.00    -0.070 CG0
ATOM      9  C   UNL     1     -17.608  10.884 -28.803  1.00  0.00     0.039 C 
ATOM     10  G   UNL     1     -16.542  13.217 -28.323  1.00  0.00     0.000 G0
ENDBRANCH   6   7
ENDBRANCH   5   6
ENDBRANCH   3   5
ENDBRANCH   1   3
BRANCH   1  11
ATOM     11  C   UNL     1     -13.461  13.991 -28.877  1.00  0.00     0.087 C 
BRANCH  11  12
ATOM     12  C   UNL     1     -13.982  12.562 -28.562  1.00  0.00     0.066 C 
BRANCH  12  13
ATOM     13  C   UNL     1     -15.258  12.613 -27.735  1.00  0.00     0.140 C 
ATOM     14  O   UNL     1     -15.287  12.138 -26.609  1.00  0.00    -0.299 OA
BRANCH  13  15
ATOM     15  C   UNL     1     -16.516  13.211 -28.319  1.00  0.00     0.106 CG0
ATOM     16  G   UNL     1     -17.254  12.274 -29.267  1.00  0.00     0.000 G0
ENDBRANCH  13  15
ENDBRANCH  12  13
BRANCH  12  17
ATOM     17  C   UNL     1     -12.904  11.637 -27.907  1.00  0.00    -0.006 C 
ATOM     18  C   UNL     1     -12.303  12.203 -26.606  1.00  0.00     0.008 C 
ATOM     19  C   UNL     1     -11.776  11.299 -28.896  1.00  0.00     0.008 C 
ENDBRANCH  12  17
ENDBRANCH  11  12
ENDBRANCH   1  11
TORSDOF 1
ENDMDL
MODEL 7
REMARK VINA RESULT:    -2.233      1.471      2.118
REMARK INTER + INTRA:          -2.984
REMARK INTER:                  -5.161
REMARK INTRA:                   2.178
REMARK UNBOUND:                 0.424
REMARK SMILES CC1=CCC[C@@H](C)C(=O)C[C@@H](C(C)C)C(=O)C1
REMARK SMILES IDX 8 1 9 2 6 3 7 4 5 5 4 6 3 7 2 8 1 9 10 11 11 12 15 13 16 14
REMARK SMILES IDX 17 15 12 17 13 18 14 19
REMARK H PARENT
REMARK Flexibility Score: 70.00
ROOT
ATOM      1  C   UNL     1     -17.665  12.039 -30.143  1.00  0.00     0.136 C 
ATOM      2  O   UNL     1     -17.858  10.908 -30.567  1.00  0.00    -0.299 OA
ENDROOT
BRANCH   1   3
ATOM      3  C   UNL     1     -17.682  12.246 -28.636  1.00  0.00     0.053 C 
ATOM      4  C   UNL     1     -17.431  13.702 -28.208  1.00  0.00     0.016 C 
BRANCH   3   5
ATOM      5  C   UNL     1     -16.784  11.228 -27.898  1.00  0.00     0.015 C 
BRANCH   5   6
ATOM      6  C   UNL     1     -15.660  11.866 -27.059  1.00  0.00     0.028 C 
BRANCH   6   7
ATOM      7  C   UNL     1     -14.282  11.495 -27.549  1.00  0.00    -0.028 C 
ATOM      8  C   UNL     1     -13.669  12.028 -28.636  1.00  0.00    -0.070 CG0
ATOM      9  C   UNL     1     -12.255  11.591 -28.926  1.00  0.00     0.039 C 
ATOM     10  G   UNL     1     -14.344  13.010 -29.586  1.00  0.00     0.000 G0
ENDBRANCH   6   7
ENDBRANCH   5   6
ENDBRANCH   3   5
ENDBRANCH   1   3
BRANCH   1  11
ATOM     11  C   UNL     1     -17.450  13.154 -31.148  1.00  0.00     0.087 C 
BRANCH  11  12
ATOM     12  C   UNL     1     -15.973  13.259 -31.614  1.00  0.00     0.066 C 
BRANCH  12  13
ATOM     13  C   UNL     1     -15.061  12.403 -30.748  1.00  0.00     0.140 C 
ATOM     14  O   UNL     1     -14.955  11.202 -30.957  1.00  0.00    -0.299 OA
BRANCH  13  15
ATOM     15  C   UNL     1     -14.315  13.021 -29.590  1.00  0.00     0.106 CG0
ATOM     16  G   UNL     1     -13.675  11.999 -28.659  1.00  0.00     0.000 G0
ENDBRANCH  13  15
ENDBRANCH  12  13
BRANCH  12  17
ATOM     17  C   UNL     1     -15.457  14.733 -31.717  1.00  0.00    -0.006 C 
ATOM     18  C   UNL     1     -13.945  14.847 -31.990  1.00  0.00     0.008 C 
ATOM     19  C   UNL     1     -15.821  15.545 -30.463  1.00  0.00     0.008 C 
ENDBRANCH  12  17
ENDBRANCH  11  12
ENDBRANCH   1  11
TORSDOF 1
ENDMDL
MODEL 8
REMARK VINA RESULT:    -2.195     11.051     13.450
REMARK INTER + INTRA:          -2.926
REMARK INTER:                  -2.940
REMARK INTRA:                   0.013
REMARK UNBOUND:                 0.424
REMARK SMILES CC1=CCC[C@@H](C)C(=O)C[C@@H](C(C)C)C(=O)C1
REMARK SMILES IDX 8 1 9 2 6 3 7 4 5 5 4 6 3 7 2 8 1 9 10 11 11 12 15 13 16 14
REMARK SMILES IDX 17 15 12 17 13 18 14 19
REMARK H PARENT
REMARK Flexibility Score: 70.00
ROOT
ATOM      1  C   UNL     1     -23.975  19.015 -32.148  1.00  0.00     0.136 C 
ATOM      2  O   UNL     1     -23.503  17.900 -32.318  1.00  0.00    -0.299 OA
ENDROOT
BRANCH   1   3
ATOM      3  C   UNL     1     -23.263  20.195 -32.795  1.00  0.00     0.053 C 
ATOM      4  C   UNL     1     -23.507  21.534 -32.078  1.00  0.00     0.016 C 
BRANCH   3   5
ATOM      5  C   UNL     1     -23.513  20.262 -34.318  1.00  0.00     0.015 C 
BRANCH   5   6
ATOM      6  C   UNL     1     -24.937  19.853 -34.744  1.00  0.00     0.028 C 
BRANCH   6   7
ATOM      7  C   UNL     1     -25.975  20.885 -34.378  1.00  0.00    -0.028 C 
ATOM      8  C   UNL     1     -27.177  20.618 -33.809  1.00  0.00    -0.070 CG0
ATOM      9  C   UNL     1     -28.052  21.790 -33.438  1.00  0.00     0.039 C 
ATOM     10  G   UNL     1     -27.694  19.207 -33.558  1.00  0.00     0.000 G0
ENDBRANCH   6   7
ENDBRANCH   5   6
ENDBRANCH   3   5
ENDBRANCH   1   3
BRANCH   1  11
ATOM     11  C   UNL     1     -25.216  19.144 -31.287  1.00  0.00     0.087 C 
BRANCH  11  12
ATOM     12  C   UNL     1     -26.298  18.088 -31.639  1.00  0.00     0.066 C 
BRANCH  12  13
ATOM     13  C   UNL     1     -27.579  18.753 -32.122  1.00  0.00     0.140 C 
ATOM     14  O   UNL     1     -28.531  18.887 -31.366  1.00  0.00    -0.299 OA
BRANCH  13  15
ATOM     15  C   UNL     1     -27.701  19.210 -33.556  1.00  0.00     0.106 CG0
ATOM     16  G   UNL     1     -27.175  20.620 -33.794  1.00  0.00     0.000 G0
ENDBRANCH  13  15
ENDBRANCH  12  13
BRANCH  12  17
ATOM     17  C   UNL     1     -26.574  17.071 -30.483  1.00  0.00    -0.006 C 
ATOM     18  C   UNL     1     -26.326  17.645 -29.075  1.00  0.00     0.008 C 
ATOM     19  C   UNL     1     -25.764  15.777 -30.666  1.00  0.00     0.008 C 
ENDBRANCH  12  17
ENDBRANCH  11  12
ENDBRANCH   1  11
TORSDOF 1
ENDMDL
MODEL 9
REMARK VINA RESULT:    -1.872     10.941     12.761
REMARK INTER + INTRA:          -2.434
REMARK INTER:                  -2.393
REMARK INTRA:                  -0.041
REMARK UNBOUND:                 0.424
REMARK SMILES CC1=CCC[C@@H](C)C(=O)C[C@@H](C(C)C)C(=O)C1
REMARK SMILES IDX 8 1 9 2 6 3 7 4 5 5 4 6 3 7 2 8 1 9 10 11 11 12 15 13 16 14
REMARK SMILES IDX 17 15 12 17 13 18 14 19
REMARK H PARENT
REMARK Flexibility Score: 70.00
ROOT
ATOM      1  C   UNL     1     -24.935  17.485 -31.353  1.00  0.00     0.136 C 
ATOM      2  O   UNL     1     -24.733  16.308 -31.090  1.00  0.00    -0.299 OA
ENDROOT
BRANCH   1   3
ATOM      3  C   UNL     1     -26.182  18.139 -30.776  1.00  0.00     0.053 C 
ATOM      4  C   UNL     1     -26.244  18.108 -29.240  1.00  0.00     0.016 C 
BRANCH   3   5
ATOM      5  C   UNL     1     -27.473  17.625 -31.452  1.00  0.00     0.015 C 
BRANCH   5   6
ATOM      6  C   UNL     1     -27.800  18.308 -32.795  1.00  0.00     0.028 C 
BRANCH   6   7
ATOM      7  C   UNL     1     -27.767  19.814 -32.707  1.00  0.00    -0.028 C 
ATOM      8  C   UNL     1     -27.001  20.625 -33.479  1.00  0.00    -0.070 CG0
ATOM      9  C   UNL     1     -27.162  22.114 -33.304  1.00  0.00     0.039 C 
ATOM     10  G   UNL     1     -25.974  20.111 -34.480  1.00  0.00     0.000 G0
ENDBRANCH   6   7
ENDBRANCH   5   6
ENDBRANCH   3   5
ENDBRANCH   1   3
BRANCH   1  11
ATOM     11  C   UNL     1     -23.944  18.199 -32.251  1.00  0.00     0.087 C 
BRANCH  11  12
ATOM     12  C   UNL     1     -24.312  19.690 -32.479  1.00  0.00     0.066 C 
BRANCH  12  13
ATOM     13  C   UNL     1     -24.552  19.977 -33.954  1.00  0.00     0.140 C 
ATOM     14  O   UNL     1     -23.610  20.157 -34.712  1.00  0.00    -0.299 OA
BRANCH  13  15
ATOM     15  C   UNL     1     -25.962  20.090 -34.483  1.00  0.00     0.106 CG0
ATOM     16  G   UNL     1     -26.957  20.624 -33.461  1.00  0.00     0.000 G0
ENDBRANCH  13  15
ENDBRANCH  12  13
BRANCH  12  17
ATOM     17  C   UNL     1     -23.280  20.687 -31.855  1.00  0.00    -0.006 C 
ATOM     18  C   UNL     1     -23.107  20.534 -30.332  1.00  0.00     0.008 C 
ATOM     19  C   UNL     1     -23.632  22.145 -32.194  1.00  0.00     0.008 C 
ENDBRANCH  12  17
ENDBRANCH  11  12
ENDBRANCH   1  11
TORSDOF 1
ENDMDL
