MODEL 1
REMARK VINA RESULT:    78.011      0.000      0.000
REMARK INTER + INTRA:         104.675
REMARK INTER:                 105.375
REMARK INTRA:                  -0.700
REMARK UNBOUND:                -0.700
REMARK SMILES O=c1c(-c2ccc(O)cc2)coc2c([C@@H]3O[C@@H](CO)[C@@H](O)[C@H](O)[C@H]3O)c(O)ccc12
REMARK SMILES IDX 3 1 11 2 12 3 13 4 30 5 2 6 1 7 29 8 28 9 26 10 14 11 4 12
REMARK SMILES IDX 5 13 6 14 7 15 10 16 9 17 8 18 15 20 24 21 16 22 22 23 17 24
REMARK SMILES IDX 20 25 25 26 23 28 18 30 19 31 21 33 27 35
REMARK H PARENT 8 19 25 27 23 29 19 32 21 34 27 36
REMARK Flexibility Score: inf
ROOT
ATOM      1  C   UNL     1       3.669  -1.236  10.537  1.00  0.00     0.065 A 
ATOM      2  C   UNL     1       3.096  -1.849   9.415  1.00  0.00     0.208 A 
ATOM      3  O   UNL     1       3.849  -2.565   8.581  1.00  0.00    -0.463 OA
ATOM      4  C   UNL     1       5.157  -2.735   8.752  1.00  0.00     0.147 A 
ATOM      5  C   UNL     1       5.758  -2.317   9.976  1.00  0.00     0.066 A 
ATOM      6  C   UNL     1       4.997  -1.547  10.872  1.00  0.00     0.200 A 
ATOM      7  O   UNL     1       5.511  -1.083  11.938  1.00  0.00    -0.288 OA
ATOM      8  C   UNL     1       7.122  -2.503  10.173  1.00  0.00     0.020 A 
ATOM      9  C   UNL     1       7.909  -3.052   9.176  1.00  0.00     0.047 A 
ATOM     10  C   UNL     1       7.362  -3.388   7.936  1.00  0.00     0.125 A 
ATOM     11  C   UNL     1       5.973  -3.251   7.698  1.00  0.00     0.069 A 
ENDROOT
BRANCH   1  12
ATOM     12  C   UNL     1       3.068   0.027  11.045  1.00  0.00    -0.011 A 
ATOM     13  C   UNL     1       1.887   0.050  11.791  1.00  0.00     0.013 A 
ATOM     14  C   UNL     1       1.307   1.280  12.158  1.00  0.00     0.047 A 
ATOM     15  C   UNL     1       1.911   2.477  11.763  1.00  0.00     0.115 A 
ATOM     16  C   UNL     1       3.654   1.240  10.647  1.00  0.00     0.013 A 
ATOM     17  C   UNL     1       3.073   2.453  10.994  1.00  0.00     0.047 A 
BRANCH  15  18
ATOM     18  O   UNL     1       1.333   3.689  12.114  1.00  0.00    -0.508 OA
ATOM     19  H   UNL     1       0.471   3.722  12.625  1.00  0.00     0.293 HD
ENDBRANCH  15  18
ENDBRANCH   1  12
BRANCH  11  20
ATOM     20  C   UNL     1       5.515  -3.305   6.227  1.00  0.00     0.188 C 
ATOM     21  C   UNL     1       6.124  -2.250   5.276  1.00  0.00     0.179 C 
ATOM     22  O   UNL     1       5.738  -4.555   5.622  1.00  0.00    -0.362 OA
ATOM     23  C   UNL     1       5.054  -2.018   4.204  1.00  0.00     0.177 C 
ATOM     24  C   UNL     1       5.127  -4.690   4.328  1.00  0.00     0.176 C 
ATOM     25  C   UNL     1       4.592  -3.384   3.595  1.00  0.00     0.177 C 
BRANCH  21  26
ATOM     26  O   UNL     1       6.446  -1.059   5.938  1.00  0.00    -0.387 OA
ATOM     27  H   UNL     1       6.150  -0.318   5.350  1.00  0.00     0.211 HD
ENDBRANCH  21  26
BRANCH  23  28
ATOM     28  O   UNL     1       5.542  -1.174   3.201  1.00  0.00    -0.387 OA
ATOM     29  H   UNL     1       6.226  -0.601   3.635  1.00  0.00     0.211 HD
ENDBRANCH  23  28
BRANCH  24  30
ATOM     30  C   UNL     1       4.089  -5.831   4.411  1.00  0.00     0.191 C 
BRANCH  30  31
ATOM     31  O   UNL     1       4.671  -7.049   4.799  1.00  0.00    -0.394 OA
ATOM     32  H   UNL     1       3.952  -7.742   4.768  1.00  0.00     0.210 HD
ENDBRANCH  30  31
ENDBRANCH  24  30
BRANCH  25  33
ATOM     33  O   UNL     1       3.184  -3.400   3.485  1.00  0.00    -0.388 OA
ATOM     34  H   UNL     1       2.837  -2.922   4.286  1.00  0.00     0.211 HD
ENDBRANCH  25  33
ENDBRANCH  11  20
BRANCH  10  35
ATOM     35  O   UNL     1       8.215  -3.791   6.913  1.00  0.00    -0.507 OA
ATOM     36  H   UNL     1       8.582  -3.142   6.221  1.00  0.00     0.293 HD
ENDBRANCH  10  35
TORSDOF 9
ENDMDL
MODEL 2
REMARK VINA RESULT:    80.303      0.958      2.355
REMARK INTER + INTRA:         107.771
REMARK INTER:                 108.602
REMARK INTRA:                  -0.831
REMARK UNBOUND:                -0.700
REMARK SMILES O=c1c(-c2ccc(O)cc2)coc2c([C@@H]3O[C@@H](CO)[C@@H](O)[C@H](O)[C@H]3O)c(O)ccc12
REMARK SMILES IDX 3 1 11 2 12 3 13 4 30 5 2 6 1 7 29 8 28 9 26 10 14 11 4 12
REMARK SMILES IDX 5 13 6 14 7 15 10 16 9 17 8 18 15 20 24 21 16 22 22 23 17 24
REMARK SMILES IDX 20 25 25 26 23 28 18 30 19 31 21 33 27 35
REMARK H PARENT 8 19 25 27 23 29 19 32 21 34 27 36
REMARK Flexibility Score: inf
ROOT
ATOM      1  C   UNL     1       3.551  -1.158  10.556  1.00  0.00     0.065 A 
ATOM      2  C   UNL     1       3.079  -1.658   9.335  1.00  0.00     0.208 A 
ATOM      3  O   UNL     1       3.878  -2.377   8.548  1.00  0.00    -0.463 OA
ATOM      4  C   UNL     1       5.141  -2.655   8.859  1.00  0.00     0.147 A 
ATOM      5  C   UNL     1       5.615  -2.357  10.171  1.00  0.00     0.066 A 
ATOM      6  C   UNL     1       4.805  -1.588  11.022  1.00  0.00     0.200 A 
ATOM      7  O   UNL     1       5.214  -1.229  12.171  1.00  0.00    -0.288 OA
ATOM      8  C   UNL     1       6.930  -2.657  10.513  1.00  0.00     0.020 A 
ATOM      9  C   UNL     1       7.793  -3.203   9.580  1.00  0.00     0.047 A 
ATOM     10  C   UNL     1       7.381  -3.421   8.265  1.00  0.00     0.125 A 
ATOM     11  C   UNL     1       6.043  -3.166   7.875  1.00  0.00     0.069 A 
ENDROOT
BRANCH   1  12
ATOM     12  C   UNL     1       2.979   0.113  11.076  1.00  0.00    -0.011 A 
ATOM     13  C   UNL     1       1.784   0.160  11.799  1.00  0.00     0.013 A 
ATOM     14  C   UNL     1       1.236   1.400  12.177  1.00  0.00     0.047 A 
ATOM     15  C   UNL     1       1.884   2.585  11.817  1.00  0.00     0.115 A 
ATOM     16  C   UNL     1       3.610   1.314  10.712  1.00  0.00     0.013 A 
ATOM     17  C   UNL     1       3.060   2.539  11.071  1.00  0.00     0.047 A 
BRANCH  15  18
ATOM     18  O   UNL     1       1.336   3.807  12.179  1.00  0.00    -0.508 OA
ATOM     19  H   UNL     1       1.181   4.527  11.499  1.00  0.00     0.293 HD
ENDBRANCH  15  18
ENDBRANCH   1  12
BRANCH  11  20
ATOM     20  C   UNL     1       5.765  -3.097   6.360  1.00  0.00     0.188 C 
ATOM     21  C   UNL     1       5.111  -4.343   5.722  1.00  0.00     0.179 C 
ATOM     22  O   UNL     1       4.964  -2.000   5.994  1.00  0.00    -0.362 OA
ATOM     23  C   UNL     1       5.610  -4.354   4.273  1.00  0.00     0.177 C 
ATOM     24  C   UNL     1       4.874  -1.799   4.573  1.00  0.00     0.176 C 
ATOM     25  C   UNL     1       5.360  -2.961   3.603  1.00  0.00     0.177 C 
BRANCH  21  26
ATOM     26  O   UNL     1       5.455  -5.526   6.386  1.00  0.00    -0.387 OA
ATOM     27  H   UNL     1       5.781  -5.263   7.284  1.00  0.00     0.211 HD
ENDBRANCH  21  26
BRANCH  23  28
ATOM     28  O   UNL     1       4.978  -5.368   3.545  1.00  0.00    -0.387 OA
ATOM     29  H   UNL     1       4.032  -5.370   3.845  1.00  0.00     0.211 HD
ENDBRANCH  23  28
BRANCH  24  30
ATOM     30  C   UNL     1       5.485  -0.417   4.251  1.00  0.00     0.191 C 
BRANCH  30  31
ATOM     31  O   UNL     1       4.968   0.127   3.064  1.00  0.00    -0.394 OA
ATOM     32  H   UNL     1       5.534   0.917   2.832  1.00  0.00     0.210 HD
ENDBRANCH  30  31
ENDBRANCH  24  30
BRANCH  25  33
ATOM     33  O   UNL     1       6.509  -2.574   2.877  1.00  0.00    -0.388 OA
ATOM     34  H   UNL     1       7.132  -2.167   3.538  1.00  0.00     0.211 HD
ENDBRANCH  25  33
ENDBRANCH  11  20
BRANCH  10  35
ATOM     35  O   UNL     1       8.322  -3.825   7.324  1.00  0.00    -0.507 OA
ATOM     36  H   UNL     1       8.206  -4.667   6.762  1.00  0.00     0.293 HD
ENDBRANCH  10  35
TORSDOF 9
ENDMDL
