MODEL 1
REMARK VINA RESULT:    -5.198      0.000      0.000
REMARK INTER + INTRA:          -7.094
REMARK INTER:                  -6.717
REMARK INTRA:                  -0.377
REMARK UNBOUND:                -0.377
REMARK SMILES CCO[C@H]1O[C@@H](CO)[C@@H](O)[C@H](O)[C@@H]1O
REMARK SMILES IDX 4 1 13 2 11 3 9 4 6 5 5 6 3 7 2 8 1 9 14 10 12 12 7 14 8 15
REMARK SMILES IDX 10 17
REMARK H PARENT 14 11 12 13 8 16 10 18
REMARK Flexibility Score: inf
ROOT
ATOM      1  C   UNL     1     -23.193   5.308 -39.990  1.00  0.00     0.281 C 
ATOM      2  C   UNL     1     -22.938   5.938 -38.602  1.00  0.00     0.202 C 
ATOM      3  C   UNL     1     -23.333   7.421 -38.582  1.00  0.00     0.179 C 
ATOM      4  C   UNL     1     -22.685   8.157 -39.771  1.00  0.00     0.177 C 
ATOM      5  C   UNL     1     -22.929   7.412 -41.109  1.00  0.00     0.178 C 
ATOM      6  O   UNL     1     -22.565   6.034 -41.042  1.00  0.00    -0.341 OA
ENDROOT
BRANCH   1   7
ATOM      7  O   UNL     1     -24.592   5.195 -40.218  1.00  0.00    -0.350 OA
BRANCH   7   8
ATOM      8  C   UNL     1     -25.144   4.039 -39.615  1.00  0.00     0.160 C 
ATOM      9  C   UNL     1     -26.186   4.403 -38.560  1.00  0.00     0.035 C 
ENDBRANCH   7   8
ENDBRANCH   1   7
BRANCH   2  10
ATOM     10  O   UNL     1     -21.603   5.757 -38.190  1.00  0.00    -0.385 OA
ATOM     11  H   UNL     1     -21.590   5.664 -37.203  1.00  0.00     0.211 HD
ENDBRANCH   2  10
BRANCH   3  12
ATOM     12  O   UNL     1     -22.924   7.999 -37.370  1.00  0.00    -0.387 OA
ATOM     13  H   UNL     1     -23.720   8.018 -36.776  1.00  0.00     0.211 HD
ENDBRANCH   3  12
BRANCH   5  14
ATOM     14  C   UNL     1     -24.333   7.613 -41.720  1.00  0.00     0.191 C 
BRANCH  14  15
ATOM     15  O   UNL     1     -24.492   6.794 -42.846  1.00  0.00    -0.394 OA
ATOM     16  H   UNL     1     -24.060   5.929 -42.622  1.00  0.00     0.210 HD
ENDBRANCH  14  15
ENDBRANCH   5  14
BRANCH   4  17
ATOM     17  O   UNL     1     -23.098   9.500 -39.843  1.00  0.00    -0.387 OA
ATOM     18  H   UNL     1     -22.330  10.075 -39.592  1.00  0.00     0.211 HD
ENDBRANCH   4  17
TORSDOF 7
ENDMDL
MODEL 2
REMARK VINA RESULT:    -5.141      1.610      3.296
REMARK INTER + INTRA:          -7.020
REMARK INTER:                  -6.645
REMARK INTRA:                  -0.376
REMARK UNBOUND:                -0.377
REMARK SMILES CCO[C@H]1O[C@@H](CO)[C@@H](O)[C@H](O)[C@@H]1O
REMARK SMILES IDX 4 1 13 2 11 3 9 4 6 5 5 6 3 7 2 8 1 9 14 10 12 12 7 14 8 15
REMARK SMILES IDX 10 17
REMARK H PARENT 14 11 12 13 8 16 10 18
REMARK Flexibility Score: inf
ROOT
ATOM      1  C   UNL     1     -24.565   6.307 -40.684  1.00  0.00     0.281 C 
ATOM      2  C   UNL     1     -23.842   5.073 -41.270  1.00  0.00     0.202 C 
ATOM      3  C   UNL     1     -22.358   5.060 -40.878  1.00  0.00     0.179 C 
ATOM      4  C   UNL     1     -21.712   6.420 -41.204  1.00  0.00     0.177 C 
ATOM      5  C   UNL     1     -22.547   7.601 -40.642  1.00  0.00     0.178 C 
ATOM      6  O   UNL     1     -23.920   7.530 -41.023  1.00  0.00    -0.341 OA
ENDROOT
BRANCH   1   7
ATOM      7  O   UNL     1     -24.682   6.172 -39.273  1.00  0.00    -0.350 OA
BRANCH   7   8
ATOM      8  C   UNL     1     -25.492   5.072 -38.903  1.00  0.00     0.160 C 
ATOM      9  C   UNL     1     -26.048   5.237 -37.490  1.00  0.00     0.035 C 
ENDBRANCH   7   8
ENDBRANCH   1   7
BRANCH   2  10
ATOM     10  O   UNL     1     -24.006   4.995 -42.667  1.00  0.00    -0.385 OA
ATOM     11  H   UNL     1     -24.350   4.092 -42.892  1.00  0.00     0.211 HD
ENDBRANCH   2  10
BRANCH   3  12
ATOM     12  O   UNL     1     -21.700   4.030 -41.572  1.00  0.00    -0.387 OA
ATOM     13  H   UNL     1     -22.155   3.938 -42.450  1.00  0.00     0.211 HD
ENDBRANCH   3  12
BRANCH   5  14
ATOM     14  C   UNL     1     -22.377   7.855 -39.128  1.00  0.00     0.191 C 
BRANCH  14  15
ATOM     15  O   UNL     1     -23.230   8.887 -38.713  1.00  0.00    -0.394 OA
ATOM     16  H   UNL     1     -22.770   9.736 -38.943  1.00  0.00     0.210 HD
ENDBRANCH  14  15
ENDBRANCH   5  14
BRANCH   4  17
ATOM     17  O   UNL     1     -20.374   6.481 -40.774  1.00  0.00    -0.387 OA
ATOM     18  H   UNL     1     -20.369   6.626 -39.792  1.00  0.00     0.211 HD
ENDBRANCH   4  17
TORSDOF 7
ENDMDL
MODEL 3
REMARK VINA RESULT:    -5.068     14.645     16.433
REMARK INTER + INTRA:          -6.926
REMARK INTER:                  -6.637
REMARK INTRA:                  -0.288
REMARK UNBOUND:                -0.377
REMARK SMILES CCO[C@H]1O[C@@H](CO)[C@@H](O)[C@H](O)[C@@H]1O
REMARK SMILES IDX 4 1 13 2 11 3 9 4 6 5 5 6 3 7 2 8 1 9 14 10 12 12 7 14 8 15
REMARK SMILES IDX 10 17
REMARK H PARENT 14 11 12 13 8 16 10 18
REMARK Flexibility Score: inf
ROOT
ATOM      1  C   UNL     1     -38.630   6.618 -45.156  1.00  0.00     0.281 C 
ATOM      2  C   UNL     1     -39.626   6.463 -46.327  1.00  0.00     0.202 C 
ATOM      3  C   UNL     1     -39.048   5.571 -47.434  1.00  0.00     0.179 C 
ATOM      4  C   UNL     1     -37.639   6.057 -47.825  1.00  0.00     0.177 C 
ATOM      5  C   UNL     1     -36.736   6.257 -46.580  1.00  0.00     0.178 C 
ATOM      6  O   UNL     1     -37.350   7.072 -45.583  1.00  0.00    -0.341 OA
ENDROOT
BRANCH   1   7
ATOM      7  O   UNL     1     -38.521   5.388 -44.451  1.00  0.00    -0.350 OA
BRANCH   7   8
ATOM      8  C   UNL     1     -39.261   5.391 -43.244  1.00  0.00     0.160 C 
ATOM      9  C   UNL     1     -39.357   6.795 -42.651  1.00  0.00     0.035 C 
ENDBRANCH   7   8
ENDBRANCH   1   7
BRANCH   2  10
ATOM     10  O   UNL     1     -40.026   7.716 -46.833  1.00  0.00    -0.385 OA
ATOM     11  H   UNL     1     -40.981   7.658 -47.093  1.00  0.00     0.211 HD
ENDBRANCH   2  10
BRANCH   3  12
ATOM     12  O   UNL     1     -39.900   5.600 -48.551  1.00  0.00    -0.387 OA
ATOM     13  H   UNL     1     -39.437   5.109 -49.280  1.00  0.00     0.211 HD
ENDBRANCH   3  12
BRANCH   5  14
ATOM     14  C   UNL     1     -36.149   4.957 -45.986  1.00  0.00     0.191 C 
BRANCH  14  15
ATOM     15  O   UNL     1     -36.910   3.853 -46.396  1.00  0.00    -0.394 OA
ATOM     16  H   UNL     1     -37.348   4.120 -47.246  1.00  0.00     0.210 HD
ENDBRANCH  14  15
ENDBRANCH   5  14
BRANCH   4  17
ATOM     17  O   UNL     1     -37.037   5.208 -48.772  1.00  0.00    -0.387 OA
ATOM     18  H   UNL     1     -36.250   5.678 -49.154  1.00  0.00     0.211 HD
ENDBRANCH   4  17
TORSDOF 7
ENDMDL
MODEL 4
REMARK VINA RESULT:    -5.023      1.603      3.866
REMARK INTER + INTRA:          -6.867
REMARK INTER:                  -6.413
REMARK INTRA:                  -0.455
REMARK UNBOUND:                -0.377
REMARK SMILES CCO[C@H]1O[C@@H](CO)[C@@H](O)[C@H](O)[C@@H]1O
REMARK SMILES IDX 4 1 13 2 11 3 9 4 6 5 5 6 3 7 2 8 1 9 14 10 12 12 7 14 8 15
REMARK SMILES IDX 10 17
REMARK H PARENT 14 11 12 13 8 16 10 18
REMARK Flexibility Score: inf
ROOT
ATOM      1  C   UNL     1     -23.331   5.503 -38.822  1.00  0.00     0.281 C 
ATOM      2  C   UNL     1     -23.386   4.412 -39.915  1.00  0.00     0.202 C 
ATOM      3  C   UNL     1     -23.359   5.030 -41.320  1.00  0.00     0.179 C 
ATOM      4  C   UNL     1     -24.427   6.133 -41.434  1.00  0.00     0.177 C 
ATOM      5  C   UNL     1     -24.344   7.137 -40.254  1.00  0.00     0.178 C 
ATOM      6  O   UNL     1     -24.345   6.489 -38.983  1.00  0.00    -0.341 OA
ENDROOT
BRANCH   1   7
ATOM      7  O   UNL     1     -22.042   6.102 -38.804  1.00  0.00    -0.350 OA
BRANCH   7   8
ATOM      8  C   UNL     1     -21.572   6.330 -37.488  1.00  0.00     0.160 C 
ATOM      9  C   UNL     1     -20.574   7.484 -37.442  1.00  0.00     0.035 C 
ENDBRANCH   7   8
ENDBRANCH   1   7
BRANCH   2  10
ATOM     10  O   UNL     1     -24.502   3.569 -39.746  1.00  0.00    -0.385 OA
ATOM     11  H   UNL     1     -24.296   2.690 -40.159  1.00  0.00     0.211 HD
ENDBRANCH   2  10
BRANCH   3  12
ATOM     12  O   UNL     1     -23.590   4.027 -42.276  1.00  0.00    -0.387 OA
ATOM     13  H   UNL     1     -24.051   4.460 -43.042  1.00  0.00     0.211 HD
ENDBRANCH   3  12
BRANCH   5  14
ATOM     14  C   UNL     1     -23.215   8.185 -40.370  1.00  0.00     0.191 C 
BRANCH  14  15
ATOM     15  O   UNL     1     -23.208   9.015 -39.241  1.00  0.00    -0.394 OA
ATOM     16  H   UNL     1     -22.403   8.762 -38.718  1.00  0.00     0.210 HD
ENDBRANCH  14  15
ENDBRANCH   5  14
BRANCH   4  17
ATOM     17  O   UNL     1     -24.372   6.789 -42.678  1.00  0.00    -0.387 OA
ATOM     18  H   UNL     1     -25.007   6.340 -43.294  1.00  0.00     0.211 HD
ENDBRANCH   4  17
TORSDOF 7
ENDMDL
MODEL 5
REMARK VINA RESULT:    -4.963      1.732      2.672
REMARK INTER + INTRA:          -6.790
REMARK INTER:                  -6.331
REMARK INTRA:                  -0.459
REMARK UNBOUND:                -0.377
REMARK SMILES CCO[C@H]1O[C@@H](CO)[C@@H](O)[C@H](O)[C@@H]1O
REMARK SMILES IDX 4 1 13 2 11 3 9 4 6 5 5 6 3 7 2 8 1 9 14 10 12 12 7 14 8 15
REMARK SMILES IDX 10 17
REMARK H PARENT 14 11 12 13 8 16 10 18
REMARK Flexibility Score: inf
ROOT
ATOM      1  C   UNL     1     -22.153   5.736 -41.116  1.00  0.00     0.281 C 
ATOM      2  C   UNL     1     -21.036   6.773 -40.863  1.00  0.00     0.202 C 
ATOM      3  C   UNL     1     -21.426   7.749 -39.744  1.00  0.00     0.179 C 
ATOM      4  C   UNL     1     -22.823   8.336 -40.018  1.00  0.00     0.177 C 
ATOM      5  C   UNL     1     -23.860   7.227 -40.336  1.00  0.00     0.178 C 
ATOM      6  O   UNL     1     -23.417   6.343 -41.364  1.00  0.00    -0.341 OA
ENDROOT
BRANCH   1   7
ATOM      7  O   UNL     1     -22.232   4.835 -40.018  1.00  0.00    -0.350 OA
BRANCH   7   8
ATOM      8  C   UNL     1     -22.441   3.498 -40.433  1.00  0.00     0.160 C 
ATOM      9  C   UNL     1     -23.083   2.663 -39.326  1.00  0.00     0.035 C 
ENDBRANCH   7   8
ENDBRANCH   1   7
BRANCH   2  10
ATOM     10  O   UNL     1     -20.691   7.457 -42.045  1.00  0.00    -0.385 OA
ATOM     11  H   UNL     1     -20.095   6.873 -42.582  1.00  0.00     0.211 HD
ENDBRANCH   2  10
BRANCH   3  12
ATOM     12  O   UNL     1     -20.472   8.777 -39.667  1.00  0.00    -0.387 OA
ATOM     13  H   UNL     1     -20.957   9.632 -39.807  1.00  0.00     0.211 HD
ENDBRANCH   3  12
BRANCH   5  14
ATOM     14  C   UNL     1     -24.395   6.464 -39.104  1.00  0.00     0.191 C 
BRANCH  14  15
ATOM     15  O   UNL     1     -25.281   5.456 -39.508  1.00  0.00    -0.394 OA
ATOM     16  H   UNL     1     -24.720   4.670 -39.736  1.00  0.00     0.210 HD
ENDBRANCH  14  15
ENDBRANCH   5  14
BRANCH   4  17
ATOM     17  O   UNL     1     -23.257   9.165 -38.966  1.00  0.00    -0.387 OA
ATOM     18  H   UNL     1     -22.764   8.909 -38.145  1.00  0.00     0.211 HD
ENDBRANCH   4  17
TORSDOF 7
ENDMDL
MODEL 6
REMARK VINA RESULT:    -4.950      1.577      2.954
REMARK INTER + INTRA:          -6.773
REMARK INTER:                  -6.355
REMARK INTRA:                  -0.418
REMARK UNBOUND:                -0.377
REMARK SMILES CCO[C@H]1O[C@@H](CO)[C@@H](O)[C@H](O)[C@@H]1O
REMARK SMILES IDX 4 1 13 2 11 3 9 4 6 5 5 6 3 7 2 8 1 9 14 10 12 12 7 14 8 15
REMARK SMILES IDX 10 17
REMARK H PARENT 14 11 12 13 8 16 10 18
REMARK Flexibility Score: inf
ROOT
ATOM      1  C   UNL     1     -22.763   6.323 -38.030  1.00  0.00     0.281 C 
ATOM      2  C   UNL     1     -23.562   7.406 -38.787  1.00  0.00     0.202 C 
ATOM      3  C   UNL     1     -23.320   7.321 -40.300  1.00  0.00     0.179 C 
ATOM      4  C   UNL     1     -21.808   7.290 -40.593  1.00  0.00     0.177 C 
ATOM      5  C   UNL     1     -21.078   6.225 -39.733  1.00  0.00     0.178 C 
ATOM      6  O   UNL     1     -21.374   6.349 -38.343  1.00  0.00    -0.341 OA
ENDROOT
BRANCH   1   7
ATOM      7  O   UNL     1     -23.316   5.040 -38.298  1.00  0.00    -0.350 OA
BRANCH   7   8
ATOM      8  C   UNL     1     -24.643   4.915 -37.818  1.00  0.00     0.160 C 
ATOM      9  C   UNL     1     -25.567   4.323 -38.880  1.00  0.00     0.035 C 
ENDBRANCH   7   8
ENDBRANCH   1   7
BRANCH   2  10
ATOM     10  O   UNL     1     -23.279   8.695 -38.293  1.00  0.00    -0.385 OA
ATOM     11  H   UNL     1     -23.782   8.823 -37.447  1.00  0.00     0.211 HD
ENDBRANCH   2  10
BRANCH   3  12
ATOM     12  O   UNL     1     -23.916   8.425 -40.932  1.00  0.00    -0.387 OA
ATOM     13  H   UNL     1     -23.988   8.201 -41.897  1.00  0.00     0.211 HD
ENDBRANCH   3  12
BRANCH   5  14
ATOM     14  C   UNL     1     -21.229   4.771 -40.232  1.00  0.00     0.191 C 
BRANCH  14  15
ATOM     15  O   UNL     1     -20.258   4.490 -41.202  1.00  0.00    -0.394 OA
ATOM     16  H   UNL     1     -20.203   5.296 -41.779  1.00  0.00     0.210 HD
ENDBRANCH  14  15
ENDBRANCH   5  14
BRANCH   4  17
ATOM     17  O   UNL     1     -21.544   7.118 -41.965  1.00  0.00    -0.387 OA
ATOM     18  H   UNL     1     -22.298   7.509 -42.478  1.00  0.00     0.211 HD
ENDBRANCH   4  17
TORSDOF 7
ENDMDL
MODEL 7
REMARK VINA RESULT:    -4.942      2.001      2.812
REMARK INTER + INTRA:          -6.763
REMARK INTER:                  -6.333
REMARK INTRA:                  -0.431
REMARK UNBOUND:                -0.377
REMARK SMILES CCO[C@H]1O[C@@H](CO)[C@@H](O)[C@H](O)[C@@H]1O
REMARK SMILES IDX 4 1 13 2 11 3 9 4 6 5 5 6 3 7 2 8 1 9 14 10 12 12 7 14 8 15
REMARK SMILES IDX 10 17
REMARK H PARENT 14 11 12 13 8 16 10 18
REMARK Flexibility Score: inf
ROOT
ATOM      1  C   UNL     1     -23.513   6.252 -38.849  1.00  0.00     0.281 C 
ATOM      2  C   UNL     1     -23.607   6.938 -37.468  1.00  0.00     0.202 C 
ATOM      3  C   UNL     1     -22.551   8.042 -37.322  1.00  0.00     0.179 C 
ATOM      4  C   UNL     1     -21.160   7.496 -37.695  1.00  0.00     0.177 C 
ATOM      5  C   UNL     1     -21.180   6.758 -39.060  1.00  0.00     0.178 C 
ATOM      6  O   UNL     1     -22.204   5.768 -39.132  1.00  0.00    -0.341 OA
ENDROOT
BRANCH   1   7
ATOM      7  O   UNL     1     -23.950   7.149 -39.863  1.00  0.00    -0.350 OA
BRANCH   7   8
ATOM      8  C   UNL     1     -24.634   6.486 -40.911  1.00  0.00     0.160 C 
ATOM      9  C   UNL     1     -24.617   7.308 -42.198  1.00  0.00     0.035 C 
ENDBRANCH   7   8
ENDBRANCH   1   7
BRANCH   2  10
ATOM     10  O   UNL     1     -23.520   6.000 -36.420  1.00  0.00    -0.385 OA
ATOM     11  H   UNL     1     -22.658   6.139 -35.947  1.00  0.00     0.211 HD
ENDBRANCH   2  10
BRANCH   3  12
ATOM     12  O   UNL     1     -22.550   8.515 -35.999  1.00  0.00    -0.387 OA
ATOM     13  H   UNL     1     -23.376   8.171 -35.569  1.00  0.00     0.211 HD
ENDBRANCH   3  12
BRANCH   5  14
ATOM     14  C   UNL     1     -21.176   7.682 -40.298  1.00  0.00     0.191 C 
BRANCH  14  15
ATOM     15  O   UNL     1     -21.216   6.916 -41.471  1.00  0.00    -0.394 OA
ATOM     16  H   UNL     1     -20.297   6.564 -41.603  1.00  0.00     0.210 HD
ENDBRANCH  14  15
ENDBRANCH   5  14
BRANCH   4  17
ATOM     17  O   UNL     1     -20.177   8.502 -37.664  1.00  0.00    -0.387 OA
ATOM     18  H   UNL     1     -20.348   9.079 -36.875  1.00  0.00     0.211 HD
ENDBRANCH   4  17
TORSDOF 7
ENDMDL
MODEL 8
REMARK VINA RESULT:    -4.903      1.567      3.368
REMARK INTER + INTRA:          -6.713
REMARK INTER:                  -6.459
REMARK INTRA:                  -0.254
REMARK UNBOUND:                -0.377
REMARK SMILES CCO[C@H]1O[C@@H](CO)[C@@H](O)[C@H](O)[C@@H]1O
REMARK SMILES IDX 4 1 13 2 11 3 9 4 6 5 5 6 3 7 2 8 1 9 14 10 12 12 7 14 8 15
REMARK SMILES IDX 10 17
REMARK H PARENT 14 11 12 13 8 16 10 18
REMARK Flexibility Score: inf
ROOT
ATOM      1  C   UNL     1     -23.715   6.260 -39.929  1.00  0.00     0.281 C 
ATOM      2  C   UNL     1     -22.781   6.345 -41.157  1.00  0.00     0.202 C 
ATOM      3  C   UNL     1     -21.472   7.069 -40.811  1.00  0.00     0.179 C 
ATOM      4  C   UNL     1     -21.777   8.411 -40.118  1.00  0.00     0.177 C 
ATOM      5  C   UNL     1     -22.781   8.238 -38.948  1.00  0.00     0.178 C 
ATOM      6  O   UNL     1     -23.958   7.532 -39.337  1.00  0.00    -0.341 OA
ENDROOT
BRANCH   1   7
ATOM      7  O   UNL     1     -23.176   5.354 -38.975  1.00  0.00    -0.350 OA
BRANCH   7   8
ATOM      8  C   UNL     1     -24.178   4.588 -38.333  1.00  0.00     0.160 C 
ATOM      9  C   UNL     1     -25.260   4.146 -39.316  1.00  0.00     0.035 C 
ENDBRANCH   7   8
ENDBRANCH   1   7
BRANCH   2  10
ATOM     10  O   UNL     1     -23.427   6.947 -42.255  1.00  0.00    -0.385 OA
ATOM     11  H   UNL     1     -22.913   7.755 -42.516  1.00  0.00     0.211 HD
ENDBRANCH   2  10
BRANCH   3  12
ATOM     12  O   UNL     1     -20.733   7.284 -41.985  1.00  0.00    -0.387 OA
ATOM     13  H   UNL     1     -20.468   8.242 -41.988  1.00  0.00     0.211 HD
ENDBRANCH   3  12
BRANCH   5  14
ATOM     14  C   UNL     1     -22.171   7.675 -37.645  1.00  0.00     0.191 C 
BRANCH  14  15
ATOM     15  O   UNL     1     -22.731   8.318 -36.533  1.00  0.00    -0.394 OA
ATOM     16  H   UNL     1     -23.710   8.162 -36.587  1.00  0.00     0.210 HD
ENDBRANCH  14  15
ENDBRANCH   5  14
BRANCH   4  17
ATOM     17  O   UNL     1     -20.602   9.063 -39.700  1.00  0.00    -0.387 OA
ATOM     18  H   UNL     1     -20.289   8.632 -38.863  1.00  0.00     0.211 HD
ENDBRANCH   4  17
TORSDOF 7
ENDMDL
MODEL 9
REMARK VINA RESULT:    -4.762      1.764      3.375
REMARK INTER + INTRA:          -6.531
REMARK INTER:                  -6.080
REMARK INTRA:                  -0.451
REMARK UNBOUND:                -0.377
REMARK SMILES CCO[C@H]1O[C@@H](CO)[C@@H](O)[C@H](O)[C@@H]1O
REMARK SMILES IDX 4 1 13 2 11 3 9 4 6 5 5 6 3 7 2 8 1 9 14 10 12 12 7 14 8 15
REMARK SMILES IDX 10 17
REMARK H PARENT 14 11 12 13 8 16 10 18
REMARK Flexibility Score: inf
ROOT
ATOM      1  C   UNL     1     -23.612   4.405 -39.910  1.00  0.00     0.281 C 
ATOM      2  C   UNL     1     -22.841   5.055 -41.081  1.00  0.00     0.202 C 
ATOM      3  C   UNL     1     -22.393   6.480 -40.728  1.00  0.00     0.179 C 
ATOM      4  C   UNL     1     -23.586   7.293 -40.190  1.00  0.00     0.177 C 
ATOM      5  C   UNL     1     -24.344   6.528 -39.073  1.00  0.00     0.178 C 
ATOM      6  O   UNL     1     -24.703   5.204 -39.462  1.00  0.00    -0.341 OA
ENDROOT
BRANCH   1   7
ATOM      7  O   UNL     1     -22.718   4.125 -38.840  1.00  0.00    -0.350 OA
BRANCH   7   8
ATOM      8  C   UNL     1     -22.992   2.881 -38.221  1.00  0.00     0.160 C 
ATOM      9  C   UNL     1     -23.469   1.845 -39.236  1.00  0.00     0.035 C 
ENDBRANCH   7   8
ENDBRANCH   1   7
BRANCH   2  10
ATOM     10  O   UNL     1     -23.596   5.034 -42.270  1.00  0.00    -0.385 OA
ATOM     11  H   UNL     1     -23.886   5.960 -42.474  1.00  0.00     0.211 HD
ENDBRANCH   2  10
BRANCH   3  12
ATOM     12  O   UNL     1     -21.858   7.098 -41.870  1.00  0.00    -0.387 OA
ATOM     13  H   UNL     1     -22.522   6.982 -42.599  1.00  0.00     0.211 HD
ENDBRANCH   3  12
BRANCH   5  14
ATOM     14  C   UNL     1     -23.665   6.562 -37.686  1.00  0.00     0.191 C 
BRANCH  14  15
ATOM     15  O   UNL     1     -24.349   5.726 -36.793  1.00  0.00    -0.394 OA
ATOM     16  H   UNL     1     -23.788   5.677 -35.975  1.00  0.00     0.210 HD
ENDBRANCH  14  15
ENDBRANCH   5  14
BRANCH   4  17
ATOM     17  O   UNL     1     -23.196   8.577 -39.766  1.00  0.00    -0.387 OA
ATOM     18  H   UNL     1     -23.957   9.196 -39.914  1.00  0.00     0.211 HD
ENDBRANCH   4  17
TORSDOF 7
ENDMDL
