MODEL 1
REMARK VINA RESULT:    -3.125      0.000      0.000
REMARK INTER + INTRA:          -4.232
REMARK INTER:                  -4.587
REMARK INTRA:                   0.354
REMARK UNBOUND:                 0.354
REMARK SMILES C=C1C=C[C@@H](C(C)C)CCC(C)=CCC1
REMARK SMILES IDX 3 1 4 2 5 3 9 4 10 5 11 6 12 7 13 8 6 10 7 11 8 12 2 13 1 14
REMARK SMILES IDX 15 15 14 16
REMARK H PARENT
REMARK Flexibility Score: 70.00
ROOT
ATOM      1  C   UNL     1     147.253 143.742 131.822  1.00  0.00    -0.001 C 
ATOM      2  C   UNL     1     147.138 144.793 130.991  1.00  0.00    -0.023 C 
ENDROOT
BRANCH   2   3
ATOM      3  C   UNL     1     146.251 146.018 131.163  1.00  0.00     0.014 C 
BRANCH   3   4
ATOM      4  C   UNL     1     145.168 146.110 130.046  1.00  0.00     0.012 C 
BRANCH   4   5
ATOM      5  C   UNL     1     143.695 145.891 130.463  1.00  0.00     0.031 C 
BRANCH   5   6
ATOM      6  C   UNL     1     143.550 145.936 131.972  1.00  0.00    -0.077 C 
ATOM      7  C   UNL     1     143.199 147.250 132.609  1.00  0.00     0.039 C 
ATOM      8  C   UNL     1     143.762 144.866 132.773  1.00  0.00    -0.028 CG0
ATOM      9  G   UNL     1     144.069 143.462 132.276  1.00  0.00     0.000 G0
ENDBRANCH   5   6
ENDBRANCH   4   5
ENDBRANCH   3   4
BRANCH   3  10
ATOM     10  C   UNL     1     147.020 147.332 131.522  1.00  0.00    -0.010 C 
ATOM     11  C   UNL     1     146.514 147.929 132.850  1.00  0.00     0.008 C 
ATOM     12  C   UNL     1     146.868 148.391 130.409  1.00  0.00     0.008 C 
ENDBRANCH   3  10
ENDBRANCH   2   3
BRANCH   1  13
ATOM     13  C   UNL     1     146.527 143.560 133.091  1.00  0.00    -0.055 C 
ATOM     14  C   UNL     1     146.811 144.376 134.119  1.00  0.00     0.012 C 
BRANCH  13  15
ATOM     15  C   UNL     1     145.231 142.780 133.064  1.00  0.00     0.039 C 
BRANCH  15  16
ATOM     16  C   UNL     1     144.081 143.463 132.284  1.00  0.00     0.032 CG0
ATOM     17  G   UNL     1     143.769 144.861 132.793  1.00  0.00     0.000 G0
ENDBRANCH  15  16
ENDBRANCH  13  15
ENDBRANCH   1  13
TORSDOF 1
ENDMDL
MODEL 2
REMARK VINA RESULT:    -2.950      1.233      3.495
REMARK INTER + INTRA:          -3.975
REMARK INTER:                  -3.972
REMARK INTRA:                  -0.003
REMARK UNBOUND:                 0.354
REMARK SMILES C=C1C=C[C@@H](C(C)C)CCC(C)=CCC1
REMARK SMILES IDX 3 1 4 2 5 3 9 4 10 5 11 6 12 7 13 8 6 10 7 11 8 12 2 13 1 14
REMARK SMILES IDX 15 15 14 16
REMARK H PARENT
REMARK Flexibility Score: 70.00
ROOT
ATOM      1  C   UNL     1     143.942 146.706 133.709  1.00  0.00    -0.001 C 
ATOM      2  C   UNL     1     145.235 147.071 133.774  1.00  0.00    -0.023 C 
ENDROOT
BRANCH   2   3
ATOM      3  C   UNL     1     146.335 146.768 132.766  1.00  0.00     0.014 C 
BRANCH   3   4
ATOM      4  C   UNL     1     147.547 146.048 133.431  1.00  0.00     0.012 C 
BRANCH   4   5
ATOM      5  C   UNL     1     147.585 144.504 133.358  1.00  0.00     0.031 C 
BRANCH   5   6
ATOM      6  C   UNL     1     146.918 144.008 132.089  1.00  0.00    -0.077 C 
ATOM      7  C   UNL     1     147.760 143.876 130.852  1.00  0.00     0.039 C 
ATOM      8  C   UNL     1     145.597 143.722 132.005  1.00  0.00    -0.028 CG0
ATOM      9  G   UNL     1     144.631 143.754 133.178  1.00  0.00     0.000 G0
ENDBRANCH   5   6
ENDBRANCH   4   5
ENDBRANCH   3   4
BRANCH   3  10
ATOM     10  C   UNL     1     146.655 147.940 131.780  1.00  0.00    -0.010 C 
ATOM     11  C   UNL     1     146.412 147.519 130.317  1.00  0.00     0.008 C 
ATOM     12  C   UNL     1     148.117 148.412 131.927  1.00  0.00     0.008 C 
ENDBRANCH   3  10
ENDBRANCH   2   3
BRANCH   1  13
ATOM     13  C   UNL     1     143.319 145.921 132.629  1.00  0.00    -0.055 C 
ATOM     14  C   UNL     1     143.162 146.492 131.424  1.00  0.00     0.012 C 
BRANCH  13  15
ATOM     15  C   UNL     1     143.275 144.416 132.778  1.00  0.00     0.039 C 
BRANCH  15  16
ATOM     16  C   UNL     1     144.625 143.763 133.165  1.00  0.00     0.032 CG0
ATOM     17  G   UNL     1     145.607 143.702 132.006  1.00  0.00     0.000 G0
ENDBRANCH  15  16
ENDBRANCH  13  15
ENDBRANCH   1  13
TORSDOF 1
ENDMDL
MODEL 3
REMARK VINA RESULT:    -2.932      1.751      3.884
REMARK INTER + INTRA:          -3.949
REMARK INTER:                  -3.857
REMARK INTRA:                  -0.092
REMARK UNBOUND:                 0.354
REMARK SMILES C=C1C=C[C@@H](C(C)C)CCC(C)=CCC1
REMARK SMILES IDX 3 1 4 2 5 3 9 4 10 5 11 6 12 7 13 8 6 10 7 11 8 12 2 13 1 14
REMARK SMILES IDX 15 15 14 16
REMARK H PARENT
REMARK Flexibility Score: 70.00
ROOT
ATOM      1  C   UNL     1     146.601 144.160 133.974  1.00  0.00    -0.001 C 
ATOM      2  C   UNL     1     145.315 143.770 133.925  1.00  0.00    -0.023 C 
ENDROOT
BRANCH   2   3
ATOM      3  C   UNL     1     144.304 144.046 132.820  1.00  0.00     0.014 C 
BRANCH   3   4
ATOM      4  C   UNL     1     143.047 144.794 133.359  1.00  0.00     0.012 C 
BRANCH   4   5
ATOM      5  C   UNL     1     143.063 146.339 133.307  1.00  0.00     0.031 C 
BRANCH   5   6
ATOM      6  C   UNL     1     143.818 146.830 132.087  1.00  0.00    -0.077 C 
ATOM      7  C   UNL     1     143.075 146.919 130.785  1.00  0.00     0.039 C 
ATOM      8  C   UNL     1     145.134 147.149 132.103  1.00  0.00    -0.028 CG0
ATOM      9  G   UNL     1     146.004 147.161 133.350  1.00  0.00     0.000 G0
ENDBRANCH   5   6
ENDBRANCH   4   5
ENDBRANCH   3   4
BRANCH   3  10
ATOM     10  C   UNL     1     144.058 142.843 131.850  1.00  0.00    -0.010 C 
ATOM     11  C   UNL     1     144.369 143.232 130.392  1.00  0.00     0.008 C 
ATOM     12  C   UNL     1     142.599 142.347 131.934  1.00  0.00     0.008 C 
ENDBRANCH   3  10
ENDBRANCH   2   3
BRANCH   1  13
ATOM     13  C   UNL     1     147.303 144.951 132.949  1.00  0.00    -0.055 C 
ATOM     14  C   UNL     1     147.519 144.399 131.744  1.00  0.00     0.012 C 
BRANCH  13  15
ATOM     15  C   UNL     1     147.372 146.451 133.130  1.00  0.00     0.039 C 
BRANCH  15  16
ATOM     16  C   UNL     1     146.003 147.140 133.347  1.00  0.00     0.032 CG0
ATOM     17  G   UNL     1     145.136 147.143 132.098  1.00  0.00     0.000 G0
ENDBRANCH  15  16
ENDBRANCH  13  15
ENDBRANCH   1  13
TORSDOF 1
ENDMDL
MODEL 4
REMARK VINA RESULT:    -2.919      1.810      4.482
REMARK INTER + INTRA:          -3.931
REMARK INTER:                  -4.024
REMARK INTRA:                   0.094
REMARK UNBOUND:                 0.354
REMARK SMILES C=C1C=C[C@@H](C(C)C)CCC(C)=CCC1
REMARK SMILES IDX 3 1 4 2 5 3 9 4 10 5 11 6 12 7 13 8 6 10 7 11 8 12 2 13 1 14
REMARK SMILES IDX 15 15 14 16
REMARK H PARENT
REMARK Flexibility Score: 70.00
ROOT
ATOM      1  C   UNL     1     143.421 146.388 131.402  1.00  0.00    -0.001 C 
ATOM      2  C   UNL     1     144.123 145.373 130.867  1.00  0.00    -0.023 C 
ENDROOT
BRANCH   2   3
ATOM      3  C   UNL     1     145.157 144.495 131.559  1.00  0.00     0.014 C 
BRANCH   3   4
ATOM      4  C   UNL     1     146.560 144.617 130.892  1.00  0.00     0.012 C 
BRANCH   4   5
ATOM      5  C   UNL     1     147.599 145.528 131.586  1.00  0.00     0.031 C 
BRANCH   5   6
ATOM      6  C   UNL     1     147.291 145.670 133.064  1.00  0.00    -0.077 C 
ATOM      7  C   UNL     1     147.842 144.636 134.004  1.00  0.00     0.039 C 
ATOM      8  C   UNL     1     146.510 146.653 133.571  1.00  0.00    -0.028 CG0
ATOM      9  G   UNL     1     145.927 147.797 132.758  1.00  0.00     0.000 G0
ENDBRANCH   5   6
ENDBRANCH   4   5
ENDBRANCH   3   4
BRANCH   3  10
ATOM     10  C   UNL     1     144.656 143.054 131.909  1.00  0.00    -0.010 C 
ATOM     11  C   UNL     1     143.145 142.911 131.644  1.00  0.00     0.008 C 
ATOM     12  C   UNL     1     144.938 142.709 133.387  1.00  0.00     0.008 C 
ENDBRANCH   3  10
ENDBRANCH   2   3
BRANCH   1  13
ATOM     13  C   UNL     1     143.515 146.865 132.792  1.00  0.00    -0.055 C 
ATOM     14  C   UNL     1     143.119 146.050 133.783  1.00  0.00     0.012 C 
BRANCH  13  15
ATOM     15  C   UNL     1     144.423 148.041 133.081  1.00  0.00     0.039 C 
BRANCH  15  16
ATOM     16  C   UNL     1     145.919 147.795 132.769  1.00  0.00     0.032 CG0
ATOM     17  G   UNL     1     146.508 146.641 133.566  1.00  0.00     0.000 G0
ENDBRANCH  15  16
ENDBRANCH  13  15
ENDBRANCH   1  13
TORSDOF 1
ENDMDL
MODEL 5
REMARK VINA RESULT:    -2.722      1.417      3.208
REMARK INTER + INTRA:          -3.641
REMARK INTER:                  -3.867
REMARK INTRA:                   0.226
REMARK UNBOUND:                 0.354
REMARK SMILES C=C1C=C[C@@H](C(C)C)CCC(C)=CCC1
REMARK SMILES IDX 3 1 4 2 5 3 9 4 10 5 11 6 12 7 13 8 6 10 7 11 8 12 2 13 1 14
REMARK SMILES IDX 15 15 14 16
REMARK H PARENT
REMARK Flexibility Score: 70.00
ROOT
ATOM      1  C   UNL     1     145.022 143.104 133.227  1.00  0.00    -0.001 C 
ATOM      2  C   UNL     1     146.316 143.447 133.357  1.00  0.00    -0.023 C 
ENDROOT
BRANCH   2   3
ATOM      3  C   UNL     1     147.143 144.320 132.423  1.00  0.00     0.014 C 
BRANCH   3   4
ATOM      4  C   UNL     1     147.476 145.700 133.066  1.00  0.00     0.012 C 
BRANCH   4   5
ATOM      5  C   UNL     1     146.492 146.248 134.125  1.00  0.00     0.031 C 
BRANCH   5   6
ATOM      6  C   UNL     1     145.493 147.199 133.493  1.00  0.00    -0.077 C 
ATOM      7  C   UNL     1     145.974 148.564 133.092  1.00  0.00     0.039 C 
ATOM      8  C   UNL     1     144.186 146.896 133.314  1.00  0.00    -0.028 CG0
ATOM      9  G   UNL     1     143.565 145.542 133.618  1.00  0.00     0.000 G0
ENDBRANCH   5   6
ENDBRANCH   4   5
ENDBRANCH   3   4
BRANCH   3  10
ATOM     10  C   UNL     1     146.657 144.324 130.936  1.00  0.00    -0.010 C 
ATOM     11  C   UNL     1     147.766 143.832 129.986  1.00  0.00     0.008 C 
ATOM     12  C   UNL     1     146.213 145.736 130.497  1.00  0.00     0.008 C 
ENDBRANCH   3  10
ENDBRANCH   2   3
BRANCH   1  13
ATOM     13  C   UNL     1     144.128 143.512 132.130  1.00  0.00    -0.055 C 
ATOM     14  C   UNL     1     143.850 142.625 131.160  1.00  0.00     0.012 C 
BRANCH  13  15
ATOM     15  C   UNL     1     143.239 144.717 132.347  1.00  0.00     0.039 C 
BRANCH  15  16
ATOM     16  C   UNL     1     143.562 145.539 133.618  1.00  0.00     0.032 CG0
ATOM     17  G   UNL     1     144.181 146.893 133.307  1.00  0.00     0.000 G0
ENDBRANCH  15  16
ENDBRANCH  13  15
ENDBRANCH   1  13
TORSDOF 1
ENDMDL
MODEL 6
REMARK VINA RESULT:    -2.558      1.628      3.457
REMARK INTER + INTRA:          -3.400
REMARK INTER:                  -5.322
REMARK INTRA:                   1.922
REMARK UNBOUND:                 0.354
REMARK SMILES C=C1C=C[C@@H](C(C)C)CCC(C)=CCC1
REMARK SMILES IDX 3 1 4 2 5 3 9 4 10 5 11 6 12 7 13 8 6 10 7 11 8 12 2 13 1 14
REMARK SMILES IDX 15 15 14 16
REMARK H PARENT
REMARK Flexibility Score: 70.00
ROOT
ATOM      1  C   UNL     1     147.564 144.720 131.856  1.00  0.00    -0.001 C 
ATOM      2  C   UNL     1     146.733 144.084 131.010  1.00  0.00    -0.023 C 
ENDROOT
BRANCH   2   3
ATOM      3  C   UNL     1     145.231 144.286 130.858  1.00  0.00     0.014 C 
BRANCH   3   4
ATOM      4  C   UNL     1     144.871 145.782 130.606  1.00  0.00     0.012 C 
BRANCH   4   5
ATOM      5  C   UNL     1     143.595 146.330 131.286  1.00  0.00     0.031 C 
BRANCH   5   6
ATOM      6  C   UNL     1     143.851 146.630 132.751  1.00  0.00    -0.077 C 
ATOM      7  C   UNL     1     142.883 146.087 133.763  1.00  0.00     0.039 C 
ATOM      8  C   UNL     1     144.879 147.396 133.186  1.00  0.00    -0.028 CG0
ATOM      9  G   UNL     1     145.967 147.969 132.292  1.00  0.00     0.000 G0
ENDBRANCH   5   6
ENDBRANCH   4   5
ENDBRANCH   3   4
BRANCH   3  10
ATOM     10  C   UNL     1     144.362 143.508 131.901  1.00  0.00    -0.010 C 
ATOM     11  C   UNL     1     145.247 142.734 132.897  1.00  0.00     0.008 C 
ATOM     12  C   UNL     1     143.409 142.515 131.203  1.00  0.00     0.008 C 
ENDBRANCH   3  10
ENDBRANCH   2   3
BRANCH   1  13
ATOM     13  C   UNL     1     147.179 145.759 132.826  1.00  0.00    -0.055 C 
ATOM     14  C   UNL     1     147.090 145.428 134.125  1.00  0.00     0.012 C 
BRANCH  13  15
ATOM     15  C   UNL     1     147.313 147.207 132.410  1.00  0.00     0.039 C 
BRANCH  15  16
ATOM     16  C   UNL     1     145.974 147.978 132.306  1.00  0.00     0.032 CG0
ATOM     17  G   UNL     1     144.888 147.401 133.200  1.00  0.00     0.000 G0
ENDBRANCH  15  16
ENDBRANCH  13  15
ENDBRANCH   1  13
TORSDOF 1
ENDMDL
MODEL 7
REMARK VINA RESULT:    -2.326      1.140      3.163
REMARK INTER + INTRA:          -3.059
REMARK INTER:                  -3.679
REMARK INTRA:                   0.620
REMARK UNBOUND:                 0.354
REMARK SMILES C=C1C=C[C@@H](C(C)C)CCC(C)=CCC1
REMARK SMILES IDX 3 1 4 2 5 3 9 4 10 5 11 6 12 7 13 8 6 10 7 11 8 12 2 13 1 14
REMARK SMILES IDX 15 15 14 16
REMARK H PARENT
REMARK Flexibility Score: 70.00
ROOT
ATOM      1  C   UNL     1     143.455 146.497 131.699  1.00  0.00    -0.001 C 
ATOM      2  C   UNL     1     144.163 146.301 130.573  1.00  0.00    -0.023 C 
ENDROOT
BRANCH   2   3
ATOM      3  C   UNL     1     145.676 146.342 130.410  1.00  0.00     0.014 C 
BRANCH   3   4
ATOM      4  C   UNL     1     146.294 144.912 130.379  1.00  0.00     0.012 C 
BRANCH   4   5
ATOM      5  C   UNL     1     145.509 143.783 131.087  1.00  0.00     0.031 C 
BRANCH   5   6
ATOM      6  C   UNL     1     146.047 143.547 132.486  1.00  0.00    -0.077 C 
ATOM      7  C   UNL     1     147.455 143.043 132.625  1.00  0.00     0.039 C 
ATOM      8  C   UNL     1     145.310 143.724 133.607  1.00  0.00    -0.028 CG0
ATOM      9  G   UNL     1     143.895 144.279 133.630  1.00  0.00     0.000 G0
ENDBRANCH   5   6
ENDBRANCH   4   5
ENDBRANCH   3   4
BRANCH   3  10
ATOM     10  C   UNL     1     146.396 147.413 131.295  1.00  0.00    -0.010 C 
ATOM     11  C   UNL     1     147.221 148.386 130.430  1.00  0.00     0.008 C 
ATOM     12  C   UNL     1     147.330 146.748 132.328  1.00  0.00     0.008 C 
ENDBRANCH   3  10
ENDBRANCH   2   3
BRANCH   1  13
ATOM     13  C   UNL     1     144.012 146.802 133.028  1.00  0.00    -0.055 C 
ATOM     14  C   UNL     1     144.286 148.080 133.335  1.00  0.00     0.012 C 
BRANCH  13  15
ATOM     15  C   UNL     1     143.861 145.764 134.118  1.00  0.00     0.039 C 
BRANCH  15  16
ATOM     16  C   UNL     1     143.903 144.297 133.626  1.00  0.00     0.032 CG0
ATOM     17  G   UNL     1     145.312 143.725 133.592  1.00  0.00     0.000 G0
ENDBRANCH  15  16
ENDBRANCH  13  15
ENDBRANCH   1  13
TORSDOF 1
ENDMDL
MODEL 8
REMARK VINA RESULT:    -2.181      1.117      2.550
REMARK INTER + INTRA:          -2.846
REMARK INTER:                  -4.041
REMARK INTRA:                   1.195
REMARK UNBOUND:                 0.354
REMARK SMILES C=C1C=C[C@@H](C(C)C)CCC(C)=CCC1
REMARK SMILES IDX 3 1 4 2 5 3 9 4 10 5 11 6 12 7 13 8 6 10 7 11 8 12 2 13 1 14
REMARK SMILES IDX 15 15 14 16
REMARK H PARENT
REMARK Flexibility Score: 70.00
ROOT
ATOM      1  C   UNL     1     146.908 144.695 130.662  1.00  0.00    -0.001 C 
ATOM      2  C   UNL     1     146.015 145.700 130.701  1.00  0.00    -0.023 C 
ENDROOT
BRANCH   2   3
ATOM      3  C   UNL     1     145.306 146.263 131.925  1.00  0.00     0.014 C 
BRANCH   3   4
ATOM      4  C   UNL     1     143.797 145.874 131.951  1.00  0.00     0.012 C 
BRANCH   4   5
ATOM      5  C   UNL     1     143.350 144.829 133.000  1.00  0.00     0.031 C 
BRANCH   5   6
ATOM      6  C   UNL     1     143.908 143.458 132.668  1.00  0.00    -0.077 C 
ATOM      7  C   UNL     1     143.089 142.555 131.791  1.00  0.00     0.039 C 
ATOM      8  C   UNL     1     145.082 142.993 133.157  1.00  0.00    -0.028 CG0
ATOM      9  G   UNL     1     146.044 143.805 134.009  1.00  0.00     0.000 G0
ENDBRANCH   5   6
ENDBRANCH   4   5
ENDBRANCH   3   4
BRANCH   3  10
ATOM     10  C   UNL     1     145.666 147.749 132.258  1.00  0.00    -0.010 C 
ATOM     11  C   UNL     1     147.131 148.062 131.897  1.00  0.00     0.008 C 
ATOM     12  C   UNL     1     145.445 148.055 133.755  1.00  0.00     0.008 C 
ENDBRANCH   3  10
ENDBRANCH   2   3
BRANCH   1  13
ATOM     13  C   UNL     1     147.386 143.919 131.818  1.00  0.00    -0.055 C 
ATOM     14  C   UNL     1     148.301 142.957 131.617  1.00  0.00     0.012 C 
BRANCH  13  15
ATOM     15  C   UNL     1     147.167 144.494 133.201  1.00  0.00     0.039 C 
BRANCH  15  16
ATOM     16  C   UNL     1     146.058 143.795 134.024  1.00  0.00     0.032 CG0
ATOM     17  G   UNL     1     145.095 142.996 133.162  1.00  0.00     0.000 G0
ENDBRANCH  15  16
ENDBRANCH  13  15
ENDBRANCH   1  13
TORSDOF 1
ENDMDL
MODEL 9
REMARK VINA RESULT:    -2.035      1.627      3.980
REMARK INTER + INTRA:          -2.632
REMARK INTER:                  -2.961
REMARK INTRA:                   0.329
REMARK UNBOUND:                 0.354
REMARK SMILES C=C1C=C[C@@H](C(C)C)CCC(C)=CCC1
REMARK SMILES IDX 3 1 4 2 5 3 9 4 10 5 11 6 12 7 13 8 6 10 7 11 8 12 2 13 1 14
REMARK SMILES IDX 15 15 14 16
REMARK H PARENT
REMARK Flexibility Score: 70.00
ROOT
ATOM      1  C   UNL     1     146.360 147.508 130.411  1.00  0.00    -0.001 C 
ATOM      2  C   UNL     1     145.360 146.620 130.261  1.00  0.00    -0.023 C 
ENDROOT
BRANCH   2   3
ATOM      3  C   UNL     1     144.807 145.662 131.307  1.00  0.00     0.014 C 
BRANCH   3   4
ATOM      4  C   UNL     1     145.272 144.196 131.052  1.00  0.00     0.012 C 
BRANCH   4   5
ATOM      5  C   UNL     1     146.379 143.631 131.971  1.00  0.00     0.031 C 
BRANCH   5   6
ATOM      6  C   UNL     1     146.038 143.862 133.431  1.00  0.00    -0.077 C 
ATOM      7  C   UNL     1     145.176 142.848 134.125  1.00  0.00     0.039 C 
ATOM      8  C   UNL     1     146.435 144.956 134.124  1.00  0.00    -0.028 CG0
ATOM      9  G   UNL     1     147.352 146.038 133.578  1.00  0.00     0.000 G0
ENDBRANCH   5   6
ENDBRANCH   4   5
ENDBRANCH   3   4
BRANCH   3  10
ATOM     10  C   UNL     1     143.298 145.882 131.657  1.00  0.00    -0.010 C 
ATOM     11  C   UNL     1     142.743 147.140 130.962  1.00  0.00     0.008 C 
ATOM     12  C   UNL     1     143.093 146.022 133.181  1.00  0.00     0.008 C 
ENDBRANCH   3  10
ENDBRANCH   2   3
BRANCH   1  13
ATOM     13  C   UNL     1     147.138 147.733 131.641  1.00  0.00    -0.055 C 
ATOM     14  C   UNL     1     148.094 148.676 131.636  1.00  0.00     0.012 C 
BRANCH  13  15
ATOM     15  C   UNL     1     146.571 147.220 132.946  1.00  0.00     0.039 C 
BRANCH  15  16
ATOM     16  C   UNL     1     147.349 146.036 133.569  1.00  0.00     0.032 CG0
ATOM     17  G   UNL     1     146.437 144.961 134.139  1.00  0.00     0.000 G0
ENDBRANCH  15  16
ENDBRANCH  13  15
ENDBRANCH   1  13
TORSDOF 1
ENDMDL
