MODEL 1
REMARK VINA RESULT:    -3.124      0.000      0.000
REMARK INTER + INTRA:          -3.215
REMARK INTER:                  -3.215
REMARK INTRA:                   0.000
REMARK UNBOUND:                 0.000
REMARK SMILES CC1(C)[C@H]2CC[C@](C)(C2)[C@@H]1O
REMARK SMILES IDX 1 1 2 2 4 3 5 4 6 5 7 6 9 7 10 8 8 9 3 10 11 11
REMARK H PARENT 11 12
REMARK Flexibility Score: inf
ROOT
ATOM      1  C   UNL     1     240.373 226.401 235.164  1.00  0.00     0.014 C 
ATOM      2  C   UNL     1     239.047 226.950 235.751  1.00  0.00    -0.006 C 
ATOM      3  C   UNL     1     237.827 226.277 235.030  1.00  0.00    -0.002 C 
ATOM      4  C   UNL     1     236.502 226.578 235.764  1.00  0.00     0.005 C 
ATOM      5  C   UNL     1     236.306 228.082 235.514  1.00  0.00     0.010 C 
ATOM      6  C   UNL     1     237.494 228.435 234.589  1.00  0.00    -0.006 C 
ATOM      7  C   UNL     1     237.646 227.150 233.799  1.00  0.00     0.013 C 
ATOM      8  C   UNL     1     238.796 228.467 235.447  1.00  0.00     0.126 C 
ATOM      9  C   UNL     1     237.240 229.683 233.734  1.00  0.00     0.014 C 
ATOM     10  C   UNL     1     239.081 226.685 237.277  1.00  0.00     0.014 C 
ENDROOT
BRANCH   8  11
ATOM     11  O   UNL     1     239.880 229.097 234.799  1.00  0.00    -0.392 OA
ATOM     12  H   UNL     1     240.225 228.496 234.091  1.00  0.00     0.211 HD
ENDBRANCH   8  11
TORSDOF 1
ENDMDL
MODEL 2
REMARK VINA RESULT:    -3.120      9.582     11.144
REMARK INTER + INTRA:          -3.212
REMARK INTER:                  -3.212
REMARK INTRA:                   0.000
REMARK UNBOUND:                 0.000
REMARK SMILES CC1(C)[C@H]2CC[C@](C)(C2)[C@@H]1O
REMARK SMILES IDX 1 1 2 2 4 3 5 4 6 5 7 6 9 7 10 8 8 9 3 10 11 11
REMARK H PARENT 11 12
REMARK Flexibility Score: inf
ROOT
ATOM      1  C   UNL     1     242.171 240.309 235.183  1.00  0.00     0.014 C 
ATOM      2  C   UNL     1     241.576 239.003 235.772  1.00  0.00    -0.006 C 
ATOM      3  C   UNL     1     242.224 237.758 235.073  1.00  0.00    -0.002 C 
ATOM      4  C   UNL     1     241.874 236.450 235.812  1.00  0.00     0.005 C 
ATOM      5  C   UNL     1     240.369 236.294 235.539  1.00  0.00     0.010 C 
ATOM      6  C   UNL     1     240.066 237.483 234.598  1.00  0.00    -0.006 C 
ATOM      7  C   UNL     1     241.367 237.592 233.829  1.00  0.00     0.013 C 
ATOM      8  C   UNL     1     240.056 238.793 235.445  1.00  0.00     0.126 C 
ATOM      9  C   UNL     1     238.824 237.258 233.725  1.00  0.00     0.014 C 
ATOM     10  C   UNL     1     241.816 239.044 237.302  1.00  0.00     0.014 C 
ENDROOT
BRANCH   8  11
ATOM     11  O   UNL     1     239.469 239.889 234.778  1.00  0.00    -0.392 OA
ATOM     12  H   UNL     1     240.095 240.218 234.084  1.00  0.00     0.211 HD
ENDBRANCH   8  11
TORSDOF 1
ENDMDL
MODEL 3
REMARK VINA RESULT:    -3.112      9.604     11.175
REMARK INTER + INTRA:          -3.203
REMARK INTER:                  -3.203
REMARK INTRA:                   0.000
REMARK UNBOUND:                 0.000
REMARK SMILES CC1(C)[C@H]2CC[C@](C)(C2)[C@@H]1O
REMARK SMILES IDX 1 1 2 2 4 3 5 4 6 5 7 6 9 7 10 8 8 9 3 10 11 11
REMARK H PARENT 11 12
REMARK Flexibility Score: inf
ROOT
ATOM      1  C   UNL     1     226.407 228.212 235.179  1.00  0.00     0.014 C 
ATOM      2  C   UNL     1     226.968 229.545 235.739  1.00  0.00    -0.006 C 
ATOM      3  C   UNL     1     226.302 230.757 234.998  1.00  0.00    -0.002 C 
ATOM      4  C   UNL     1     226.616 232.092 235.705  1.00  0.00     0.005 C 
ATOM      5  C   UNL     1     228.121 232.272 235.445  1.00  0.00     0.010 C 
ATOM      6  C   UNL     1     228.460 231.064 234.541  1.00  0.00    -0.006 C 
ATOM      7  C   UNL     1     227.170 230.907 233.760  1.00  0.00     0.013 C 
ATOM      8  C   UNL     1     228.486 229.778 235.423  1.00  0.00     0.126 C 
ATOM      9  C   UNL     1     229.706 231.291 233.675  1.00  0.00     0.014 C 
ATOM     10  C   UNL     1     226.711 229.542 237.267  1.00  0.00     0.014 C 
ENDROOT
BRANCH   8  11
ATOM     11  O   UNL     1     229.104 228.677 234.793  1.00  0.00    -0.392 OA
ATOM     12  H   UNL     1     229.587 228.995 233.989  1.00  0.00     0.211 HD
ENDBRANCH   8  11
TORSDOF 1
ENDMDL
MODEL 4
REMARK VINA RESULT:    -3.088     13.470     15.644
REMARK INTER + INTRA:          -3.178
REMARK INTER:                  -3.178
REMARK INTRA:                   0.000
REMARK UNBOUND:                 0.000
REMARK SMILES CC1(C)[C@H]2CC[C@](C)(C2)[C@@H]1O
REMARK SMILES IDX 1 1 2 2 4 3 5 4 6 5 7 6 9 7 10 8 8 9 3 10 11 11
REMARK H PARENT 11 12
REMARK Flexibility Score: inf
ROOT
ATOM      1  C   UNL     1     228.268 242.022 235.155  1.00  0.00     0.014 C 
ATOM      2  C   UNL     1     229.601 241.452 235.705  1.00  0.00    -0.006 C 
ATOM      3  C   UNL     1     230.811 242.088 234.934  1.00  0.00    -0.002 C 
ATOM      4  C   UNL     1     232.152 241.767 235.627  1.00  0.00     0.005 C 
ATOM      5  C   UNL     1     232.307 240.256 235.391  1.00  0.00     0.010 C 
ATOM      6  C   UNL     1     231.081 239.918 234.510  1.00  0.00    -0.006 C 
ATOM      7  C   UNL     1     230.930 241.196 233.710  1.00  0.00     0.013 C 
ATOM      8  C   UNL     1     229.809 239.925 235.412  1.00  0.00     0.126 C 
ATOM      9  C   UNL     1     231.278 238.653 233.664  1.00  0.00     0.014 C 
ATOM     10  C   UNL     1     229.624 241.736 237.228  1.00  0.00     0.014 C 
ENDROOT
BRANCH   8  11
ATOM     11  O   UNL     1     228.690 239.312 234.809  1.00  0.00    -0.392 OA
ATOM     12  H   UNL     1     228.370 239.883 234.066  1.00  0.00     0.211 HD
ENDBRANCH   8  11
TORSDOF 1
ENDMDL
MODEL 5
REMARK VINA RESULT:    -2.982     13.140     15.011
REMARK INTER + INTRA:          -3.069
REMARK INTER:                  -3.069
REMARK INTRA:                   0.000
REMARK UNBOUND:                 0.000
REMARK SMILES CC1(C)[C@H]2CC[C@](C)(C2)[C@@H]1O
REMARK SMILES IDX 1 1 2 2 4 3 5 4 6 5 7 6 9 7 10 8 8 9 3 10 11 11
REMARK H PARENT 11 12
REMARK Flexibility Score: inf
ROOT
ATOM      1  C   UNL     1     232.551 239.009 233.998  1.00  0.00     0.014 C 
ATOM      2  C   UNL     1     232.207 240.061 235.084  1.00  0.00    -0.006 C 
ATOM      3  C   UNL     1     230.793 239.755 235.693  1.00  0.00    -0.002 C 
ATOM      4  C   UNL     1     230.530 240.598 236.959  1.00  0.00     0.005 C 
ATOM      5  C   UNL     1     230.399 242.024 236.400  1.00  0.00     0.010 C 
ATOM      6  C   UNL     1     230.510 241.807 234.873  1.00  0.00    -0.006 C 
ATOM      7  C   UNL     1     229.855 240.448 234.719  1.00  0.00     0.013 C 
ATOM      8  C   UNL     1     232.001 241.511 234.523  1.00  0.00     0.126 C 
ATOM      9  C   UNL     1     229.855 242.928 234.056  1.00  0.00     0.014 C 
ATOM     10  C   UNL     1     233.348 240.025 236.131  1.00  0.00     0.014 C 
ENDROOT
BRANCH   8  11
ATOM     11  O   UNL     1     232.289 241.626 233.146  1.00  0.00    -0.392 OA
ATOM     12  H   UNL     1     233.262 241.773 233.031  1.00  0.00     0.211 HD
ENDBRANCH   8  11
TORSDOF 1
ENDMDL
MODEL 6
REMARK VINA RESULT:    -2.974     10.441     11.558
REMARK INTER + INTRA:          -3.061
REMARK INTER:                  -3.061
REMARK INTRA:                   0.000
REMARK UNBOUND:                 0.000
REMARK SMILES CC1(C)[C@H]2CC[C@](C)(C2)[C@@H]1O
REMARK SMILES IDX 1 1 2 2 4 3 5 4 6 5 7 6 9 7 10 8 8 9 3 10 11 11
REMARK H PARENT 11 12
REMARK Flexibility Score: inf
ROOT
ATOM      1  C   UNL     1     229.441 232.507 234.009  1.00  0.00     0.014 C 
ATOM      2  C   UNL     1     228.324 232.147 235.023  1.00  0.00    -0.006 C 
ATOM      3  C   UNL     1     228.571 230.709 235.599  1.00  0.00    -0.002 C 
ATOM      4  C   UNL     1     227.653 230.421 236.807  1.00  0.00     0.005 C 
ATOM      5  C   UNL     1     226.259 230.336 236.165  1.00  0.00     0.010 C 
ATOM      6  C   UNL     1     226.564 230.493 234.657  1.00  0.00    -0.006 C 
ATOM      7  C   UNL     1     227.917 229.817 234.557  1.00  0.00     0.013 C 
ATOM      8  C   UNL     1     226.905 231.988 234.375  1.00  0.00     0.126 C 
ATOM      9  C   UNL     1     225.480 229.886 233.757  1.00  0.00     0.014 C 
ATOM     10  C   UNL     1     228.320 233.253 236.108  1.00  0.00     0.014 C 
ENDROOT
BRANCH   8  11
ATOM     11  O   UNL     1     226.873 232.323 233.004  1.00  0.00    -0.392 OA
ATOM     12  H   UNL     1     225.930 232.362 232.704  1.00  0.00     0.211 HD
ENDBRANCH   8  11
TORSDOF 1
ENDMDL
MODEL 7
REMARK VINA RESULT:    -2.946     12.613     14.739
REMARK INTER + INTRA:          -3.032
REMARK INTER:                  -3.032
REMARK INTRA:                   0.000
REMARK UNBOUND:                 0.000
REMARK SMILES CC1(C)[C@H]2CC[C@](C)(C2)[C@@H]1O
REMARK SMILES IDX 1 1 2 2 4 3 5 4 6 5 7 6 9 7 10 8 8 9 3 10 11 11
REMARK H PARENT 11 12
REMARK Flexibility Score: inf
ROOT
ATOM      1  C   UNL     1     231.912 238.030 235.815  1.00  0.00     0.014 C 
ATOM      2  C   UNL     1     231.509 239.059 234.727  1.00  0.00    -0.006 C 
ATOM      3  C   UNL     1     232.342 240.376 234.904  1.00  0.00    -0.002 C 
ATOM      4  C   UNL     1     232.180 241.314 233.689  1.00  0.00     0.005 C 
ATOM      5  C   UNL     1     230.717 241.775 233.804  1.00  0.00     0.010 C 
ATOM      6  C   UNL     1     230.253 241.116 235.125  1.00  0.00    -0.006 C 
ATOM      7  C   UNL     1     231.533 241.145 235.936  1.00  0.00     0.013 C 
ATOM      8  C   UNL     1     230.041 239.593 234.870  1.00  0.00     0.126 C 
ATOM      9  C   UNL     1     229.068 241.843 235.775  1.00  0.00     0.014 C 
ATOM     10  C   UNL     1     231.723 238.376 233.353  1.00  0.00     0.014 C 
ENDROOT
BRANCH   8  11
ATOM     11  O   UNL     1     229.306 238.949 235.888  1.00  0.00    -0.392 OA
ATOM     12  H   UNL     1     228.373 239.282 235.872  1.00  0.00     0.211 HD
ENDBRANCH   8  11
TORSDOF 1
ENDMDL
MODEL 8
REMARK VINA RESULT:    -2.914      9.741     11.370
REMARK INTER + INTRA:          -2.999
REMARK INTER:                  -2.999
REMARK INTRA:                   0.000
REMARK UNBOUND:                 0.000
REMARK SMILES CC1(C)[C@H]2CC[C@](C)(C2)[C@@H]1O
REMARK SMILES IDX 1 1 2 2 4 3 5 4 6 5 7 6 9 7 10 8 8 9 3 10 11 11
REMARK H PARENT 11 12
REMARK Flexibility Score: inf
ROOT
ATOM      1  C   UNL     1     226.153 232.467 236.738  1.00  0.00     0.014 C 
ATOM      2  C   UNL     1     227.537 232.310 236.054  1.00  0.00    -0.006 C 
ATOM      3  C   UNL     1     227.346 232.057 234.518  1.00  0.00    -0.002 C 
ATOM      4  C   UNL     1     228.684 232.173 233.757  1.00  0.00     0.005 C 
ATOM      5  C   UNL     1     229.464 230.943 234.247  1.00  0.00     0.010 C 
ATOM      6  C   UNL     1     228.439 230.225 235.156  1.00  0.00    -0.006 C 
ATOM      7  C   UNL     1     227.138 230.554 234.451  1.00  0.00     0.013 C 
ATOM      8  C   UNL     1     228.319 231.023 236.490  1.00  0.00     0.126 C 
ATOM      9  C   UNL     1     228.720 228.725 235.311  1.00  0.00     0.014 C 
ATOM     10  C   UNL     1     228.349 233.590 236.371  1.00  0.00     0.014 C 
ENDROOT
BRANCH   8  11
ATOM     11  O   UNL     1     227.680 230.300 237.521  1.00  0.00    -0.392 OA
ATOM     12  H   UNL     1     227.563 229.360 237.231  1.00  0.00     0.211 HD
ENDBRANCH   8  11
TORSDOF 1
ENDMDL
MODEL 9
REMARK VINA RESULT:    -2.904     13.630     14.763
REMARK INTER + INTRA:          -2.989
REMARK INTER:                  -2.989
REMARK INTRA:                   0.000
REMARK UNBOUND:                 0.000
REMARK SMILES CC1(C)[C@H]2CC[C@](C)(C2)[C@@H]1O
REMARK SMILES IDX 1 1 2 2 4 3 5 4 6 5 7 6 9 7 10 8 8 9 3 10 11 11
REMARK H PARENT 11 12
REMARK Flexibility Score: inf
ROOT
ATOM      1  C   UNL     1     232.489 242.243 236.707  1.00  0.00     0.014 C 
ATOM      2  C   UNL     1     232.347 240.870 236.001  1.00  0.00    -0.006 C 
ATOM      3  C   UNL     1     232.116 241.082 234.464  1.00  0.00    -0.002 C 
ATOM      4  C   UNL     1     232.248 239.756 233.685  1.00  0.00     0.005 C 
ATOM      5  C   UNL     1     231.014 238.964 234.146  1.00  0.00     0.010 C 
ATOM      6  C   UNL     1     230.279 239.973 235.060  1.00  0.00    -0.006 C 
ATOM      7  C   UNL     1     230.612 241.285 234.379  1.00  0.00     0.013 C 
ATOM      8  C   UNL     1     231.057 240.076 236.407  1.00  0.00     0.126 C 
ATOM      9  C   UNL     1     228.777 239.684 235.189  1.00  0.00     0.014 C 
ATOM     10  C   UNL     1     233.626 240.057 236.324  1.00  0.00     0.014 C 
ENDROOT
BRANCH   8  11
ATOM     11  O   UNL     1     230.317 240.697 237.437  1.00  0.00    -0.392 OA
ATOM     12  H   UNL     1     230.945 241.048 238.118  1.00  0.00     0.211 HD
ENDBRANCH   8  11
TORSDOF 1
ENDMDL
