MODEL 1
REMARK VINA RESULT:    -3.582      0.000      0.000
REMARK INTER + INTRA:         -16.043
REMARK INTER:                  -9.446
REMARK INTRA:                  -6.597
REMARK UNBOUND:                -6.597
REMARK SMILES CCCCCCCCCCCCCCCCCCCCCCCCCCCCCC(=O)[O-]
REMARK SMILES IDX 16 1 17 2 18 3 19 4 20 5 21 6 22 7 23 8 24 9 25 10 26 11
REMARK SMILES IDX 27 12 28 13 29 14 30 15 31 16 32 17 15 18 14 19 13 20 12 21
REMARK SMILES IDX 11 22 10 23 9 24 8 25 7 26 6 27 5 28 4 29 3 30 2 31 1 32
REMARK H PARENT
REMARK Flexibility Score: inf
ROOT
ATOM      1  C   UNL     1      -8.122   6.140 -19.736  1.00  0.00     0.000 C 
ENDROOT
BRANCH   1   2
ATOM      2  C   UNL     1      -9.654   6.216 -19.623  1.00  0.00     0.000 C 
BRANCH   2   3
ATOM      3  C   UNL     1     -10.365   5.136 -20.456  1.00  0.00     0.000 C 
BRANCH   3   4
ATOM      4  C   UNL     1     -11.833   5.480 -20.763  1.00  0.00     0.000 C 
BRANCH   4   5
ATOM      5  C   UNL     1     -12.073   6.255 -22.072  1.00  0.00     0.000 C 
BRANCH   5   6
ATOM      6  C   UNL     1     -12.622   7.673 -21.841  1.00  0.00     0.000 C 
BRANCH   6   7
ATOM      7  C   UNL     1     -13.108   7.901 -20.399  1.00  0.00     0.000 C 
BRANCH   7   8
ATOM      8  C   UNL     1     -12.301   8.933 -19.583  1.00  0.00     0.000 C 
BRANCH   8   9
ATOM      9  C   UNL     1     -11.207   9.683 -20.364  1.00  0.00     0.000 C 
BRANCH   9  10
ATOM     10  C   UNL     1      -9.890   9.808 -19.577  1.00  0.00     0.000 C 
BRANCH  10  11
ATOM     11  C   UNL     1     -10.085   9.605 -18.065  1.00  0.00     0.000 C 
BRANCH  11  12
ATOM     12  C   UNL     1      -8.866   8.959 -17.391  1.00  0.00     0.000 C 
BRANCH  12  13
ATOM     13  C   UNL     1      -7.568   9.663 -17.816  1.00  0.00     0.006 C 
BRANCH  13  14
ATOM     14  C   UNL     1      -7.317  10.952 -17.021  1.00  0.00     0.053 C 
BRANCH  14  15
ATOM     15  C   UNL     1      -6.793  10.664 -15.648  1.00  0.00     0.041 C 
ATOM     16  O   UNL     1      -7.553  10.751 -14.649  1.00  0.00    -0.550 OA
ATOM     17  O   UNL     1      -5.454  10.336 -15.469  1.00  0.00    -0.550 OA
ENDBRANCH  14  15
ENDBRANCH  13  14
ENDBRANCH  12  13
ENDBRANCH  11  12
ENDBRANCH  10  11
ENDBRANCH   9  10
ENDBRANCH   8   9
ENDBRANCH   7   8
ENDBRANCH   6   7
ENDBRANCH   5   6
ENDBRANCH   4   5
ENDBRANCH   3   4
ENDBRANCH   2   3
ENDBRANCH   1   2
BRANCH   1  18
ATOM     18  C   UNL     1      -7.520   4.733 -19.536  1.00  0.00     0.000 C 
BRANCH  18  19
ATOM     19  C   UNL     1      -6.889   4.104 -20.793  1.00  0.00     0.000 C 
BRANCH  19  20
ATOM     20  C   UNL     1      -6.879   5.010 -22.037  1.00  0.00     0.000 C 
BRANCH  20  21
ATOM     21  C   UNL     1      -7.807   4.502 -23.150  1.00  0.00     0.000 C 
BRANCH  21  22
ATOM     22  C   UNL     1      -8.709   5.626 -23.673  1.00  0.00     0.000 C 
BRANCH  22  23
ATOM     23  C   UNL     1      -8.059   6.998 -23.448  1.00  0.00     0.000 C 
BRANCH  23  24
ATOM     24  C   UNL     1      -9.016   8.006 -22.791  1.00  0.00    -0.000 C 
BRANCH  24  25
ATOM     25  C   UNL     1      -9.706   8.922 -23.817  1.00  0.00    -0.000 C 
BRANCH  25  26
ATOM     26  C   UNL     1      -8.943  10.237 -24.054  1.00  0.00    -0.000 C 
BRANCH  26  27
ATOM     27  C   UNL     1      -9.259  11.365 -23.054  1.00  0.00    -0.000 C 
BRANCH  27  28
ATOM     28  C   UNL     1      -8.003  12.112 -22.577  1.00  0.00    -0.000 C 
BRANCH  28  29
ATOM     29  C   UNL     1      -7.413  11.522 -21.285  1.00  0.00    -0.000 C 
BRANCH  29  30
ATOM     30  C   UNL     1      -6.065  10.798 -21.496  1.00  0.00    -0.000 C 
BRANCH  30  31
ATOM     31  C   UNL     1      -6.147   9.309 -21.133  1.00  0.00    -0.003 C 
ATOM     32  C   UNL     1      -5.123   8.492 -21.914  1.00  0.00     0.004 C 
ENDBRANCH  30  31
ENDBRANCH  29  30
ENDBRANCH  28  29
ENDBRANCH  27  28
ENDBRANCH  26  27
ENDBRANCH  25  26
ENDBRANCH  24  25
ENDBRANCH  23  24
ENDBRANCH  22  23
ENDBRANCH  21  22
ENDBRANCH  20  21
ENDBRANCH  19  20
ENDBRANCH  18  19
ENDBRANCH   1  18
TORSDOF 28
ENDMDL
MODEL 2
REMARK VINA RESULT:    -3.506      1.671      5.434
REMARK INTER + INTRA:         -15.842
REMARK INTER:                  -9.659
REMARK INTRA:                  -6.184
REMARK UNBOUND:                -6.597
REMARK SMILES CCCCCCCCCCCCCCCCCCCCCCCCCCCCCC(=O)[O-]
REMARK SMILES IDX 16 1 17 2 18 3 19 4 20 5 21 6 22 7 23 8 24 9 25 10 26 11
REMARK SMILES IDX 27 12 28 13 29 14 30 15 31 16 32 17 15 18 14 19 13 20 12 21
REMARK SMILES IDX 11 22 10 23 9 24 8 25 7 26 6 27 5 28 4 29 3 30 2 31 1 32
REMARK H PARENT
REMARK Flexibility Score: inf
ROOT
ATOM      1  C   UNL     1      -8.299   9.201 -21.543  1.00  0.00     0.000 C 
ENDROOT
BRANCH   1   2
ATOM      2  C   UNL     1      -8.084  10.699 -21.268  1.00  0.00     0.000 C 
BRANCH   2   3
ATOM      3  C   UNL     1      -7.329  11.409 -22.405  1.00  0.00     0.000 C 
BRANCH   3   4
ATOM      4  C   UNL     1      -6.038  12.100 -21.933  1.00  0.00     0.000 C 
BRANCH   4   5
ATOM      5  C   UNL     1      -5.416  11.533 -20.643  1.00  0.00     0.000 C 
BRANCH   5   6
ATOM      6  C   UNL     1      -4.240  10.579 -20.909  1.00  0.00     0.000 C 
BRANCH   6   7
ATOM      7  C   UNL     1      -4.007   9.580 -19.761  1.00  0.00     0.000 C 
BRANCH   7   8
ATOM      8  C   UNL     1      -4.705   9.927 -18.429  1.00  0.00     0.000 C 
BRANCH   8   9
ATOM      9  C   UNL     1      -5.609   8.824 -17.850  1.00  0.00     0.000 C 
BRANCH   9  10
ATOM     10  C   UNL     1      -7.107   9.159 -17.959  1.00  0.00     0.000 C 
BRANCH  10  11
ATOM     11  C   UNL     1      -7.412  10.623 -17.599  1.00  0.00     0.000 C 
BRANCH  11  12
ATOM     12  C   UNL     1      -7.819  10.800 -16.128  1.00  0.00     0.000 C 
BRANCH  12  13
ATOM     13  C   UNL     1      -6.924  11.838 -15.434  1.00  0.00     0.006 C 
BRANCH  13  14
ATOM     14  C   UNL     1      -6.162  11.245 -14.241  1.00  0.00     0.053 C 
BRANCH  14  15
ATOM     15  C   UNL     1      -4.880  10.598 -14.666  1.00  0.00     0.041 C 
ATOM     16  O   UNL     1      -4.693   9.370 -14.464  1.00  0.00    -0.550 OA
ATOM     17  O   UNL     1      -3.878  11.360 -15.255  1.00  0.00    -0.550 OA
ENDBRANCH  14  15
ENDBRANCH  13  14
ENDBRANCH  12  13
ENDBRANCH  11  12
ENDBRANCH  10  11
ENDBRANCH   9  10
ENDBRANCH   8   9
ENDBRANCH   7   8
ENDBRANCH   6   7
ENDBRANCH   5   6
ENDBRANCH   4   5
ENDBRANCH   3   4
ENDBRANCH   2   3
ENDBRANCH   1   2
BRANCH   1  18
ATOM     18  C   UNL     1      -7.136   8.496 -22.272  1.00  0.00     0.000 C 
BRANCH  18  19
ATOM     19  C   UNL     1      -6.341   7.488 -21.419  1.00  0.00     0.000 C 
BRANCH  19  20
ATOM     20  C   UNL     1      -7.083   6.178 -21.103  1.00  0.00     0.000 C 
BRANCH  20  21
ATOM     21  C   UNL     1      -7.481   6.062 -19.625  1.00  0.00     0.000 C 
BRANCH  21  22
ATOM     22  C   UNL     1      -8.707   5.156 -19.452  1.00  0.00     0.000 C 
BRANCH  22  23
ATOM     23  C   UNL     1      -9.300   4.774 -20.816  1.00  0.00     0.000 C 
BRANCH  23  24
ATOM     24  C   UNL     1     -10.819   4.549 -20.758  1.00  0.00    -0.000 C 
BRANCH  24  25
ATOM     25  C   UNL     1     -11.554   5.151 -21.968  1.00  0.00    -0.000 C 
BRANCH  25  26
ATOM     26  C   UNL     1     -10.829   6.373 -22.562  1.00  0.00    -0.000 C 
BRANCH  26  27
ATOM     27  C   UNL     1     -11.612   7.696 -22.484  1.00  0.00    -0.000 C 
BRANCH  27  28
ATOM     28  C   UNL     1     -12.929   7.569 -21.700  1.00  0.00    -0.000 C 
BRANCH  28  29
ATOM     29  C   UNL     1     -12.909   8.348 -20.374  1.00  0.00    -0.000 C 
BRANCH  29  30
ATOM     30  C   UNL     1     -12.186   7.602 -19.231  1.00  0.00    -0.000 C 
BRANCH  30  31
ATOM     31  C   UNL     1     -10.764   8.136 -19.002  1.00  0.00    -0.003 C 
ATOM     32  C   UNL     1     -10.784   9.614 -18.623  1.00  0.00     0.004 C 
ENDBRANCH  30  31
ENDBRANCH  29  30
ENDBRANCH  28  29
ENDBRANCH  27  28
ENDBRANCH  26  27
ENDBRANCH  25  26
ENDBRANCH  24  25
ENDBRANCH  23  24
ENDBRANCH  22  23
ENDBRANCH  21  22
ENDBRANCH  20  21
ENDBRANCH  19  20
ENDBRANCH  18  19
ENDBRANCH   1  18
TORSDOF 28
ENDMDL
MODEL 3
REMARK VINA RESULT:    -3.456      2.322      6.329
REMARK INTER + INTRA:         -15.710
REMARK INTER:                  -9.907
REMARK INTRA:                  -5.802
REMARK UNBOUND:                -6.597
REMARK SMILES CCCCCCCCCCCCCCCCCCCCCCCCCCCCCC(=O)[O-]
REMARK SMILES IDX 16 1 17 2 18 3 19 4 20 5 21 6 22 7 23 8 24 9 25 10 26 11
REMARK SMILES IDX 27 12 28 13 29 14 30 15 31 16 32 17 15 18 14 19 13 20 12 21
REMARK SMILES IDX 11 22 10 23 9 24 8 25 7 26 6 27 5 28 4 29 3 30 2 31 1 32
REMARK H PARENT
REMARK Flexibility Score: inf
ROOT
ATOM      1  C   UNL     1      -9.416   9.927 -18.193  1.00  0.00     0.000 C 
ENDROOT
BRANCH   1   2
ATOM      2  C   UNL     1      -9.122   8.424 -18.046  1.00  0.00     0.000 C 
BRANCH   2   3
ATOM      3  C   UNL     1      -7.619   8.105 -18.106  1.00  0.00     0.000 C 
BRANCH   3   4
ATOM      4  C   UNL     1      -6.738   9.362 -18.202  1.00  0.00     0.000 C 
BRANCH   4   5
ATOM      5  C   UNL     1      -5.336   9.145 -18.802  1.00  0.00     0.000 C 
BRANCH   5   6
ATOM      6  C   UNL     1      -4.563  10.456 -19.019  1.00  0.00     0.000 C 
BRANCH   6   7
ATOM      7  C   UNL     1      -3.389  10.631 -18.039  1.00  0.00     0.000 C 
BRANCH   7   8
ATOM      8  C   UNL     1      -3.134   9.439 -17.092  1.00  0.00     0.000 C 
BRANCH   8   9
ATOM      9  C   UNL     1      -3.132   9.777 -15.591  1.00  0.00     0.000 C 
BRANCH   9  10
ATOM     10  C   UNL     1      -4.370   9.235 -14.854  1.00  0.00     0.000 C 
BRANCH  10  11
ATOM     11  C   UNL     1      -5.219  10.353 -14.227  1.00  0.00     0.000 C 
BRANCH  11  12
ATOM     12  C   UNL     1      -6.268  10.917 -15.197  1.00  0.00     0.000 C 
BRANCH  12  13
ATOM     13  C   UNL     1      -5.873  12.323 -15.672  1.00  0.00     0.006 C 
BRANCH  13  14
ATOM     14  C   UNL     1      -4.847  12.985 -14.742  1.00  0.00     0.053 C 
BRANCH  14  15
ATOM     15  C   UNL     1      -5.425  14.170 -14.032  1.00  0.00     0.041 C 
ATOM     16  O   UNL     1      -4.671  14.969 -13.416  1.00  0.00    -0.550 OA
ATOM     17  O   UNL     1      -6.800  14.371 -14.019  1.00  0.00    -0.550 OA
ENDBRANCH  14  15
ENDBRANCH  13  14
ENDBRANCH  12  13
ENDBRANCH  11  12
ENDBRANCH  10  11
ENDBRANCH   9  10
ENDBRANCH   8   9
ENDBRANCH   7   8
ENDBRANCH   6   7
ENDBRANCH   5   6
ENDBRANCH   4   5
ENDBRANCH   3   4
ENDBRANCH   2   3
ENDBRANCH   1   2
BRANCH   1  18
ATOM     18  C   UNL     1     -10.153  10.326 -19.487  1.00  0.00     0.000 C 
BRANCH  18  19
ATOM     19  C   UNL     1      -9.311  10.238 -20.776  1.00  0.00     0.000 C 
BRANCH  19  20
ATOM     20  C   UNL     1      -9.883   9.311 -21.863  1.00  0.00     0.000 C 
BRANCH  20  21
ATOM     21  C   UNL     1      -8.995   8.086 -22.126  1.00  0.00     0.000 C 
BRANCH  21  22
ATOM     22  C   UNL     1      -7.535   8.373 -21.756  1.00  0.00     0.000 C 
BRANCH  22  23
ATOM     23  C   UNL     1      -6.768   7.066 -21.505  1.00  0.00     0.000 C 
BRANCH  23  24
ATOM     24  C   UNL     1      -7.241   5.919 -22.413  1.00  0.00    -0.000 C 
BRANCH  24  25
ATOM     25  C   UNL     1      -7.766   4.712 -21.616  1.00  0.00    -0.000 C 
BRANCH  25  26
ATOM     26  C   UNL     1      -7.997   5.030 -20.128  1.00  0.00    -0.000 C 
BRANCH  26  27
ATOM     27  C   UNL     1      -9.473   5.181 -19.714  1.00  0.00    -0.000 C 
BRANCH  27  28
ATOM     28  C   UNL     1     -10.449   4.914 -20.871  1.00  0.00    -0.000 C 
BRANCH  28  29
ATOM     29  C   UNL     1     -11.852   5.490 -20.611  1.00  0.00    -0.000 C 
BRANCH  29  30
ATOM     30  C   UNL     1     -11.842   6.778 -19.758  1.00  0.00    -0.000 C 
BRANCH  30  31
ATOM     31  C   UNL     1     -12.812   7.837 -20.302  1.00  0.00    -0.003 C 
ATOM     32  C   UNL     1     -13.218   7.528 -21.739  1.00  0.00     0.004 C 
ENDBRANCH  30  31
ENDBRANCH  29  30
ENDBRANCH  28  29
ENDBRANCH  27  28
ENDBRANCH  26  27
ENDBRANCH  25  26
ENDBRANCH  24  25
ENDBRANCH  23  24
ENDBRANCH  22  23
ENDBRANCH  21  22
ENDBRANCH  20  21
ENDBRANCH  19  20
ENDBRANCH  18  19
ENDBRANCH   1  18
TORSDOF 28
ENDMDL
MODEL 4
REMARK VINA RESULT:    -3.451      2.766      6.223
REMARK INTER + INTRA:         -15.697
REMARK INTER:                  -9.773
REMARK INTRA:                  -5.923
REMARK UNBOUND:                -6.597
REMARK SMILES CCCCCCCCCCCCCCCCCCCCCCCCCCCCCC(=O)[O-]
REMARK SMILES IDX 16 1 17 2 18 3 19 4 20 5 21 6 22 7 23 8 24 9 25 10 26 11
REMARK SMILES IDX 27 12 28 13 29 14 30 15 31 16 32 17 15 18 14 19 13 20 12 21
REMARK SMILES IDX 11 22 10 23 9 24 8 25 7 26 6 27 5 28 4 29 3 30 2 31 1 32
REMARK H PARENT
REMARK Flexibility Score: inf
ROOT
ATOM      1  C   UNL     1     -12.389   8.224 -19.414  1.00  0.00     0.000 C 
ENDROOT
BRANCH   1   2
ATOM      2  C   UNL     1     -12.400   8.299 -20.951  1.00  0.00     0.000 C 
BRANCH   2   3
ATOM      3  C   UNL     1     -12.573   6.922 -21.612  1.00  0.00     0.000 C 
BRANCH   3   4
ATOM      4  C   UNL     1     -12.013   5.769 -20.760  1.00  0.00     0.000 C 
BRANCH   4   5
ATOM      5  C   UNL     1     -10.575   5.334 -21.098  1.00  0.00     0.000 C 
BRANCH   5   6
ATOM      6  C   UNL     1      -9.682   5.184 -19.855  1.00  0.00     0.000 C 
BRANCH   6   7
ATOM      7  C   UNL     1      -8.183   5.115 -20.197  1.00  0.00     0.000 C 
BRANCH   7   8
ATOM      8  C   UNL     1      -7.794   5.667 -21.585  1.00  0.00     0.000 C 
BRANCH   8   9
ATOM      9  C   UNL     1      -6.678   6.726 -21.586  1.00  0.00     0.000 C 
BRANCH   9  10
ATOM     10  C   UNL     1      -7.084   8.023 -22.307  1.00  0.00     0.000 C 
BRANCH  10  11
ATOM     11  C   UNL     1      -8.606   8.142 -22.493  1.00  0.00     0.000 C 
BRANCH  11  12
ATOM     12  C   UNL     1      -9.186   9.409 -21.846  1.00  0.00     0.000 C 
BRANCH  12  13
ATOM     13  C   UNL     1      -8.261  10.613 -22.077  1.00  0.00     0.006 C 
BRANCH  13  14
ATOM     14  C   UNL     1      -8.701  11.848 -21.279  1.00  0.00     0.053 C 
BRANCH  14  15
ATOM     15  C   UNL     1      -9.240  12.923 -22.171  1.00  0.00     0.041 C 
ATOM     16  O   UNL     1      -8.595  13.992 -22.335  1.00  0.00    -0.550 OA
ATOM     17  O   UNL     1     -10.472  12.759 -22.792  1.00  0.00    -0.550 OA
ENDBRANCH  14  15
ENDBRANCH  13  14
ENDBRANCH  12  13
ENDBRANCH  11  12
ENDBRANCH  10  11
ENDBRANCH   9  10
ENDBRANCH   8   9
ENDBRANCH   7   8
ENDBRANCH   6   7
ENDBRANCH   5   6
ENDBRANCH   4   5
ENDBRANCH   3   4
ENDBRANCH   2   3
ENDBRANCH   1   2
BRANCH   1  18
ATOM     18  C   UNL     1     -10.990   8.278 -18.768  1.00  0.00     0.000 C 
BRANCH  18  19
ATOM     19  C   UNL     1     -10.440   9.695 -18.510  1.00  0.00     0.000 C 
BRANCH  19  20
ATOM     20  C   UNL     1      -8.951   9.753 -18.123  1.00  0.00     0.000 C 
BRANCH  20  21
ATOM     21  C   UNL     1      -8.287   8.369 -18.108  1.00  0.00     0.000 C 
BRANCH  21  22
ATOM     22  C   UNL     1      -6.783   8.476 -18.392  1.00  0.00     0.000 C 
BRANCH  22  23
ATOM     23  C   UNL     1      -6.437   9.844 -18.997  1.00  0.00     0.000 C 
BRANCH  23  24
ATOM     24  C   UNL     1      -5.025  10.318 -18.618  1.00  0.00    -0.000 C 
BRANCH  24  25
ATOM     25  C   UNL     1      -4.081   9.152 -18.276  1.00  0.00    -0.000 C 
BRANCH  25  26
ATOM     26  C   UNL     1      -3.481   9.262 -16.862  1.00  0.00    -0.000 C 
BRANCH  26  27
ATOM     27  C   UNL     1      -4.465   8.975 -15.713  1.00  0.00    -0.000 C 
BRANCH  27  28
ATOM     28  C   UNL     1      -4.249   9.890 -14.497  1.00  0.00    -0.000 C 
BRANCH  28  29
ATOM     29  C   UNL     1      -5.453  10.808 -14.222  1.00  0.00    -0.000 C 
BRANCH  29  30
ATOM     30  C   UNL     1      -6.601  10.644 -15.243  1.00  0.00    -0.000 C 
BRANCH  30  31
ATOM     31  C   UNL     1      -7.071  11.994 -15.803  1.00  0.00    -0.003 C 
ATOM     32  C   UNL     1      -5.886  12.882 -16.173  1.00  0.00     0.004 C 
ENDBRANCH  30  31
ENDBRANCH  29  30
ENDBRANCH  28  29
ENDBRANCH  27  28
ENDBRANCH  26  27
ENDBRANCH  25  26
ENDBRANCH  24  25
ENDBRANCH  23  24
ENDBRANCH  22  23
ENDBRANCH  21  22
ENDBRANCH  20  21
ENDBRANCH  19  20
ENDBRANCH  18  19
ENDBRANCH   1  18
TORSDOF 28
ENDMDL
MODEL 5
REMARK VINA RESULT:    -3.449      2.529      4.596
REMARK INTER + INTRA:         -15.692
REMARK INTER:                  -9.658
REMARK INTRA:                  -6.034
REMARK UNBOUND:                -6.597
REMARK SMILES CCCCCCCCCCCCCCCCCCCCCCCCCCCCCC(=O)[O-]
REMARK SMILES IDX 16 1 17 2 18 3 19 4 20 5 21 6 22 7 23 8 24 9 25 10 26 11
REMARK SMILES IDX 27 12 28 13 29 14 30 15 31 16 32 17 15 18 14 19 13 20 12 21
REMARK SMILES IDX 11 22 10 23 9 24 8 25 7 26 6 27 5 28 4 29 3 30 2 31 1 32
REMARK H PARENT
REMARK Flexibility Score: inf
ROOT
ATOM      1  C   UNL     1      -8.842   9.294 -18.337  1.00  0.00     0.000 C 
ENDROOT
BRANCH   1   2
ATOM      2  C   UNL     1     -10.075   8.404 -18.569  1.00  0.00     0.000 C 
BRANCH   2   3
ATOM      3  C   UNL     1     -11.334   9.213 -18.922  1.00  0.00     0.000 C 
BRANCH   3   4
ATOM      4  C   UNL     1     -12.512   8.332 -19.372  1.00  0.00     0.000 C 
BRANCH   4   5
ATOM      5  C   UNL     1     -12.804   8.336 -20.883  1.00  0.00     0.000 C 
BRANCH   5   6
ATOM      6  C   UNL     1     -12.769   6.931 -21.509  1.00  0.00     0.000 C 
BRANCH   6   7
ATOM      7  C   UNL     1     -12.116   5.882 -20.591  1.00  0.00     0.000 C 
BRANCH   7   8
ATOM      8  C   UNL     1     -10.630   5.581 -20.882  1.00  0.00     0.000 C 
BRANCH   8   9
ATOM      9  C   UNL     1     -10.140   5.968 -22.288  1.00  0.00     0.000 C 
BRANCH   9  10
ATOM     10  C   UNL     1      -9.499   7.366 -22.335  1.00  0.00     0.000 C 
BRANCH  10  11
ATOM     11  C   UNL     1      -9.778   8.099 -23.658  1.00  0.00     0.000 C 
BRANCH  11  12
ATOM     12  C   UNL     1     -10.034   9.600 -23.463  1.00  0.00     0.000 C 
BRANCH  12  13
ATOM     13  C   UNL     1      -9.532  10.067 -22.089  1.00  0.00     0.006 C 
BRANCH  13  14
ATOM     14  C   UNL     1     -10.273  11.315 -21.591  1.00  0.00     0.053 C 
BRANCH  14  15
ATOM     15  C   UNL     1      -9.582  12.576 -22.011  1.00  0.00     0.041 C 
ATOM     16  O   UNL     1     -10.070  13.697 -21.710  1.00  0.00    -0.550 OA
ATOM     17  O   UNL     1      -8.417  12.512 -22.767  1.00  0.00    -0.550 OA
ENDBRANCH  14  15
ENDBRANCH  13  14
ENDBRANCH  12  13
ENDBRANCH  11  12
ENDBRANCH  10  11
ENDBRANCH   9  10
ENDBRANCH   8   9
ENDBRANCH   7   8
ENDBRANCH   6   7
ENDBRANCH   5   6
ENDBRANCH   4   5
ENDBRANCH   3   4
ENDBRANCH   2   3
ENDBRANCH   1   2
BRANCH   1  18
ATOM     18  C   UNL     1      -7.607   8.937 -19.188  1.00  0.00     0.000 C 
BRANCH  18  19
ATOM     19  C   UNL     1      -6.914   7.611 -18.816  1.00  0.00     0.000 C 
BRANCH  19  20
ATOM     20  C   UNL     1      -7.111   6.470 -19.830  1.00  0.00     0.000 C 
BRANCH  20  21
ATOM     21  C   UNL     1      -7.495   5.141 -19.163  1.00  0.00     0.000 C 
BRANCH  21  22
ATOM     22  C   UNL     1      -7.052   3.946 -20.015  1.00  0.00     0.000 C 
BRANCH  22  23
ATOM     23  C   UNL     1      -7.005   4.323 -21.503  1.00  0.00     0.000 C 
BRANCH  23  24
ATOM     24  C   UNL     1      -5.691   3.902 -22.179  1.00  0.00    -0.000 C 
BRANCH  24  25
ATOM     25  C   UNL     1      -5.131   4.989 -23.114  1.00  0.00    -0.000 C 
BRANCH  25  26
ATOM     26  C   UNL     1      -6.077   6.194 -23.265  1.00  0.00    -0.000 C 
BRANCH  26  27
ATOM     27  C   UNL     1      -5.376   7.556 -23.427  1.00  0.00    -0.000 C 
BRANCH  27  28
ATOM     28  C   UNL     1      -6.068   8.683 -22.643  1.00  0.00    -0.000 C 
BRANCH  28  29
ATOM     29  C   UNL     1      -5.896  10.061 -23.305  1.00  0.00    -0.000 C 
BRANCH  29  30
ATOM     30  C   UNL     1      -4.769  10.912 -22.678  1.00  0.00    -0.000 C 
BRANCH  30  31
ATOM     31  C   UNL     1      -3.426  10.704 -23.391  1.00  0.00    -0.003 C 
ATOM     32  C   UNL     1      -2.502   9.802 -22.579  1.00  0.00     0.004 C 
ENDBRANCH  30  31
ENDBRANCH  29  30
ENDBRANCH  28  29
ENDBRANCH  27  28
ENDBRANCH  26  27
ENDBRANCH  25  26
ENDBRANCH  24  25
ENDBRANCH  23  24
ENDBRANCH  22  23
ENDBRANCH  21  22
ENDBRANCH  20  21
ENDBRANCH  19  20
ENDBRANCH  18  19
ENDBRANCH   1  18
TORSDOF 28
ENDMDL
MODEL 6
REMARK VINA RESULT:    -3.433      3.034      6.387
REMARK INTER + INTRA:         -15.649
REMARK INTER:                  -9.560
REMARK INTRA:                  -6.088
REMARK UNBOUND:                -6.597
REMARK SMILES CCCCCCCCCCCCCCCCCCCCCCCCCCCCCC(=O)[O-]
REMARK SMILES IDX 16 1 17 2 18 3 19 4 20 5 21 6 22 7 23 8 24 9 25 10 26 11
REMARK SMILES IDX 27 12 28 13 29 14 30 15 31 16 32 17 15 18 14 19 13 20 12 21
REMARK SMILES IDX 11 22 10 23 9 24 8 25 7 26 6 27 5 28 4 29 3 30 2 31 1 32
REMARK H PARENT
REMARK Flexibility Score: inf
ROOT
ATOM      1  C   UNL     1      -9.270   8.600 -22.069  1.00  0.00     0.000 C 
ENDROOT
BRANCH   1   2
ATOM      2  C   UNL     1      -8.158   8.059 -22.984  1.00  0.00     0.000 C 
BRANCH   2   3
ATOM      3  C   UNL     1      -7.818   6.587 -22.699  1.00  0.00     0.000 C 
BRANCH   3   4
ATOM      4  C   UNL     1      -7.242   6.362 -21.290  1.00  0.00     0.000 C 
BRANCH   4   5
ATOM      5  C   UNL     1      -7.879   5.211 -20.489  1.00  0.00     0.000 C 
BRANCH   5   6
ATOM      6  C   UNL     1      -8.734   5.699 -19.308  1.00  0.00     0.000 C 
BRANCH   6   7
ATOM      7  C   UNL     1      -8.369   7.122 -18.850  1.00  0.00     0.000 C 
BRANCH   7   8
ATOM      8  C   UNL     1      -9.434   7.834 -17.988  1.00  0.00     0.000 C 
BRANCH   8   9
ATOM      9  C   UNL     1      -9.854   9.231 -18.477  1.00  0.00     0.000 C 
BRANCH   9  10
ATOM     10  C   UNL     1     -11.346   9.313 -18.844  1.00  0.00     0.000 C 
BRANCH  10  11
ATOM     11  C   UNL     1     -11.882   7.996 -19.431  1.00  0.00     0.000 C 
BRANCH  11  12
ATOM     12  C   UNL     1     -12.910   8.220 -20.549  1.00  0.00     0.000 C 
BRANCH  12  13
ATOM     13  C   UNL     1     -12.811   7.115 -21.612  1.00  0.00     0.006 C 
BRANCH  13  14
ATOM     14  C   UNL     1     -11.834   6.003 -21.207  1.00  0.00     0.053 C 
BRANCH  14  15
ATOM     15  C   UNL     1     -11.299   5.272 -22.399  1.00  0.00     0.041 C 
ATOM     16  O   UNL     1     -10.908   4.080 -22.289  1.00  0.00    -0.550 OA
ATOM     17  O   UNL     1     -11.198   5.920 -23.625  1.00  0.00    -0.550 OA
ENDBRANCH  14  15
ENDBRANCH  13  14
ENDBRANCH  12  13
ENDBRANCH  11  12
ENDBRANCH  10  11
ENDBRANCH   9  10
ENDBRANCH   8   9
ENDBRANCH   7   8
ENDBRANCH   6   7
ENDBRANCH   5   6
ENDBRANCH   4   5
ENDBRANCH   3   4
ENDBRANCH   2   3
ENDBRANCH   1   2
BRANCH   1  18
ATOM     18  C   UNL     1     -10.005   9.848 -22.600  1.00  0.00     0.000 C 
BRANCH  18  19
ATOM     19  C   UNL     1      -9.900  11.101 -21.709  1.00  0.00     0.000 C 
BRANCH  19  20
ATOM     20  C   UNL     1      -8.803  12.099 -22.119  1.00  0.00     0.000 C 
BRANCH  20  21
ATOM     21  C   UNL     1      -7.512  11.930 -21.306  1.00  0.00     0.000 C 
BRANCH  21  22
ATOM     22  C   UNL     1      -6.416  11.259 -22.144  1.00  0.00     0.000 C 
BRANCH  22  23
ATOM     23  C   UNL     1      -5.617  10.258 -21.296  1.00  0.00     0.000 C 
BRANCH  23  24
ATOM     24  C   UNL     1      -6.394   9.779 -20.059  1.00  0.00    -0.000 C 
BRANCH  24  25
ATOM     25  C   UNL     1      -5.470   9.428 -18.880  1.00  0.00    -0.000 C 
BRANCH  25  26
ATOM     26  C   UNL     1      -5.506  10.479 -17.756  1.00  0.00    -0.000 C 
BRANCH  26  27
ATOM     27  C   UNL     1      -6.903  11.044 -17.437  1.00  0.00    -0.000 C 
BRANCH  27  28
ATOM     28  C   UNL     1      -6.921  11.920 -16.173  1.00  0.00    -0.000 C 
BRANCH  28  29
ATOM     29  C   UNL     1      -5.652  11.757 -15.318  1.00  0.00    -0.000 C 
BRANCH  29  30
ATOM     30  C   UNL     1      -5.859  10.876 -14.068  1.00  0.00    -0.000 C 
BRANCH  30  31
ATOM     31  C   UNL     1      -4.863   9.708 -14.014  1.00  0.00    -0.003 C 
ATOM     32  C   UNL     1      -3.450  10.171 -14.350  1.00  0.00     0.004 C 
ENDBRANCH  30  31
ENDBRANCH  29  30
ENDBRANCH  28  29
ENDBRANCH  27  28
ENDBRANCH  26  27
ENDBRANCH  25  26
ENDBRANCH  24  25
ENDBRANCH  23  24
ENDBRANCH  22  23
ENDBRANCH  21  22
ENDBRANCH  20  21
ENDBRANCH  19  20
ENDBRANCH  18  19
ENDBRANCH   1  18
TORSDOF 28
ENDMDL
MODEL 7
REMARK VINA RESULT:    -3.424      1.506      4.980
REMARK INTER + INTRA:         -15.626
REMARK INTER:                  -9.236
REMARK INTRA:                  -6.391
REMARK UNBOUND:                -6.597
REMARK SMILES CCCCCCCCCCCCCCCCCCCCCCCCCCCCCC(=O)[O-]
REMARK SMILES IDX 16 1 17 2 18 3 19 4 20 5 21 6 22 7 23 8 24 9 25 10 26 11
REMARK SMILES IDX 27 12 28 13 29 14 30 15 31 16 32 17 15 18 14 19 13 20 12 21
REMARK SMILES IDX 11 22 10 23 9 24 8 25 7 26 6 27 5 28 4 29 3 30 2 31 1 32
REMARK H PARENT
REMARK Flexibility Score: inf
ROOT
ATOM      1  C   UNL     1      -9.451   8.086 -22.818  1.00  0.00     0.000 C 
ENDROOT
BRANCH   1   2
ATOM      2  C   UNL     1     -10.613   9.087 -22.939  1.00  0.00     0.000 C 
BRANCH   2   3
ATOM      3  C   UNL     1     -10.132  10.543 -23.056  1.00  0.00     0.000 C 
BRANCH   3   4
ATOM      4  C   UNL     1      -8.778  10.676 -23.774  1.00  0.00     0.000 C 
BRANCH   4   5
ATOM      5  C   UNL     1      -7.670  11.386 -22.973  1.00  0.00     0.000 C 
BRANCH   5   6
ATOM      6  C   UNL     1      -8.094  11.737 -21.537  1.00  0.00     0.000 C 
BRANCH   6   7
ATOM      7  C   UNL     1      -7.181  11.107 -20.470  1.00  0.00     0.000 C 
BRANCH   7   8
ATOM      8  C   UNL     1      -6.414   9.844 -20.918  1.00  0.00     0.000 C 
BRANCH   8   9
ATOM      9  C   UNL     1      -5.375   9.312 -19.915  1.00  0.00     0.000 C 
BRANCH   9  10
ATOM     10  C   UNL     1      -5.324  10.133 -18.614  1.00  0.00     0.000 C 
BRANCH  10  11
ATOM     11  C   UNL     1      -4.756   9.329 -17.432  1.00  0.00     0.000 C 
BRANCH  11  12
ATOM     12  C   UNL     1      -5.324   9.782 -16.079  1.00  0.00     0.000 C 
BRANCH  12  13
ATOM     13  C   UNL     1      -6.544  10.695 -16.275  1.00  0.00     0.006 C 
BRANCH  13  14
ATOM     14  C   UNL     1      -6.848  11.537 -15.029  1.00  0.00     0.053 C 
BRANCH  14  15
ATOM     15  C   UNL     1      -6.407  12.958 -15.197  1.00  0.00     0.041 C 
ATOM     16  O   UNL     1      -6.718  13.824 -14.338  1.00  0.00    -0.550 OA
ATOM     17  O   UNL     1      -5.682  13.333 -16.323  1.00  0.00    -0.550 OA
ENDBRANCH  14  15
ENDBRANCH  13  14
ENDBRANCH  12  13
ENDBRANCH  11  12
ENDBRANCH  10  11
ENDBRANCH   9  10
ENDBRANCH   8   9
ENDBRANCH   7   8
ENDBRANCH   6   7
ENDBRANCH   5   6
ENDBRANCH   4   5
ENDBRANCH   3   4
ENDBRANCH   2   3
ENDBRANCH   1   2
BRANCH   1  18
ATOM     18  C   UNL     1      -9.658   6.751 -23.560  1.00  0.00     0.000 C 
BRANCH  18  19
ATOM     19  C   UNL     1     -10.966   6.008 -23.225  1.00  0.00     0.000 C 
BRANCH  19  20
ATOM     20  C   UNL     1     -10.812   4.835 -22.240  1.00  0.00     0.000 C 
BRANCH  20  21
ATOM     21  C   UNL     1     -11.656   5.011 -20.969  1.00  0.00     0.000 C 
BRANCH  21  22
ATOM     22  C   UNL     1     -12.351   6.378 -20.953  1.00  0.00     0.000 C 
BRANCH  22  23
ATOM     23  C   UNL     1     -12.071   7.117 -19.636  1.00  0.00     0.000 C 
BRANCH  23  24
ATOM     24  C   UNL     1     -12.633   8.548 -19.631  1.00  0.00    -0.000 C 
BRANCH  24  25
ATOM     25  C   UNL     1     -11.654   9.565 -19.018  1.00  0.00    -0.000 C 
BRANCH  25  26
ATOM     26  C   UNL     1     -10.181   9.239 -19.325  1.00  0.00    -0.000 C 
BRANCH  26  27
ATOM     27  C   UNL     1      -9.261   9.159 -18.093  1.00  0.00    -0.000 C 
BRANCH  27  28
ATOM     28  C   UNL     1      -8.339   7.929 -18.113  1.00  0.00    -0.000 C 
BRANCH  28  29
ATOM     29  C   UNL     1      -8.397   7.163 -19.446  1.00  0.00    -0.000 C 
BRANCH  29  30
ATOM     30  C   UNL     1      -8.560   5.637 -19.275  1.00  0.00    -0.000 C 
BRANCH  30  31
ATOM     31  C   UNL     1      -7.614   4.850 -20.193  1.00  0.00    -0.003 C 
ATOM     32  C   UNL     1      -6.954   5.763 -21.222  1.00  0.00     0.004 C 
ENDBRANCH  30  31
ENDBRANCH  29  30
ENDBRANCH  28  29
ENDBRANCH  27  28
ENDBRANCH  26  27
ENDBRANCH  25  26
ENDBRANCH  24  25
ENDBRANCH  23  24
ENDBRANCH  22  23
ENDBRANCH  21  22
ENDBRANCH  20  21
ENDBRANCH  19  20
ENDBRANCH  18  19
ENDBRANCH   1  18
TORSDOF 28
ENDMDL
MODEL 8
REMARK VINA RESULT:    -3.423      2.495      5.918
REMARK INTER + INTRA:         -15.623
REMARK INTER:                  -9.545
REMARK INTRA:                  -6.078
REMARK UNBOUND:                -6.597
REMARK SMILES CCCCCCCCCCCCCCCCCCCCCCCCCCCCCC(=O)[O-]
REMARK SMILES IDX 16 1 17 2 18 3 19 4 20 5 21 6 22 7 23 8 24 9 25 10 26 11
REMARK SMILES IDX 27 12 28 13 29 14 30 15 31 16 32 17 15 18 14 19 13 20 12 21
REMARK SMILES IDX 11 22 10 23 9 24 8 25 7 26 6 27 5 28 4 29 3 30 2 31 1 32
REMARK H PARENT
REMARK Flexibility Score: inf
ROOT
ATOM      1  C   UNL     1      -8.411  11.279 -21.178  1.00  0.00     0.000 C 
ENDROOT
BRANCH   1   2
ATOM      2  C   UNL     1      -9.570  11.532 -22.157  1.00  0.00     0.000 C 
BRANCH   2   3
ATOM      3  C   UNL     1     -10.423  10.276 -22.405  1.00  0.00     0.000 C 
BRANCH   3   4
ATOM      4  C   UNL     1      -9.663   9.169 -23.156  1.00  0.00     0.000 C 
BRANCH   4   5
ATOM      5  C   UNL     1      -9.648   7.791 -22.468  1.00  0.00     0.000 C 
BRANCH   5   6
ATOM      6  C   UNL     1     -10.800   6.879 -22.919  1.00  0.00     0.000 C 
BRANCH   6   7
ATOM      7  C   UNL     1     -11.756   6.507 -21.771  1.00  0.00     0.000 C 
BRANCH   7   8
ATOM      8  C   UNL     1     -13.011   7.396 -21.641  1.00  0.00     0.000 C 
BRANCH   8   9
ATOM      9  C   UNL     1     -12.996   8.393 -20.469  1.00  0.00     0.000 C 
BRANCH   9  10
ATOM     10  C   UNL     1     -11.998   8.003 -19.364  1.00  0.00     0.000 C 
BRANCH  10  11
ATOM     11  C   UNL     1     -11.106   9.180 -18.934  1.00  0.00     0.000 C 
BRANCH  11  12
ATOM     12  C   UNL     1      -9.613   8.819 -18.918  1.00  0.00     0.000 C 
BRANCH  12  13
ATOM     13  C   UNL     1      -9.419   7.296 -18.866  1.00  0.00     0.006 C 
BRANCH  13  14
ATOM     14  C   UNL     1      -7.937   6.898 -18.843  1.00  0.00     0.053 C 
BRANCH  14  15
ATOM     15  C   UNL     1      -7.689   5.636 -19.610  1.00  0.00     0.041 C 
ATOM     16  O   UNL     1      -7.816   4.517 -19.048  1.00  0.00    -0.550 OA
ATOM     17  O   UNL     1      -7.282   5.698 -20.938  1.00  0.00    -0.550 OA
ENDBRANCH  14  15
ENDBRANCH  13  14
ENDBRANCH  12  13
ENDBRANCH  11  12
ENDBRANCH  10  11
ENDBRANCH   9  10
ENDBRANCH   8   9
ENDBRANCH   7   8
ENDBRANCH   6   7
ENDBRANCH   5   6
ENDBRANCH   4   5
ENDBRANCH   3   4
ENDBRANCH   2   3
ENDBRANCH   1   2
BRANCH   1  18
ATOM     18  C   UNL     1      -7.003  11.544 -21.748  1.00  0.00     0.000 C 
BRANCH  18  19
ATOM     19  C   UNL     1      -6.249  10.295 -22.245  1.00  0.00     0.000 C 
BRANCH  19  20
ATOM     20  C   UNL     1      -6.164   9.142 -21.229  1.00  0.00     0.000 C 
BRANCH  20  21
ATOM     21  C   UNL     1      -4.960   9.270 -20.284  1.00  0.00     0.000 C 
BRANCH  21  22
ATOM     22  C   UNL     1      -5.413   9.346 -18.820  1.00  0.00     0.000 C 
BRANCH  22  23
ATOM     23  C   UNL     1      -5.488  10.805 -18.347  1.00  0.00     0.000 C 
BRANCH  23  24
ATOM     24  C   UNL     1      -6.860  11.164 -17.754  1.00  0.00    -0.000 C 
BRANCH  24  25
ATOM     25  C   UNL     1      -7.248  10.261 -16.570  1.00  0.00    -0.000 C 
BRANCH  25  26
ATOM     26  C   UNL     1      -7.321  11.023 -15.234  1.00  0.00    -0.000 C 
BRANCH  26  27
ATOM     27  C   UNL     1      -6.771  12.461 -15.274  1.00  0.00    -0.000 C 
BRANCH  27  28
ATOM     28  C   UNL     1      -5.503  12.642 -14.424  1.00  0.00    -0.000 C 
BRANCH  28  29
ATOM     29  C   UNL     1      -4.213  12.348 -15.210  1.00  0.00    -0.000 C 
BRANCH  29  30
ATOM     30  C   UNL     1      -3.190  11.499 -14.424  1.00  0.00    -0.000 C 
BRANCH  30  31
ATOM     31  C   UNL     1      -3.718  10.089 -14.126  1.00  0.00    -0.003 C 
ATOM     32  C   UNL     1      -3.811   9.253 -15.399  1.00  0.00     0.004 C 
ENDBRANCH  30  31
ENDBRANCH  29  30
ENDBRANCH  28  29
ENDBRANCH  27  28
ENDBRANCH  26  27
ENDBRANCH  25  26
ENDBRANCH  24  25
ENDBRANCH  23  24
ENDBRANCH  22  23
ENDBRANCH  21  22
ENDBRANCH  20  21
ENDBRANCH  19  20
ENDBRANCH  18  19
ENDBRANCH   1  18
TORSDOF 28
ENDMDL
MODEL 9
REMARK VINA RESULT:    -3.387      1.905      6.053
REMARK INTER + INTRA:         -15.529
REMARK INTER:                  -9.025
REMARK INTRA:                  -6.504
REMARK UNBOUND:                -6.597
REMARK SMILES CCCCCCCCCCCCCCCCCCCCCCCCCCCCCC(=O)[O-]
REMARK SMILES IDX 16 1 17 2 18 3 19 4 20 5 21 6 22 7 23 8 24 9 25 10 26 11
REMARK SMILES IDX 27 12 28 13 29 14 30 15 31 16 32 17 15 18 14 19 13 20 12 21
REMARK SMILES IDX 11 22 10 23 9 24 8 25 7 26 6 27 5 28 4 29 3 30 2 31 1 32
REMARK H PARENT
REMARK Flexibility Score: inf
ROOT
ATOM      1  C   UNL     1      -6.686  11.493 -20.294  1.00  0.00     0.000 C 
ENDROOT
BRANCH   1   2
ATOM      2  C   UNL     1      -7.065  12.057 -21.674  1.00  0.00     0.000 C 
BRANCH   2   3
ATOM      3  C   UNL     1      -7.811  11.036 -22.549  1.00  0.00     0.000 C 
BRANCH   3   4
ATOM      4  C   UNL     1      -6.931  10.437 -23.660  1.00  0.00     0.000 C 
BRANCH   4   5
ATOM      5  C   UNL     1      -6.001   9.290 -23.224  1.00  0.00     0.000 C 
BRANCH   5   6
ATOM      6  C   UNL     1      -4.538   9.732 -23.050  1.00  0.00     0.000 C 
BRANCH   6   7
ATOM      7  C   UNL     1      -3.923   9.263 -21.719  1.00  0.00     0.000 C 
BRANCH   7   8
ATOM      8  C   UNL     1      -2.973  10.271 -21.038  1.00  0.00     0.000 C 
BRANCH   8   9
ATOM      9  C   UNL     1      -3.265  10.555 -19.554  1.00  0.00     0.000 C 
BRANCH   9  10
ATOM     10  C   UNL     1      -3.174   9.296 -18.674  1.00  0.00     0.000 C 
BRANCH  10  11
ATOM     11  C   UNL     1      -3.825   9.492 -17.294  1.00  0.00     0.000 C 
BRANCH  11  12
ATOM     12  C   UNL     1      -4.032  10.972 -16.941  1.00  0.00     0.000 C 
BRANCH  12  13
ATOM     13  C   UNL     1      -5.528  11.308 -16.847  1.00  0.00     0.006 C 
BRANCH  13  14
ATOM     14  C   UNL     1      -6.239  10.500 -15.753  1.00  0.00     0.053 C 
BRANCH  14  15
ATOM     15  C   UNL     1      -5.693  10.806 -14.393  1.00  0.00     0.041 C 
ATOM     16  O   UNL     1      -5.192   9.889 -13.690  1.00  0.00    -0.550 OA
ATOM     17  O   UNL     1      -5.771  12.098 -13.886  1.00  0.00    -0.550 OA
ENDBRANCH  14  15
ENDBRANCH  13  14
ENDBRANCH  12  13
ENDBRANCH  11  12
ENDBRANCH  10  11
ENDBRANCH   9  10
ENDBRANCH   8   9
ENDBRANCH   7   8
ENDBRANCH   6   7
ENDBRANCH   5   6
ENDBRANCH   4   5
ENDBRANCH   3   4
ENDBRANCH   2   3
ENDBRANCH   1   2
BRANCH   1  18
ATOM     18  C   UNL     1      -7.550  10.309 -19.811  1.00  0.00     0.000 C 
BRANCH  18  19
ATOM     19  C   UNL     1      -6.776   9.011 -19.510  1.00  0.00     0.000 C 
BRANCH  19  20
ATOM     20  C   UNL     1      -7.436   8.089 -18.470  1.00  0.00     0.000 C 
BRANCH  20  21
ATOM     21  C   UNL     1      -8.642   8.741 -17.778  1.00  0.00     0.000 C 
BRANCH  21  22
ATOM     22  C   UNL     1      -9.950   8.046 -18.177  1.00  0.00     0.000 C 
BRANCH  22  23
ATOM     23  C   UNL     1     -10.884   9.019 -18.911  1.00  0.00     0.000 C 
BRANCH  23  24
ATOM     24  C   UNL     1     -12.043   8.304 -19.622  1.00  0.00    -0.000 C 
BRANCH  24  25
ATOM     25  C   UNL     1     -12.000   6.777 -19.435  1.00  0.00    -0.000 C 
BRANCH  25  26
ATOM     26  C   UNL     1     -12.174   6.006 -20.756  1.00  0.00    -0.000 C 
BRANCH  26  27
ATOM     27  C   UNL     1     -11.081   4.961 -21.051  1.00  0.00    -0.000 C 
BRANCH  27  28
ATOM     28  C   UNL     1      -9.704   5.362 -20.498  1.00  0.00    -0.000 C 
BRANCH  28  29
ATOM     29  C   UNL     1      -8.786   5.971 -21.573  1.00  0.00    -0.000 C 
BRANCH  29  30
ATOM     30  C   UNL     1      -9.036   7.475 -21.819  1.00  0.00    -0.000 C 
BRANCH  30  31
ATOM     31  C   UNL     1      -9.717   7.733 -23.171  1.00  0.00    -0.003 C 
ATOM     32  C   UNL     1     -10.796   8.804 -23.050  1.00  0.00     0.004 C 
ENDBRANCH  30  31
ENDBRANCH  29  30
ENDBRANCH  28  29
ENDBRANCH  27  28
ENDBRANCH  26  27
ENDBRANCH  25  26
ENDBRANCH  24  25
ENDBRANCH  23  24
ENDBRANCH  22  23
ENDBRANCH  21  22
ENDBRANCH  20  21
ENDBRANCH  19  20
ENDBRANCH  18  19
ENDBRANCH   1  18
TORSDOF 28
ENDMDL
