MODEL 1
REMARK VINA RESULT:    -3.344      0.000      0.000
REMARK INTER + INTRA:          -3.344
REMARK INTER:                  -3.344
REMARK INTRA:                   0.000
REMARK UNBOUND:                 0.000
REMARK SMILES CC1(C)O[C@]2(C)CC[C@H]1CC2
REMARK SMILES IDX 1 1 2 2 9 3 10 4 11 5 5 6 4 7 7 8 8 9 6 10 3 11
REMARK H PARENT
REMARK Flexibility Score: inf
ROOT
ATOM      1  C   UNL     1      59.122   5.008  29.915  1.00  0.00     0.042 C 
ATOM      2  C   UNL     1      59.469   5.950  31.089  1.00  0.00     0.066 C 
ATOM      3  C   UNL     1      59.936   5.122  32.348  1.00  0.00     0.021 C 
ATOM      4  C   UNL     1      61.235   4.366  31.984  1.00  0.00     0.009 C 
ATOM      5  C   UNL     1      62.255   5.366  31.387  1.00  0.00     0.035 C 
ATOM      6  C   UNL     1      61.671   6.807  31.438  1.00  0.00     0.066 C 
ATOM      7  O   UNL     1      60.486   6.861  30.644  1.00  0.00    -0.369 OA
ATOM      8  C   UNL     1      61.317   7.157  32.912  1.00  0.00     0.035 C 
ATOM      9  C   UNL     1      60.319   6.115  33.472  1.00  0.00     0.009 C 
ATOM     10  C   UNL     1      62.686   7.812  30.881  1.00  0.00     0.042 C 
ATOM     11  C   UNL     1      58.200   6.768  31.412  1.00  0.00     0.042 C 
ENDROOT
TORSDOF 0
ENDMDL
MODEL 2
REMARK VINA RESULT:    -3.201      0.990      3.334
REMARK INTER + INTRA:          -3.201
REMARK INTER:                  -3.201
REMARK INTRA:                   0.000
REMARK UNBOUND:                 0.000
REMARK SMILES CC1(C)O[C@]2(C)CC[C@H]1CC2
REMARK SMILES IDX 1 1 2 2 9 3 10 4 11 5 5 6 4 7 7 8 8 9 6 10 3 11
REMARK H PARENT
REMARK Flexibility Score: inf
ROOT
ATOM      1  C   UNL     1      62.747   7.980  31.531  1.00  0.00     0.042 C 
ATOM      2  C   UNL     1      61.984   6.656  31.755  1.00  0.00     0.066 C 
ATOM      3  C   UNL     1      61.590   6.489  33.274  1.00  0.00     0.021 C 
ATOM      4  C   UNL     1      60.621   7.632  33.658  1.00  0.00     0.009 C 
ATOM      5  C   UNL     1      59.460   7.679  32.635  1.00  0.00     0.035 C 
ATOM      6  C   UNL     1      59.604   6.507  31.621  1.00  0.00     0.066 C 
ATOM      7  O   UNL     1      60.829   6.657  30.903  1.00  0.00    -0.369 OA
ATOM      8  C   UNL     1      59.629   5.163  32.403  1.00  0.00     0.035 C 
ATOM      9  C   UNL     1      60.787   5.176  33.430  1.00  0.00     0.009 C 
ATOM     10  C   UNL     1      58.441   6.521  30.623  1.00  0.00     0.042 C 
ATOM     11  C   UNL     1      62.913   5.509  31.303  1.00  0.00     0.042 C 
ENDROOT
TORSDOF 0
ENDMDL
MODEL 3
REMARK VINA RESULT:    -3.150     21.382     22.741
REMARK INTER + INTRA:          -3.150
REMARK INTER:                  -3.150
REMARK INTRA:                   0.000
REMARK UNBOUND:                 0.000
REMARK SMILES CC1(C)O[C@]2(C)CC[C@H]1CC2
REMARK SMILES IDX 1 1 2 2 9 3 10 4 11 5 5 6 4 7 7 8 8 9 6 10 3 11
REMARK H PARENT
REMARK Flexibility Score: inf
ROOT
ATOM      1  C   UNL     1      76.920  11.165  49.592  1.00  0.00     0.042 C 
ATOM      2  C   UNL     1      76.899  10.474  48.211  1.00  0.00     0.066 C 
ATOM      3  C   UNL     1      75.562   9.659  48.015  1.00  0.00     0.021 C 
ATOM      4  C   UNL     1      74.375  10.651  48.035  1.00  0.00     0.009 C 
ATOM      5  C   UNL     1      74.652  11.795  47.028  1.00  0.00     0.035 C 
ATOM      6  C   UNL     1      75.981  11.517  46.268  1.00  0.00     0.066 C 
ATOM      7  O   UNL     1      77.058  11.485  47.204  1.00  0.00    -0.369 OA
ATOM      8  C   UNL     1      75.878  10.136  45.558  1.00  0.00     0.035 C 
ATOM      9  C   UNL     1      75.574   9.033  46.599  1.00  0.00     0.009 C 
ATOM     10  C   UNL     1      76.249  12.625  45.243  1.00  0.00     0.042 C 
ATOM     11  C   UNL     1      78.124   9.537  48.148  1.00  0.00     0.042 C 
ENDROOT
TORSDOF 0
ENDMDL
MODEL 4
REMARK VINA RESULT:    -3.092     20.010     21.480
REMARK INTER + INTRA:          -3.092
REMARK INTER:                  -3.092
REMARK INTRA:                   0.000
REMARK UNBOUND:                 0.000
REMARK SMILES CC1(C)O[C@]2(C)CC[C@H]1CC2
REMARK SMILES IDX 1 1 2 2 9 3 10 4 11 5 5 6 4 7 7 8 8 9 6 10 3 11
REMARK H PARENT
REMARK Flexibility Score: inf
ROOT
ATOM      1  C   UNL     1      74.860  10.267  48.371  1.00  0.00     0.042 C 
ATOM      2  C   UNL     1      74.961  11.020  47.027  1.00  0.00     0.066 C 
ATOM      3  C   UNL     1      76.432  11.536  46.786  1.00  0.00     0.021 C 
ATOM      4  C   UNL     1      77.372  10.311  46.683  1.00  0.00     0.009 C 
ATOM      5  C   UNL     1      76.799   9.319  45.641  1.00  0.00     0.035 C 
ATOM      6  C   UNL     1      75.527   9.923  44.981  1.00  0.00     0.066 C 
ATOM      7  O   UNL     1      74.532  10.131  45.984  1.00  0.00    -0.369 OA
ATOM      8  C   UNL     1      75.894  11.290  44.334  1.00  0.00     0.035 C 
ATOM      9  C   UNL     1      76.486  12.235  45.406  1.00  0.00     0.009 C 
ATOM     10  C   UNL     1      74.970   8.964  43.923  1.00  0.00     0.042 C 
ATOM     11  C   UNL     1      73.970  12.202  47.087  1.00  0.00     0.042 C 
ENDROOT
TORSDOF 0
ENDMDL
MODEL 5
REMARK VINA RESULT:    -3.067     20.492     22.033
REMARK INTER + INTRA:          -3.067
REMARK INTER:                  -3.067
REMARK INTRA:                   0.000
REMARK UNBOUND:                 0.000
REMARK SMILES CC1(C)O[C@]2(C)CC[C@H]1CC2
REMARK SMILES IDX 1 1 2 2 9 3 10 4 11 5 5 6 4 7 7 8 8 9 6 10 3 11
REMARK H PARENT
REMARK Flexibility Score: inf
ROOT
ATOM      1  C   UNL     1      77.627   8.912  46.729  1.00  0.00     0.042 C 
ATOM      2  C   UNL     1      76.946  10.285  46.914  1.00  0.00     0.066 C 
ATOM      3  C   UNL     1      76.659  10.958  45.515  1.00  0.00     0.021 C 
ATOM      4  C   UNL     1      75.663  10.067  44.737  1.00  0.00     0.009 C 
ATOM      5  C   UNL     1      74.437   9.771  45.635  1.00  0.00     0.035 C 
ATOM      6  C   UNL     1      74.571  10.541  46.980  1.00  0.00     0.066 C 
ATOM      7  O   UNL     1      75.739  10.086  47.665  1.00  0.00    -0.369 OA
ATOM      8  C   UNL     1      74.713  12.061  46.681  1.00  0.00     0.035 C 
ATOM      9  C   UNL     1      75.932  12.302  45.759  1.00  0.00     0.009 C 
ATOM     10  C   UNL     1      73.347  10.283  47.866  1.00  0.00     0.042 C 
ATOM     11  C   UNL     1      77.898  11.160  47.756  1.00  0.00     0.042 C 
ENDROOT
TORSDOF 0
ENDMDL
MODEL 6
REMARK VINA RESULT:    -3.053      1.486      3.075
REMARK INTER + INTRA:          -3.053
REMARK INTER:                  -3.053
REMARK INTRA:                   0.000
REMARK UNBOUND:                 0.000
REMARK SMILES CC1(C)O[C@]2(C)CC[C@H]1CC2
REMARK SMILES IDX 1 1 2 2 9 3 10 4 11 5 5 6 4 7 7 8 8 9 6 10 3 11
REMARK H PARENT
REMARK Flexibility Score: inf
ROOT
ATOM      1  C   UNL     1      59.409   7.361  33.004  1.00  0.00     0.042 C 
ATOM      2  C   UNL     1      60.439   6.742  32.035  1.00  0.00     0.066 C 
ATOM      3  C   UNL     1      61.666   7.712  31.831  1.00  0.00     0.021 C 
ATOM      4  C   UNL     1      62.383   7.890  33.191  1.00  0.00     0.009 C 
ATOM      5  C   UNL     1      62.686   6.495  33.791  1.00  0.00     0.035 C 
ATOM      6  C   UNL     1      62.256   5.385  32.789  1.00  0.00     0.066 C 
ATOM      7  O   UNL     1      60.848   5.473  32.570  1.00  0.00    -0.369 OA
ATOM      8  C   UNL     1      62.999   5.606  31.440  1.00  0.00     0.035 C 
ATOM      9  C   UNL     1      62.687   7.021  30.896  1.00  0.00     0.009 C 
ATOM     10  C   UNL     1      62.582   4.000  33.357  1.00  0.00     0.042 C 
ATOM     11  C   UNL     1      59.715   6.488  30.696  1.00  0.00     0.042 C 
ENDROOT
TORSDOF 0
ENDMDL
MODEL 7
REMARK VINA RESULT:    -3.051      8.862     10.676
REMARK INTER + INTRA:          -3.051
REMARK INTER:                  -3.051
REMARK INTRA:                   0.000
REMARK UNBOUND:                 0.000
REMARK SMILES CC1(C)O[C@]2(C)CC[C@H]1CC2
REMARK SMILES IDX 1 1 2 2 9 3 10 4 11 5 5 6 4 7 7 8 8 9 6 10 3 11
REMARK H PARENT
REMARK Flexibility Score: inf
ROOT
ATOM      1  C   UNL     1      65.282  16.923  36.305  1.00  0.00     0.042 C 
ATOM      2  C   UNL     1      64.189  15.832  36.303  1.00  0.00     0.066 C 
ATOM      3  C   UNL     1      63.162  16.074  35.129  1.00  0.00     0.021 C 
ATOM      4  C   UNL     1      63.917  15.951  33.784  1.00  0.00     0.009 C 
ATOM      5  C   UNL     1      64.704  14.618  33.763  1.00  0.00     0.035 C 
ATOM      6  C   UNL     1      64.401  13.806  35.055  1.00  0.00     0.066 C 
ATOM      7  O   UNL     1      64.835  14.555  36.191  1.00  0.00    -0.369 OA
ATOM      8  C   UNL     1      62.866  13.569  35.154  1.00  0.00     0.035 C 
ATOM      9  C   UNL     1      62.124  14.926  35.144  1.00  0.00     0.009 C 
ATOM     10  C   UNL     1      65.147  12.468  35.030  1.00  0.00     0.042 C 
ATOM     11  C   UNL     1      63.478  15.892  37.672  1.00  0.00     0.042 C 
ENDROOT
TORSDOF 0
ENDMDL
MODEL 8
REMARK VINA RESULT:    -3.029      9.155     10.656
REMARK INTER + INTRA:          -3.029
REMARK INTER:                  -3.029
REMARK INTRA:                   0.000
REMARK UNBOUND:                 0.000
REMARK SMILES CC1(C)O[C@]2(C)CC[C@H]1CC2
REMARK SMILES IDX 1 1 2 2 9 3 10 4 11 5 5 6 4 7 7 8 8 9 6 10 3 11
REMARK H PARENT
REMARK Flexibility Score: inf
ROOT
ATOM      1  C   UNL     1      65.021  15.034  33.205  1.00  0.00     0.042 C 
ATOM      2  C   UNL     1      64.124  15.620  34.317  1.00  0.00     0.066 C 
ATOM      3  C   UNL     1      63.001  14.591  34.729  1.00  0.00     0.021 C 
ATOM      4  C   UNL     1      63.681  13.333  35.321  1.00  0.00     0.009 C 
ATOM      5  C   UNL     1      64.674  13.766  36.427  1.00  0.00     0.035 C 
ATOM      6  C   UNL     1      64.588  15.305  36.639  1.00  0.00     0.066 C 
ATOM      7  O   UNL     1      64.963  15.966  35.430  1.00  0.00    -0.369 OA
ATOM      8  C   UNL     1      63.123  15.686  36.998  1.00  0.00     0.035 C 
ATOM      9  C   UNL     1      62.169  15.209  35.878  1.00  0.00     0.009 C 
ATOM     10  C   UNL     1      65.542  15.742  37.756  1.00  0.00     0.042 C 
ATOM     11  C   UNL     1      63.498  16.919  33.765  1.00  0.00     0.042 C 
ENDROOT
TORSDOF 0
ENDMDL
MODEL 9
REMARK VINA RESULT:    -2.962      1.307      3.406
REMARK INTER + INTRA:          -2.962
REMARK INTER:                  -2.962
REMARK INTRA:                   0.000
REMARK UNBOUND:                 0.000
REMARK SMILES CC1(C)O[C@]2(C)CC[C@H]1CC2
REMARK SMILES IDX 1 1 2 2 9 3 10 4 11 5 5 6 4 7 7 8 8 9 6 10 3 11
REMARK H PARENT
REMARK Flexibility Score: inf
ROOT
ATOM      1  C   UNL     1      62.734   6.879  31.003  1.00  0.00     0.042 C 
ATOM      2  C   UNL     1      62.044   5.805  31.871  1.00  0.00     0.066 C 
ATOM      3  C   UNL     1      60.875   6.440  32.720  1.00  0.00     0.021 C 
ATOM      4  C   UNL     1      59.802   6.985  31.748  1.00  0.00     0.009 C 
ATOM      5  C   UNL     1      59.413   5.871  30.745  1.00  0.00     0.035 C 
ATOM      6  C   UNL     1      60.158   4.553  31.106  1.00  0.00     0.066 C 
ATOM      7  O   UNL     1      61.566   4.768  31.001  1.00  0.00    -0.369 OA
ATOM      8  C   UNL     1      59.808   4.159  32.570  1.00  0.00     0.035 C 
ATOM      9  C   UNL     1      60.189   5.312  33.528  1.00  0.00     0.009 C 
ATOM     10  C   UNL     1      59.755   3.433  30.141  1.00  0.00     0.042 C 
ATOM     11  C   UNL     1      63.122   5.198  32.794  1.00  0.00     0.042 C 
ENDROOT
TORSDOF 0
ENDMDL
