MODEL 1
REMARK VINA RESULT:    -3.977      0.000      0.000
REMARK INTER + INTRA:          -8.517
REMARK INTER:                  -7.232
REMARK INTRA:                  -1.285
REMARK UNBOUND:                -1.285
REMARK SMILES CCCCCCCCCCCCCCCC(=O)[O-]
REMARK SMILES IDX 9 1 10 2 11 3 12 4 13 5 14 6 15 7 16 8 17 9 18 10 8 11 7 12
REMARK SMILES IDX 6 13 5 14 4 15 3 16 2 17 1 18
REMARK H PARENT
REMARK Flexibility Score: inf
ROOT
ATOM      1  C   UNL     1      -0.284  12.537  -4.219  1.00  0.00     0.000 C 
ENDROOT
BRANCH   1   2
ATOM      2  C   UNL     1       0.344  11.826  -3.004  1.00  0.00     0.000 C 
BRANCH   2   3
ATOM      3  C   UNL     1       1.537  10.904  -3.328  1.00  0.00     0.000 C 
BRANCH   3   4
ATOM      4  C   UNL     1       1.994   9.996  -2.171  1.00  0.00     0.000 C 
BRANCH   4   5
ATOM      5  C   UNL     1       1.040  10.042  -0.966  1.00  0.00     0.000 C 
BRANCH   5   6
ATOM      6  C   UNL     1       0.980   8.703  -0.213  1.00  0.00     0.006 C 
BRANCH   6   7
ATOM      7  C   UNL     1       2.244   7.857  -0.412  1.00  0.00     0.053 C 
BRANCH   7   8
ATOM      8  C   UNL     1       2.970   7.683   0.885  1.00  0.00     0.041 C 
ATOM      9  O   UNL     1       3.881   8.486   1.213  1.00  0.00    -0.550 OA
ATOM     10  O   UNL     1       2.657   6.617   1.722  1.00  0.00    -0.550 OA
ENDBRANCH   7   8
ENDBRANCH   6   7
ENDBRANCH   5   6
ENDBRANCH   4   5
ENDBRANCH   3   4
ENDBRANCH   2   3
ENDBRANCH   1   2
BRANCH   1  11
ATOM     11  C   UNL     1      -1.677  12.022  -4.623  1.00  0.00     0.000 C 
BRANCH  11  12
ATOM     12  C   UNL     1      -2.745  13.129  -4.632  1.00  0.00    -0.000 C 
BRANCH  12  13
ATOM     13  C   UNL     1      -2.388  14.275  -5.604  1.00  0.00    -0.000 C 
BRANCH  13  14
ATOM     14  C   UNL     1      -2.180  15.632  -4.905  1.00  0.00    -0.000 C 
BRANCH  14  15
ATOM     15  C   UNL     1      -0.738  16.167  -4.954  1.00  0.00    -0.000 C 
BRANCH  15  16
ATOM     16  C   UNL     1      -0.030  16.248  -3.587  1.00  0.00    -0.000 C 
BRANCH  16  17
ATOM     17  C   UNL     1      -0.935  15.870  -2.397  1.00  0.00    -0.003 C 
ATOM     18  C   UNL     1      -0.177  15.846  -1.070  1.00  0.00     0.004 C 
ENDBRANCH  16  17
ENDBRANCH  15  16
ENDBRANCH  14  15
ENDBRANCH  13  14
ENDBRANCH  12  13
ENDBRANCH  11  12
ENDBRANCH   1  11
TORSDOF 14
ENDMDL
MODEL 2
REMARK VINA RESULT:    -3.953      3.132      7.475
REMARK INTER + INTRA:          -8.473
REMARK INTER:                  -7.237
REMARK INTRA:                  -1.236
REMARK UNBOUND:                -1.285
REMARK SMILES CCCCCCCCCCCCCCCC(=O)[O-]
REMARK SMILES IDX 9 1 10 2 11 3 12 4 13 5 14 6 15 7 16 8 17 9 18 10 8 11 7 12
REMARK SMILES IDX 6 13 5 14 4 15 3 16 2 17 1 18
REMARK H PARENT
REMARK Flexibility Score: inf
ROOT
ATOM      1  C   UNL     1      -1.757  11.683  -4.371  1.00  0.00     0.000 C 
ENDROOT
BRANCH   1   2
ATOM      2  C   UNL     1      -2.770  12.504  -5.194  1.00  0.00     0.000 C 
BRANCH   2   3
ATOM      3  C   UNL     1      -3.073  13.912  -4.644  1.00  0.00     0.000 C 
BRANCH   3   4
ATOM      4  C   UNL     1      -2.790  15.069  -5.620  1.00  0.00     0.000 C 
BRANCH   4   5
ATOM      5  C   UNL     1      -1.385  15.669  -5.443  1.00  0.00     0.000 C 
BRANCH   5   6
ATOM      6  C   UNL     1      -1.280  16.561  -4.195  1.00  0.00     0.006 C 
BRANCH   6   7
ATOM      7  C   UNL     1      -0.171  16.107  -3.238  1.00  0.00     0.053 C 
BRANCH   7   8
ATOM      8  C   UNL     1      -0.715  15.912  -1.858  1.00  0.00     0.041 C 
ATOM      9  O   UNL     1      -1.957  15.939  -1.658  1.00  0.00    -0.550 OA
ATOM     10  O   UNL     1       0.151  15.728  -0.785  1.00  0.00    -0.550 OA
ENDBRANCH   7   8
ENDBRANCH   6   7
ENDBRANCH   5   6
ENDBRANCH   4   5
ENDBRANCH   3   4
ENDBRANCH   2   3
ENDBRANCH   1   2
BRANCH   1  11
ATOM     11  C   UNL     1      -0.365  12.323  -4.229  1.00  0.00     0.000 C 
BRANCH  11  12
ATOM     12  C   UNL     1       0.347  11.927  -2.924  1.00  0.00    -0.000 C 
BRANCH  12  13
ATOM     13  C   UNL     1       1.500  10.930  -3.169  1.00  0.00    -0.000 C 
BRANCH  13  14
ATOM     14  C   UNL     1       1.763   9.989  -1.978  1.00  0.00    -0.000 C 
BRANCH  14  15
ATOM     15  C   UNL     1       0.542   9.729  -1.079  1.00  0.00    -0.000 C 
BRANCH  15  16
ATOM     16  C   UNL     1       0.872   9.164   0.316  1.00  0.00    -0.000 C 
BRANCH  16  17
ATOM     17  C   UNL     1       2.121   8.259   0.339  1.00  0.00    -0.003 C 
ATOM     18  C   UNL     1       1.907   6.987   1.158  1.00  0.00     0.004 C 
ENDBRANCH  16  17
ENDBRANCH  15  16
ENDBRANCH  14  15
ENDBRANCH  13  14
ENDBRANCH  12  13
ENDBRANCH  11  12
ENDBRANCH   1  11
TORSDOF 14
ENDMDL
MODEL 3
REMARK VINA RESULT:    -3.932      1.070      1.566
REMARK INTER + INTRA:          -8.435
REMARK INTER:                  -7.265
REMARK INTRA:                  -1.170
REMARK UNBOUND:                -1.285
REMARK SMILES CCCCCCCCCCCCCCCC(=O)[O-]
REMARK SMILES IDX 9 1 10 2 11 3 12 4 13 5 14 6 15 7 16 8 17 9 18 10 8 11 7 12
REMARK SMILES IDX 6 13 5 14 4 15 3 16 2 17 1 18
REMARK H PARENT
REMARK Flexibility Score: inf
ROOT
ATOM      1  C   UNL     1      -1.715  11.727  -4.282  1.00  0.00     0.000 C 
ENDROOT
BRANCH   1   2
ATOM      2  C   UNL     1      -0.297  12.261  -3.993  1.00  0.00     0.000 C 
BRANCH   2   3
ATOM      3  C   UNL     1       0.547  11.396  -3.035  1.00  0.00     0.000 C 
BRANCH   3   4
ATOM      4  C   UNL     1       1.891  10.911  -3.607  1.00  0.00     0.000 C 
BRANCH   4   5
ATOM      5  C   UNL     1       2.556   9.832  -2.735  1.00  0.00     0.000 C 
BRANCH   5   6
ATOM      6  C   UNL     1       1.967   9.778  -1.316  1.00  0.00     0.006 C 
BRANCH   6   7
ATOM      7  C   UNL     1       2.467   8.569  -0.516  1.00  0.00     0.053 C 
BRANCH   7   8
ATOM      8  C   UNL     1       1.415   8.099   0.439  1.00  0.00     0.041 C 
ATOM      9  O   UNL     1       1.557   7.009   1.052  1.00  0.00    -0.550 OA
ATOM     10  O   UNL     1       0.262   8.853   0.633  1.00  0.00    -0.550 OA
ENDBRANCH   7   8
ENDBRANCH   6   7
ENDBRANCH   5   6
ENDBRANCH   4   5
ENDBRANCH   3   4
ENDBRANCH   2   3
ENDBRANCH   1   2
BRANCH   1  11
ATOM     11  C   UNL     1      -2.555  12.599  -5.233  1.00  0.00     0.000 C 
BRANCH  11  12
ATOM     12  C   UNL     1      -2.977  13.937  -4.603  1.00  0.00    -0.000 C 
BRANCH  12  13
ATOM     13  C   UNL     1      -2.939  15.097  -5.621  1.00  0.00    -0.000 C 
BRANCH  13  14
ATOM     14  C   UNL     1      -1.965  16.226  -5.233  1.00  0.00    -0.000 C 
BRANCH  14  15
ATOM     15  C   UNL     1      -0.558  15.752  -4.830  1.00  0.00    -0.000 C 
BRANCH  15  16
ATOM     16  C   UNL     1      -0.043  16.316  -3.491  1.00  0.00    -0.000 C 
BRANCH  16  17
ATOM     17  C   UNL     1      -0.882  15.882  -2.272  1.00  0.00    -0.003 C 
ATOM     18  C   UNL     1      -0.070  15.869  -0.977  1.00  0.00     0.004 C 
ENDBRANCH  16  17
ENDBRANCH  15  16
ENDBRANCH  14  15
ENDBRANCH  13  14
ENDBRANCH  12  13
ENDBRANCH  11  12
ENDBRANCH   1  11
TORSDOF 14
ENDMDL
MODEL 4
REMARK VINA RESULT:    -3.850      3.352      7.512
REMARK INTER + INTRA:          -8.285
REMARK INTER:                  -7.251
REMARK INTRA:                  -1.035
REMARK UNBOUND:                -1.285
REMARK SMILES CCCCCCCCCCCCCCCC(=O)[O-]
REMARK SMILES IDX 9 1 10 2 11 3 12 4 13 5 14 6 15 7 16 8 17 9 18 10 8 11 7 12
REMARK SMILES IDX 6 13 5 14 4 15 3 16 2 17 1 18
REMARK H PARENT
REMARK Flexibility Score: inf
ROOT
ATOM      1  C   UNL     1      -1.500  11.446  -4.460  1.00  0.00     0.000 C 
ENDROOT
BRANCH   1   2
ATOM      2  C   UNL     1      -2.990  11.809  -4.620  1.00  0.00     0.000 C 
BRANCH   2   3
ATOM      3  C   UNL     1      -3.288  12.914  -5.653  1.00  0.00     0.000 C 
BRANCH   3   4
ATOM      4  C   UNL     1      -3.475  14.325  -5.065  1.00  0.00     0.000 C 
BRANCH   4   5
ATOM      5  C   UNL     1      -2.618  15.386  -5.776  1.00  0.00     0.000 C 
BRANCH   5   6
ATOM      6  C   UNL     1      -1.921  16.336  -4.789  1.00  0.00     0.006 C 
BRANCH   6   7
ATOM      7  C   UNL     1      -1.943  15.809  -3.348  1.00  0.00     0.053 C 
BRANCH   7   8
ATOM      8  C   UNL     1      -0.629  16.062  -2.677  1.00  0.00     0.041 C 
ATOM      9  O   UNL     1       0.376  16.394  -3.358  1.00  0.00    -0.550 OA
ATOM     10  O   UNL     1      -0.507  15.905  -1.301  1.00  0.00    -0.550 OA
ENDBRANCH   7   8
ENDBRANCH   6   7
ENDBRANCH   5   6
ENDBRANCH   4   5
ENDBRANCH   3   4
ENDBRANCH   2   3
ENDBRANCH   1   2
BRANCH   1  11
ATOM     11  C   UNL     1      -0.567  12.640  -4.191  1.00  0.00     0.000 C 
BRANCH  11  12
ATOM     12  C   UNL     1       0.870  12.212  -3.848  1.00  0.00    -0.000 C 
BRANCH  12  13
ATOM     13  C   UNL     1       0.904  10.993  -2.900  1.00  0.00    -0.000 C 
BRANCH  13  14
ATOM     14  C   UNL     1       2.250  10.243  -2.911  1.00  0.00    -0.000 C 
BRANCH  14  15
ATOM     15  C   UNL     1       2.466   9.291  -1.722  1.00  0.00    -0.000 C 
BRANCH  15  16
ATOM     16  C   UNL     1       1.479   9.479  -0.553  1.00  0.00    -0.000 C 
BRANCH  16  17
ATOM     17  C   UNL     1       0.892   8.157  -0.019  1.00  0.00    -0.003 C 
ATOM     18  C   UNL     1       1.850   7.429   0.922  1.00  0.00     0.004 C 
ENDBRANCH  16  17
ENDBRANCH  15  16
ENDBRANCH  14  15
ENDBRANCH  13  14
ENDBRANCH  12  13
ENDBRANCH  11  12
ENDBRANCH   1  11
TORSDOF 14
ENDMDL
MODEL 5
REMARK VINA RESULT:    -3.615      3.882      8.248
REMARK INTER + INTRA:          -7.859
REMARK INTER:                  -6.948
REMARK INTRA:                  -0.911
REMARK UNBOUND:                -1.285
REMARK SMILES CCCCCCCCCCCCCCCC(=O)[O-]
REMARK SMILES IDX 9 1 10 2 11 3 12 4 13 5 14 6 15 7 16 8 17 9 18 10 8 11 7 12
REMARK SMILES IDX 6 13 5 14 4 15 3 16 2 17 1 18
REMARK H PARENT
REMARK Flexibility Score: inf
ROOT
ATOM      1  C   UNL     1      -1.374  11.507  -3.965  1.00  0.00     0.000 C 
ENDROOT
BRANCH   1   2
ATOM      2  C   UNL     1      -2.293  12.089  -5.058  1.00  0.00     0.000 C 
BRANCH   2   3
ATOM      3  C   UNL     1      -3.172  13.275  -4.612  1.00  0.00     0.000 C 
BRANCH   3   4
ATOM      4  C   UNL     1      -3.198  14.469  -5.583  1.00  0.00     0.000 C 
BRANCH   4   5
ATOM      5  C   UNL     1      -1.921  15.323  -5.514  1.00  0.00     0.000 C 
BRANCH   5   6
ATOM      6  C   UNL     1      -1.727  15.979  -4.137  1.00  0.00     0.006 C 
BRANCH   6   7
ATOM      7  C   UNL     1      -0.269  15.932  -3.661  1.00  0.00     0.053 C 
BRANCH   7   8
ATOM      8  C   UNL     1       0.472  17.148  -4.118  1.00  0.00     0.041 C 
ATOM      9  O   UNL     1      -0.159  18.166  -4.505  1.00  0.00    -0.550 OA
ATOM     10  O   UNL     1       1.862  17.150  -4.143  1.00  0.00    -0.550 OA
ENDBRANCH   7   8
ENDBRANCH   6   7
ENDBRANCH   5   6
ENDBRANCH   4   5
ENDBRANCH   3   4
ENDBRANCH   2   3
ENDBRANCH   1   2
BRANCH   1  11
ATOM     11  C   UNL     1       0.012  12.169  -3.862  1.00  0.00     0.000 C 
BRANCH  11  12
ATOM     12  C   UNL     1       1.072  11.245  -3.240  1.00  0.00    -0.000 C 
BRANCH  12  13
ATOM     13  C   UNL     1       0.717  10.842  -1.792  1.00  0.00    -0.000 C 
BRANCH  13  14
ATOM     14  C   UNL     1       1.618   9.729  -1.224  1.00  0.00    -0.000 C 
BRANCH  14  15
ATOM     15  C   UNL     1       1.123   9.107   0.093  1.00  0.00    -0.000 C 
BRANCH  15  16
ATOM     16  C   UNL     1       1.458   7.614   0.272  1.00  0.00    -0.000 C 
BRANCH  16  17
ATOM     17  C   UNL     1       2.936   7.349   0.627  1.00  0.00    -0.003 C 
ATOM     18  C   UNL     1       3.092   6.350   1.774  1.00  0.00     0.004 C 
ENDBRANCH  16  17
ENDBRANCH  15  16
ENDBRANCH  14  15
ENDBRANCH  13  14
ENDBRANCH  12  13
ENDBRANCH  11  12
ENDBRANCH   1  11
TORSDOF 14
ENDMDL
MODEL 6
REMARK VINA RESULT:    -3.559      3.426      8.436
REMARK INTER + INTRA:          -7.758
REMARK INTER:                  -6.975
REMARK INTRA:                  -0.783
REMARK UNBOUND:                -1.285
REMARK SMILES CCCCCCCCCCCCCCCC(=O)[O-]
REMARK SMILES IDX 9 1 10 2 11 3 12 4 13 5 14 6 15 7 16 8 17 9 18 10 8 11 7 12
REMARK SMILES IDX 6 13 5 14 4 15 3 16 2 17 1 18
REMARK H PARENT
REMARK Flexibility Score: inf
ROOT
ATOM      1  C   UNL     1       0.420  11.510  -2.987  1.00  0.00     0.000 C 
ENDROOT
BRANCH   1   2
ATOM      2  C   UNL     1      -0.288  12.137  -4.205  1.00  0.00     0.000 C 
BRANCH   2   3
ATOM      3  C   UNL     1      -1.765  11.734  -4.384  1.00  0.00     0.000 C 
BRANCH   3   4
ATOM      4  C   UNL     1      -2.584  12.651  -5.311  1.00  0.00     0.000 C 
BRANCH   4   5
ATOM      5  C   UNL     1      -2.984  13.975  -4.639  1.00  0.00     0.000 C 
BRANCH   5   6
ATOM      6  C   UNL     1      -2.508  15.203  -5.430  1.00  0.00     0.006 C 
BRANCH   6   7
ATOM      7  C   UNL     1      -2.001  16.330  -4.521  1.00  0.00     0.053 C 
BRANCH   7   8
ATOM      8  C   UNL     1      -0.592  16.066  -4.092  1.00  0.00     0.041 C 
ATOM      9  O   UNL     1       0.369  16.427  -4.820  1.00  0.00    -0.550 OA
ATOM     10  O   UNL     1      -0.339  15.397  -2.900  1.00  0.00    -0.550 OA
ENDBRANCH   7   8
ENDBRANCH   6   7
ENDBRANCH   5   6
ENDBRANCH   4   5
ENDBRANCH   3   4
ENDBRANCH   2   3
ENDBRANCH   1   2
BRANCH   1  11
ATOM     11  C   UNL     1       1.803  10.901  -3.282  1.00  0.00     0.000 C 
BRANCH  11  12
ATOM     12  C   UNL     1       2.228   9.849  -2.244  1.00  0.00    -0.000 C 
BRANCH  12  13
ATOM     13  C   UNL     1       1.229   9.752  -1.070  1.00  0.00    -0.000 C 
BRANCH  13  14
ATOM     14  C   UNL     1       1.830   9.113   0.198  1.00  0.00    -0.000 C 
BRANCH  14  15
ATOM     15  C   UNL     1       3.147   8.352  -0.027  1.00  0.00    -0.000 C 
BRANCH  15  16
ATOM     16  C   UNL     1       3.779   7.760   1.249  1.00  0.00    -0.000 C 
BRANCH  16  17
ATOM     17  C   UNL     1       3.099   6.462   1.732  1.00  0.00    -0.003 C 
ATOM     18  C   UNL     1       4.055   5.270   1.741  1.00  0.00     0.004 C 
ENDBRANCH  16  17
ENDBRANCH  15  16
ENDBRANCH  14  15
ENDBRANCH  13  14
ENDBRANCH  12  13
ENDBRANCH  11  12
ENDBRANCH   1  11
TORSDOF 14
ENDMDL
MODEL 7
REMARK VINA RESULT:    -3.557      1.490      2.947
REMARK INTER + INTRA:          -7.753
REMARK INTER:                  -6.499
REMARK INTRA:                  -1.253
REMARK UNBOUND:                -1.285
REMARK SMILES CCCCCCCCCCCCCCCC(=O)[O-]
REMARK SMILES IDX 9 1 10 2 11 3 12 4 13 5 14 6 15 7 16 8 17 9 18 10 8 11 7 12
REMARK SMILES IDX 6 13 5 14 4 15 3 16 2 17 1 18
REMARK H PARENT
REMARK Flexibility Score: inf
ROOT
ATOM      1  C   UNL     1       0.125  12.451  -3.848  1.00  0.00     0.000 C 
ENDROOT
BRANCH   1   2
ATOM      2  C   UNL     1       0.834  11.353  -3.030  1.00  0.00     0.000 C 
BRANCH   2   3
ATOM      3  C   UNL     1       2.283  11.049  -3.459  1.00  0.00     0.000 C 
BRANCH   3   4
ATOM      4  C   UNL     1       2.752   9.605  -3.200  1.00  0.00     0.000 C 
BRANCH   4   5
ATOM      5  C   UNL     1       3.873   9.520  -2.151  1.00  0.00     0.000 C 
BRANCH   5   6
ATOM      6  C   UNL     1       3.658   8.372  -1.153  1.00  0.00     0.006 C 
BRANCH   6   7
ATOM      7  C   UNL     1       3.100   8.856   0.192  1.00  0.00     0.053 C 
BRANCH   7   8
ATOM      8  C   UNL     1       1.681   8.412   0.362  1.00  0.00     0.041 C 
ATOM      9  O   UNL     1       0.747   9.059  -0.178  1.00  0.00    -0.550 OA
ATOM     10  O   UNL     1       1.387   7.298   1.140  1.00  0.00    -0.550 OA
ENDBRANCH   7   8
ENDBRANCH   6   7
ENDBRANCH   5   6
ENDBRANCH   4   5
ENDBRANCH   3   4
ENDBRANCH   2   3
ENDBRANCH   1   2
BRANCH   1  11
ATOM     11  C   UNL     1       1.064  13.381  -4.637  1.00  0.00     0.000 C 
BRANCH  11  12
ATOM     12  C   UNL     1       0.419  14.736  -4.975  1.00  0.00    -0.000 C 
BRANCH  12  13
ATOM     13  C   UNL     1      -0.450  15.273  -3.818  1.00  0.00    -0.000 C 
BRANCH  13  14
ATOM     14  C   UNL     1      -1.725  15.997  -4.290  1.00  0.00    -0.000 C 
BRANCH  14  15
ATOM     15  C   UNL     1      -2.594  15.196  -5.275  1.00  0.00    -0.000 C 
BRANCH  15  16
ATOM     16  C   UNL     1      -3.303  13.970  -4.666  1.00  0.00    -0.000 C 
BRANCH  16  17
ATOM     17  C   UNL     1      -3.063  12.663  -5.449  1.00  0.00    -0.003 C 
ATOM     18  C   UNL     1      -3.047  11.433  -4.542  1.00  0.00     0.004 C 
ENDBRANCH  16  17
ENDBRANCH  15  16
ENDBRANCH  14  15
ENDBRANCH  13  14
ENDBRANCH  12  13
ENDBRANCH  11  12
ENDBRANCH   1  11
TORSDOF 14
ENDMDL
MODEL 8
REMARK VINA RESULT:    -3.534      1.255      2.363
REMARK INTER + INTRA:          -7.711
REMARK INTER:                  -6.468
REMARK INTRA:                  -1.243
REMARK UNBOUND:                -1.285
REMARK SMILES CCCCCCCCCCCCCCCC(=O)[O-]
REMARK SMILES IDX 9 1 10 2 11 3 12 4 13 5 14 6 15 7 16 8 17 9 18 10 8 11 7 12
REMARK SMILES IDX 6 13 5 14 4 15 3 16 2 17 1 18
REMARK H PARENT
REMARK Flexibility Score: inf
ROOT
ATOM      1  C   UNL     1      -2.678  12.810  -4.730  1.00  0.00     0.000 C 
ENDROOT
BRANCH   1   2
ATOM      2  C   UNL     1      -1.528  11.805  -4.514  1.00  0.00     0.000 C 
BRANCH   2   3
ATOM      3  C   UNL     1      -0.232  12.406  -3.934  1.00  0.00     0.000 C 
BRANCH   3   4
ATOM      4  C   UNL     1       0.781  11.378  -3.399  1.00  0.00     0.000 C 
BRANCH   4   5
ATOM      5  C   UNL     1       0.535  11.008  -1.926  1.00  0.00     0.000 C 
BRANCH   5   6
ATOM      6  C   UNL     1       1.455   9.877  -1.442  1.00  0.00     0.006 C 
BRANCH   6   7
ATOM      7  C   UNL     1       0.922   9.180  -0.184  1.00  0.00     0.053 C 
BRANCH   7   8
ATOM      8  C   UNL     1       1.918   8.188   0.329  1.00  0.00     0.041 C 
ATOM      9  O   UNL     1       3.091   8.176  -0.127  1.00  0.00    -0.550 OA
ATOM     10  O   UNL     1       1.543   7.257   1.291  1.00  0.00    -0.550 OA
ENDBRANCH   7   8
ENDBRANCH   6   7
ENDBRANCH   5   6
ENDBRANCH   4   5
ENDBRANCH   3   4
ENDBRANCH   2   3
ENDBRANCH   1   2
BRANCH   1  11
ATOM     11  C   UNL     1      -2.509  13.736  -5.948  1.00  0.00     0.000 C 
BRANCH  11  12
ATOM     12  C   UNL     1      -3.064  15.150  -5.707  1.00  0.00    -0.000 C 
BRANCH  12  13
ATOM     13  C   UNL     1      -1.948  16.170  -5.395  1.00  0.00    -0.000 C 
BRANCH  13  14
ATOM     14  C   UNL     1      -1.514  16.176  -3.917  1.00  0.00    -0.000 C 
BRANCH  14  15
ATOM     15  C   UNL     1      -0.001  16.017  -3.688  1.00  0.00    -0.000 C 
BRANCH  15  16
ATOM     16  C   UNL     1       0.873  17.087  -4.369  1.00  0.00    -0.000 C 
BRANCH  16  17
ATOM     17  C   UNL     1       1.713  16.546  -5.545  1.00  0.00    -0.003 C 
ATOM     18  C   UNL     1       1.585  15.032  -5.707  1.00  0.00     0.004 C 
ENDBRANCH  16  17
ENDBRANCH  15  16
ENDBRANCH  14  15
ENDBRANCH  13  14
ENDBRANCH  12  13
ENDBRANCH  11  12
ENDBRANCH   1  11
TORSDOF 14
ENDMDL
MODEL 9
REMARK VINA RESULT:    -3.345      3.958      7.758
REMARK INTER + INTRA:          -7.369
REMARK INTER:                  -6.385
REMARK INTRA:                  -0.984
REMARK UNBOUND:                -1.285
REMARK SMILES CCCCCCCCCCCCCCCC(=O)[O-]
REMARK SMILES IDX 9 1 10 2 11 3 12 4 13 5 14 6 15 7 16 8 17 9 18 10 8 11 7 12
REMARK SMILES IDX 6 13 5 14 4 15 3 16 2 17 1 18
REMARK H PARENT
REMARK Flexibility Score: inf
ROOT
ATOM      1  C   UNL     1      -3.084  13.902  -4.454  1.00  0.00     0.000 C 
ENDROOT
BRANCH   1   2
ATOM      2  C   UNL     1      -3.316  14.757  -5.715  1.00  0.00     0.000 C 
BRANCH   2   3
ATOM      3  C   UNL     1      -2.146  15.683  -6.105  1.00  0.00     0.000 C 
BRANCH   3   4
ATOM      4  C   UNL     1      -1.922  16.882  -5.166  1.00  0.00     0.000 C 
BRANCH   4   5
ATOM      5  C   UNL     1      -1.516  18.161  -5.919  1.00  0.00     0.000 C 
BRANCH   5   6
ATOM      6  C   UNL     1      -0.020  18.479  -5.774  1.00  0.00     0.006 C 
BRANCH   6   7
ATOM      7  C   UNL     1       0.585  17.899  -4.488  1.00  0.00     0.053 C 
BRANCH   7   8
ATOM      8  C   UNL     1       1.730  16.992  -4.809  1.00  0.00     0.041 C 
ATOM      9  O   UNL     1       1.517  15.793  -5.129  1.00  0.00    -0.550 OA
ATOM     10  O   UNL     1       3.036  17.462  -4.729  1.00  0.00    -0.550 OA
ENDBRANCH   7   8
ENDBRANCH   6   7
ENDBRANCH   5   6
ENDBRANCH   4   5
ENDBRANCH   3   4
ENDBRANCH   2   3
ENDBRANCH   1   2
BRANCH   1  11
ATOM     11  C   UNL     1      -3.127  12.380  -4.684  1.00  0.00     0.000 C 
BRANCH  11  12
ATOM     12  C   UNL     1      -1.738  11.724  -4.616  1.00  0.00    -0.000 C 
BRANCH  12  13
ATOM     13  C   UNL     1      -0.648  12.714  -4.152  1.00  0.00    -0.000 C 
BRANCH  13  14
ATOM     14  C   UNL     1       0.708  12.043  -3.857  1.00  0.00    -0.000 C 
BRANCH  14  15
ATOM     15  C   UNL     1       0.678  10.999  -2.728  1.00  0.00    -0.000 C 
BRANCH  15  16
ATOM     16  C   UNL     1       1.992  10.218  -2.532  1.00  0.00    -0.000 C 
BRANCH  16  17
ATOM     17  C   UNL     1       2.019   9.361  -1.249  1.00  0.00    -0.003 C 
ATOM     18  C   UNL     1       0.720   9.463  -0.451  1.00  0.00     0.004 C 
ENDBRANCH  16  17
ENDBRANCH  15  16
ENDBRANCH  14  15
ENDBRANCH  13  14
ENDBRANCH  12  13
ENDBRANCH  11  12
ENDBRANCH   1  11
TORSDOF 14
ENDMDL
