MODEL 1
REMARK VINA RESULT:    -8.060      0.000      0.000
REMARK INTER + INTRA:         -10.904
REMARK INTER:                 -10.180
REMARK INTRA:                  -0.724
REMARK UNBOUND:                -0.724
REMARK SMILES CC(C)[C@@H](C)C=C[C@H](C)[C@@H]1CC[C@@H]2C3=CC=C4C[C@H](O)CC[C@]4(C)[C@@H]3CC[C@]21C
REMARK SMILES IDX 8 1 9 2 7 3 6 4 4 5 5 6 2 7 1 8 3 9 10 10 11 11 28 12 12 13
REMARK SMILES IDX 13 14 27 15 29 16 14 17 26 18 25 19 15 20 23 21 16 22 17 23
REMARK SMILES IDX 22 24 24 25 18 26 21 27 19 28 20 29
REMARK H PARENT 20 30
REMARK Flexibility Score: inf
ROOT
ATOM      1  C   UNL     1     116.854 119.853 121.491  1.00  0.00     0.012 C 
ATOM      2  C   UNL     1     115.852 118.730 121.189  1.00  0.00     0.012 C 
ENDROOT
BRANCH   1   3
ATOM      3  C   UNL     1     118.280 119.555 121.021  1.00  0.00    -0.028 C 
ATOM      4  C   UNL     1     118.729 119.191 119.794  1.00  0.00    -0.028 C 
BRANCH   4   5
ATOM      5  C   UNL     1     117.906 118.961 118.539  1.00  0.00     0.011 C 
ATOM      6  C   UNL     1     117.756 117.442 118.327  1.00  0.00     0.012 C 
BRANCH   5   7
ATOM      7  C   UNL     1     118.586 119.620 117.295  1.00  0.00    -0.011 C 
ATOM      8  C   UNL     1     119.999 119.060 117.051  1.00  0.00     0.008 C 
ATOM      9  C   UNL     1     117.758 119.445 116.011  1.00  0.00     0.008 C 
ENDBRANCH   5   7
ENDBRANCH   4   5
ENDBRANCH   1   3
BRANCH   1  10
ATOM     10  C   UNL     1     116.284 121.275 121.153  1.00  0.00     0.002 C 
ATOM     11  C   UNL     1     116.935 122.036 119.973  1.00  0.00     0.005 C 
ATOM     12  C   UNL     1     116.293 122.307 122.312  1.00  0.00    -0.023 C 
ATOM     13  C   UNL     1     116.795 123.542 120.276  1.00  0.00     0.009 C 
ATOM     14  C   UNL     1     115.939 123.583 121.536  1.00  0.00     0.021 C 
ATOM     15  C   UNL     1     115.201 122.092 123.397  1.00  0.00     0.008 C 
ATOM     16  C   UNL     1     117.700 122.382 122.983  1.00  0.00     0.012 C 
ATOM     17  C   UNL     1     115.911 124.765 122.469  1.00  0.00    -0.063 C 
ATOM     18  C   UNL     1     115.038 123.333 124.324  1.00  0.00     0.009 C 
ATOM     19  C   UNL     1     114.827 124.663 123.533  1.00  0.00     0.025 C 
ATOM     20  C   UNL     1     116.956 125.592 122.622  1.00  0.00    -0.000 C 
ATOM     21  C   UNL     1     114.699 125.989 124.389  1.00  0.00    -0.005 C 
ATOM     22  C   UNL     1     117.065 126.476 123.790  1.00  0.00    -0.000 C 
ATOM     23  C   UNL     1     116.069 126.603 124.680  1.00  0.00    -0.061 C 
ATOM     24  C   UNL     1     113.935 125.735 125.725  1.00  0.00     0.014 C 
ATOM     25  C   UNL     1     113.903 127.017 123.542  1.00  0.00     0.017 C 
ATOM     26  C   UNL     1     116.210 127.656 125.762  1.00  0.00     0.063 C 
ATOM     27  C   UNL     1     113.972 126.931 126.686  1.00  0.00     0.033 C 
ATOM     28  C   UNL     1     115.420 127.311 127.029  1.00  0.00     0.118 C 
BRANCH  28  29
ATOM     29  O   UNL     1     116.062 126.262 127.709  1.00  0.00    -0.393 OA
ATOM     30  H   UNL     1     115.529 126.080 128.526  1.00  0.00     0.210 HD
ENDBRANCH  28  29
ENDBRANCH   1  10
TORSDOF 5
ENDMDL
MODEL 2
REMARK VINA RESULT:    -7.608      1.339      2.390
REMARK INTER + INTRA:         -10.334
REMARK INTER:                  -8.865
REMARK INTRA:                  -1.469
REMARK UNBOUND:                -0.724
REMARK SMILES CC(C)[C@@H](C)C=C[C@H](C)[C@@H]1CC[C@@H]2C3=CC=C4C[C@H](O)CC[C@]4(C)[C@@H]3CC[C@]21C
REMARK SMILES IDX 8 1 9 2 7 3 6 4 4 5 5 6 2 7 1 8 3 9 10 10 11 11 28 12 12 13
REMARK SMILES IDX 13 14 27 15 29 16 14 17 26 18 25 19 15 20 23 21 16 22 17 23
REMARK SMILES IDX 22 24 24 25 18 26 21 27 19 28 20 29
REMARK H PARENT 20 30
REMARK Flexibility Score: inf
ROOT
ATOM      1  C   UNL     1     116.626 120.242 121.132  1.00  0.00     0.012 C 
ATOM      2  C   UNL     1     115.510 119.241 121.462  1.00  0.00     0.012 C 
ENDROOT
BRANCH   1   3
ATOM      3  C   UNL     1     117.646 119.722 120.116  1.00  0.00    -0.028 C 
ATOM      4  C   UNL     1     118.982 119.940 120.042  1.00  0.00    -0.028 C 
BRANCH   4   5
ATOM      5  C   UNL     1     119.833 120.796 120.963  1.00  0.00     0.011 C 
ATOM      6  C   UNL     1     120.833 121.591 120.103  1.00  0.00     0.012 C 
BRANCH   5   7
ATOM      7  C   UNL     1     120.592 119.913 122.006  1.00  0.00    -0.011 C 
ATOM      8  C   UNL     1     121.890 120.586 122.489  1.00  0.00     0.008 C 
ATOM      9  C   UNL     1     119.727 119.575 123.231  1.00  0.00     0.008 C 
ENDBRANCH   5   7
ENDBRANCH   4   5
ENDBRANCH   1   3
BRANCH   1  10
ATOM     10  C   UNL     1     116.081 121.694 120.903  1.00  0.00     0.002 C 
ATOM     11  C   UNL     1     116.725 122.520 119.762  1.00  0.00     0.005 C 
ATOM     12  C   UNL     1     116.137 122.646 122.128  1.00  0.00    -0.023 C 
ATOM     13  C   UNL     1     116.625 124.005 120.169  1.00  0.00     0.009 C 
ATOM     14  C   UNL     1     115.796 123.978 121.447  1.00  0.00     0.021 C 
ATOM     15  C   UNL     1     115.064 122.381 123.220  1.00  0.00     0.008 C 
ATOM     16  C   UNL     1     117.560 122.646 122.771  1.00  0.00     0.012 C 
ATOM     17  C   UNL     1     115.814 125.095 122.458  1.00  0.00    -0.063 C 
ATOM     18  C   UNL     1     114.947 123.560 124.232  1.00  0.00     0.009 C 
ATOM     19  C   UNL     1     114.751 124.944 123.537  1.00  0.00     0.025 C 
ATOM     20  C   UNL     1     116.880 125.888 122.643  1.00  0.00    -0.000 C 
ATOM     21  C   UNL     1     114.670 126.212 124.482  1.00  0.00    -0.005 C 
ATOM     22  C   UNL     1     117.034 126.688 123.865  1.00  0.00    -0.000 C 
ATOM     23  C   UNL     1     116.059 126.776 124.783  1.00  0.00    -0.061 C 
ATOM     24  C   UNL     1     113.929 125.884 125.815  1.00  0.00     0.014 C 
ATOM     25  C   UNL     1     113.880 127.312 123.724  1.00  0.00     0.017 C 
ATOM     26  C   UNL     1     116.246 127.750 125.930  1.00  0.00     0.063 C 
ATOM     27  C   UNL     1     114.012 127.012 126.853  1.00  0.00     0.033 C 
ATOM     28  C   UNL     1     115.475 127.337 127.188  1.00  0.00     0.118 C 
BRANCH  28  29
ATOM     29  O   UNL     1     116.108 126.231 127.782  1.00  0.00    -0.393 OA
ATOM     30  H   UNL     1     116.678 125.817 127.084  1.00  0.00     0.210 HD
ENDBRANCH  28  29
ENDBRANCH   1  10
TORSDOF 5
ENDMDL
MODEL 3
REMARK VINA RESULT:    -6.925      4.741      9.088
REMARK INTER + INTRA:          -9.471
REMARK INTER:                  -8.025
REMARK INTRA:                  -1.445
REMARK UNBOUND:                -0.724
REMARK SMILES CC(C)[C@@H](C)C=C[C@H](C)[C@@H]1CC[C@@H]2C3=CC=C4C[C@H](O)CC[C@]4(C)[C@@H]3CC[C@]21C
REMARK SMILES IDX 8 1 9 2 7 3 6 4 4 5 5 6 2 7 1 8 3 9 10 10 11 11 28 12 12 13
REMARK SMILES IDX 13 14 27 15 29 16 14 17 26 18 25 19 15 20 23 21 16 22 17 23
REMARK SMILES IDX 22 24 24 25 18 26 21 27 19 28 20 29
REMARK H PARENT 20 30
REMARK Flexibility Score: inf
ROOT
ATOM      1  C   UNL     1     124.726 118.563 115.089  1.00  0.00     0.012 C 
ATOM      2  C   UNL     1     126.202 118.503 115.507  1.00  0.00     0.012 C 
ENDROOT
BRANCH   1   3
ATOM      3  C   UNL     1     124.478 118.169 113.631  1.00  0.00    -0.028 C 
ATOM      4  C   UNL     1     123.980 118.907 112.608  1.00  0.00    -0.028 C 
BRANCH   4   5
ATOM      5  C   UNL     1     123.509 120.350 112.651  1.00  0.00     0.011 C 
ATOM      6  C   UNL     1     122.445 120.548 111.555  1.00  0.00     0.012 C 
BRANCH   5   7
ATOM      7  C   UNL     1     124.704 121.336 112.435  1.00  0.00    -0.011 C 
ATOM      8  C   UNL     1     125.089 122.062 113.737  1.00  0.00     0.008 C 
ATOM      9  C   UNL     1     125.951 120.633 111.876  1.00  0.00     0.008 C 
ENDBRANCH   5   7
ENDBRANCH   4   5
ENDBRANCH   1   3
BRANCH   1  10
ATOM     10  C   UNL     1     123.772 117.931 116.162  1.00  0.00     0.002 C 
ATOM     11  C   UNL     1     122.767 116.860 115.673  1.00  0.00     0.005 C 
ATOM     12  C   UNL     1     122.893 118.927 116.965  1.00  0.00    -0.023 C 
ATOM     13  C   UNL     1     121.537 116.940 116.599  1.00  0.00     0.009 C 
ATOM     14  C   UNL     1     121.950 117.943 117.670  1.00  0.00     0.021 C 
ATOM     15  C   UNL     1     123.642 119.735 118.061  1.00  0.00     0.008 C 
ATOM     16  C   UNL     1     122.138 119.903 116.009  1.00  0.00     0.012 C 
ATOM     17  C   UNL     1     120.955 118.695 118.515  1.00  0.00    -0.063 C 
ATOM     18  C   UNL     1     122.664 120.442 119.046  1.00  0.00     0.009 C 
ATOM     19  C   UNL     1     121.603 119.471 119.653  1.00  0.00     0.025 C 
ATOM     20  C   UNL     1     119.720 118.995 118.086  1.00  0.00    -0.000 C 
ATOM     21  C   UNL     1     120.531 120.107 120.631  1.00  0.00    -0.005 C 
ATOM     22  C   UNL     1     118.920 120.041 118.736  1.00  0.00    -0.000 C 
ATOM     23  C   UNL     1     119.322 120.644 119.866  1.00  0.00    -0.061 C 
ATOM     24  C   UNL     1     121.156 121.240 121.502  1.00  0.00     0.014 C 
ATOM     25  C   UNL     1     120.022 118.977 121.566  1.00  0.00     0.017 C 
ATOM     26  C   UNL     1     118.358 121.595 120.548  1.00  0.00     0.063 C 
ATOM     27  C   UNL     1     120.118 122.033 122.309  1.00  0.00     0.033 C 
ATOM     28  C   UNL     1     119.072 122.666 121.378  1.00  0.00     0.118 C 
BRANCH  28  29
ATOM     29  O   UNL     1     119.674 123.601 120.517  1.00  0.00    -0.393 OA
ATOM     30  H   UNL     1     119.075 124.391 120.488  1.00  0.00     0.210 HD
ENDBRANCH  28  29
ENDBRANCH   1  10
TORSDOF 5
ENDMDL
MODEL 4
REMARK VINA RESULT:    -6.854      4.991      8.542
REMARK INTER + INTRA:          -9.381
REMARK INTER:                  -8.505
REMARK INTRA:                  -0.876
REMARK UNBOUND:                -0.724
REMARK SMILES CC(C)[C@@H](C)C=C[C@H](C)[C@@H]1CC[C@@H]2C3=CC=C4C[C@H](O)CC[C@]4(C)[C@@H]3CC[C@]21C
REMARK SMILES IDX 8 1 9 2 7 3 6 4 4 5 5 6 2 7 1 8 3 9 10 10 11 11 28 12 12 13
REMARK SMILES IDX 13 14 27 15 29 16 14 17 26 18 25 19 15 20 23 21 16 22 17 23
REMARK SMILES IDX 22 24 24 25 18 26 21 27 19 28 20 29
REMARK H PARENT 20 30
REMARK Flexibility Score: inf
ROOT
ATOM      1  C   UNL     1     122.158 118.101 114.503  1.00  0.00     0.012 C 
ATOM      2  C   UNL     1     120.809 118.155 113.772  1.00  0.00     0.012 C 
ENDROOT
BRANCH   1   3
ATOM      3  C   UNL     1     123.368 118.033 113.568  1.00  0.00    -0.028 C 
ATOM      4  C   UNL     1     123.941 119.010 112.822  1.00  0.00    -0.028 C 
BRANCH   4   5
ATOM      5  C   UNL     1     123.504 120.459 112.703  1.00  0.00     0.011 C 
ATOM      6  C   UNL     1     122.514 120.575 111.528  1.00  0.00     0.012 C 
BRANCH   5   7
ATOM      7  C   UNL     1     124.735 121.397 112.473  1.00  0.00    -0.011 C 
ATOM      8  C   UNL     1     125.138 122.139 113.760  1.00  0.00     0.008 C 
ATOM      9  C   UNL     1     125.959 120.638 111.936  1.00  0.00     0.008 C 
ENDBRANCH   5   7
ENDBRANCH   4   5
ENDBRANCH   1   3
BRANCH   1  10
ATOM     10  C   UNL     1     122.240 119.126 115.688  1.00  0.00     0.002 C 
ATOM     11  C   UNL     1     123.605 119.272 116.404  1.00  0.00     0.005 C 
ATOM     12  C   UNL     1     121.233 118.908 116.849  1.00  0.00    -0.023 C 
ATOM     13  C   UNL     1     123.308 119.676 117.863  1.00  0.00     0.009 C 
ATOM     14  C   UNL     1     121.799 119.891 117.882  1.00  0.00     0.021 C 
ATOM     15  C   UNL     1     119.769 119.332 116.542  1.00  0.00     0.008 C 
ATOM     16  C   UNL     1     121.264 117.429 117.346  1.00  0.00     0.012 C 
ATOM     17  C   UNL     1     120.981 119.842 119.146  1.00  0.00    -0.063 C 
ATOM     18  C   UNL     1     118.897 119.418 117.830  1.00  0.00     0.009 C 
ATOM     19  C   UNL     1     119.542 120.299 118.946  1.00  0.00     0.025 C 
ATOM     20  C   UNL     1     121.331 119.101 120.208  1.00  0.00    -0.000 C 
ATOM     21  C   UNL     1     118.752 120.408 120.314  1.00  0.00    -0.005 C 
ATOM     22  C   UNL     1     120.357 118.753 121.250  1.00  0.00    -0.000 C 
ATOM     23  C   UNL     1     119.119 119.270 121.267  1.00  0.00    -0.061 C 
ATOM     24  C   UNL     1     117.210 120.432 120.082  1.00  0.00     0.014 C 
ATOM     25  C   UNL     1     119.179 121.737 120.995  1.00  0.00     0.017 C 
ATOM     26  C   UNL     1     118.240 118.977 122.467  1.00  0.00     0.063 C 
ATOM     27  C   UNL     1     116.396 120.320 121.378  1.00  0.00     0.033 C 
ATOM     28  C   UNL     1     116.746 119.027 122.132  1.00  0.00     0.118 C 
BRANCH  28  29
ATOM     29  O   UNL     1     116.399 117.898 121.371  1.00  0.00    -0.393 OA
ATOM     30  H   UNL     1     115.524 117.578 121.712  1.00  0.00     0.210 HD
ENDBRANCH  28  29
ENDBRANCH   1  10
TORSDOF 5
ENDMDL
MODEL 5
REMARK VINA RESULT:    -6.781      2.623      8.842
REMARK INTER + INTRA:          -9.289
REMARK INTER:                  -8.442
REMARK INTRA:                  -0.846
REMARK UNBOUND:                -0.724
REMARK SMILES CC(C)[C@@H](C)C=C[C@H](C)[C@@H]1CC[C@@H]2C3=CC=C4C[C@H](O)CC[C@]4(C)[C@@H]3CC[C@]21C
REMARK SMILES IDX 8 1 9 2 7 3 6 4 4 5 5 6 2 7 1 8 3 9 10 10 11 11 28 12 12 13
REMARK SMILES IDX 13 14 27 15 29 16 14 17 26 18 25 19 15 20 23 21 16 22 17 23
REMARK SMILES IDX 22 24 24 25 18 26 21 27 19 28 20 29
REMARK H PARENT 20 30
REMARK Flexibility Score: inf
ROOT
ATOM      1  C   UNL     1     114.803 123.568 122.748  1.00  0.00     0.012 C 
ATOM      2  C   UNL     1     113.780 124.175 121.778  1.00  0.00     0.012 C 
ENDROOT
BRANCH   1   3
ATOM      3  C   UNL     1     114.587 123.970 124.209  1.00  0.00    -0.028 C 
ATOM      4  C   UNL     1     114.878 125.135 124.839  1.00  0.00    -0.028 C 
BRANCH   4   5
ATOM      5  C   UNL     1     115.532 126.370 124.244  1.00  0.00     0.011 C 
ATOM      6  C   UNL     1     116.840 125.942 123.550  1.00  0.00     0.012 C 
BRANCH   5   7
ATOM      7  C   UNL     1     115.825 127.436 125.349  1.00  0.00    -0.011 C 
ATOM      8  C   UNL     1     115.481 126.912 126.755  1.00  0.00     0.008 C 
ATOM      9  C   UNL     1     117.289 127.904 125.341  1.00  0.00     0.008 C 
ENDBRANCH   5   7
ENDBRANCH   4   5
ENDBRANCH   1   3
BRANCH   1  10
ATOM     10  C   UNL     1     115.068 122.047 122.468  1.00  0.00     0.002 C 
ATOM     11  C   UNL     1     115.080 121.094 123.688  1.00  0.00     0.005 C 
ATOM     12  C   UNL     1     116.385 121.711 121.720  1.00  0.00    -0.023 C 
ATOM     13  C   UNL     1     116.032 119.931 123.342  1.00  0.00     0.009 C 
ATOM     14  C   UNL     1     116.405 120.185 121.886  1.00  0.00     0.021 C 
ATOM     15  C   UNL     1     116.380 122.023 120.197  1.00  0.00     0.008 C 
ATOM     16  C   UNL     1     117.607 122.405 122.399  1.00  0.00     0.012 C 
ATOM     17  C   UNL     1     117.641 119.611 121.245  1.00  0.00    -0.063 C 
ATOM     18  C   UNL     1     117.572 121.353 119.452  1.00  0.00     0.009 C 
ATOM     19  C   UNL     1     117.688 119.823 119.738  1.00  0.00     0.025 C 
ATOM     20  C   UNL     1     118.754 119.329 121.940  1.00  0.00    -0.000 C 
ATOM     21  C   UNL     1     118.901 119.061 119.063  1.00  0.00    -0.005 C 
ATOM     22  C   UNL     1     120.048 119.153 121.269  1.00  0.00    -0.000 C 
ATOM     23  C   UNL     1     120.157 119.124 119.932  1.00  0.00    -0.061 C 
ATOM     24  C   UNL     1     119.209 119.625 117.641  1.00  0.00     0.014 C 
ATOM     25  C   UNL     1     118.502 117.566 118.935  1.00  0.00     0.017 C 
ATOM     26  C   UNL     1     121.507 118.779 119.334  1.00  0.00     0.063 C 
ATOM     27  C   UNL     1     120.505 119.072 117.032  1.00  0.00     0.033 C 
ATOM     28  C   UNL     1     121.707 119.379 117.939  1.00  0.00     0.118 C 
BRANCH  28  29
ATOM     29  O   UNL     1     121.905 120.766 118.050  1.00  0.00    -0.393 OA
ATOM     30  H   UNL     1     122.798 120.960 117.664  1.00  0.00     0.210 HD
ENDBRANCH  28  29
ENDBRANCH   1  10
TORSDOF 5
ENDMDL
MODEL 6
REMARK VINA RESULT:    -6.683      4.426      8.861
REMARK INTER + INTRA:          -9.166
REMARK INTER:                  -8.281
REMARK INTRA:                  -0.884
REMARK UNBOUND:                -0.724
REMARK SMILES CC(C)[C@@H](C)C=C[C@H](C)[C@@H]1CC[C@@H]2C3=CC=C4C[C@H](O)CC[C@]4(C)[C@@H]3CC[C@]21C
REMARK SMILES IDX 8 1 9 2 7 3 6 4 4 5 5 6 2 7 1 8 3 9 10 10 11 11 28 12 12 13
REMARK SMILES IDX 13 14 27 15 29 16 14 17 26 18 25 19 15 20 23 21 16 22 17 23
REMARK SMILES IDX 22 24 24 25 18 26 21 27 19 28 20 29
REMARK H PARENT 20 30
REMARK Flexibility Score: inf
ROOT
ATOM      1  C   UNL     1     114.279 120.833 122.642  1.00  0.00     0.012 C 
ATOM      2  C   UNL     1     113.475 119.876 121.751  1.00  0.00     0.012 C 
ENDROOT
BRANCH   1   3
ATOM      3  C   UNL     1     113.498 121.364 123.847  1.00  0.00    -0.028 C 
ATOM      4  C   UNL     1     113.164 120.741 125.004  1.00  0.00    -0.028 C 
BRANCH   4   5
ATOM      5  C   UNL     1     113.472 119.310 125.407  1.00  0.00     0.011 C 
ATOM      6  C   UNL     1     112.152 118.516 125.429  1.00  0.00     0.012 C 
BRANCH   5   7
ATOM      7  C   UNL     1     114.163 119.259 126.809  1.00  0.00    -0.011 C 
ATOM      8  C   UNL     1     113.162 118.920 127.928  1.00  0.00     0.008 C 
ATOM      9  C   UNL     1     115.319 118.247 126.858  1.00  0.00     0.008 C 
ENDBRANCH   5   7
ENDBRANCH   4   5
ENDBRANCH   1   3
BRANCH   1  10
ATOM     10  C   UNL     1     115.735 120.316 122.918  1.00  0.00     0.002 C 
ATOM     11  C   UNL     1     116.559 121.063 123.996  1.00  0.00     0.005 C 
ATOM     12  C   UNL     1     116.685 120.266 121.693  1.00  0.00    -0.023 C 
ATOM     13  C   UNL     1     118.043 120.933 123.599  1.00  0.00     0.009 C 
ATOM     14  C   UNL     1     118.019 119.993 122.400  1.00  0.00     0.021 C 
ATOM     15  C   UNL     1     116.424 119.098 120.701  1.00  0.00     0.008 C 
ATOM     16  C   UNL     1     116.679 121.625 120.924  1.00  0.00     0.012 C 
ATOM     17  C   UNL     1     119.136 119.924 121.390  1.00  0.00    -0.063 C 
ATOM     18  C   UNL     1     117.602 118.895 119.703  1.00  0.00     0.009 C 
ATOM     19  C   UNL     1     118.988 118.767 120.412  1.00  0.00     0.025 C 
ATOM     20  C   UNL     1     119.924 120.972 121.109  1.00  0.00    -0.000 C 
ATOM     21  C   UNL     1     120.256 118.607 119.476  1.00  0.00    -0.005 C 
ATOM     22  C   UNL     1     120.723 121.018 119.878  1.00  0.00    -0.000 C 
ATOM     23  C   UNL     1     120.814 119.966 119.051  1.00  0.00    -0.061 C 
ATOM     24  C   UNL     1     119.930 117.748 118.216  1.00  0.00     0.014 C 
ATOM     25  C   UNL     1     121.359 117.892 120.302  1.00  0.00     0.017 C 
ATOM     26  C   UNL     1     121.787 120.052 117.891  1.00  0.00     0.063 C 
ATOM     27  C   UNL     1     121.057 117.741 117.174  1.00  0.00     0.033 C 
ATOM     28  C   UNL     1     121.376 119.170 116.708  1.00  0.00     0.118 C 
BRANCH  28  29
ATOM     29  O   UNL     1     120.267 119.742 116.061  1.00  0.00    -0.393 OA
ATOM     30  H   UNL     1     120.566 120.616 115.699  1.00  0.00     0.210 HD
ENDBRANCH  28  29
ENDBRANCH   1  10
TORSDOF 5
ENDMDL
MODEL 7
REMARK VINA RESULT:    -6.570      3.834      7.769
REMARK INTER + INTRA:          -9.022
REMARK INTER:                  -8.039
REMARK INTRA:                  -0.983
REMARK UNBOUND:                -0.724
REMARK SMILES CC(C)[C@@H](C)C=C[C@H](C)[C@@H]1CC[C@@H]2C3=CC=C4C[C@H](O)CC[C@]4(C)[C@@H]3CC[C@]21C
REMARK SMILES IDX 8 1 9 2 7 3 6 4 4 5 5 6 2 7 1 8 3 9 10 10 11 11 28 12 12 13
REMARK SMILES IDX 13 14 27 15 29 16 14 17 26 18 25 19 15 20 23 21 16 22 17 23
REMARK SMILES IDX 22 24 24 25 18 26 21 27 19 28 20 29
REMARK H PARENT 20 30
REMARK Flexibility Score: inf
ROOT
ATOM      1  C   UNL     1     115.039 122.971 123.392  1.00  0.00     0.012 C 
ATOM      2  C   UNL     1     114.603 124.199 124.205  1.00  0.00     0.012 C 
ENDROOT
BRANCH   1   3
ATOM      3  C   UNL     1     113.877 122.082 122.940  1.00  0.00    -0.028 C 
ATOM      4  C   UNL     1     113.249 121.078 123.599  1.00  0.00    -0.028 C 
BRANCH   4   5
ATOM      5  C   UNL     1     113.557 120.547 124.988  1.00  0.00     0.011 C 
ATOM      6  C   UNL     1     114.870 119.744 124.922  1.00  0.00     0.012 C 
BRANCH   5   7
ATOM      7  C   UNL     1     112.393 119.646 125.515  1.00  0.00    -0.011 C 
ATOM      8  C   UNL     1     111.791 118.777 124.396  1.00  0.00     0.008 C 
ATOM      9  C   UNL     1     112.834 118.730 126.667  1.00  0.00     0.008 C 
ENDBRANCH   5   7
ENDBRANCH   4   5
ENDBRANCH   1   3
BRANCH   1  10
ATOM     10  C   UNL     1     116.121 123.320 122.311  1.00  0.00     0.002 C 
ATOM     11  C   UNL     1     115.689 123.242 120.826  1.00  0.00     0.005 C 
ATOM     12  C   UNL     1     117.429 122.488 122.362  1.00  0.00    -0.023 C 
ATOM     13  C   UNL     1     116.947 122.882 120.010  1.00  0.00     0.009 C 
ATOM     14  C   UNL     1     118.072 122.918 121.037  1.00  0.00     0.021 C 
ATOM     15  C   UNL     1     118.408 122.864 123.510  1.00  0.00     0.008 C 
ATOM     16  C   UNL     1     117.118 120.959 122.411  1.00  0.00     0.012 C 
ATOM     17  C   UNL     1     119.383 122.202 120.841  1.00  0.00    -0.063 C 
ATOM     18  C   UNL     1     119.825 122.251 123.302  1.00  0.00     0.009 C 
ATOM     19  C   UNL     1     120.423 122.560 121.894  1.00  0.00     0.025 C 
ATOM     20  C   UNL     1     119.497 121.086 120.106  1.00  0.00    -0.000 C 
ATOM     21  C   UNL     1     121.843 121.937 121.569  1.00  0.00    -0.005 C 
ATOM     22  C   UNL     1     120.658 120.197 120.242  1.00  0.00    -0.000 C 
ATOM     23  C   UNL     1     121.719 120.525 120.996  1.00  0.00    -0.061 C 
ATOM     24  C   UNL     1     122.760 121.920 122.831  1.00  0.00     0.014 C 
ATOM     25  C   UNL     1     122.504 122.822 120.479  1.00  0.00     0.017 C 
ATOM     26  C   UNL     1     122.934 119.620 120.948  1.00  0.00     0.063 C 
ATOM     27  C   UNL     1     124.063 121.134 122.628  1.00  0.00     0.033 C 
ATOM     28  C   UNL     1     123.766 119.679 122.233  1.00  0.00     0.118 C 
BRANCH  28  29
ATOM     29  O   UNL     1     123.081 119.013 123.265  1.00  0.00    -0.393 OA
ATOM     30  H   UNL     1     123.185 119.566 124.082  1.00  0.00     0.210 HD
ENDBRANCH  28  29
ENDBRANCH   1  10
TORSDOF 5
ENDMDL
MODEL 8
REMARK VINA RESULT:    -6.544      5.101     11.639
REMARK INTER + INTRA:          -8.990
REMARK INTER:                  -8.233
REMARK INTRA:                  -0.756
REMARK UNBOUND:                -0.724
REMARK SMILES CC(C)[C@@H](C)C=C[C@H](C)[C@@H]1CC[C@@H]2C3=CC=C4C[C@H](O)CC[C@]4(C)[C@@H]3CC[C@]21C
REMARK SMILES IDX 8 1 9 2 7 3 6 4 4 5 5 6 2 7 1 8 3 9 10 10 11 11 28 12 12 13
REMARK SMILES IDX 13 14 27 15 29 16 14 17 26 18 25 19 15 20 23 21 16 22 17 23
REMARK SMILES IDX 22 24 24 25 18 26 21 27 19 28 20 29
REMARK H PARENT 20 30
REMARK Flexibility Score: inf
ROOT
ATOM      1  C   UNL     1     119.756 119.305 119.677  1.00  0.00     0.012 C 
ATOM      2  C   UNL     1     121.017 119.859 120.356  1.00  0.00     0.012 C 
ENDROOT
BRANCH   1   3
ATOM      3  C   UNL     1     118.489 119.429 120.527  1.00  0.00    -0.028 C 
ATOM      4  C   UNL     1     117.704 120.510 120.759  1.00  0.00    -0.028 C 
BRANCH   4   5
ATOM      5  C   UNL     1     117.898 121.923 120.236  1.00  0.00     0.011 C 
ATOM      6  C   UNL     1     118.770 122.699 121.241  1.00  0.00     0.012 C 
BRANCH   5   7
ATOM      7  C   UNL     1     116.522 122.641 120.040  1.00  0.00    -0.011 C 
ATOM      8  C   UNL     1     115.508 122.240 121.126  1.00  0.00     0.008 C 
ATOM      9  C   UNL     1     116.655 124.172 120.030  1.00  0.00     0.008 C 
ENDBRANCH   5   7
ENDBRANCH   4   5
ENDBRANCH   1   3
BRANCH   1  10
ATOM     10  C   UNL     1     119.642 119.742 118.175  1.00  0.00     0.002 C 
ATOM     11  C   UNL     1     118.307 119.443 117.450  1.00  0.00     0.005 C 
ATOM     12  C   UNL     1     120.721 119.173 117.215  1.00  0.00    -0.023 C 
ATOM     13  C   UNL     1     118.639 119.243 115.957  1.00  0.00     0.009 C 
ATOM     14  C   UNL     1     120.121 119.585 115.864  1.00  0.00     0.021 C 
ATOM     15  C   UNL     1     122.124 119.831 117.333  1.00  0.00     0.008 C 
ATOM     16  C   UNL     1     120.847 117.624 117.370  1.00  0.00     0.012 C 
ATOM     17  C   UNL     1     121.003 119.107 114.739  1.00  0.00    -0.063 C 
ATOM     18  C   UNL     1     123.048 119.472 116.132  1.00  0.00     0.009 C 
ATOM     19  C   UNL     1     122.383 119.749 114.747  1.00  0.00     0.025 C 
ATOM     20  C   UNL     1     120.773 117.965 114.074  1.00  0.00    -0.000 C 
ATOM     21  C   UNL     1     123.227 119.370 113.461  1.00  0.00    -0.005 C 
ATOM     22  C   UNL     1     121.825 117.323 113.276  1.00  0.00    -0.000 C 
ATOM     23  C   UNL     1     123.011 117.911 113.058  1.00  0.00    -0.061 C 
ATOM     24  C   UNL     1     124.748 119.643 113.677  1.00  0.00     0.014 C 
ATOM     25  C   UNL     1     122.718 120.253 112.290  1.00  0.00     0.017 C 
ATOM     26  C   UNL     1     123.972 117.244 112.093  1.00  0.00     0.063 C 
ATOM     27  C   UNL     1     125.632 119.094 112.549  1.00  0.00     0.033 C 
ATOM     28  C   UNL     1     125.437 117.579 112.391  1.00  0.00     0.118 C 
BRANCH  28  29
ATOM     29  O   UNL     1     125.844 116.901 113.553  1.00  0.00    -0.393 OA
ATOM     30  H   UNL     1     126.804 116.677 113.433  1.00  0.00     0.210 HD
ENDBRANCH  28  29
ENDBRANCH   1  10
TORSDOF 5
ENDMDL
MODEL 9
REMARK VINA RESULT:    -6.451      5.216     11.558
REMARK INTER + INTRA:          -8.872
REMARK INTER:                  -7.723
REMARK INTRA:                  -1.149
REMARK UNBOUND:                -0.724
REMARK SMILES CC(C)[C@@H](C)C=C[C@H](C)[C@@H]1CC[C@@H]2C3=CC=C4C[C@H](O)CC[C@]4(C)[C@@H]3CC[C@]21C
REMARK SMILES IDX 8 1 9 2 7 3 6 4 4 5 5 6 2 7 1 8 3 9 10 10 11 11 28 12 12 13
REMARK SMILES IDX 13 14 27 15 29 16 14 17 26 18 25 19 15 20 23 21 16 22 17 23
REMARK SMILES IDX 22 24 24 25 18 26 21 27 19 28 20 29
REMARK H PARENT 20 30
REMARK Flexibility Score: inf
ROOT
ATOM      1  C   UNL     1     118.739 119.388 117.674  1.00  0.00     0.012 C 
ATOM      2  C   UNL     1     117.819 119.505 116.450  1.00  0.00     0.012 C 
ENDROOT
BRANCH   1   3
ATOM      3  C   UNL     1     117.990 119.279 119.004  1.00  0.00    -0.028 C 
ATOM      4  C   UNL     1     117.711 120.237 119.922  1.00  0.00    -0.028 C 
BRANCH   4   5
ATOM      5  C   UNL     1     118.096 121.705 119.873  1.00  0.00     0.011 C 
ATOM      6  C   UNL     1     119.497 121.862 120.494  1.00  0.00     0.012 C 
BRANCH   5   7
ATOM      7  C   UNL     1     117.057 122.583 120.644  1.00  0.00    -0.011 C 
ATOM      8  C   UNL     1     116.502 123.719 119.765  1.00  0.00     0.008 C 
ATOM      9  C   UNL     1     115.878 121.758 121.185  1.00  0.00     0.008 C 
ENDBRANCH   5   7
ENDBRANCH   4   5
ENDBRANCH   1   3
BRANCH   1  10
ATOM     10  C   UNL     1     119.918 118.380 117.444  1.00  0.00     0.002 C 
ATOM     11  C   UNL     1     120.330 117.487 118.639  1.00  0.00     0.005 C 
ATOM     12  C   UNL     1     121.259 118.997 116.963  1.00  0.00    -0.023 C 
ATOM     13  C   UNL     1     121.833 117.182 118.479  1.00  0.00     0.009 C 
ATOM     14  C   UNL     1     122.185 117.784 117.123  1.00  0.00     0.021 C 
ATOM     15  C   UNL     1     121.291 119.426 115.469  1.00  0.00     0.008 C 
ATOM     16  C   UNL     1     121.679 120.198 117.868  1.00  0.00     0.012 C 
ATOM     17  C   UNL     1     123.592 118.151 116.731  1.00  0.00    -0.063 C 
ATOM     18  C   UNL     1     122.739 119.704 114.965  1.00  0.00     0.009 C 
ATOM     19  C   UNL     1     123.724 118.530 115.262  1.00  0.00     0.025 C 
ATOM     20  C   UNL     1     124.523 118.513 117.626  1.00  0.00    -0.000 C 
ATOM     21  C   UNL     1     125.234 118.739 114.830  1.00  0.00    -0.005 C 
ATOM     22  C   UNL     1     125.735 119.234 117.217  1.00  0.00    -0.000 C 
ATOM     23  C   UNL     1     126.039 119.439 115.926  1.00  0.00    -0.061 C 
ATOM     24  C   UNL     1     125.340 119.542 113.497  1.00  0.00     0.014 C 
ATOM     25  C   UNL     1     125.860 117.334 114.622  1.00  0.00     0.017 C 
ATOM     26  C   UNL     1     127.387 120.050 115.599  1.00  0.00     0.063 C 
ATOM     27  C   UNL     1     126.775 119.958 113.148  1.00  0.00     0.033 C 
ATOM     28  C   UNL     1     127.383 120.813 114.270  1.00  0.00     0.118 C 
BRANCH  28  29
ATOM     29  O   UNL     1     126.670 122.014 114.423  1.00  0.00    -0.393 OA
ATOM     30  H   UNL     1     126.815 122.542 113.596  1.00  0.00     0.210 HD
ENDBRANCH  28  29
ENDBRANCH   1  10
TORSDOF 5
ENDMDL
