MODEL 1
REMARK VINA RESULT:    -6.187      0.000      0.000
REMARK INTER + INTRA:         -11.373
REMARK INTER:                  -9.443
REMARK INTRA:                  -1.930
REMARK UNBOUND:                -1.930
REMARK SMILES CC(=O)CCC=C(C)CCC=C(C)CCC=C(C)C
REMARK SMILES IDX 10 1 11 2 12 3 13 4 14 5 15 6 16 7 18 8 17 9 19 10 9 11 7 12
REMARK SMILES IDX 6 13 8 14 5 15 4 16 2 17 3 18 1 19
REMARK H PARENT
REMARK Flexibility Score: inf
ROOT
ATOM      1  C   UNL     1      -8.054  35.245  22.684  1.00  0.00     0.032 C 
ENDROOT
BRANCH   1   2
ATOM      2  C   UNL     1      -7.378  34.623  21.484  1.00  0.00    -0.028 C 
ATOM      3  C   UNL     1      -7.871  33.558  20.811  1.00  0.00    -0.077 C 
ATOM      4  C   UNL     1      -7.109  33.050  19.614  1.00  0.00     0.039 C 
BRANCH   3   5
ATOM      5  C   UNL     1      -9.145  32.842  21.226  1.00  0.00     0.034 C 
BRANCH   5   6
ATOM      6  C   UNL     1      -8.955  31.319  21.294  1.00  0.00     0.032 C 
BRANCH   6   7
ATOM      7  C   UNL     1      -7.706  30.940  22.053  1.00  0.00    -0.028 C 
ATOM      8  C   UNL     1      -8.819  29.069  23.290  1.00  0.00     0.039 C 
ATOM      9  C   UNL     1      -7.620  29.913  22.926  1.00  0.00    -0.080 C 
ATOM     10  C   UNL     1      -6.284  29.617  23.558  1.00  0.00     0.039 C 
ENDBRANCH   6   7
ENDBRANCH   5   6
ENDBRANCH   3   5
ENDBRANCH   1   2
BRANCH   1  11
ATOM     11  C   UNL     1      -7.298  34.960  23.991  1.00  0.00     0.034 C 
BRANCH  11  12
ATOM     12  C   UNL     1      -8.176  34.277  25.018  1.00  0.00    -0.077 C 
ATOM     13  C   UNL     1      -8.534  32.985  24.838  1.00  0.00    -0.028 C 
ATOM     14  C   UNL     1      -8.625  35.068  26.224  1.00  0.00     0.039 C 
BRANCH  13  15
ATOM     15  C   UNL     1      -9.365  32.183  25.811  1.00  0.00     0.035 C 
BRANCH  15  16
ATOM     16  C   UNL     1      -8.503  31.219  26.637  1.00  0.00     0.079 C 
BRANCH  16  17
ATOM     17  C   UNL     1      -8.679  31.445  28.116  1.00  0.00     0.130 C 
ATOM     18  O   UNL     1      -8.237  32.462  28.628  1.00  0.00    -0.300 OA
ATOM     19  C   UNL     1      -9.356  30.425  28.979  1.00  0.00     0.087 C 
ENDBRANCH  16  17
ENDBRANCH  15  16
ENDBRANCH  13  15
ENDBRANCH  11  12
ENDBRANCH   1  11
TORSDOF 9
ENDMDL
MODEL 2
REMARK VINA RESULT:    -5.964      1.569      4.949
REMARK INTER + INTRA:         -11.032
REMARK INTER:                  -9.424
REMARK INTRA:                  -1.608
REMARK UNBOUND:                -1.930
REMARK SMILES CC(=O)CCC=C(C)CCC=C(C)CCC=C(C)C
REMARK SMILES IDX 10 1 11 2 12 3 13 4 14 5 15 6 16 7 18 8 17 9 19 10 9 11 7 12
REMARK SMILES IDX 6 13 8 14 5 15 4 16 2 17 3 18 1 19
REMARK H PARENT
REMARK Flexibility Score: inf
ROOT
ATOM      1  C   UNL     1      -6.992  34.492  23.123  1.00  0.00     0.032 C 
ENDROOT
BRANCH   1   2
ATOM      2  C   UNL     1      -7.609  35.368  24.190  1.00  0.00    -0.028 C 
ATOM      3  C   UNL     1      -8.348  34.894  25.217  1.00  0.00    -0.077 C 
ATOM      4  C   UNL     1      -8.886  35.874  26.227  1.00  0.00     0.039 C 
BRANCH   3   5
ATOM      5  C   UNL     1      -8.677  33.419  25.382  1.00  0.00     0.034 C 
BRANCH   5   6
ATOM      6  C   UNL     1      -8.307  32.897  26.778  1.00  0.00     0.032 C 
BRANCH   6   7
ATOM      7  C   UNL     1      -9.270  31.836  27.257  1.00  0.00    -0.028 C 
ATOM      8  C   UNL     1      -7.657  29.959  26.878  1.00  0.00     0.039 C 
ATOM      9  C   UNL     1      -8.982  30.519  27.340  1.00  0.00    -0.080 C 
ATOM     10  C   UNL     1     -10.027  29.590  27.901  1.00  0.00     0.039 C 
ENDBRANCH   6   7
ENDBRANCH   5   6
ENDBRANCH   3   5
ENDBRANCH   1   2
BRANCH   1  11
ATOM     11  C   UNL     1      -7.586  34.761  21.733  1.00  0.00     0.034 C 
BRANCH  11  12
ATOM     12  C   UNL     1      -7.993  33.482  21.032  1.00  0.00    -0.077 C 
ATOM     13  C   UNL     1      -9.017  32.747  21.524  1.00  0.00    -0.028 C 
ATOM     14  C   UNL     1      -7.238  33.066  19.791  1.00  0.00     0.039 C 
BRANCH  13  15
ATOM     15  C   UNL     1      -9.545  31.482  20.891  1.00  0.00     0.035 C 
BRANCH  15  16
ATOM     16  C   UNL     1      -8.845  30.233  21.444  1.00  0.00     0.079 C 
BRANCH  16  17
ATOM     17  C   UNL     1      -8.466  30.404  22.892  1.00  0.00     0.130 C 
ATOM     18  O   UNL     1      -9.335  30.382  23.750  1.00  0.00    -0.300 OA
ATOM     19  C   UNL     1      -7.042  30.636  23.296  1.00  0.00     0.087 C 
ENDBRANCH  16  17
ENDBRANCH  15  16
ENDBRANCH  13  15
ENDBRANCH  11  12
ENDBRANCH   1  11
TORSDOF 9
ENDMDL
MODEL 3
REMARK VINA RESULT:    -5.735      1.557      4.874
REMARK INTER + INTRA:         -10.683
REMARK INTER:                  -8.967
REMARK INTRA:                  -1.715
REMARK UNBOUND:                -1.930
REMARK SMILES CC(=O)CCC=C(C)CCC=C(C)CCC=C(C)C
REMARK SMILES IDX 10 1 11 2 12 3 13 4 14 5 15 6 16 7 18 8 17 9 19 10 9 11 7 12
REMARK SMILES IDX 6 13 8 14 5 15 4 16 2 17 3 18 1 19
REMARK H PARENT
REMARK Flexibility Score: inf
ROOT
ATOM      1  C   UNL     1      -9.316  30.598  21.311  1.00  0.00     0.032 C 
ENDROOT
BRANCH   1   2
ATOM      2  C   UNL     1      -7.963  30.430  21.964  1.00  0.00    -0.028 C 
ATOM      3  C   UNL     1      -7.791  30.103  23.264  1.00  0.00    -0.077 C 
ATOM      4  C   UNL     1      -6.386  29.943  23.784  1.00  0.00     0.039 C 
BRANCH   3   5
ATOM      5  C   UNL     1      -8.953  29.913  24.225  1.00  0.00     0.034 C 
BRANCH   5   6
ATOM      6  C   UNL     1      -9.412  31.241  24.846  1.00  0.00     0.032 C 
BRANCH   6   7
ATOM      7  C   UNL     1      -9.978  31.049  26.233  1.00  0.00    -0.028 C 
ATOM      8  C   UNL     1      -7.738  31.151  27.346  1.00  0.00     0.039 C 
ATOM      9  C   UNL     1      -9.244  31.040  27.367  1.00  0.00    -0.080 C 
ATOM     10  C   UNL     1      -9.961  30.903  28.685  1.00  0.00     0.039 C 
ENDBRANCH   6   7
ENDBRANCH   5   6
ENDBRANCH   3   5
ENDBRANCH   1   2
BRANCH   1  11
ATOM     11  C   UNL     1      -9.364  31.812  20.372  1.00  0.00     0.034 C 
BRANCH  11  12
ATOM     12  C   UNL     1      -8.400  32.899  20.801  1.00  0.00    -0.077 C 
ATOM     13  C   UNL     1      -8.704  33.680  21.863  1.00  0.00    -0.028 C 
ATOM     14  C   UNL     1      -7.116  33.074  20.024  1.00  0.00     0.039 C 
BRANCH  13  15
ATOM     15  C   UNL     1      -7.806  34.763  22.414  1.00  0.00     0.035 C 
BRANCH  15  16
ATOM     16  C   UNL     1      -7.354  34.453  23.846  1.00  0.00     0.079 C 
BRANCH  16  17
ATOM     17  C   UNL     1      -8.236  35.125  24.865  1.00  0.00     0.130 C 
ATOM     18  O   UNL     1      -8.938  36.067  24.529  1.00  0.00    -0.300 OA
ATOM     19  C   UNL     1      -8.242  34.681  26.297  1.00  0.00     0.087 C 
ENDBRANCH  16  17
ENDBRANCH  15  16
ENDBRANCH  13  15
ENDBRANCH  11  12
ENDBRANCH   1  11
TORSDOF 9
ENDMDL
MODEL 4
REMARK VINA RESULT:    -5.702      2.175      5.460
REMARK INTER + INTRA:         -10.632
REMARK INTER:                  -8.663
REMARK INTRA:                  -1.969
REMARK UNBOUND:                -1.930
REMARK SMILES CC(=O)CCC=C(C)CCC=C(C)CCC=C(C)C
REMARK SMILES IDX 10 1 11 2 12 3 13 4 14 5 15 6 16 7 18 8 17 9 19 10 9 11 7 12
REMARK SMILES IDX 6 13 8 14 5 15 4 16 2 17 3 18 1 19
REMARK H PARENT
REMARK Flexibility Score: inf
ROOT
ATOM      1  C   UNL     1      -7.786  32.483  26.881  1.00  0.00     0.032 C 
ENDROOT
BRANCH   1   2
ATOM      2  C   UNL     1      -8.521  31.696  27.942  1.00  0.00    -0.028 C 
ATOM      3  C   UNL     1      -9.484  30.786  27.670  1.00  0.00    -0.077 C 
ATOM      4  C   UNL     1     -10.122  30.051  28.821  1.00  0.00     0.039 C 
BRANCH   3   5
ATOM      5  C   UNL     1      -9.963  30.492  26.258  1.00  0.00     0.034 C 
BRANCH   5   6
ATOM      6  C   UNL     1      -9.211  29.310  25.627  1.00  0.00     0.032 C 
BRANCH   6   7
ATOM      7  C   UNL     1      -8.006  29.765  24.838  1.00  0.00    -0.028 C 
ATOM      8  C   UNL     1      -8.890  28.895  22.663  1.00  0.00     0.039 C 
ATOM      9  C   UNL     1      -7.863  29.616  23.503  1.00  0.00    -0.080 C 
ATOM     10  C   UNL     1      -6.630  30.182  22.846  1.00  0.00     0.039 C 
ENDBRANCH   6   7
ENDBRANCH   5   6
ENDBRANCH   3   5
ENDBRANCH   1   2
BRANCH   1  11
ATOM     11  C   UNL     1      -8.262  33.941  26.803  1.00  0.00     0.034 C 
BRANCH  11  12
ATOM     12  C   UNL     1      -8.642  34.340  25.393  1.00  0.00    -0.077 C 
ATOM     13  C   UNL     1      -8.740  33.391  24.434  1.00  0.00    -0.028 C 
ATOM     14  C   UNL     1      -8.908  35.798  25.101  1.00  0.00     0.039 C 
BRANCH  13  15
ATOM     15  C   UNL     1      -9.155  33.656  23.006  1.00  0.00     0.035 C 
BRANCH  15  16
ATOM     16  C   UNL     1      -7.942  33.790  22.076  1.00  0.00     0.079 C 
BRANCH  16  17
ATOM     17  C   UNL     1      -8.069  32.901  20.866  1.00  0.00     0.130 C 
ATOM     18  O   UNL     1      -9.001  32.115  20.789  1.00  0.00    -0.300 OA
ATOM     19  C   UNL     1      -7.049  32.939  19.769  1.00  0.00     0.087 C 
ENDBRANCH  16  17
ENDBRANCH  15  16
ENDBRANCH  13  15
ENDBRANCH  11  12
ENDBRANCH   1  11
TORSDOF 9
ENDMDL
MODEL 5
REMARK VINA RESULT:    -5.669      1.372      3.821
REMARK INTER + INTRA:         -10.581
REMARK INTER:                  -8.781
REMARK INTRA:                  -1.801
REMARK UNBOUND:                -1.930
REMARK SMILES CC(=O)CCC=C(C)CCC=C(C)CCC=C(C)C
REMARK SMILES IDX 10 1 11 2 12 3 13 4 14 5 15 6 16 7 18 8 17 9 19 10 9 11 7 12
REMARK SMILES IDX 6 13 8 14 5 15 4 16 2 17 3 18 1 19
REMARK H PARENT
REMARK Flexibility Score: inf
ROOT
ATOM      1  C   UNL     1      -7.401  31.082  22.688  1.00  0.00     0.032 C 
ENDROOT
BRANCH   1   2
ATOM      2  C   UNL     1      -7.177  31.656  21.307  1.00  0.00    -0.028 C 
ATOM      3  C   UNL     1      -7.604  32.880  20.924  1.00  0.00    -0.077 C 
ATOM      4  C   UNL     1      -7.294  33.343  19.524  1.00  0.00     0.039 C 
BRANCH   3   5
ATOM      5  C   UNL     1      -8.401  33.796  21.838  1.00  0.00     0.034 C 
BRANCH   5   6
ATOM      6  C   UNL     1      -7.497  34.748  22.634  1.00  0.00     0.032 C 
BRANCH   6   7
ATOM      7  C   UNL     1      -7.456  34.392  24.101  1.00  0.00    -0.028 C 
ATOM      8  C   UNL     1      -9.222  36.052  24.728  1.00  0.00     0.039 C 
ATOM      9  C   UNL     1      -8.247  34.943  25.047  1.00  0.00    -0.080 C 
ATOM     10  C   UNL     1      -8.135  34.437  26.462  1.00  0.00     0.039 C 
ENDBRANCH   6   7
ENDBRANCH   5   6
ENDBRANCH   3   5
ENDBRANCH   1   2
BRANCH   1  11
ATOM     11  C   UNL     1      -8.624  30.155  22.741  1.00  0.00     0.034 C 
BRANCH  11  12
ATOM     12  C   UNL     1      -9.312  30.201  24.090  1.00  0.00    -0.077 C 
ATOM     13  C   UNL     1      -9.429  29.068  24.820  1.00  0.00    -0.028 C 
ATOM     14  C   UNL     1      -9.845  31.526  24.583  1.00  0.00     0.039 C 
BRANCH  13  15
ATOM     15  C   UNL     1     -10.050  28.995  26.194  1.00  0.00     0.035 C 
BRANCH  15  16
ATOM     16  C   UNL     1      -8.987  28.945  27.298  1.00  0.00     0.079 C 
BRANCH  16  17
ATOM     17  C   UNL     1      -8.718  30.311  27.873  1.00  0.00     0.130 C 
ATOM     18  O   UNL     1      -7.799  30.984  27.430  1.00  0.00    -0.300 OA
ATOM     19  C   UNL     1      -9.537  30.848  29.008  1.00  0.00     0.087 C 
ENDBRANCH  16  17
ENDBRANCH  15  16
ENDBRANCH  13  15
ENDBRANCH  11  12
ENDBRANCH   1  11
TORSDOF 9
ENDMDL
MODEL 6
REMARK VINA RESULT:    -5.249     17.381     19.126
REMARK INTER + INTRA:          -9.941
REMARK INTER:                  -8.189
REMARK INTRA:                  -1.752
REMARK UNBOUND:                -1.930
REMARK SMILES CC(=O)CCC=C(C)CCC=C(C)CCC=C(C)C
REMARK SMILES IDX 10 1 11 2 12 3 13 4 14 5 15 6 16 7 18 8 17 9 19 10 9 11 7 12
REMARK SMILES IDX 6 13 8 14 5 15 4 16 2 17 3 18 1 19
REMARK H PARENT
REMARK Flexibility Score: inf
ROOT
ATOM      1  C   UNL     1      -1.690  45.784  13.269  1.00  0.00     0.032 C 
ENDROOT
BRANCH   1   2
ATOM      2  C   UNL     1      -1.455  46.846  12.218  1.00  0.00    -0.028 C 
ATOM      3  C   UNL     1      -2.102  48.033  12.192  1.00  0.00    -0.077 C 
ATOM      4  C   UNL     1      -1.757  49.014  11.101  1.00  0.00     0.039 C 
BRANCH   3   5
ATOM      5  C   UNL     1      -3.175  48.407  13.200  1.00  0.00     0.034 C 
BRANCH   5   6
ATOM      6  C   UNL     1      -4.457  47.581  13.013  1.00  0.00     0.032 C 
BRANCH   6   7
ATOM      7  C   UNL     1      -5.289  48.084  11.858  1.00  0.00    -0.028 C 
ATOM      8  C   UNL     1      -4.646  46.193  10.348  1.00  0.00     0.039 C 
ATOM      9  C   UNL     1      -5.411  47.455  10.669  1.00  0.00    -0.080 C 
ATOM     10  C   UNL     1      -6.332  48.048   9.634  1.00  0.00     0.039 C 
ENDBRANCH   6   7
ENDBRANCH   5   6
ENDBRANCH   3   5
ENDBRANCH   1   2
BRANCH   1  11
ATOM     11  C   UNL     1      -0.489  45.624  14.213  1.00  0.00     0.034 C 
BRANCH  11  12
ATOM     12  C   UNL     1      -0.397  46.758  15.212  1.00  0.00    -0.077 C 
ATOM     13  C   UNL     1      -1.431  46.993  16.052  1.00  0.00    -0.028 C 
ATOM     14  C   UNL     1       0.861  47.594  15.243  1.00  0.00     0.039 C 
BRANCH  13  15
ATOM     15  C   UNL     1      -1.440  48.061  17.120  1.00  0.00     0.035 C 
BRANCH  15  16
ATOM     16  C   UNL     1      -2.503  47.785  18.192  1.00  0.00     0.079 C 
BRANCH  16  17
ATOM     17  C   UNL     1      -1.885  47.610  19.555  1.00  0.00     0.130 C 
ATOM     18  O   UNL     1      -2.555  47.822  20.554  1.00  0.00    -0.300 OA
ATOM     19  C   UNL     1      -0.447  47.213  19.707  1.00  0.00     0.087 C 
ENDBRANCH  16  17
ENDBRANCH  15  16
ENDBRANCH  13  15
ENDBRANCH  11  12
ENDBRANCH   1  11
TORSDOF 9
ENDMDL
MODEL 7
REMARK VINA RESULT:    -5.122      2.071      5.288
REMARK INTER + INTRA:          -9.747
REMARK INTER:                  -7.915
REMARK INTRA:                  -1.832
REMARK UNBOUND:                -1.930
REMARK SMILES CC(=O)CCC=C(C)CCC=C(C)CCC=C(C)C
REMARK SMILES IDX 10 1 11 2 12 3 13 4 14 5 15 6 16 7 18 8 17 9 19 10 9 11 7 12
REMARK SMILES IDX 6 13 8 14 5 15 4 16 2 17 3 18 1 19
REMARK H PARENT
REMARK Flexibility Score: inf
ROOT
ATOM      1  C   UNL     1      -8.549  34.781  25.612  1.00  0.00     0.032 C 
ENDROOT
BRANCH   1   2
ATOM      2  C   UNL     1      -8.194  34.065  26.896  1.00  0.00    -0.028 C 
ATOM      3  C   UNL     1      -8.647  32.833  27.218  1.00  0.00    -0.077 C 
ATOM      4  C   UNL     1      -8.197  32.220  28.519  1.00  0.00     0.039 C 
BRANCH   3   5
ATOM      5  C   UNL     1      -9.607  32.052  26.335  1.00  0.00     0.034 C 
BRANCH   5   6
ATOM      6  C   UNL     1      -9.333  30.541  26.380  1.00  0.00     0.032 C 
BRANCH   6   7
ATOM      7  C   UNL     1      -9.571  29.886  25.040  1.00  0.00    -0.028 C 
ATOM      8  C   UNL     1      -7.157  29.969  24.380  1.00  0.00     0.039 C 
ATOM      9  C   UNL     1      -8.601  29.592  24.147  1.00  0.00    -0.080 C 
ATOM     10  C   UNL     1      -8.987  28.876  22.878  1.00  0.00     0.039 C 
ENDBRANCH   6   7
ENDBRANCH   5   6
ENDBRANCH   3   5
ENDBRANCH   1   2
BRANCH   1  11
ATOM     11  C   UNL     1      -7.457  34.636  24.543  1.00  0.00     0.034 C 
BRANCH  11  12
ATOM     12  C   UNL     1      -8.039  34.387  23.167  1.00  0.00    -0.077 C 
ATOM     13  C   UNL     1      -8.924  33.379  22.988  1.00  0.00    -0.028 C 
ATOM     14  C   UNL     1      -7.614  35.285  22.029  1.00  0.00     0.039 C 
BRANCH  13  15
ATOM     15  C   UNL     1      -9.607  33.061  21.680  1.00  0.00     0.035 C 
BRANCH  15  16
ATOM     16  C   UNL     1      -9.059  31.776  21.048  1.00  0.00     0.079 C 
BRANCH  16  17
ATOM     17  C   UNL     1      -7.591  31.894  20.731  1.00  0.00     0.130 C 
ATOM     18  O   UNL     1      -6.791  31.161  21.290  1.00  0.00    -0.300 OA
ATOM     19  C   UNL     1      -7.090  32.924  19.764  1.00  0.00     0.087 C 
ENDBRANCH  16  17
ENDBRANCH  15  16
ENDBRANCH  13  15
ENDBRANCH  11  12
ENDBRANCH   1  11
TORSDOF 9
ENDMDL
MODEL 8
REMARK VINA RESULT:    -5.063     17.223     18.429
REMARK INTER + INTRA:          -9.657
REMARK INTER:                  -8.354
REMARK INTRA:                  -1.303
REMARK UNBOUND:                -1.930
REMARK SMILES CC(=O)CCC=C(C)CCC=C(C)CCC=C(C)C
REMARK SMILES IDX 10 1 11 2 12 3 13 4 14 5 15 6 16 7 18 8 17 9 19 10 9 11 7 12
REMARK SMILES IDX 6 13 8 14 5 15 4 16 2 17 3 18 1 19
REMARK H PARENT
REMARK Flexibility Score: inf
ROOT
ATOM      1  C   UNL     1      -2.211  47.870  16.104  1.00  0.00     0.032 C 
ENDROOT
BRANCH   1   2
ATOM      2  C   UNL     1      -1.822  46.508  15.576  1.00  0.00    -0.028 C 
ATOM      3  C   UNL     1      -1.041  46.318  14.489  1.00  0.00    -0.077 C 
ATOM      4  C   UNL     1      -0.708  44.906  14.082  1.00  0.00     0.039 C 
BRANCH   3   5
ATOM      5  C   UNL     1      -0.506  47.467  13.650  1.00  0.00     0.034 C 
BRANCH   5   6
ATOM      6  C   UNL     1      -1.576  48.044  12.711  1.00  0.00     0.032 C 
BRANCH   6   7
ATOM      7  C   UNL     1      -1.649  47.286  11.407  1.00  0.00    -0.028 C 
ATOM      8  C   UNL     1      -3.820  46.176  11.977  1.00  0.00     0.039 C 
ATOM      9  C   UNL     1      -2.665  46.472  11.049  1.00  0.00    -0.080 C 
ATOM     10  C   UNL     1      -2.628  45.835   9.683  1.00  0.00     0.039 C 
ENDBRANCH   6   7
ENDBRANCH   5   6
ENDBRANCH   3   5
ENDBRANCH   1   2
BRANCH   1  11
ATOM     11  C   UNL     1      -1.123  48.481  16.999  1.00  0.00     0.034 C 
BRANCH  11  12
ATOM     12  C   UNL     1      -1.400  48.245  18.469  1.00  0.00    -0.077 C 
ATOM     13  C   UNL     1      -0.524  47.525  19.207  1.00  0.00    -0.028 C 
ATOM     14  C   UNL     1      -2.655  48.832  19.071  1.00  0.00     0.039 C 
BRANCH  13  15
ATOM     15  C   UNL     1      -0.665  47.262  20.688  1.00  0.00     0.035 C 
BRANCH  15  16
ATOM     16  C   UNL     1       0.279  48.143  21.515  1.00  0.00     0.079 C 
BRANCH  16  17
ATOM     17  C   UNL     1      -0.281  48.425  22.885  1.00  0.00     0.130 C 
ATOM     18  O   UNL     1       0.447  48.352  23.863  1.00  0.00    -0.300 OA
ATOM     19  C   UNL     1      -1.730  48.759  23.074  1.00  0.00     0.087 C 
ENDBRANCH  16  17
ENDBRANCH  15  16
ENDBRANCH  13  15
ENDBRANCH  11  12
ENDBRANCH   1  11
TORSDOF 9
ENDMDL
MODEL 9
REMARK VINA RESULT:    -5.028     17.275     19.337
REMARK INTER + INTRA:          -9.603
REMARK INTER:                  -7.875
REMARK INTRA:                  -1.728
REMARK UNBOUND:                -1.930
REMARK SMILES CC(=O)CCC=C(C)CCC=C(C)CCC=C(C)C
REMARK SMILES IDX 10 1 11 2 12 3 13 4 14 5 15 6 16 7 18 8 17 9 19 10 9 11 7 12
REMARK SMILES IDX 6 13 8 14 5 15 4 16 2 17 3 18 1 19
REMARK H PARENT
REMARK Flexibility Score: inf
ROOT
ATOM      1  C   UNL     1      -1.386  45.553  13.082  1.00  0.00     0.032 C 
ENDROOT
BRANCH   1   2
ATOM      2  C   UNL     1      -2.711  46.266  13.226  1.00  0.00    -0.028 C 
ATOM      3  C   UNL     1      -3.005  47.436  12.614  1.00  0.00    -0.077 C 
ATOM      4  C   UNL     1      -4.374  48.030  12.822  1.00  0.00     0.039 C 
BRANCH   3   5
ATOM      5  C   UNL     1      -2.006  48.184  11.747  1.00  0.00     0.034 C 
BRANCH   5   6
ATOM      6  C   UNL     1      -2.315  48.034  10.250  1.00  0.00     0.032 C 
BRANCH   6   7
ATOM      7  C   UNL     1      -2.243  46.593   9.801  1.00  0.00    -0.028 C 
ATOM      8  C   UNL     1      -4.699  46.436   9.339  1.00  0.00     0.039 C 
ATOM      9  C   UNL     1      -3.297  45.874   9.358  1.00  0.00    -0.080 C 
ATOM     10  C   UNL     1      -3.055  44.464   8.882  1.00  0.00     0.039 C 
ENDBRANCH   6   7
ENDBRANCH   5   6
ENDBRANCH   3   5
ENDBRANCH   1   2
BRANCH   1  11
ATOM     11  C   UNL     1      -0.638  45.438  14.419  1.00  0.00     0.034 C 
BRANCH  11  12
ATOM     12  C   UNL     1      -0.187  46.789  14.935  1.00  0.00    -0.077 C 
ATOM     13  C   UNL     1      -0.673  47.251  16.109  1.00  0.00    -0.028 C 
ATOM     14  C   UNL     1       0.804  47.580  14.115  1.00  0.00     0.039 C 
BRANCH  13  15
ATOM     15  C   UNL     1      -0.266  48.557  16.749  1.00  0.00     0.035 C 
BRANCH  15  16
ATOM     16  C   UNL     1       0.347  48.344  18.139  1.00  0.00     0.079 C 
BRANCH  16  17
ATOM     17  C   UNL     1      -0.694  47.935  19.149  1.00  0.00     0.130 C 
ATOM     18  O   UNL     1      -1.767  48.517  19.180  1.00  0.00    -0.300 OA
ATOM     19  C   UNL     1      -0.422  46.846  20.142  1.00  0.00     0.087 C 
ENDBRANCH  16  17
ENDBRANCH  15  16
ENDBRANCH  13  15
ENDBRANCH  11  12
ENDBRANCH   1  11
TORSDOF 9
ENDMDL
