MODEL 1
REMARK VINA RESULT:    -3.984      0.000      0.000
REMARK INTER + INTRA:          -6.955
REMARK INTER:                  -6.080
REMARK INTRA:                  -0.875
REMARK UNBOUND:                -0.875
REMARK SMILES CCCCCCCCCCC(=O)[O-]
REMARK SMILES IDX 7 1 8 2 9 3 10 4 11 5 12 6 13 7 6 8 5 9 4 10 3 11 2 12 1 13
REMARK H PARENT
REMARK Flexibility Score: inf
ROOT
ATOM      1  C   UNL     1     162.857 176.371 181.111  1.00  0.00     0.000 C 
ENDROOT
BRANCH   1   2
ATOM      2  C   UNL     1     161.332 176.553 181.158  1.00  0.00     0.000 C 
BRANCH   2   3
ATOM      3  C   UNL     1     160.581 175.219 181.285  1.00  0.00     0.006 C 
BRANCH   3   4
ATOM      4  C   UNL     1     161.311 174.105 180.530  1.00  0.00     0.053 C 
BRANCH   4   5
ATOM      5  C   UNL     1     160.505 173.656 179.352  1.00  0.00     0.041 C 
ATOM      6  O   UNL     1     160.161 174.483 178.467  1.00  0.00    -0.550 OA
ATOM      7  O   UNL     1     160.177 172.314 179.205  1.00  0.00    -0.550 OA
ENDBRANCH   4   5
ENDBRANCH   3   4
ENDBRANCH   2   3
ENDBRANCH   1   2
BRANCH   1   8
ATOM      8  C   UNL     1     163.615 177.708 181.197  1.00  0.00     0.000 C 
BRANCH   8   9
ATOM      9  C   UNL     1     162.746 178.848 181.751  1.00  0.00    -0.000 C 
BRANCH   9  10
ATOM     10  C   UNL     1     162.479 179.947 180.706  1.00  0.00    -0.000 C 
BRANCH  10  11
ATOM     11  C   UNL     1     163.276 179.733 179.409  1.00  0.00    -0.000 C 
BRANCH  11  12
ATOM     12  C   UNL     1     162.381 179.707 178.161  1.00  0.00    -0.003 C 
ATOM     13  C   UNL     1     161.461 178.490 178.172  1.00  0.00     0.004 C 
ENDBRANCH  11  12
ENDBRANCH  10  11
ENDBRANCH   9  10
ENDBRANCH   8   9
ENDBRANCH   1   8
TORSDOF 9
ENDMDL
MODEL 2
REMARK VINA RESULT:    -3.873     12.173     13.798
REMARK INTER + INTRA:          -6.786
REMARK INTER:                  -5.639
REMARK INTRA:                  -1.147
REMARK UNBOUND:                -0.875
REMARK SMILES CCCCCCCCCCC(=O)[O-]
REMARK SMILES IDX 7 1 8 2 9 3 10 4 11 5 12 6 13 7 6 8 5 9 4 10 3 11 2 12 1 13
REMARK H PARENT
REMARK Flexibility Score: inf
ROOT
ATOM      1  C   UNL     1     175.959 179.664 178.195  1.00  0.00     0.000 C 
ENDROOT
BRANCH   1   2
ATOM      2  C   UNL     1     174.926 178.529 178.135  1.00  0.00     0.000 C 
BRANCH   2   3
ATOM      3  C   UNL     1     173.509 179.000 178.495  1.00  0.00     0.006 C 
BRANCH   3   4
ATOM      4  C   UNL     1     173.375 179.231 180.004  1.00  0.00     0.053 C 
BRANCH   4   5
ATOM      5  C   UNL     1     171.951 179.507 180.367  1.00  0.00     0.041 C 
ATOM      6  O   UNL     1     171.527 179.233 181.521  1.00  0.00    -0.550 OA
ATOM      7  O   UNL     1     171.103 180.114 179.449  1.00  0.00    -0.550 OA
ENDBRANCH   4   5
ENDBRANCH   3   4
ENDBRANCH   2   3
ENDBRANCH   1   2
BRANCH   1   8
ATOM      8  C   UNL     1     177.153 179.329 179.108  1.00  0.00     0.000 C 
BRANCH   8   9
ATOM      9  C   UNL     1     177.135 180.125 180.423  1.00  0.00    -0.000 C 
BRANCH   9  10
ATOM     10  C   UNL     1     176.858 179.235 181.648  1.00  0.00    -0.000 C 
BRANCH  10  11
ATOM     11  C   UNL     1     177.012 177.737 181.335  1.00  0.00    -0.000 C 
BRANCH  11  12
ATOM     12  C   UNL     1     175.682 176.974 181.421  1.00  0.00    -0.003 C 
ATOM     13  C   UNL     1     175.723 175.704 180.576  1.00  0.00     0.004 C 
ENDBRANCH  11  12
ENDBRANCH  10  11
ENDBRANCH   9  10
ENDBRANCH   8   9
ENDBRANCH   1   8
TORSDOF 9
ENDMDL
MODEL 3
REMARK VINA RESULT:    -3.868      2.024      5.158
REMARK INTER + INTRA:          -6.779
REMARK INTER:                  -5.957
REMARK INTRA:                  -0.821
REMARK UNBOUND:                -0.875
REMARK SMILES CCCCCCCCCCC(=O)[O-]
REMARK SMILES IDX 7 1 8 2 9 3 10 4 11 5 12 6 13 7 6 8 5 9 4 10 3 11 2 12 1 13
REMARK H PARENT
REMARK Flexibility Score: inf
ROOT
ATOM      1  C   UNL     1     163.373 178.052 181.511  1.00  0.00     0.000 C 
ENDROOT
BRANCH   1   2
ATOM      2  C   UNL     1     162.318 179.146 181.289  1.00  0.00     0.000 C 
BRANCH   2   3
ATOM      3  C   UNL     1     162.569 179.957 180.009  1.00  0.00     0.006 C 
BRANCH   3   4
ATOM      4  C   UNL     1     161.465 179.706 178.976  1.00  0.00     0.053 C 
BRANCH   4   5
ATOM      5  C   UNL     1     161.828 178.557 178.091  1.00  0.00     0.041 C 
ATOM      6  O   UNL     1     160.950 177.725 177.741  1.00  0.00    -0.550 OA
ATOM      7  O   UNL     1     163.126 178.431 177.610  1.00  0.00    -0.550 OA
ENDBRANCH   4   5
ENDBRANCH   3   4
ENDBRANCH   2   3
ENDBRANCH   1   2
BRANCH   1   8
ATOM      8  C   UNL     1     162.879 176.657 181.084  1.00  0.00     0.000 C 
BRANCH   8   9
ATOM      9  C   UNL     1     161.348 176.526 181.146  1.00  0.00    -0.000 C 
BRANCH   9  10
ATOM     10  C   UNL     1     160.883 175.059 181.173  1.00  0.00    -0.000 C 
BRANCH  10  11
ATOM     11  C   UNL     1     162.029 174.072 180.900  1.00  0.00    -0.000 C 
BRANCH  11  12
ATOM     12  C   UNL     1     161.908 172.781 181.724  1.00  0.00    -0.003 C 
ATOM     13  C   UNL     1     160.723 172.851 182.682  1.00  0.00     0.004 C 
ENDBRANCH  11  12
ENDBRANCH  10  11
ENDBRANCH   9  10
ENDBRANCH   8   9
ENDBRANCH   1   8
TORSDOF 9
ENDMDL
MODEL 4
REMARK VINA RESULT:    -3.837      1.223      3.042
REMARK INTER + INTRA:          -6.730
REMARK INTER:                  -5.600
REMARK INTRA:                  -1.131
REMARK UNBOUND:                -0.875
REMARK SMILES CCCCCCCCCCC(=O)[O-]
REMARK SMILES IDX 7 1 8 2 9 3 10 4 11 5 12 6 13 7 6 8 5 9 4 10 3 11 2 12 1 13
REMARK H PARENT
REMARK Flexibility Score: inf
ROOT
ATOM      1  C   UNL     1     162.548 179.113 177.931  1.00  0.00     0.000 C 
ENDROOT
BRANCH   1   2
ATOM      2  C   UNL     1     161.358 178.188 178.228  1.00  0.00     0.000 C 
BRANCH   2   3
ATOM      3  C   UNL     1     161.780 176.721 178.404  1.00  0.00     0.006 C 
BRANCH   3   4
ATOM      4  C   UNL     1     161.529 176.247 179.839  1.00  0.00     0.053 C 
BRANCH   4   5
ATOM      5  C   UNL     1     161.051 174.829 179.847  1.00  0.00     0.041 C 
ATOM      6  O   UNL     1     161.688 173.950 180.484  1.00  0.00    -0.550 OA
ATOM      7  O   UNL     1     159.875 174.488 179.191  1.00  0.00    -0.550 OA
ENDBRANCH   4   5
ENDBRANCH   3   4
ENDBRANCH   2   3
ENDBRANCH   1   2
BRANCH   1   8
ATOM      8  C   UNL     1     162.989 179.923 179.164  1.00  0.00     0.000 C 
BRANCH   8   9
ATOM      9  C   UNL     1     161.864 180.091 180.197  1.00  0.00    -0.000 C 
BRANCH   9  10
ATOM     10  C   UNL     1     162.235 179.510 181.573  1.00  0.00    -0.000 C 
BRANCH  10  11
ATOM     11  C   UNL     1     163.729 179.166 181.684  1.00  0.00    -0.000 C 
BRANCH  11  12
ATOM     12  C   UNL     1     163.987 177.653 181.738  1.00  0.00    -0.003 C 
ATOM     13  C   UNL     1     164.996 177.231 180.674  1.00  0.00     0.004 C 
ENDBRANCH  11  12
ENDBRANCH  10  11
ENDBRANCH   9  10
ENDBRANCH   8   9
ENDBRANCH   1   8
TORSDOF 9
ENDMDL
MODEL 5
REMARK VINA RESULT:    -3.747      1.801      3.761
REMARK INTER + INTRA:          -6.593
REMARK INTER:                  -5.460
REMARK INTRA:                  -1.133
REMARK UNBOUND:                -0.875
REMARK SMILES CCCCCCCCCCC(=O)[O-]
REMARK SMILES IDX 7 1 8 2 9 3 10 4 11 5 12 6 13 7 6 8 5 9 4 10 3 11 2 12 1 13
REMARK H PARENT
REMARK Flexibility Score: inf
ROOT
ATOM      1  C   UNL     1     163.046 179.788 179.459  1.00  0.00     0.000 C 
ENDROOT
BRANCH   1   2
ATOM      2  C   UNL     1     161.931 179.823 178.403  1.00  0.00     0.000 C 
BRANCH   2   3
ATOM      3  C   UNL     1     161.309 178.441 178.154  1.00  0.00     0.006 C 
BRANCH   3   4
ATOM      4  C   UNL     1     162.138 177.641 177.144  1.00  0.00     0.053 C 
BRANCH   4   5
ATOM      5  C   UNL     1     161.414 176.395 176.741  1.00  0.00     0.041 C 
ATOM      6  O   UNL     1     160.156 176.386 176.680  1.00  0.00    -0.550 OA
ATOM      7  O   UNL     1     162.129 175.259 176.385  1.00  0.00    -0.550 OA
ENDBRANCH   4   5
ENDBRANCH   3   4
ENDBRANCH   2   3
ENDBRANCH   1   2
BRANCH   1   8
ATOM      8  C   UNL     1     162.507 179.936 180.894  1.00  0.00     0.000 C 
BRANCH   8   9
ATOM      9  C   UNL     1     163.155 178.946 181.876  1.00  0.00    -0.000 C 
BRANCH   9  10
ATOM     10  C   UNL     1     164.023 177.893 181.165  1.00  0.00    -0.000 C 
BRANCH  10  11
ATOM     11  C   UNL     1     163.589 176.454 181.488  1.00  0.00    -0.000 C 
BRANCH  11  12
ATOM     12  C   UNL     1     162.584 175.896 180.469  1.00  0.00    -0.003 C 
ATOM     13  C   UNL     1     161.162 175.943 181.020  1.00  0.00     0.004 C 
ENDBRANCH  11  12
ENDBRANCH  10  11
ENDBRANCH   9  10
ENDBRANCH   8   9
ENDBRANCH   1   8
TORSDOF 9
ENDMDL
MODEL 6
REMARK VINA RESULT:    -3.745      3.207      5.027
REMARK INTER + INTRA:          -6.590
REMARK INTER:                  -5.476
REMARK INTRA:                  -1.113
REMARK UNBOUND:                -0.875
REMARK SMILES CCCCCCCCCCC(=O)[O-]
REMARK SMILES IDX 7 1 8 2 9 3 10 4 11 5 12 6 13 7 6 8 5 9 4 10 3 11 2 12 1 13
REMARK H PARENT
REMARK Flexibility Score: inf
ROOT
ATOM      1  C   UNL     1     162.488 179.858 181.470  1.00  0.00     0.000 C 
ENDROOT
BRANCH   1   2
ATOM      2  C   UNL     1     161.678 179.197 180.345  1.00  0.00     0.000 C 
BRANCH   2   3
ATOM      3  C   UNL     1     161.744 179.985 179.028  1.00  0.00     0.006 C 
BRANCH   3   4
ATOM      4  C   UNL     1     162.034 179.054 177.846  1.00  0.00     0.053 C 
BRANCH   4   5
ATOM      5  C   UNL     1     163.220 179.541 177.074  1.00  0.00     0.041 C 
ATOM      6  O   UNL     1     164.382 179.389 177.535  1.00  0.00    -0.550 OA
ATOM      7  O   UNL     1     163.045 180.117 175.822  1.00  0.00    -0.550 OA
ENDBRANCH   4   5
ENDBRANCH   3   4
ENDBRANCH   2   3
ENDBRANCH   1   2
BRANCH   1   8
ATOM      8  C   UNL     1     163.604 178.944 182.011  1.00  0.00     0.000 C 
BRANCH   8   9
ATOM      9  C   UNL     1     164.662 178.607 180.949  1.00  0.00    -0.000 C 
BRANCH   9  10
ATOM     10  C   UNL     1     164.754 177.096 180.667  1.00  0.00    -0.000 C 
BRANCH  10  11
ATOM     11  C   UNL     1     163.740 176.281 181.487  1.00  0.00    -0.000 C 
BRANCH  11  12
ATOM     12  C   UNL     1     162.752 175.503 180.605  1.00  0.00    -0.003 C 
ATOM     13  C   UNL     1     161.318 175.693 181.089  1.00  0.00     0.004 C 
ENDBRANCH  11  12
ENDBRANCH  10  11
ENDBRANCH   9  10
ENDBRANCH   8   9
ENDBRANCH   1   8
TORSDOF 9
ENDMDL
MODEL 7
REMARK VINA RESULT:    -3.725      2.831      5.833
REMARK INTER + INTRA:          -6.559
REMARK INTER:                  -5.822
REMARK INTRA:                  -0.738
REMARK UNBOUND:                -0.875
REMARK SMILES CCCCCCCCCCC(=O)[O-]
REMARK SMILES IDX 7 1 8 2 9 3 10 4 11 5 12 6 13 7 6 8 5 9 4 10 3 11 2 12 1 13
REMARK H PARENT
REMARK Flexibility Score: inf
ROOT
ATOM      1  C   UNL     1     162.960 176.467 181.021  1.00  0.00     0.000 C 
ENDROOT
BRANCH   1   2
ATOM      2  C   UNL     1     163.865 177.579 181.575  1.00  0.00     0.000 C 
BRANCH   2   3
ATOM      3  C   UNL     1     163.247 178.976 181.418  1.00  0.00     0.006 C 
BRANCH   3   4
ATOM      4  C   UNL     1     163.814 179.691 180.188  1.00  0.00     0.053 C 
BRANCH   4   5
ATOM      5  C   UNL     1     162.756 179.857 179.144  1.00  0.00     0.041 C 
ATOM      6  O   UNL     1     163.070 179.900 177.925  1.00  0.00    -0.550 OA
ATOM      7  O   UNL     1     161.418 179.913 179.512  1.00  0.00    -0.550 OA
ENDBRANCH   4   5
ENDBRANCH   3   4
ENDBRANCH   2   3
ENDBRANCH   1   2
BRANCH   1   8
ATOM      8  C   UNL     1     161.464 176.813 181.130  1.00  0.00     0.000 C 
BRANCH   8   9
ATOM      9  C   UNL     1     160.572 175.565 181.234  1.00  0.00    -0.000 C 
BRANCH   9  10
ATOM     10  C   UNL     1     161.343 174.265 180.946  1.00  0.00    -0.000 C 
BRANCH  10  11
ATOM     11  C   UNL     1     161.087 173.181 182.006  1.00  0.00    -0.000 C 
BRANCH  11  12
ATOM     12  C   UNL     1     162.314 172.290 182.252  1.00  0.00    -0.003 C 
ATOM     13  C   UNL     1     163.509 173.120 182.713  1.00  0.00     0.004 C 
ENDBRANCH  11  12
ENDBRANCH  10  11
ENDBRANCH   9  10
ENDBRANCH   8   9
ENDBRANCH   1   8
TORSDOF 9
ENDMDL
MODEL 8
REMARK VINA RESULT:    -2.684      1.680      2.435
REMARK INTER + INTRA:          -4.972
REMARK INTER:                  -3.553
REMARK INTRA:                  -1.419
REMARK UNBOUND:                -0.875
REMARK SMILES CCCCCCCCCCC(=O)[O-]
REMARK SMILES IDX 7 1 8 2 9 3 10 4 11 5 12 6 13 7 6 8 5 9 4 10 3 11 2 12 1 13
REMARK H PARENT
REMARK Flexibility Score: inf
ROOT
ATOM      1  C   UNL     1     164.088 178.888 181.442  1.00  0.00     0.000 C 
ENDROOT
BRANCH   1   2
ATOM      2  C   UNL     1     164.419 177.431 181.085  1.00  0.00     0.000 C 
BRANCH   2   3
ATOM      3  C   UNL     1     163.195 176.507 181.181  1.00  0.00     0.006 C 
BRANCH   3   4
ATOM      4  C   UNL     1     162.885 175.864 179.826  1.00  0.00     0.053 C 
BRANCH   4   5
ATOM      5  C   UNL     1     161.409 175.832 179.586  1.00  0.00     0.041 C 
ATOM      6  O   UNL     1     160.608 175.891 180.557  1.00  0.00    -0.550 OA
ATOM      7  O   UNL     1     160.916 175.789 178.289  1.00  0.00    -0.550 OA
ENDBRANCH   4   5
ENDBRANCH   3   4
ENDBRANCH   2   3
ENDBRANCH   1   2
BRANCH   1   8
ATOM      8  C   UNL     1     162.649 179.058 181.962  1.00  0.00     0.000 C 
BRANCH   8   9
ATOM      9  C   UNL     1     161.789 179.947 181.049  1.00  0.00    -0.000 C 
BRANCH   9  10
ATOM     10  C   UNL     1     162.405 180.125 179.650  1.00  0.00    -0.000 C 
BRANCH  10  11
ATOM     11  C   UNL     1     161.568 179.456 178.547  1.00  0.00    -0.000 C 
BRANCH  11  12
ATOM     12  C   UNL     1     162.433 178.846 177.434  1.00  0.00    -0.003 C 
ATOM     13  C   UNL     1     163.918 178.996 177.749  1.00  0.00     0.004 C 
ENDBRANCH  11  12
ENDBRANCH  10  11
ENDBRANCH   9  10
ENDBRANCH   8   9
ENDBRANCH   1   8
TORSDOF 9
ENDMDL
