MODEL 1
REMARK VINA RESULT:    -4.155      0.000      0.000
REMARK INTER + INTRA:          -5.946
REMARK INTER:                  -5.613
REMARK INTRA:                  -0.333
REMARK UNBOUND:                -0.333
REMARK SMILES CCCCCCCC(=O)[O-]
REMARK SMILES IDX 5 1 6 2 7 3 8 4 9 5 10 6 4 7 3 8 2 9 1 10
REMARK H PARENT
REMARK Flexibility Score: inf
ROOT
ATOM      1  C   UNL     1     -10.831 -19.809  31.625  1.00  0.00     0.000 C 
ENDROOT
BRANCH   1   2
ATOM      2  C   UNL     1     -12.285 -20.276  31.792  1.00  0.00     0.006 C 
BRANCH   2   3
ATOM      3  C   UNL     1     -12.926 -19.637  33.027  1.00  0.00     0.053 C 
BRANCH   3   4
ATOM      4  C   UNL     1     -12.244 -20.103  34.274  1.00  0.00     0.041 C 
ATOM      5  O   UNL     1     -12.276 -21.319  34.597  1.00  0.00    -0.550 OA
ATOM      6  O   UNL     1     -11.530 -19.203  35.054  1.00  0.00    -0.550 OA
ENDBRANCH   3   4
ENDBRANCH   2   3
ENDBRANCH   1   2
BRANCH   1   7
ATOM      7  C   UNL     1     -10.727 -18.347  31.158  1.00  0.00     0.000 C 
BRANCH   7   8
ATOM      8  C   UNL     1     -10.703 -18.217  29.625  1.00  0.00    -0.000 C 
BRANCH   8   9
ATOM      9  C   UNL     1      -9.672 -19.151  28.971  1.00  0.00    -0.003 C 
ATOM     10  C   UNL     1      -9.683 -19.070  27.445  1.00  0.00     0.004 C 
ENDBRANCH   8   9
ENDBRANCH   7   8
ENDBRANCH   1   7
TORSDOF 6
ENDMDL
MODEL 2
REMARK VINA RESULT:    -4.114      4.106      4.797
REMARK INTER + INTRA:          -5.891
REMARK INTER:                  -5.675
REMARK INTRA:                  -0.216
REMARK UNBOUND:                -0.333
REMARK SMILES CCCCCCCC(=O)[O-]
REMARK SMILES IDX 5 1 6 2 7 3 8 4 9 5 10 6 4 7 3 8 2 9 1 10
REMARK H PARENT
REMARK Flexibility Score: inf
ROOT
ATOM      1  C   UNL     1      -8.284 -18.716  31.038  1.00  0.00     0.000 C 
ENDROOT
BRANCH   1   2
ATOM      2  C   UNL     1      -7.421 -18.081  32.139  1.00  0.00     0.006 C 
BRANCH   2   3
ATOM      3  C   UNL     1      -6.970 -19.133  33.156  1.00  0.00     0.053 C 
BRANCH   3   4
ATOM      4  C   UNL     1      -5.478 -19.246  33.169  1.00  0.00     0.041 C 
ATOM      5  O   UNL     1      -4.930 -20.373  33.290  1.00  0.00    -0.550 OA
ATOM      6  O   UNL     1      -4.694 -18.114  32.997  1.00  0.00    -0.550 OA
ENDBRANCH   3   4
ENDBRANCH   2   3
ENDBRANCH   1   2
BRANCH   1   7
ATOM      7  C   UNL     1      -9.774 -18.358  31.170  1.00  0.00     0.000 C 
BRANCH   7   8
ATOM      8  C   UNL     1     -10.519 -18.427  29.826  1.00  0.00    -0.000 C 
BRANCH   8   9
ATOM      9  C   UNL     1      -9.971 -19.528  28.905  1.00  0.00    -0.003 C 
ATOM     10  C   UNL     1      -9.700 -19.033  27.484  1.00  0.00     0.004 C 
ENDBRANCH   8   9
ENDBRANCH   7   8
ENDBRANCH   1   7
TORSDOF 6
ENDMDL
MODEL 3
REMARK VINA RESULT:    -4.052      2.301      2.793
REMARK INTER + INTRA:          -5.807
REMARK INTER:                  -5.498
REMARK INTRA:                  -0.309
REMARK UNBOUND:                -0.333
REMARK SMILES CCCCCCCC(=O)[O-]
REMARK SMILES IDX 5 1 6 2 7 3 8 4 9 5 10 6 4 7 3 8 2 9 1 10
REMARK H PARENT
REMARK Flexibility Score: inf
ROOT
ATOM      1  C   UNL     1      -9.158 -18.374  31.697  1.00  0.00     0.000 C 
ENDROOT
BRANCH   1   2
ATOM      2  C   UNL     1      -9.146 -19.119  33.040  1.00  0.00     0.006 C 
BRANCH   2   3
ATOM      3  C   UNL     1      -9.570 -20.580  32.860  1.00  0.00     0.053 C 
BRANCH   3   4
ATOM      4  C   UNL     1      -8.893 -21.451  33.869  1.00  0.00     0.041 C 
ATOM      5  O   UNL     1      -7.638 -21.434  33.980  1.00  0.00    -0.550 OA
ATOM      6  O   UNL     1      -9.648 -22.245  34.722  1.00  0.00    -0.550 OA
ENDBRANCH   3   4
ENDBRANCH   2   3
ENDBRANCH   1   2
BRANCH   1   7
ATOM      7  C   UNL     1     -10.580 -18.071  31.197  1.00  0.00     0.000 C 
BRANCH   7   8
ATOM      8  C   UNL     1     -10.722 -18.246  29.676  1.00  0.00    -0.000 C 
BRANCH   8   9
ATOM      9  C   UNL     1      -9.504 -18.941  29.048  1.00  0.00    -0.003 C 
ATOM     10  C   UNL     1      -9.654 -19.153  27.541  1.00  0.00     0.004 C 
ENDBRANCH   8   9
ENDBRANCH   7   8
ENDBRANCH   1   7
TORSDOF 6
ENDMDL
MODEL 4
REMARK VINA RESULT:    -3.953     18.960     20.502
REMARK INTER + INTRA:          -5.673
REMARK INTER:                  -5.511
REMARK INTRA:                  -0.163
REMARK UNBOUND:                -0.333
REMARK SMILES CCCCCCCC(=O)[O-]
REMARK SMILES IDX 5 1 6 2 7 3 8 4 9 5 10 6 4 7 3 8 2 9 1 10
REMARK H PARENT
REMARK Flexibility Score: inf
ROOT
ATOM      1  C   UNL     1      -2.169 -35.686  21.733  1.00  0.00     0.000 C 
ENDROOT
BRANCH   1   2
ATOM      2  C   UNL     1      -2.754 -34.766  22.814  1.00  0.00     0.006 C 
BRANCH   2   3
ATOM      3  C   UNL     1      -1.879 -33.525  23.009  1.00  0.00     0.053 C 
BRANCH   3   4
ATOM      4  C   UNL     1      -2.439 -32.650  24.085  1.00  0.00     0.041 C 
ATOM      5  O   UNL     1      -2.124 -32.846  25.289  1.00  0.00    -0.550 OA
ATOM      6  O   UNL     1      -3.269 -31.587  23.756  1.00  0.00    -0.550 OA
ENDBRANCH   3   4
ENDBRANCH   2   3
ENDBRANCH   1   2
BRANCH   1   7
ATOM      7  C   UNL     1      -2.665 -37.137  21.855  1.00  0.00     0.000 C 
BRANCH   7   8
ATOM      8  C   UNL     1      -2.683 -37.871  20.503  1.00  0.00    -0.000 C 
BRANCH   8   9
ATOM      9  C   UNL     1      -4.110 -38.113  19.985  1.00  0.00    -0.003 C 
ATOM     10  C   UNL     1      -4.376 -37.429  18.644  1.00  0.00     0.004 C 
ENDBRANCH   8   9
ENDBRANCH   7   8
ENDBRANCH   1   7
TORSDOF 6
ENDMDL
MODEL 5
REMARK VINA RESULT:    -3.934      3.509      5.171
REMARK INTER + INTRA:          -5.647
REMARK INTER:                  -5.184
REMARK INTRA:                  -0.463
REMARK UNBOUND:                -0.333
REMARK SMILES CCCCCCCC(=O)[O-]
REMARK SMILES IDX 5 1 6 2 7 3 8 4 9 5 10 6 4 7 3 8 2 9 1 10
REMARK H PARENT
REMARK Flexibility Score: inf
ROOT
ATOM      1  C   UNL     1      -8.984 -18.167  31.844  1.00  0.00     0.000 C 
ENDROOT
BRANCH   1   2
ATOM      2  C   UNL     1      -8.771 -18.884  30.503  1.00  0.00     0.006 C 
BRANCH   2   3
ATOM      3  C   UNL     1      -9.940 -18.620  29.549  1.00  0.00     0.053 C 
BRANCH   3   4
ATOM      4  C   UNL     1      -9.915 -19.587  28.408  1.00  0.00     0.041 C 
ATOM      5  O   UNL     1      -9.579 -19.200  27.258  1.00  0.00    -0.550 OA
ATOM      6  O   UNL     1     -10.214 -20.925  28.624  1.00  0.00    -0.550 OA
ENDBRANCH   3   4
ENDBRANCH   2   3
ENDBRANCH   1   2
BRANCH   1   7
ATOM      7  C   UNL     1      -9.021 -19.137  33.038  1.00  0.00     0.000 C 
BRANCH   7   8
ATOM      8  C   UNL     1      -9.860 -20.394  32.752  1.00  0.00    -0.000 C 
BRANCH   8   9
ATOM      9  C   UNL     1     -11.337 -20.215  33.136  1.00  0.00    -0.003 C 
ATOM     10  C   UNL     1     -12.266 -20.185  31.923  1.00  0.00     0.004 C 
ENDBRANCH   8   9
ENDBRANCH   7   8
ENDBRANCH   1   7
TORSDOF 6
ENDMDL
MODEL 6
REMARK VINA RESULT:    -3.867      2.634      4.318
REMARK INTER + INTRA:          -5.556
REMARK INTER:                  -5.077
REMARK INTRA:                  -0.479
REMARK UNBOUND:                -0.333
REMARK SMILES CCCCCCCC(=O)[O-]
REMARK SMILES IDX 5 1 6 2 7 3 8 4 9 5 10 6 4 7 3 8 2 9 1 10
REMARK H PARENT
REMARK Flexibility Score: inf
ROOT
ATOM      1  C   UNL     1      -9.591 -18.716  29.527  1.00  0.00     0.000 C 
ENDROOT
BRANCH   1   2
ATOM      2  C   UNL     1      -8.224 -18.714  30.225  1.00  0.00     0.006 C 
BRANCH   2   3
ATOM      3  C   UNL     1      -8.351 -18.240  31.676  1.00  0.00     0.053 C 
BRANCH   3   4
ATOM      4  C   UNL     1      -7.738 -19.236  32.610  1.00  0.00     0.041 C 
ATOM      5  O   UNL     1      -8.455 -20.114  33.158  1.00  0.00    -0.550 OA
ATOM      6  O   UNL     1      -6.369 -19.226  32.836  1.00  0.00    -0.550 OA
ENDBRANCH   3   4
ENDBRANCH   2   3
ENDBRANCH   1   2
BRANCH   1   7
ATOM      7  C   UNL     1     -10.765 -18.756  30.520  1.00  0.00     0.000 C 
BRANCH   7   8
ATOM      8  C   UNL     1     -11.280 -20.184  30.769  1.00  0.00    -0.000 C 
BRANCH   8   9
ATOM      9  C   UNL     1     -12.279 -20.254  31.935  1.00  0.00    -0.003 C 
ATOM     10  C   UNL     1     -11.916 -19.314  33.084  1.00  0.00     0.004 C 
ENDBRANCH   8   9
ENDBRANCH   7   8
ENDBRANCH   1   7
TORSDOF 6
ENDMDL
MODEL 7
REMARK VINA RESULT:    -3.863     21.254     22.850
REMARK INTER + INTRA:          -5.552
REMARK INTER:                  -5.214
REMARK INTRA:                  -0.338
REMARK UNBOUND:                -0.333
REMARK SMILES CCCCCCCC(=O)[O-]
REMARK SMILES IDX 5 1 6 2 7 3 8 4 9 5 10 6 4 7 3 8 2 9 1 10
REMARK H PARENT
REMARK Flexibility Score: inf
ROOT
ATOM      1  C   UNL     1       0.316 -37.504  21.307  1.00  0.00     0.000 C 
ENDROOT
BRANCH   1   2
ATOM      2  C   UNL     1      -1.106 -36.926  21.282  1.00  0.00     0.006 C 
BRANCH   2   3
ATOM      3  C   UNL     1      -1.084 -35.409  21.492  1.00  0.00     0.053 C 
BRANCH   3   4
ATOM      4  C   UNL     1      -2.271 -34.971  22.290  1.00  0.00     0.041 C 
ATOM      5  O   UNL     1      -3.277 -35.721  22.390  1.00  0.00    -0.550 OA
ATOM      6  O   UNL     1      -2.246 -33.758  22.965  1.00  0.00    -0.550 OA
ENDBRANCH   3   4
ENDBRANCH   2   3
ENDBRANCH   1   2
BRANCH   1   7
ATOM      7  C   UNL     1       1.400 -36.414  21.365  1.00  0.00     0.000 C 
BRANCH   7   8
ATOM      8  C   UNL     1       2.404 -36.516  20.204  1.00  0.00    -0.000 C 
BRANCH   8   9
ATOM      9  C   UNL     1       1.869 -37.359  19.036  1.00  0.00    -0.003 C 
ATOM     10  C   UNL     1       2.577 -37.061  17.715  1.00  0.00     0.004 C 
ENDBRANCH   8   9
ENDBRANCH   7   8
ENDBRANCH   1   7
TORSDOF 6
ENDMDL
MODEL 8
REMARK VINA RESULT:    -3.851      3.184      5.467
REMARK INTER + INTRA:          -5.536
REMARK INTER:                  -5.264
REMARK INTRA:                  -0.272
REMARK UNBOUND:                -0.333
REMARK SMILES CCCCCCCC(=O)[O-]
REMARK SMILES IDX 5 1 6 2 7 3 8 4 9 5 10 6 4 7 3 8 2 9 1 10
REMARK H PARENT
REMARK Flexibility Score: inf
ROOT
ATOM      1  C   UNL     1     -10.601 -19.687  31.750  1.00  0.00     0.000 C 
ENDROOT
BRANCH   1   2
ATOM      2  C   UNL     1     -10.431 -18.276  31.168  1.00  0.00     0.006 C 
BRANCH   2   3
ATOM      3  C   UNL     1     -10.711 -18.267  29.662  1.00  0.00     0.053 C 
BRANCH   3   4
ATOM      4  C   UNL     1      -9.567 -18.874  28.911  1.00  0.00     0.041 C 
ATOM      5  O   UNL     1      -9.778 -19.516  27.849  1.00  0.00    -0.550 OA
ATOM      6  O   UNL     1      -8.266 -18.687  29.356  1.00  0.00    -0.550 OA
ENDBRANCH   3   4
ENDBRANCH   2   3
ENDBRANCH   1   2
BRANCH   1   7
ATOM      7  C   UNL     1     -12.065 -20.159  31.744  1.00  0.00     0.000 C 
BRANCH   7   8
ATOM      8  C   UNL     1     -12.788 -19.858  33.068  1.00  0.00    -0.000 C 
BRANCH   8   9
ATOM      9  C   UNL     1     -12.037 -20.415  34.288  1.00  0.00    -0.003 C 
ATOM     10  C   UNL     1     -12.977 -20.923  35.381  1.00  0.00     0.004 C 
ENDBRANCH   8   9
ENDBRANCH   7   8
ENDBRANCH   1   7
TORSDOF 6
ENDMDL
MODEL 9
REMARK VINA RESULT:    -3.811      4.607      5.550
REMARK INTER + INTRA:          -5.481
REMARK INTER:                  -5.252
REMARK INTRA:                  -0.229
REMARK UNBOUND:                -0.333
REMARK SMILES CCCCCCCC(=O)[O-]
REMARK SMILES IDX 5 1 6 2 7 3 8 4 9 5 10 6 4 7 3 8 2 9 1 10
REMARK H PARENT
REMARK Flexibility Score: inf
ROOT
ATOM      1  C   UNL     1      -8.171 -18.697  30.852  1.00  0.00     0.000 C 
ENDROOT
BRANCH   1   2
ATOM      2  C   UNL     1      -9.670 -19.025  30.907  1.00  0.00     0.006 C 
BRANCH   2   3
ATOM      3  C   UNL     1     -10.372 -18.604  29.612  1.00  0.00     0.053 C 
BRANCH   3   4
ATOM      4  C   UNL     1      -9.998 -19.520  28.490  1.00  0.00     0.041 C 
ATOM      5  O   UNL     1     -10.062 -20.768  28.643  1.00  0.00    -0.550 OA
ATOM      6  O   UNL     1      -9.626 -18.996  27.259  1.00  0.00    -0.550 OA
ENDBRANCH   3   4
ENDBRANCH   2   3
ENDBRANCH   1   2
BRANCH   1   7
ATOM      7  C   UNL     1      -7.698 -17.876  32.063  1.00  0.00     0.000 C 
BRANCH   7   8
ATOM      8  C   UNL     1      -7.042 -18.749  33.147  1.00  0.00    -0.000 C 
BRANCH   8   9
ATOM      9  C   UNL     1      -5.638 -19.228  32.747  1.00  0.00    -0.003 C 
ATOM     10  C   UNL     1      -4.537 -18.255  33.168  1.00  0.00     0.004 C 
ENDBRANCH   8   9
ENDBRANCH   7   8
ENDBRANCH   1   7
TORSDOF 6
ENDMDL
