MODEL 1
REMARK VINA RESULT:     1.188      0.000      0.000
REMARK INTER + INTRA:           1.166
REMARK INTER:                   1.500
REMARK INTRA:                  -0.334
REMARK UNBOUND:                -0.334
REMARK SMILES CC(C)=CCCC(C)=CCO
REMARK SMILES IDX 7 1 9 2 8 3 6 4 5 5 4 6 1 7 2 8 3 9 10 10 11 11
REMARK H PARENT 11 12
REMARK Flexibility Score: inf
ROOT
ATOM      1  C   UNL     1      41.799   1.345 -19.512  1.00  0.00    -0.075 C 
ATOM      2  C   UNL     1      42.782   0.678 -20.158  1.00  0.00    -0.000 C 
ATOM      3  C   UNL     1      41.931   2.810 -19.170  1.00  0.00     0.039 C 
ENDROOT
BRANCH   1   4
ATOM      4  C   UNL     1      40.531   0.610 -19.137  1.00  0.00     0.034 C 
BRANCH   4   5
ATOM      5  C   UNL     1      39.880   1.241 -17.901  1.00  0.00     0.032 C 
BRANCH   5   6
ATOM      6  C   UNL     1      39.875   0.272 -16.746  1.00  0.00    -0.028 C 
ATOM      7  C   UNL     1      40.241   2.064 -15.034  1.00  0.00     0.039 C 
ATOM      8  C   UNL     1      40.011   0.630 -15.449  1.00  0.00    -0.080 C 
ATOM      9  C   UNL     1      39.947  -0.447 -14.397  1.00  0.00     0.039 C 
ENDBRANCH   5   6
ENDBRANCH   4   5
ENDBRANCH   1   4
BRANCH   2  10
ATOM     10  C   UNL     1      44.081   1.305 -20.585  1.00  0.00     0.183 C 
BRANCH  10  11
ATOM     11  O   UNL     1      44.555   0.674 -21.741  1.00  0.00    -0.392 OA
ATOM     12  H   UNL     1      45.444   0.302 -21.507  1.00  0.00     0.210 HD
ENDBRANCH  10  11
ENDBRANCH   2  10
TORSDOF 5
ENDMDL
MODEL 2
REMARK VINA RESULT:     1.696      2.214      3.691
REMARK INTER + INTRA:           1.808
REMARK INTER:                   1.999
REMARK INTRA:                  -0.192
REMARK UNBOUND:                -0.334
REMARK SMILES CC(C)=CCCC(C)=CCO
REMARK SMILES IDX 7 1 9 2 8 3 6 4 5 5 4 6 1 7 2 8 3 9 10 10 11 11
REMARK H PARENT 11 12
REMARK Flexibility Score: inf
ROOT
ATOM      1  C   UNL     1      40.151   1.220 -17.187  1.00  0.00    -0.075 C 
ATOM      2  C   UNL     1      40.645   2.409 -17.601  1.00  0.00    -0.000 C 
ATOM      3  C   UNL     1      39.879   0.096 -18.158  1.00  0.00     0.039 C 
ENDROOT
BRANCH   1   4
ATOM      4  C   UNL     1      39.876   1.008 -15.714  1.00  0.00     0.034 C 
BRANCH   4   5
ATOM      5  C   UNL     1      40.323  -0.390 -15.273  1.00  0.00     0.032 C 
BRANCH   5   6
ATOM      6  C   UNL     1      40.135  -0.567 -13.786  1.00  0.00    -0.028 C 
ATOM      7  C   UNL     1      40.184  -3.069 -13.917  1.00  0.00     0.039 C 
ATOM      8  C   UNL     1      40.095  -1.765 -13.160  1.00  0.00    -0.080 C 
ATOM      9  C   UNL     1      39.940  -1.785 -11.661  1.00  0.00     0.039 C 
ENDBRANCH   5   6
ENDBRANCH   4   5
ENDBRANCH   1   4
BRANCH   2  10
ATOM     10  C   UNL     1      40.960   2.733 -19.035  1.00  0.00     0.183 C 
BRANCH  10  11
ATOM     11  O   UNL     1      42.089   3.558 -19.098  1.00  0.00    -0.392 OA
ATOM     12  H   UNL     1      41.749   4.489 -19.087  1.00  0.00     0.210 HD
ENDBRANCH  10  11
ENDBRANCH   2  10
TORSDOF 5
ENDMDL
MODEL 3
REMARK VINA RESULT:     1.730     16.728     18.395
REMARK INTER + INTRA:           1.851
REMARK INTER:                   1.201
REMARK INTRA:                   0.651
REMARK UNBOUND:                -0.334
REMARK SMILES CC(C)=CCCC(C)=CCO
REMARK SMILES IDX 7 1 9 2 8 3 6 4 5 5 4 6 1 7 2 8 3 9 10 10 11 11
REMARK H PARENT 11 12
REMARK Flexibility Score: inf
ROOT
ATOM      1  C   UNL     1      58.558   1.440 -21.062  1.00  0.00    -0.075 C 
ATOM      2  C   UNL     1      59.753   0.822 -21.206  1.00  0.00    -0.000 C 
ATOM      3  C   UNL     1      57.338   0.987 -21.829  1.00  0.00     0.039 C 
ENDROOT
BRANCH   1   4
ATOM      4  C   UNL     1      58.439   2.602 -20.101  1.00  0.00     0.034 C 
BRANCH   4   5
ATOM      5  C   UNL     1      59.823   3.103 -19.677  1.00  0.00     0.032 C 
BRANCH   5   6
ATOM      6  C   UNL     1      60.109   4.457 -20.275  1.00  0.00    -0.028 C 
ATOM      7  C   UNL     1      58.287   5.591 -18.982  1.00  0.00     0.039 C 
ATOM      8  C   UNL     1      59.444   5.589 -19.954  1.00  0.00    -0.080 C 
ATOM      9  C   UNL     1      59.867   6.880 -20.607  1.00  0.00     0.039 C 
ENDBRANCH   5   6
ENDBRANCH   4   5
ENDBRANCH   1   4
BRANCH   2  10
ATOM     10  C   UNL     1      59.990  -0.344 -22.125  1.00  0.00     0.183 C 
BRANCH  10  11
ATOM     11  O   UNL     1      58.889  -1.207 -22.091  1.00  0.00    -0.392 OA
ATOM     12  H   UNL     1      58.931  -1.672 -21.216  1.00  0.00     0.210 HD
ENDBRANCH  10  11
ENDBRANCH   2  10
TORSDOF 5
ENDMDL
MODEL 4
REMARK VINA RESULT:     1.966     17.116     18.685
REMARK INTER + INTRA:           2.149
REMARK INTER:                   2.130
REMARK INTRA:                   0.019
REMARK UNBOUND:                -0.334
REMARK SMILES CC(C)=CCCC(C)=CCO
REMARK SMILES IDX 7 1 9 2 8 3 6 4 5 5 4 6 1 7 2 8 3 9 10 10 11 11
REMARK H PARENT 11 12
REMARK Flexibility Score: inf
ROOT
ATOM      1  C   UNL     1      59.652   4.230 -19.886  1.00  0.00    -0.075 C 
ATOM      2  C   UNL     1      58.981   5.324 -19.461  1.00  0.00    -0.000 C 
ATOM      3  C   UNL     1      60.113   4.093 -21.318  1.00  0.00     0.039 C 
ENDROOT
BRANCH   1   4
ATOM      4  C   UNL     1      59.958   3.123 -18.902  1.00  0.00     0.034 C 
BRANCH   4   5
ATOM      5  C   UNL     1      60.112   1.779 -19.623  1.00  0.00     0.032 C 
BRANCH   5   6
ATOM      6  C   UNL     1      58.856   1.433 -20.383  1.00  0.00    -0.028 C 
ATOM      7  C   UNL     1      60.081   0.112 -22.123  1.00  0.00     0.039 C 
ATOM      8  C   UNL     1      58.824   0.664 -21.494  1.00  0.00    -0.080 C 
ATOM      9  C   UNL     1      57.487   0.371 -22.125  1.00  0.00     0.039 C 
ENDBRANCH   5   6
ENDBRANCH   4   5
ENDBRANCH   1   4
BRANCH   2  10
ATOM     10  C   UNL     1      58.625   6.487 -20.345  1.00  0.00     0.183 C 
BRANCH  10  11
ATOM     11  O   UNL     1      59.762   7.267 -20.584  1.00  0.00    -0.392 OA
ATOM     12  H   UNL     1      60.117   7.516 -19.692  1.00  0.00     0.210 HD
ENDBRANCH  10  11
ENDBRANCH   2  10
TORSDOF 5
ENDMDL
MODEL 5
REMARK VINA RESULT:     1.998      3.158      5.677
REMARK INTER + INTRA:           2.190
REMARK INTER:                   2.478
REMARK INTRA:                  -0.288
REMARK UNBOUND:                -0.334
REMARK SMILES CC(C)=CCCC(C)=CCO
REMARK SMILES IDX 7 1 9 2 8 3 6 4 5 5 4 6 1 7 2 8 3 9 10 10 11 11
REMARK H PARENT 11 12
REMARK Flexibility Score: inf
ROOT
ATOM      1  C   UNL     1      39.988   0.569 -16.018  1.00  0.00    -0.075 C 
ATOM      2  C   UNL     1      39.902  -0.517 -15.216  1.00  0.00    -0.000 C 
ATOM      3  C   UNL     1      40.207   1.952 -15.454  1.00  0.00     0.039 C 
ENDROOT
BRANCH   1   4
ATOM      4  C   UNL     1      39.875   0.390 -17.517  1.00  0.00     0.034 C 
BRANCH   4   5
ATOM      5  C   UNL     1      40.292   1.669 -18.251  1.00  0.00     0.032 C 
BRANCH   5   6
ATOM      6  C   UNL     1      41.619   1.481 -18.942  1.00  0.00    -0.028 C 
ATOM      7  C   UNL     1      41.781   3.883 -19.634  1.00  0.00     0.039 C 
ATOM      8  C   UNL     1      42.313   2.472 -19.546  1.00  0.00    -0.080 C 
ATOM      9  C   UNL     1      43.647   2.141 -20.163  1.00  0.00     0.039 C 
ENDBRANCH   5   6
ENDBRANCH   4   5
ENDBRANCH   1   4
BRANCH   2  10
ATOM     10  C   UNL     1      40.004  -0.463 -13.717  1.00  0.00     0.183 C 
BRANCH  10  11
ATOM     11  O   UNL     1      39.880  -1.751 -13.186  1.00  0.00    -0.392 OA
ATOM     12  H   UNL     1      40.334  -2.357 -13.826  1.00  0.00     0.210 HD
ENDBRANCH  10  11
ENDBRANCH   2  10
TORSDOF 5
ENDMDL
MODEL 6
REMARK VINA RESULT:     2.346      2.648      5.884
REMARK INTER + INTRA:           2.629
REMARK INTER:                   2.846
REMARK INTRA:                  -0.218
REMARK UNBOUND:                -0.334
REMARK SMILES CC(C)=CCCC(C)=CCO
REMARK SMILES IDX 7 1 9 2 8 3 6 4 5 5 4 6 1 7 2 8 3 9 10 10 11 11
REMARK H PARENT 11 12
REMARK Flexibility Score: inf
ROOT
ATOM      1  C   UNL     1      40.754   1.035 -18.760  1.00  0.00    -0.075 C 
ATOM      2  C   UNL     1      40.622   0.415 -17.566  1.00  0.00    -0.000 C 
ATOM      3  C   UNL     1      40.151   2.397 -19.013  1.00  0.00     0.039 C 
ENDROOT
BRANCH   1   4
ATOM      4  C   UNL     1      41.535   0.355 -19.863  1.00  0.00     0.034 C 
BRANCH   4   5
ATOM      5  C   UNL     1      42.781   1.168 -20.230  1.00  0.00     0.032 C 
BRANCH   5   6
ATOM      6  C   UNL     1      43.886   0.262 -20.713  1.00  0.00    -0.028 C 
ATOM      7  C   UNL     1      44.944   2.041 -22.125  1.00  0.00     0.039 C 
ATOM      8  C   UNL     1      44.880   0.648 -21.545  1.00  0.00    -0.080 C 
ATOM      9  C   UNL     1      45.940  -0.358 -21.912  1.00  0.00     0.039 C 
ENDBRANCH   5   6
ENDBRANCH   4   5
ENDBRANCH   1   4
BRANCH   2  10
ATOM     10  C   UNL     1      39.875   0.995 -16.396  1.00  0.00     0.183 C 
BRANCH  10  11
ATOM     11  O   UNL     1      40.747   1.171 -15.316  1.00  0.00    -0.392 OA
ATOM     12  H   UNL     1      41.639   1.353 -15.710  1.00  0.00     0.210 HD
ENDBRANCH  10  11
ENDBRANCH   2  10
TORSDOF 5
ENDMDL
MODEL 7
REMARK VINA RESULT:     2.569      2.698      4.494
REMARK INTER + INTRA:           2.911
REMARK INTER:                   3.174
REMARK INTRA:                  -0.264
REMARK UNBOUND:                -0.334
REMARK SMILES CC(C)=CCCC(C)=CCO
REMARK SMILES IDX 7 1 9 2 8 3 6 4 5 5 4 6 1 7 2 8 3 9 10 10 11 11
REMARK H PARENT 11 12
REMARK Flexibility Score: inf
ROOT
ATOM      1  C   UNL     1      45.733   0.922 -21.691  1.00  0.00    -0.075 C 
ATOM      2  C   UNL     1      45.891  -0.351 -22.120  1.00  0.00    -0.000 C 
ATOM      3  C   UNL     1      46.900   1.732 -21.177  1.00  0.00     0.039 C 
ENDROOT
BRANCH   1   4
ATOM      4  C   UNL     1      44.359   1.552 -21.739  1.00  0.00     0.034 C 
BRANCH   4   5
ATOM      5  C   UNL     1      43.873   1.909 -20.330  1.00  0.00     0.032 C 
BRANCH   5   6
ATOM      6  C   UNL     1      42.671   1.079 -19.953  1.00  0.00    -0.028 C 
ATOM      7  C   UNL     1      41.420   3.032 -19.007  1.00  0.00     0.039 C 
ATOM      8  C   UNL     1      41.551   1.575 -19.380  1.00  0.00    -0.080 C 
ATOM      9  C   UNL     1      40.413   0.629 -19.095  1.00  0.00     0.039 C 
ENDBRANCH   5   6
ENDBRANCH   4   5
ENDBRANCH   1   4
BRANCH   2  10
ATOM     10  C   UNL     1      47.207  -1.079 -22.124  1.00  0.00     0.183 C 
BRANCH  10  11
ATOM     11  O   UNL     1      46.985  -2.460 -22.116  1.00  0.00    -0.392 OA
ATOM     12  H   UNL     1      47.182  -2.764 -21.192  1.00  0.00     0.210 HD
ENDBRANCH  10  11
ENDBRANCH   2  10
TORSDOF 5
ENDMDL
