MODEL 1
REMARK VINA RESULT:    -4.041      0.000      0.000
REMARK INTER + INTRA:          -9.327
REMARK INTER:                  -7.584
REMARK INTRA:                  -1.742
REMARK UNBOUND:                -1.742
REMARK SMILES O=C([O-])CCCCCCCCCCCCCCC(=O)[O-]
REMARK SMILES IDX 10 1 9 2 8 3 7 4 6 5 5 6 4 7 2 8 1 9 3 10 11 11 12 12 13 13
REMARK SMILES IDX 14 14 15 15 16 16 17 17 18 18 19 19 20 20
REMARK H PARENT
REMARK Flexibility Score: inf
ROOT
ATOM      1  C   UNL     1      26.234  32.093  35.921  1.00  0.00     0.000 C 
ENDROOT
BRANCH   1   2
ATOM      2  C   UNL     1      27.608  31.744  36.519  1.00  0.00     0.000 C 
BRANCH   2   3
ATOM      3  C   UNL     1      28.370  32.985  37.013  1.00  0.00     0.000 C 
BRANCH   3   4
ATOM      4  C   UNL     1      29.619  33.291  36.169  1.00  0.00     0.000 C 
BRANCH   4   5
ATOM      5  C   UNL     1      29.640  32.518  34.841  1.00  0.00     0.000 C 
BRANCH   5   6
ATOM      6  C   UNL     1      30.710  31.417  34.816  1.00  0.00     0.006 C 
BRANCH   6   7
ATOM      7  C   UNL     1      30.788  30.762  33.434  1.00  0.00     0.053 C 
BRANCH   7   8
ATOM      8  C   UNL     1      30.131  29.417  33.451  1.00  0.00     0.041 C 
ATOM      9  O   UNL     1      29.675  28.949  34.528  1.00  0.00    -0.550 OA
ATOM     10  O   UNL     1      29.975  28.704  32.269  1.00  0.00    -0.550 OA
ENDBRANCH   7   8
ENDBRANCH   6   7
ENDBRANCH   5   6
ENDBRANCH   4   5
ENDBRANCH   3   4
ENDBRANCH   2   3
ENDBRANCH   1   2
BRANCH   1  11
ATOM     11  C   UNL     1      25.629  33.362  36.544  1.00  0.00     0.000 C 
BRANCH  11  12
ATOM     12  C   UNL     1      25.494  34.508  35.525  1.00  0.00     0.000 C 
BRANCH  12  13
ATOM     13  C   UNL     1      26.262  34.241  34.217  1.00  0.00     0.000 C 
BRANCH  13  14
ATOM     14  C   UNL     1      26.889  35.487  33.567  1.00  0.00     0.000 C 
BRANCH  14  15
ATOM     15  C   UNL     1      28.107  35.155  32.689  1.00  0.00     0.000 C 
BRANCH  15  16
ATOM     16  C   UNL     1      27.918  33.865  31.870  1.00  0.00     0.006 C 
BRANCH  16  17
ATOM     17  C   UNL     1      27.328  34.089  30.469  1.00  0.00     0.053 C 
BRANCH  17  18
ATOM     18  C   UNL     1      25.841  33.902  30.448  1.00  0.00     0.041 C 
ATOM     19  O   UNL     1      25.138  34.521  29.606  1.00  0.00    -0.550 OA
ATOM     20  O   UNL     1      25.237  33.027  31.340  1.00  0.00    -0.550 OA
ENDBRANCH  17  18
ENDBRANCH  16  17
ENDBRANCH  15  16
ENDBRANCH  14  15
ENDBRANCH  13  14
ENDBRANCH  12  13
ENDBRANCH  11  12
ENDBRANCH   1  11
TORSDOF 15
ENDMDL
MODEL 2
REMARK VINA RESULT:    -4.023      0.841      5.573
REMARK INTER + INTRA:          -9.293
REMARK INTER:                  -7.490
REMARK INTRA:                  -1.803
REMARK UNBOUND:                -1.742
REMARK SMILES O=C([O-])CCCCCCCCCCCCCCC(=O)[O-]
REMARK SMILES IDX 10 1 9 2 8 3 7 4 6 5 5 6 4 7 2 8 1 9 3 10 11 11 12 12 13 13
REMARK SMILES IDX 14 14 15 15 16 16 17 17 18 18 19 19 20 20
REMARK H PARENT
REMARK Flexibility Score: inf
ROOT
ATOM      1  C   UNL     1      25.500  32.993  36.470  1.00  0.00     0.000 C 
ENDROOT
BRANCH   1   2
ATOM      2  C   UNL     1      25.461  34.297  35.653  1.00  0.00     0.000 C 
BRANCH   2   3
ATOM      3  C   UNL     1      26.217  34.181  34.319  1.00  0.00     0.000 C 
BRANCH   3   4
ATOM      4  C   UNL     1      26.639  35.548  33.754  1.00  0.00     0.000 C 
BRANCH   4   5
ATOM      5  C   UNL     1      27.758  35.435  32.707  1.00  0.00     0.000 C 
BRANCH   5   6
ATOM      6  C   UNL     1      27.851  34.030  32.093  1.00  0.00     0.006 C 
BRANCH   6   7
ATOM      7  C   UNL     1      27.382  34.039  30.635  1.00  0.00     0.053 C 
BRANCH   7   8
ATOM      8  C   UNL     1      25.901  33.840  30.558  1.00  0.00     0.041 C 
ATOM      9  O   UNL     1      25.315  33.110  31.401  1.00  0.00    -0.550 OA
ATOM     10  O   UNL     1      25.160  34.502  29.587  1.00  0.00    -0.550 OA
ENDBRANCH   7   8
ENDBRANCH   6   7
ENDBRANCH   5   6
ENDBRANCH   4   5
ENDBRANCH   3   4
ENDBRANCH   2   3
ENDBRANCH   1   2
BRANCH   1  11
ATOM     11  C   UNL     1      26.683  32.092  36.080  1.00  0.00     0.000 C 
BRANCH  11  12
ATOM     12  C   UNL     1      27.813  32.123  37.125  1.00  0.00     0.000 C 
BRANCH  12  13
ATOM     13  C   UNL     1      28.849  33.229  36.855  1.00  0.00     0.000 C 
BRANCH  13  14
ATOM     14  C   UNL     1      29.477  33.201  35.450  1.00  0.00     0.000 C 
BRANCH  14  15
ATOM     15  C   UNL     1      30.568  32.126  35.304  1.00  0.00     0.000 C 
BRANCH  15  16
ATOM     16  C   UNL     1      30.273  31.126  34.171  1.00  0.00     0.006 C 
BRANCH  16  17
ATOM     17  C   UNL     1      29.292  30.008  34.558  1.00  0.00     0.053 C 
BRANCH  17  18
ATOM     18  C   UNL     1      30.002  28.747  34.947  1.00  0.00     0.041 C 
ATOM     19  O   UNL     1      30.492  27.998  34.062  1.00  0.00    -0.550 OA
ATOM     20  O   UNL     1      30.143  28.414  36.287  1.00  0.00    -0.550 OA
ENDBRANCH  17  18
ENDBRANCH  16  17
ENDBRANCH  15  16
ENDBRANCH  14  15
ENDBRANCH  13  14
ENDBRANCH  12  13
ENDBRANCH  11  12
ENDBRANCH   1  11
TORSDOF 15
ENDMDL
MODEL 3
REMARK VINA RESULT:    -3.846      1.001      5.503
REMARK INTER + INTRA:          -8.961
REMARK INTER:                  -7.619
REMARK INTRA:                  -1.342
REMARK UNBOUND:                -1.742
REMARK SMILES O=C([O-])CCCCCCCCCCCCCCC(=O)[O-]
REMARK SMILES IDX 10 1 9 2 8 3 7 4 6 5 5 6 4 7 2 8 1 9 3 10 11 11 12 12 13 13
REMARK SMILES IDX 14 14 15 15 16 16 17 17 18 18 19 19 20 20
REMARK H PARENT
REMARK Flexibility Score: inf
ROOT
ATOM      1  C   UNL     1      25.170  32.945  35.820  1.00  0.00     0.000 C 
ENDROOT
BRANCH   1   2
ATOM      2  C   UNL     1      25.481  34.370  35.330  1.00  0.00     0.000 C 
BRANCH   2   3
ATOM      3  C   UNL     1      26.676  34.414  34.364  1.00  0.00     0.000 C 
BRANCH   3   4
ATOM      4  C   UNL     1      26.775  35.746  33.600  1.00  0.00     0.000 C 
BRANCH   4   5
ATOM      5  C   UNL     1      27.637  35.639  32.333  1.00  0.00     0.000 C 
BRANCH   5   6
ATOM      6  C   UNL     1      27.875  34.184  31.903  1.00  0.00     0.006 C 
BRANCH   6   7
ATOM      7  C   UNL     1      27.338  33.936  30.490  1.00  0.00     0.053 C 
BRANCH   7   8
ATOM      8  C   UNL     1      25.848  33.793  30.511  1.00  0.00     0.041 C 
ATOM      9  O   UNL     1      25.291  33.101  31.405  1.00  0.00    -0.550 OA
ATOM     10  O   UNL     1      25.071  34.466  29.577  1.00  0.00    -0.550 OA
ENDBRANCH   7   8
ENDBRANCH   6   7
ENDBRANCH   5   6
ENDBRANCH   4   5
ENDBRANCH   3   4
ENDBRANCH   2   3
ENDBRANCH   1   2
BRANCH   1  11
ATOM     11  C   UNL     1      25.980  32.565  37.071  1.00  0.00     0.000 C 
BRANCH  11  12
ATOM     12  C   UNL     1      27.190  31.675  36.738  1.00  0.00     0.000 C 
BRANCH  12  13
ATOM     13  C   UNL     1      28.536  32.401  36.921  1.00  0.00     0.000 C 
BRANCH  13  14
ATOM     14  C   UNL     1      29.664  31.919  35.991  1.00  0.00     0.000 C 
BRANCH  14  15
ATOM     15  C   UNL     1      30.287  30.588  36.447  1.00  0.00     0.000 C 
BRANCH  15  16
ATOM     16  C   UNL     1      30.879  29.776  35.280  1.00  0.00     0.006 C 
BRANCH  16  17
ATOM     17  C   UNL     1      29.830  29.218  34.305  1.00  0.00     0.053 C 
BRANCH  17  18
ATOM     18  C   UNL     1      30.231  29.414  32.875  1.00  0.00     0.041 C 
ATOM     19  O   UNL     1      30.169  28.454  32.063  1.00  0.00    -0.550 OA
ATOM     20  O   UNL     1      30.646  30.663  32.434  1.00  0.00    -0.550 OA
ENDBRANCH  17  18
ENDBRANCH  16  17
ENDBRANCH  15  16
ENDBRANCH  14  15
ENDBRANCH  13  14
ENDBRANCH  12  13
ENDBRANCH  11  12
ENDBRANCH   1  11
TORSDOF 15
ENDMDL
MODEL 4
REMARK VINA RESULT:    -3.841      1.305      6.054
REMARK INTER + INTRA:          -8.952
REMARK INTER:                  -7.195
REMARK INTRA:                  -1.758
REMARK UNBOUND:                -1.742
REMARK SMILES O=C([O-])CCCCCCCCCCCCCCC(=O)[O-]
REMARK SMILES IDX 10 1 9 2 8 3 7 4 6 5 5 6 4 7 2 8 1 9 3 10 11 11 12 12 13 13
REMARK SMILES IDX 14 14 15 15 16 16 17 17 18 18 19 19 20 20
REMARK H PARENT
REMARK Flexibility Score: inf
ROOT
ATOM      1  C   UNL     1      25.915  32.574  37.097  1.00  0.00     0.000 C 
ENDROOT
BRANCH   1   2
ATOM      2  C   UNL     1      25.008  33.125  35.982  1.00  0.00     0.000 C 
BRANCH   2   3
ATOM      3  C   UNL     1      25.763  33.343  34.661  1.00  0.00     0.000 C 
BRANCH   3   4
ATOM      4  C   UNL     1      26.266  34.787  34.494  1.00  0.00     0.000 C 
BRANCH   4   5
ATOM      5  C   UNL     1      27.435  34.895  33.502  1.00  0.00     0.000 C 
BRANCH   5   6
ATOM      6  C   UNL     1      27.017  35.520  32.163  1.00  0.00     0.006 C 
BRANCH   6   7
ATOM      7  C   UNL     1      27.170  34.515  31.018  1.00  0.00     0.053 C 
BRANCH   7   8
ATOM      8  C   UNL     1      25.837  33.958  30.626  1.00  0.00     0.041 C 
ATOM      9  O   UNL     1      25.308  33.039  31.307  1.00  0.00    -0.550 OA
ATOM     10  O   UNL     1      25.153  34.491  29.540  1.00  0.00    -0.550 OA
ENDBRANCH   7   8
ENDBRANCH   6   7
ENDBRANCH   5   6
ENDBRANCH   4   5
ENDBRANCH   3   4
ENDBRANCH   2   3
ENDBRANCH   1   2
BRANCH   1  11
ATOM     11  C   UNL     1      27.230  31.994  36.550  1.00  0.00     0.000 C 
BRANCH  11  12
ATOM     12  C   UNL     1      28.463  32.778  37.033  1.00  0.00     0.000 C 
BRANCH  12  13
ATOM     13  C   UNL     1      29.549  32.913  35.951  1.00  0.00     0.000 C 
BRANCH  13  14
ATOM     14  C   UNL     1      29.308  32.077  34.681  1.00  0.00     0.000 C 
BRANCH  14  15
ATOM     15  C   UNL     1      30.443  31.079  34.396  1.00  0.00     0.000 C 
BRANCH  15  16
ATOM     16  C   UNL     1      30.861  30.279  35.644  1.00  0.00     0.006 C 
BRANCH  16  17
ATOM     17  C   UNL     1      29.842  29.213  36.078  1.00  0.00     0.053 C 
BRANCH  17  18
ATOM     18  C   UNL     1      30.218  27.846  35.596  1.00  0.00     0.041 C 
ATOM     19  O   UNL     1      30.389  26.909  36.420  1.00  0.00    -0.550 OA
ATOM     20  O   UNL     1      30.353  27.600  34.237  1.00  0.00    -0.550 OA
ENDBRANCH  17  18
ENDBRANCH  16  17
ENDBRANCH  15  16
ENDBRANCH  14  15
ENDBRANCH  13  14
ENDBRANCH  12  13
ENDBRANCH  11  12
ENDBRANCH   1  11
TORSDOF 15
ENDMDL
MODEL 5
REMARK VINA RESULT:    -3.671      0.907      1.502
REMARK INTER + INTRA:          -8.633
REMARK INTER:                  -7.100
REMARK INTRA:                  -1.533
REMARK UNBOUND:                -1.742
REMARK SMILES O=C([O-])CCCCCCCCCCCCCCC(=O)[O-]
REMARK SMILES IDX 10 1 9 2 8 3 7 4 6 5 5 6 4 7 2 8 1 9 3 10 11 11 12 12 13 13
REMARK SMILES IDX 14 14 15 15 16 16 17 17 18 18 19 19 20 20
REMARK H PARENT
REMARK Flexibility Score: inf
ROOT
ATOM      1  C   UNL     1      25.709  32.878  37.022  1.00  0.00     0.000 C 
ENDROOT
BRANCH   1   2
ATOM      2  C   UNL     1      27.172  32.544  36.681  1.00  0.00     0.000 C 
BRANCH   2   3
ATOM      3  C   UNL     1      27.401  31.037  36.478  1.00  0.00     0.000 C 
BRANCH   3   4
ATOM      4  C   UNL     1      28.880  30.687  36.244  1.00  0.00     0.000 C 
BRANCH   4   5
ATOM      5  C   UNL     1      29.535  31.574  35.174  1.00  0.00     0.000 C 
BRANCH   5   6
ATOM      6  C   UNL     1      30.744  30.900  34.507  1.00  0.00     0.006 C 
BRANCH   6   7
ATOM      7  C   UNL     1      30.440  30.551  33.048  1.00  0.00     0.053 C 
BRANCH   7   8
ATOM      8  C   UNL     1      30.275  29.072  32.885  1.00  0.00     0.041 C 
ATOM      9  O   UNL     1      30.254  28.560  31.734  1.00  0.00    -0.550 OA
ATOM     10  O   UNL     1      30.197  28.253  34.004  1.00  0.00    -0.550 OA
ENDBRANCH   7   8
ENDBRANCH   6   7
ENDBRANCH   5   6
ENDBRANCH   4   5
ENDBRANCH   3   4
ENDBRANCH   2   3
ENDBRANCH   1   2
BRANCH   1  11
ATOM     11  C   UNL     1      24.895  33.281  35.781  1.00  0.00     0.000 C 
BRANCH  11  12
ATOM     12  C   UNL     1      25.788  33.556  34.558  1.00  0.00     0.000 C 
BRANCH  12  13
ATOM     13  C   UNL     1      26.151  35.044  34.402  1.00  0.00     0.000 C 
BRANCH  13  14
ATOM     14  C   UNL     1      27.277  35.335  33.394  1.00  0.00     0.000 C 
BRANCH  14  15
ATOM     15  C   UNL     1      28.178  34.114  33.134  1.00  0.00     0.000 C 
BRANCH  15  16
ATOM     16  C   UNL     1      28.103  33.617  31.679  1.00  0.00     0.006 C 
BRANCH  16  17
ATOM     17  C   UNL     1      27.269  34.514  30.750  1.00  0.00     0.053 C 
BRANCH  17  18
ATOM     18  C   UNL     1      25.891  33.969  30.529  1.00  0.00     0.041 C 
ATOM     19  O   UNL     1      25.484  32.986  31.202  1.00  0.00    -0.550 OA
ATOM     20  O   UNL     1      25.050  34.564  29.598  1.00  0.00    -0.550 OA
ENDBRANCH  17  18
ENDBRANCH  16  17
ENDBRANCH  15  16
ENDBRANCH  14  15
ENDBRANCH  13  14
ENDBRANCH  12  13
ENDBRANCH  11  12
ENDBRANCH   1  11
TORSDOF 15
ENDMDL
MODEL 6
REMARK VINA RESULT:    -3.565      1.334      5.323
REMARK INTER + INTRA:          -8.433
REMARK INTER:                  -7.090
REMARK INTRA:                  -1.343
REMARK UNBOUND:                -1.742
REMARK SMILES O=C([O-])CCCCCCCCCCCCCCC(=O)[O-]
REMARK SMILES IDX 10 1 9 2 8 3 7 4 6 5 5 6 4 7 2 8 1 9 3 10 11 11 12 12 13 13
REMARK SMILES IDX 14 14 15 15 16 16 17 17 18 18 19 19 20 20
REMARK H PARENT
REMARK Flexibility Score: inf
ROOT
ATOM      1  C   UNL     1      26.307  32.149  37.021  1.00  0.00     0.000 C 
ENDROOT
BRANCH   1   2
ATOM      2  C   UNL     1      25.864  33.620  37.117  1.00  0.00     0.000 C 
BRANCH   2   3
ATOM      3  C   UNL     1      24.993  34.053  35.926  1.00  0.00     0.000 C 
BRANCH   3   4
ATOM      4  C   UNL     1      25.043  33.053  34.758  1.00  0.00     0.000 C 
BRANCH   4   5
ATOM      5  C   UNL     1      25.937  33.535  33.605  1.00  0.00     0.000 C 
BRANCH   5   6
ATOM      6  C   UNL     1      26.671  34.843  33.935  1.00  0.00     0.006 C 
BRANCH   6   7
ATOM      7  C   UNL     1      27.201  35.509  32.662  1.00  0.00     0.053 C 
BRANCH   7   8
ATOM      8  C   UNL     1      27.565  34.477  31.641  1.00  0.00     0.041 C 
ATOM      9  O   UNL     1      26.982  34.457  30.524  1.00  0.00    -0.550 OA
ATOM     10  O   UNL     1      28.586  33.572  31.901  1.00  0.00    -0.550 OA
ENDBRANCH   7   8
ENDBRANCH   6   7
ENDBRANCH   5   6
ENDBRANCH   4   5
ENDBRANCH   3   4
ENDBRANCH   2   3
ENDBRANCH   1   2
BRANCH   1  11
ATOM     11  C   UNL     1      27.836  32.000  36.960  1.00  0.00     0.000 C 
BRANCH  11  12
ATOM     12  C   UNL     1      28.536  33.308  36.552  1.00  0.00     0.000 C 
BRANCH  12  13
ATOM     13  C   UNL     1      29.911  33.073  35.899  1.00  0.00     0.000 C 
BRANCH  13  14
ATOM     14  C   UNL     1      30.412  31.618  35.947  1.00  0.00     0.000 C 
BRANCH  14  15
ATOM     15  C   UNL     1      31.122  31.187  34.652  1.00  0.00     0.000 C 
BRANCH  15  16
ATOM     16  C   UNL     1      30.139  30.805  33.531  1.00  0.00     0.006 C 
BRANCH  16  17
ATOM     17  C   UNL     1      30.815  30.337  32.233  1.00  0.00     0.053 C 
BRANCH  17  18
ATOM     18  C   UNL     1      30.608  28.874  31.986  1.00  0.00     0.041 C 
ATOM     19  O   UNL     1      30.431  28.088  32.953  1.00  0.00    -0.550 OA
ATOM     20  O   UNL     1      30.586  28.385  30.687  1.00  0.00    -0.550 OA
ENDBRANCH  17  18
ENDBRANCH  16  17
ENDBRANCH  15  16
ENDBRANCH  14  15
ENDBRANCH  13  14
ENDBRANCH  12  13
ENDBRANCH  11  12
ENDBRANCH   1  11
TORSDOF 15
ENDMDL
MODEL 7
REMARK VINA RESULT:    -3.476      1.525      2.097
REMARK INTER + INTRA:          -8.266
REMARK INTER:                  -7.149
REMARK INTRA:                  -1.117
REMARK UNBOUND:                -1.742
REMARK SMILES O=C([O-])CCCCCCCCCCCCCCC(=O)[O-]
REMARK SMILES IDX 10 1 9 2 8 3 7 4 6 5 5 6 4 7 2 8 1 9 3 10 11 11 12 12 13 13
REMARK SMILES IDX 14 14 15 15 16 16 17 17 18 18 19 19 20 20
REMARK H PARENT
REMARK Flexibility Score: inf
ROOT
ATOM      1  C   UNL     1      25.930  32.396  37.125  1.00  0.00     0.000 C 
ENDROOT
BRANCH   1   2
ATOM      2  C   UNL     1      27.462  32.298  37.010  1.00  0.00     0.000 C 
BRANCH   2   3
ATOM      3  C   UNL     1      27.913  31.141  36.104  1.00  0.00     0.000 C 
BRANCH   3   4
ATOM      4  C   UNL     1      29.358  30.695  36.384  1.00  0.00     0.000 C 
BRANCH   4   5
ATOM      5  C   UNL     1      30.174  30.492  35.098  1.00  0.00     0.000 C 
BRANCH   5   6
ATOM      6  C   UNL     1      29.749  29.237  34.321  1.00  0.00     0.006 C 
BRANCH   6   7
ATOM      7  C   UNL     1      30.749  28.097  34.536  1.00  0.00     0.053 C 
BRANCH   7   8
ATOM      8  C   UNL     1      30.112  26.976  35.298  1.00  0.00     0.041 C 
ATOM      9  O   UNL     1      29.721  25.942  34.694  1.00  0.00    -0.550 OA
ATOM     10  O   UNL     1      29.999  27.051  36.680  1.00  0.00    -0.550 OA
ENDBRANCH   7   8
ENDBRANCH   6   7
ENDBRANCH   5   6
ENDBRANCH   4   5
ENDBRANCH   3   4
ENDBRANCH   2   3
ENDBRANCH   1   2
BRANCH   1  11
ATOM     11  C   UNL     1      25.420  33.836  36.951  1.00  0.00     0.000 C 
BRANCH  11  12
ATOM     12  C   UNL     1      24.830  34.084  35.551  1.00  0.00     0.000 C 
BRANCH  12  13
ATOM     13  C   UNL     1      25.824  33.770  34.418  1.00  0.00     0.000 C 
BRANCH  13  14
ATOM     14  C   UNL     1      26.952  34.803  34.240  1.00  0.00     0.000 C 
BRANCH  14  15
ATOM     15  C   UNL     1      27.996  34.373  33.195  1.00  0.00     0.000 C 
BRANCH  15  16
ATOM     16  C   UNL     1      27.737  34.985  31.806  1.00  0.00     0.006 C 
BRANCH  16  17
ATOM     17  C   UNL     1      27.436  33.951  30.709  1.00  0.00     0.053 C 
BRANCH  17  18
ATOM     18  C   UNL     1      25.966  33.800  30.465  1.00  0.00     0.041 C 
ATOM     19  O   UNL     1      25.324  32.870  31.020  1.00  0.00    -0.550 OA
ATOM     20  O   UNL     1      25.301  34.703  29.646  1.00  0.00    -0.550 OA
ENDBRANCH  17  18
ENDBRANCH  16  17
ENDBRANCH  15  16
ENDBRANCH  14  15
ENDBRANCH  13  14
ENDBRANCH  12  13
ENDBRANCH  11  12
ENDBRANCH   1  11
TORSDOF 15
ENDMDL
MODEL 8
REMARK VINA RESULT:    -3.428      1.707      6.165
REMARK INTER + INTRA:          -8.176
REMARK INTER:                  -6.526
REMARK INTRA:                  -1.650
REMARK UNBOUND:                -1.742
REMARK SMILES O=C([O-])CCCCCCCCCCCCCCC(=O)[O-]
REMARK SMILES IDX 10 1 9 2 8 3 7 4 6 5 5 6 4 7 2 8 1 9 3 10 11 11 12 12 13 13
REMARK SMILES IDX 14 14 15 15 16 16 17 17 18 18 19 19 20 20
REMARK H PARENT
REMARK Flexibility Score: inf
ROOT
ATOM      1  C   UNL     1      28.204  31.787  37.122  1.00  0.00     0.000 C 
ENDROOT
BRANCH   1   2
ATOM      2  C   UNL     1      26.725  31.777  36.697  1.00  0.00     0.000 C 
BRANCH   2   3
ATOM      3  C   UNL     1      26.199  33.181  36.358  1.00  0.00     0.000 C 
BRANCH   3   4
ATOM      4  C   UNL     1      25.710  33.299  34.904  1.00  0.00     0.000 C 
BRANCH   4   5
ATOM      5  C   UNL     1      26.841  33.657  33.928  1.00  0.00     0.000 C 
BRANCH   5   6
ATOM      6  C   UNL     1      26.790  35.124  33.477  1.00  0.00     0.006 C 
BRANCH   6   7
ATOM      7  C   UNL     1      27.632  35.339  32.216  1.00  0.00     0.053 C 
BRANCH   7   8
ATOM      8  C   UNL     1      27.207  34.396  31.133  1.00  0.00     0.041 C 
ATOM      9  O   UNL     1      28.052  33.641  30.584  1.00  0.00    -0.550 OA
ATOM     10  O   UNL     1      25.869  34.314  30.768  1.00  0.00    -0.550 OA
ENDBRANCH   7   8
ENDBRANCH   6   7
ENDBRANCH   5   6
ENDBRANCH   4   5
ENDBRANCH   3   4
ENDBRANCH   2   3
ENDBRANCH   1   2
BRANCH   1  11
ATOM     11  C   UNL     1      28.829  33.189  37.038  1.00  0.00     0.000 C 
BRANCH  11  12
ATOM     12  C   UNL     1      30.024  33.241  36.069  1.00  0.00     0.000 C 
BRANCH  12  13
ATOM     13  C   UNL     1      30.462  31.848  35.583  1.00  0.00     0.000 C 
BRANCH  13  14
ATOM     14  C   UNL     1      29.977  31.471  34.171  1.00  0.00     0.000 C 
BRANCH  14  15
ATOM     15  C   UNL     1      29.316  30.082  34.117  1.00  0.00     0.000 C 
BRANCH  15  16
ATOM     16  C   UNL     1      29.991  29.065  35.055  1.00  0.00     0.006 C 
BRANCH  16  17
ATOM     17  C   UNL     1      30.631  27.869  34.332  1.00  0.00     0.053 C 
BRANCH  17  18
ATOM     18  C   UNL     1      30.281  26.565  34.981  1.00  0.00     0.041 C 
ATOM     19  O   UNL     1      30.244  25.508  34.297  1.00  0.00    -0.550 OA
ATOM     20  O   UNL     1      30.020  26.514  36.343  1.00  0.00    -0.550 OA
ENDBRANCH  17  18
ENDBRANCH  16  17
ENDBRANCH  15  16
ENDBRANCH  14  15
ENDBRANCH  13  14
ENDBRANCH  12  13
ENDBRANCH  11  12
ENDBRANCH   1  11
TORSDOF 15
ENDMDL
MODEL 9
REMARK VINA RESULT:    -3.355      1.546      2.497
REMARK INTER + INTRA:          -8.039
REMARK INTER:                  -6.720
REMARK INTRA:                  -1.320
REMARK UNBOUND:                -1.742
REMARK SMILES O=C([O-])CCCCCCCCCCCCCCC(=O)[O-]
REMARK SMILES IDX 10 1 9 2 8 3 7 4 6 5 5 6 4 7 2 8 1 9 3 10 11 11 12 12 13 13
REMARK SMILES IDX 14 14 15 15 16 16 17 17 18 18 19 19 20 20
REMARK H PARENT
REMARK Flexibility Score: inf
ROOT
ATOM      1  C   UNL     1      27.997  33.269  36.478  1.00  0.00     0.000 C 
ENDROOT
BRANCH   1   2
ATOM      2  C   UNL     1      29.391  33.181  37.123  1.00  0.00     0.000 C 
BRANCH   2   3
ATOM      3  C   UNL     1      30.526  33.253  36.089  1.00  0.00     0.000 C 
BRANCH   3   4
ATOM      4  C   UNL     1      30.996  31.864  35.624  1.00  0.00     0.000 C 
BRANCH   4   5
ATOM      5  C   UNL     1      30.223  31.358  34.397  1.00  0.00     0.000 C 
BRANCH   5   6
ATOM      6  C   UNL     1      29.503  30.027  34.660  1.00  0.00     0.006 C 
BRANCH   6   7
ATOM      7  C   UNL     1      30.158  29.271  35.819  1.00  0.00     0.053 C 
BRANCH   7   8
ATOM      8  C   UNL     1      30.152  27.797  35.556  1.00  0.00     0.041 C 
ATOM      9  O   UNL     1      30.335  27.361  34.389  1.00  0.00    -0.550 OA
ATOM     10  O   UNL     1      29.997  26.904  36.609  1.00  0.00    -0.550 OA
ENDBRANCH   7   8
ENDBRANCH   6   7
ENDBRANCH   5   6
ENDBRANCH   4   5
ENDBRANCH   3   4
ENDBRANCH   2   3
ENDBRANCH   1   2
BRANCH   1  11
ATOM     11  C   UNL     1      27.001  32.274  37.095  1.00  0.00     0.000 C 
BRANCH  11  12
ATOM     12  C   UNL     1      25.564  32.825  37.125  1.00  0.00     0.000 C 
BRANCH  12  13
ATOM     13  C   UNL     1      25.282  33.826  35.990  1.00  0.00     0.000 C 
BRANCH  13  14
ATOM     14  C   UNL     1      24.971  33.188  34.624  1.00  0.00     0.000 C 
BRANCH  14  15
ATOM     15  C   UNL     1      26.050  33.480  33.567  1.00  0.00     0.000 C 
BRANCH  15  16
ATOM     16  C   UNL     1      26.515  34.948  33.579  1.00  0.00     0.006 C 
BRANCH  16  17
ATOM     17  C   UNL     1      27.457  35.319  32.423  1.00  0.00     0.053 C 
BRANCH  17  18
ATOM     18  C   UNL     1      27.128  34.572  31.167  1.00  0.00     0.041 C 
ATOM     19  O   UNL     1      27.949  33.745  30.689  1.00  0.00    -0.550 OA
ATOM     20  O   UNL     1      25.906  34.771  30.538  1.00  0.00    -0.550 OA
ENDBRANCH  17  18
ENDBRANCH  16  17
ENDBRANCH  15  16
ENDBRANCH  14  15
ENDBRANCH  13  14
ENDBRANCH  12  13
ENDBRANCH  11  12
ENDBRANCH   1  11
TORSDOF 15
ENDMDL
