MODEL 1
REMARK VINA RESULT:    -3.482      0.000      0.000
REMARK INTER + INTRA:          -3.482
REMARK INTER:                  -3.482
REMARK INTRA:                   0.000
REMARK UNBOUND:                 0.000
REMARK SMILES O=C1CCCCC1
REMARK SMILES IDX 5 1 4 2 3 3 2 4 1 5 7 6 6 7
REMARK H PARENT
REMARK Flexibility Score: inf
ROOT
ATOM      1  C   UNL     1      20.589  44.843   1.844  1.00  0.00     0.001 C 
ATOM      2  C   UNL     1      19.920  45.469   0.611  1.00  0.00     0.008 C 
ATOM      3  C   UNL     1      18.471  44.989   0.456  1.00  0.00     0.075 C 
ATOM      4  C   UNL     1      18.405  43.489   0.529  1.00  0.00     0.132 C 
ATOM      5  O   UNL     1      17.705  42.864  -0.252  1.00  0.00    -0.300 OA
ATOM      6  C   UNL     1      19.136  42.774   1.632  1.00  0.00     0.075 C 
ATOM      7  C   UNL     1      20.568  43.309   1.759  1.00  0.00     0.008 C 
ENDROOT
TORSDOF 0
ENDMDL
MODEL 2
REMARK VINA RESULT:    -3.461      1.960      2.638
REMARK INTER + INTRA:          -3.461
REMARK INTER:                  -3.461
REMARK INTRA:                   0.000
REMARK UNBOUND:                 0.000
REMARK SMILES O=C1CCCCC1
REMARK SMILES IDX 5 1 4 2 3 3 2 4 1 5 7 6 6 7
REMARK H PARENT
REMARK Flexibility Score: inf
ROOT
ATOM      1  C   UNL     1      18.148  43.997   2.029  1.00  0.00     0.001 C 
ATOM      2  C   UNL     1      19.506  44.334   2.662  1.00  0.00     0.008 C 
ATOM      3  C   UNL     1      20.639  44.256   1.631  1.00  0.00     0.075 C 
ATOM      4  C   UNL     1      20.584  42.948   0.891  1.00  0.00     0.132 C 
ATOM      5  O   UNL     1      21.608  42.320   0.672  1.00  0.00    -0.300 OA
ATOM      6  C   UNL     1      19.268  42.471   0.341  1.00  0.00     0.075 C 
ATOM      7  C   UNL     1      18.169  42.594   1.403  1.00  0.00     0.008 C 
ENDROOT
TORSDOF 0
ENDMDL
MODEL 3
REMARK VINA RESULT:    -3.397      1.595      2.854
REMARK INTER + INTRA:          -3.397
REMARK INTER:                  -3.397
REMARK INTRA:                   0.000
REMARK UNBOUND:                 0.000
REMARK SMILES O=C1CCCCC1
REMARK SMILES IDX 5 1 4 2 3 3 2 4 1 5 7 6 6 7
REMARK H PARENT
REMARK Flexibility Score: inf
ROOT
ATOM      1  C   UNL     1      18.752  42.614   1.684  1.00  0.00     0.001 C 
ATOM      2  C   UNL     1      20.216  43.048   1.844  1.00  0.00     0.008 C 
ATOM      3  C   UNL     1      20.340  44.574   1.938  1.00  0.00     0.075 C 
ATOM      4  C   UNL     1      19.597  45.231   0.808  1.00  0.00     0.132 C 
ATOM      5  O   UNL     1      20.096  46.167   0.204  1.00  0.00    -0.300 OA
ATOM      6  C   UNL     1      18.196  44.783   0.492  1.00  0.00     0.075 C 
ATOM      7  C   UNL     1      18.125  43.252   0.435  1.00  0.00     0.008 C 
ENDROOT
TORSDOF 0
ENDMDL
MODEL 4
REMARK VINA RESULT:    -3.389      1.030      2.219
REMARK INTER + INTRA:          -3.389
REMARK INTER:                  -3.389
REMARK INTRA:                   0.000
REMARK UNBOUND:                 0.000
REMARK SMILES O=C1CCCCC1
REMARK SMILES IDX 5 1 4 2 3 3 2 4 1 5 7 6 6 7
REMARK H PARENT
REMARK Flexibility Score: inf
ROOT
ATOM      1  C   UNL     1      20.606  43.328   1.745  1.00  0.00     0.001 C 
ATOM      2  C   UNL     1      19.183  42.753   1.679  1.00  0.00     0.008 C 
ATOM      3  C   UNL     1      18.398  43.337   0.498  1.00  0.00     0.075 C 
ATOM      4  C   UNL     1      18.483  44.839   0.504  1.00  0.00     0.132 C 
ATOM      5  O   UNL     1      17.489  45.513   0.283  1.00  0.00    -0.300 OA
ATOM      6  C   UNL     1      19.822  45.497   0.690  1.00  0.00     0.075 C 
ATOM      7  C   UNL     1      20.573  44.859   1.865  1.00  0.00     0.008 C 
ENDROOT
TORSDOF 0
ENDMDL
MODEL 5
REMARK VINA RESULT:    -3.388      1.191      1.523
REMARK INTER + INTRA:          -3.388
REMARK INTER:                  -3.388
REMARK INTRA:                   0.000
REMARK UNBOUND:                 0.000
REMARK SMILES O=C1CCCCC1
REMARK SMILES IDX 5 1 4 2 3 3 2 4 1 5 7 6 6 7
REMARK H PARENT
REMARK Flexibility Score: inf
ROOT
ATOM      1  C   UNL     1      21.294  43.209   1.840  1.00  0.00     0.001 C 
ATOM      2  C   UNL     1      20.525  44.495   2.179  1.00  0.00     0.008 C 
ATOM      3  C   UNL     1      19.010  44.257   2.179  1.00  0.00     0.075 C 
ATOM      4  C   UNL     1      18.587  43.575   0.907  1.00  0.00     0.132 C 
ATOM      5  O   UNL     1      17.583  43.940   0.316  1.00  0.00    -0.300 OA
ATOM      6  C   UNL     1      19.360  42.378   0.424  1.00  0.00     0.075 C 
ATOM      7  C   UNL     1      20.866  42.662   0.470  1.00  0.00     0.008 C 
ENDROOT
TORSDOF 0
ENDMDL
MODEL 6
REMARK VINA RESULT:    -3.374      1.637      2.882
REMARK INTER + INTRA:          -3.374
REMARK INTER:                  -3.374
REMARK INTRA:                   0.000
REMARK UNBOUND:                 0.000
REMARK SMILES O=C1CCCCC1
REMARK SMILES IDX 5 1 4 2 3 3 2 4 1 5 7 6 6 7
REMARK H PARENT
REMARK Flexibility Score: inf
ROOT
ATOM      1  C   UNL     1      18.266  44.860   0.645  1.00  0.00     0.001 C 
ATOM      2  C   UNL     1      18.328  43.349   0.381  1.00  0.00     0.008 C 
ATOM      3  C   UNL     1      19.238  42.640   1.392  1.00  0.00     0.075 C 
ATOM      4  C   UNL     1      20.571  43.332   1.472  1.00  0.00     0.132 C 
ATOM      5  O   UNL     1      21.603  42.680   1.506  1.00  0.00    -0.300 OA
ATOM      6  C   UNL     1      20.614  44.830   1.606  1.00  0.00     0.075 C 
ATOM      7  C   UNL     1      19.669  45.484   0.590  1.00  0.00     0.008 C 
ENDROOT
TORSDOF 0
ENDMDL
MODEL 7
REMARK VINA RESULT:    -3.259      1.881      2.689
REMARK INTER + INTRA:          -3.259
REMARK INTER:                  -3.259
REMARK INTRA:                   0.000
REMARK UNBOUND:                 0.000
REMARK SMILES O=C1CCCCC1
REMARK SMILES IDX 5 1 4 2 3 3 2 4 1 5 7 6 6 7
REMARK H PARENT
REMARK Flexibility Score: inf
ROOT
ATOM      1  C   UNL     1      17.947  43.441   0.308  1.00  0.00     0.001 C 
ATOM      2  C   UNL     1      18.141  44.956   0.476  1.00  0.00     0.008 C 
ATOM      3  C   UNL     1      19.619  45.312   0.672  1.00  0.00     0.075 C 
ATOM      4  C   UNL     1      20.224  44.465   1.758  1.00  0.00     0.132 C 
ATOM      5  O   UNL     1      20.963  44.965   2.591  1.00  0.00    -0.300 OA
ATOM      6  C   UNL     1      19.983  42.980   1.749  1.00  0.00     0.075 C 
ATOM      7  C   UNL     1      18.496  42.681   1.525  1.00  0.00     0.008 C 
ENDROOT
TORSDOF 0
ENDMDL
MODEL 8
REMARK VINA RESULT:    -3.160      0.972      2.170
REMARK INTER + INTRA:          -3.160
REMARK INTER:                  -3.160
REMARK INTRA:                   0.000
REMARK UNBOUND:                 0.000
REMARK SMILES O=C1CCCCC1
REMARK SMILES IDX 5 1 4 2 3 3 2 4 1 5 7 6 6 7
REMARK H PARENT
REMARK Flexibility Score: inf
ROOT
ATOM      1  C   UNL     1      19.954  45.317   0.772  1.00  0.00     0.001 C 
ATOM      2  C   UNL     1      20.346  44.497   2.010  1.00  0.00     0.008 C 
ATOM      3  C   UNL     1      20.009  43.012   1.828  1.00  0.00     0.075 C 
ATOM      4  C   UNL     1      18.583  42.850   1.377  1.00  0.00     0.132 C 
ATOM      5  O   UNL     1      17.876  41.984   1.868  1.00  0.00    -0.300 OA
ATOM      6  C   UNL     1      18.068  43.703   0.250  1.00  0.00     0.075 C 
ATOM      7  C   UNL     1      18.455  45.170   0.471  1.00  0.00     0.008 C 
ENDROOT
TORSDOF 0
ENDMDL
MODEL 9
REMARK VINA RESULT:    -3.027     22.872     23.300
REMARK INTER + INTRA:          -3.027
REMARK INTER:                  -3.027
REMARK INTRA:                   0.000
REMARK UNBOUND:                 0.000
REMARK SMILES O=C1CCCCC1
REMARK SMILES IDX 5 1 4 2 3 3 2 4 1 5 7 6 6 7
REMARK H PARENT
REMARK Flexibility Score: inf
ROOT
ATOM      1  C   UNL     1      33.385  59.246 -11.127  1.00  0.00     0.001 C 
ATOM      2  C   UNL     1      33.970  57.907 -11.602  1.00  0.00     0.008 C 
ATOM      3  C   UNL     1      33.289  57.424 -12.889  1.00  0.00     0.075 C 
ATOM      4  C   UNL     1      31.793  57.451 -12.732  1.00  0.00     0.132 C 
ATOM      5  O   UNL     1      31.114  56.521 -13.139  1.00  0.00    -0.300 OA
ATOM      6  C   UNL     1      31.137  58.675 -12.155  1.00  0.00     0.075 C 
ATOM      7  C   UNL     1      31.872  59.128 -10.887  1.00  0.00     0.008 C 
ENDROOT
TORSDOF 0
ENDMDL
