MODEL 1
REMARK VINA RESULT:    -4.645      0.000      0.000
REMARK INTER + INTRA:          -7.034
REMARK INTER:                  -6.275
REMARK INTRA:                  -0.759
REMARK UNBOUND:                -0.759
REMARK SMILES CC(=O)OCC=C(C)CCC=C(C)C
REMARK SMILES IDX 7 1 6 2 8 3 9 4 10 5 11 6 13 7 12 8 14 9 5 10 4 11 2 12 3 13
REMARK SMILES IDX 1 14
REMARK H PARENT
REMARK Flexibility Score: inf
ROOT
ATOM      1  C   UNL     1      70.719  52.874  19.603  1.00  0.00    -0.074 C 
ATOM      2  C   UNL     1      70.330  51.929  20.486  1.00  0.00     0.013 C 
ATOM      3  C   UNL     1      71.359  54.163  20.062  1.00  0.00     0.039 C 
ENDROOT
BRANCH   1   4
ATOM      4  C   UNL     1      70.514  52.634  18.124  1.00  0.00     0.034 C 
BRANCH   4   5
ATOM      5  C   UNL     1      69.193  53.249  17.650  1.00  0.00     0.032 C 
BRANCH   5   6
ATOM      6  C   UNL     1      68.074  52.241  17.736  1.00  0.00    -0.028 C 
ATOM      7  C   UNL     1      67.075  53.285  19.783  1.00  0.00     0.039 C 
ATOM      8  C   UNL     1      67.101  52.259  18.674  1.00  0.00    -0.080 C 
ATOM      9  C   UNL     1      66.024  51.207  18.611  1.00  0.00     0.039 C 
ENDBRANCH   5   6
ENDBRANCH   4   5
ENDBRANCH   1   4
BRANCH   2  10
ATOM     10  C   UNL     1      70.492  52.074  21.977  1.00  0.00     0.260 C 
BRANCH  10  11
ATOM     11  O   UNL     1      69.513  51.298  22.667  1.00  0.00    -0.462 OA
BRANCH  11  12
ATOM     12  C   UNL     1      69.570  49.903  22.762  1.00  0.00     0.302 C 
ATOM     13  O   UNL     1      70.474  49.338  23.435  1.00  0.00    -0.253 OA
ATOM     14  C   UNL     1      68.578  49.075  22.019  1.00  0.00     0.139 C 
ENDBRANCH  11  12
ENDBRANCH  10  11
ENDBRANCH   2  10
TORSDOF 6
ENDMDL
MODEL 2
REMARK VINA RESULT:    -4.562      4.065      6.511
REMARK INTER + INTRA:          -6.921
REMARK INTER:                  -6.581
REMARK INTRA:                  -0.341
REMARK UNBOUND:                -0.759
REMARK SMILES CC(=O)OCC=C(C)CCC=C(C)C
REMARK SMILES IDX 7 1 6 2 8 3 9 4 10 5 11 6 13 7 12 8 14 9 5 10 4 11 2 12 3 13
REMARK SMILES IDX 1 14
REMARK H PARENT
REMARK Flexibility Score: inf
ROOT
ATOM      1  C   UNL     1      69.692  52.785  18.016  1.00  0.00    -0.074 C 
ATOM      2  C   UNL     1      70.608  53.650  17.530  1.00  0.00     0.013 C 
ATOM      3  C   UNL     1      68.337  52.627  17.366  1.00  0.00     0.039 C 
ENDROOT
BRANCH   1   4
ATOM      4  C   UNL     1      70.031  51.955  19.234  1.00  0.00     0.034 C 
BRANCH   4   5
ATOM      5  C   UNL     1      68.925  52.060  20.290  1.00  0.00     0.032 C 
BRANCH   5   6
ATOM      6  C   UNL     1      68.627  50.708  20.888  1.00  0.00    -0.028 C 
ATOM      7  C   UNL     1      70.142  51.063  22.851  1.00  0.00     0.039 C 
ATOM      8  C   UNL     1      69.147  50.255  22.050  1.00  0.00    -0.080 C 
ATOM      9  C   UNL     1      68.726  48.895  22.544  1.00  0.00     0.039 C 
ENDBRANCH   5   6
ENDBRANCH   4   5
ENDBRANCH   1   4
BRANCH   2  10
ATOM     10  C   UNL     1      70.365  54.520  16.323  1.00  0.00     0.260 C 
BRANCH  10  11
ATOM     11  O   UNL     1      71.551  54.632  15.538  1.00  0.00    -0.462 OA
BRANCH  11  12
ATOM     12  C   UNL     1      71.755  55.651  14.600  1.00  0.00     0.302 C 
ATOM     13  O   UNL     1      72.228  56.766  14.951  1.00  0.00    -0.253 OA
ATOM     14  C   UNL     1      71.363  55.430  13.179  1.00  0.00     0.139 C 
ENDBRANCH  11  12
ENDBRANCH  10  11
ENDBRANCH   2  10
TORSDOF 6
ENDMDL
MODEL 3
REMARK VINA RESULT:    -4.451      5.276      7.246
REMARK INTER + INTRA:          -6.771
REMARK INTER:                  -6.374
REMARK INTRA:                  -0.397
REMARK UNBOUND:                -0.759
REMARK SMILES CC(=O)OCC=C(C)CCC=C(C)C
REMARK SMILES IDX 7 1 6 2 8 3 9 4 10 5 11 6 13 7 12 8 14 9 5 10 4 11 2 12 3 13
REMARK SMILES IDX 1 14
REMARK H PARENT
REMARK Flexibility Score: inf
ROOT
ATOM      1  C   UNL     1      70.941  54.275  16.823  1.00  0.00    -0.074 C 
ATOM      2  C   UNL     1      70.725  54.841  15.616  1.00  0.00     0.013 C 
ATOM      3  C   UNL     1      72.340  54.001  17.324  1.00  0.00     0.039 C 
ENDROOT
BRANCH   1   4
ATOM      4  C   UNL     1      69.758  53.912  17.694  1.00  0.00     0.034 C 
BRANCH   4   5
ATOM      5  C   UNL     1      69.460  52.412  17.608  1.00  0.00     0.032 C 
BRANCH   5   6
ATOM      6  C   UNL     1      67.973  52.159  17.657  1.00  0.00    -0.028 C 
ATOM      7  C   UNL     1      67.978  51.650  20.110  1.00  0.00     0.039 C 
ATOM      8  C   UNL     1      67.290  51.840  18.779  1.00  0.00    -0.080 C 
ATOM      9  C   UNL     1      65.797  51.655  18.681  1.00  0.00     0.039 C 
ENDBRANCH   5   6
ENDBRANCH   4   5
ENDBRANCH   1   4
BRANCH   2  10
ATOM     10  C   UNL     1      71.836  55.238  14.678  1.00  0.00     0.260 C 
BRANCH  10  11
ATOM     11  O   UNL     1      71.343  55.382  13.348  1.00  0.00    -0.462 OA
BRANCH  11  12
ATOM     12  C   UNL     1      71.182  56.624  12.721  1.00  0.00     0.302 C 
ATOM     13  O   UNL     1      70.534  56.724  11.644  1.00  0.00    -0.253 OA
ATOM     14  C   UNL     1      71.825  57.833  13.310  1.00  0.00     0.139 C 
ENDBRANCH  11  12
ENDBRANCH  10  11
ENDBRANCH   2  10
TORSDOF 6
ENDMDL
MODEL 4
REMARK VINA RESULT:    -4.428      1.123      2.835
REMARK INTER + INTRA:          -6.741
REMARK INTER:                  -5.962
REMARK INTRA:                  -0.778
REMARK UNBOUND:                -0.759
REMARK SMILES CC(=O)OCC=C(C)CCC=C(C)C
REMARK SMILES IDX 7 1 6 2 8 3 9 4 10 5 11 6 13 7 12 8 14 9 5 10 4 11 2 12 3 13
REMARK SMILES IDX 1 14
REMARK H PARENT
REMARK Flexibility Score: inf
ROOT
ATOM      1  C   UNL     1      67.995  52.624  20.057  1.00  0.00    -0.074 C 
ATOM      2  C   UNL     1      68.793  51.694  20.626  1.00  0.00     0.013 C 
ATOM      3  C   UNL     1      67.779  53.973  20.702  1.00  0.00     0.039 C 
ENDROOT
BRANCH   1   4
ATOM      4  C   UNL     1      67.310  52.311  18.746  1.00  0.00     0.034 C 
BRANCH   4   5
ATOM      5  C   UNL     1      68.336  51.938  17.671  1.00  0.00     0.032 C 
BRANCH   5   6
ATOM      6  C   UNL     1      68.898  53.176  17.018  1.00  0.00    -0.028 C 
ATOM      7  C   UNL     1      71.153  52.906  18.078  1.00  0.00     0.039 C 
ATOM      8  C   UNL     1      70.169  53.610  17.172  1.00  0.00    -0.080 C 
ATOM      9  C   UNL     1      70.601  54.845  16.425  1.00  0.00     0.039 C 
ENDBRANCH   5   6
ENDBRANCH   4   5
ENDBRANCH   1   4
BRANCH   2  10
ATOM     10  C   UNL     1      69.519  51.912  21.929  1.00  0.00     0.260 C 
BRANCH  10  11
ATOM     11  O   UNL     1      69.072  50.982  22.914  1.00  0.00    -0.462 OA
BRANCH  11  12
ATOM     12  C   UNL     1      69.439  49.631  22.914  1.00  0.00     0.302 C 
ATOM     13  O   UNL     1      70.526  49.258  23.433  1.00  0.00    -0.253 OA
ATOM     14  C   UNL     1      68.556  48.629  22.251  1.00  0.00     0.139 C 
ENDBRANCH  11  12
ENDBRANCH  10  11
ENDBRANCH   2  10
TORSDOF 6
ENDMDL
MODEL 5
REMARK VINA RESULT:    -4.406      3.917      5.735
REMARK INTER + INTRA:          -6.711
REMARK INTER:                  -6.326
REMARK INTRA:                  -0.385
REMARK UNBOUND:                -0.759
REMARK SMILES CC(=O)OCC=C(C)CCC=C(C)C
REMARK SMILES IDX 7 1 6 2 8 3 9 4 10 5 11 6 13 7 12 8 14 9 5 10 4 11 2 12 3 13
REMARK SMILES IDX 1 14
REMARK H PARENT
REMARK Flexibility Score: inf
ROOT
ATOM      1  C   UNL     1      70.407  53.815  17.018  1.00  0.00    -0.074 C 
ATOM      2  C   UNL     1      69.194  53.244  17.181  1.00  0.00     0.013 C 
ATOM      3  C   UNL     1      71.628  53.284  17.733  1.00  0.00     0.039 C 
ENDROOT
BRANCH   1   4
ATOM      4  C   UNL     1      70.548  55.006  16.096  1.00  0.00     0.034 C 
BRANCH   4   5
ATOM      5  C   UNL     1      71.727  54.815  15.136  1.00  0.00     0.032 C 
BRANCH   5   6
ATOM      6  C   UNL     1      71.377  55.311  13.756  1.00  0.00    -0.028 C 
ATOM      7  C   UNL     1      72.125  57.654  14.233  1.00  0.00     0.039 C 
ATOM      8  C   UNL     1      71.573  56.578  13.327  1.00  0.00    -0.080 C 
ATOM      9  C   UNL     1      71.209  56.919  11.905  1.00  0.00     0.039 C 
ENDBRANCH   5   6
ENDBRANCH   4   5
ENDBRANCH   1   4
BRANCH   2  10
ATOM     10  C   UNL     1      68.954  52.055  18.076  1.00  0.00     0.260 C 
BRANCH  10  11
ATOM     11  O   UNL     1      68.212  52.439  19.232  1.00  0.00    -0.462 OA
BRANCH  11  12
ATOM     12  C   UNL     1      66.821  52.318  19.325  1.00  0.00     0.302 C 
ATOM     13  O   UNL     1      66.143  53.151  19.986  1.00  0.00    -0.253 OA
ATOM     14  C   UNL     1      66.138  51.163  18.675  1.00  0.00     0.139 C 
ENDBRANCH  11  12
ENDBRANCH  10  11
ENDBRANCH   2  10
TORSDOF 6
ENDMDL
MODEL 6
REMARK VINA RESULT:    -4.372      4.107      5.807
REMARK INTER + INTRA:          -6.665
REMARK INTER:                  -6.093
REMARK INTRA:                  -0.571
REMARK UNBOUND:                -0.759
REMARK SMILES CC(=O)OCC=C(C)CCC=C(C)C
REMARK SMILES IDX 7 1 6 2 8 3 9 4 10 5 11 6 13 7 12 8 14 9 5 10 4 11 2 12 3 13
REMARK SMILES IDX 1 14
REMARK H PARENT
REMARK Flexibility Score: inf
ROOT
ATOM      1  C   UNL     1      71.249  54.087  16.865  1.00  0.00    -0.074 C 
ATOM      2  C   UNL     1      72.185  53.798  17.794  1.00  0.00     0.013 C 
ATOM      3  C   UNL     1      71.631  54.631  15.508  1.00  0.00     0.039 C 
ENDROOT
BRANCH   1   4
ATOM      4  C   UNL     1      69.790  53.856  17.187  1.00  0.00     0.034 C 
BRANCH   4   5
ATOM      5  C   UNL     1      69.552  52.408  17.629  1.00  0.00     0.032 C 
BRANCH   5   6
ATOM      6  C   UNL     1      68.077  52.099  17.673  1.00  0.00    -0.028 C 
ATOM      7  C   UNL     1      68.011  51.988  20.175  1.00  0.00     0.039 C 
ATOM      8  C   UNL     1      67.365  51.931  18.810  1.00  0.00    -0.080 C 
ATOM      9  C   UNL     1      65.886  51.664  18.699  1.00  0.00     0.039 C 
ENDBRANCH   5   6
ENDBRANCH   4   5
ENDBRANCH   1   4
BRANCH   2  10
ATOM     10  C   UNL     1      73.663  53.993  17.567  1.00  0.00     0.260 C 
BRANCH  10  11
ATOM     11  O   UNL     1      74.115  55.188  18.201  1.00  0.00    -0.462 OA
BRANCH  11  12
ATOM     12  C   UNL     1      74.728  56.238  17.507  1.00  0.00     0.302 C 
ATOM     13  O   UNL     1      75.982  56.364  17.504  1.00  0.00    -0.253 OA
ATOM     14  C   UNL     1      73.883  57.246  16.803  1.00  0.00     0.139 C 
ENDBRANCH  11  12
ENDBRANCH  10  11
ENDBRANCH   2  10
TORSDOF 6
ENDMDL
MODEL 7
REMARK VINA RESULT:    -4.345      2.676      4.142
REMARK INTER + INTRA:          -6.629
REMARK INTER:                  -6.244
REMARK INTRA:                  -0.384
REMARK UNBOUND:                -0.759
REMARK SMILES CC(=O)OCC=C(C)CCC=C(C)C
REMARK SMILES IDX 7 1 6 2 8 3 9 4 10 5 11 6 13 7 12 8 14 9 5 10 4 11 2 12 3 13
REMARK SMILES IDX 1 14
REMARK H PARENT
REMARK Flexibility Score: inf
ROOT
ATOM      1  C   UNL     1      69.937  52.726  18.335  1.00  0.00    -0.074 C 
ATOM      2  C   UNL     1      69.932  52.658  19.683  1.00  0.00     0.013 C 
ATOM      3  C   UNL     1      68.698  52.413  17.528  1.00  0.00     0.039 C 
ENDROOT
BRANCH   1   4
ATOM      4  C   UNL     1      71.206  53.131  17.618  1.00  0.00     0.034 C 
BRANCH   4   5
ATOM      5  C   UNL     1      71.103  54.569  17.099  1.00  0.00     0.032 C 
BRANCH   5   6
ATOM      6  C   UNL     1      71.048  54.590  15.592  1.00  0.00    -0.028 C 
ATOM      7  C   UNL     1      72.279  56.765  15.416  1.00  0.00     0.039 C 
ATOM      8  C   UNL     1      71.593  55.557  14.821  1.00  0.00    -0.080 C 
ATOM      9  C   UNL     1      71.492  55.424  13.323  1.00  0.00     0.039 C 
ENDBRANCH   5   6
ENDBRANCH   4   5
ENDBRANCH   1   4
BRANCH   2  10
ATOM     10  C   UNL     1      68.719  52.265  20.487  1.00  0.00     0.260 C 
BRANCH  10  11
ATOM     11  O   UNL     1      68.734  50.867  20.769  1.00  0.00    -0.462 OA
BRANCH  11  12
ATOM     12  C   UNL     1      69.133  50.339  22.003  1.00  0.00     0.302 C 
ATOM     13  O   UNL     1      69.834  51.019  22.800  1.00  0.00    -0.253 OA
ATOM     14  C   UNL     1      68.765  48.937  22.355  1.00  0.00     0.139 C 
ENDBRANCH  11  12
ENDBRANCH  10  11
ENDBRANCH   2  10
TORSDOF 6
ENDMDL
MODEL 8
REMARK VINA RESULT:    -4.293      2.448      3.578
REMARK INTER + INTRA:          -6.559
REMARK INTER:                  -5.278
REMARK INTRA:                  -1.281
REMARK UNBOUND:                -0.759
REMARK SMILES CC(=O)OCC=C(C)CCC=C(C)C
REMARK SMILES IDX 7 1 6 2 8 3 9 4 10 5 11 6 13 7 12 8 14 9 5 10 4 11 2 12 3 13
REMARK SMILES IDX 1 14
REMARK H PARENT
REMARK Flexibility Score: inf
ROOT
ATOM      1  C   UNL     1      69.991  54.363  18.913  1.00  0.00    -0.074 C 
ATOM      2  C   UNL     1      69.308  55.493  19.198  1.00  0.00     0.013 C 
ATOM      3  C   UNL     1      70.901  53.716  19.931  1.00  0.00     0.039 C 
ENDROOT
BRANCH   1   4
ATOM      4  C   UNL     1      69.837  53.730  17.548  1.00  0.00     0.034 C 
BRANCH   4   5
ATOM      5  C   UNL     1      69.442  52.255  17.674  1.00  0.00     0.032 C 
BRANCH   5   6
ATOM      6  C   UNL     1      67.941  52.104  17.690  1.00  0.00    -0.028 C 
ATOM      7  C   UNL     1      67.863  51.529  20.127  1.00  0.00     0.039 C 
ATOM      8  C   UNL     1      67.216  51.802  18.790  1.00  0.00    -0.080 C 
ATOM      9  C   UNL     1      65.716  51.723  18.661  1.00  0.00     0.039 C 
ENDBRANCH   5   6
ENDBRANCH   4   5
ENDBRANCH   1   4
BRANCH   2  10
ATOM     10  C   UNL     1      69.395  56.197  20.528  1.00  0.00     0.260 C 
BRANCH  10  11
ATOM     11  O   UNL     1      68.119  56.224  21.166  1.00  0.00    -0.462 OA
BRANCH  11  12
ATOM     12  C   UNL     1      67.437  55.067  21.562  1.00  0.00     0.302 C 
ATOM     13  O   UNL     1      67.949  54.268  22.392  1.00  0.00    -0.253 OA
ATOM     14  C   UNL     1      66.110  54.754  20.958  1.00  0.00     0.139 C 
ENDBRANCH  11  12
ENDBRANCH  10  11
ENDBRANCH   2  10
TORSDOF 6
ENDMDL
MODEL 9
REMARK VINA RESULT:    -4.270      1.644      2.459
REMARK INTER + INTRA:          -6.528
REMARK INTER:                  -5.529
REMARK INTRA:                  -0.998
REMARK UNBOUND:                -0.759
REMARK SMILES CC(=O)OCC=C(C)CCC=C(C)C
REMARK SMILES IDX 7 1 6 2 8 3 9 4 10 5 11 6 13 7 12 8 14 9 5 10 4 11 2 12 3 13
REMARK SMILES IDX 1 14
REMARK H PARENT
REMARK Flexibility Score: inf
ROOT
ATOM      1  C   UNL     1      70.630  52.841  19.932  1.00  0.00    -0.074 C 
ATOM      2  C   UNL     1      70.223  52.033  20.935  1.00  0.00     0.013 C 
ATOM      3  C   UNL     1      71.224  54.202  20.210  1.00  0.00     0.039 C 
ENDROOT
BRANCH   1   4
ATOM      4  C   UNL     1      70.493  52.371  18.501  1.00  0.00     0.034 C 
BRANCH   4   5
ATOM      5  C   UNL     1      69.289  53.035  17.823  1.00  0.00     0.032 C 
BRANCH   5   6
ATOM      6  C   UNL     1      68.096  52.112  17.832  1.00  0.00    -0.028 C 
ATOM      7  C   UNL     1      67.022  53.257  19.785  1.00  0.00     0.039 C 
ATOM      8  C   UNL     1      67.058  52.215  18.691  1.00  0.00    -0.080 C 
ATOM      9  C   UNL     1      65.914  51.243  18.555  1.00  0.00     0.039 C 
ENDBRANCH   5   6
ENDBRANCH   4   5
ENDBRANCH   1   4
BRANCH   2  10
ATOM     10  C   UNL     1      70.319  52.411  22.391  1.00  0.00     0.260 C 
BRANCH  10  11
ATOM     11  O   UNL     1      69.027  52.701  22.920  1.00  0.00    -0.462 OA
BRANCH  11  12
ATOM     12  C   UNL     1      68.695  53.932  23.500  1.00  0.00     0.302 C 
ATOM     13  O   UNL     1      68.678  54.072  24.752  1.00  0.00    -0.253 OA
ATOM     14  C   UNL     1      68.309  55.076  22.624  1.00  0.00     0.139 C 
ENDBRANCH  11  12
ENDBRANCH  10  11
ENDBRANCH   2  10
TORSDOF 6
ENDMDL
