MODEL 1
REMARK VINA RESULT:    72.941      0.000      0.000
REMARK INTER + INTRA:         104.582
REMARK INTER:                 102.790
REMARK INTRA:                   1.792
REMARK UNBOUND:                 1.792
REMARK SMILES COc1c(O[C@H]2O[C@@H](C(=O)[O-])[C@H](O)[C@H](O)[C@@H]2O)cc(O)c2c(=O)cc(-c3ccccc3)oc12
REMARK SMILES IDX 5 1 6 2 8 3 12 4 7 5 14 6 16 7 9 8 10 9 11 10 13 11 15 13
REMARK SMILES IDX 17 15 4 17 3 18 18 19 33 20 19 21 21 22 32 23 22 24 25 25
REMARK SMILES IDX 24 26 23 27 2 28 1 29 20 30 26 32 27 33 31 34 28 35 30 36
REMARK SMILES IDX 29 37
REMARK H PARENT 13 12 15 14 17 16 20 31
REMARK Flexibility Score: inf
ROOT
ATOM      1  O   UNL     1       8.880 -22.138 -17.263  1.00  0.00    -0.458 OA
ENDROOT
BRANCH   1   2
ATOM      2  C   UNL     1       8.600 -21.070 -18.171  1.00  0.00     0.339 C 
ATOM      3  C   UNL     1       6.246 -21.023 -17.781  1.00  0.00     0.199 C 
ATOM      4  C   UNL     1       6.342 -19.691 -16.985  1.00  0.00     0.180 C 
ATOM      5  O   UNL     1       7.296 -21.186 -18.729  1.00  0.00    -0.328 OA
ATOM      6  C   UNL     1       7.754 -19.458 -16.420  1.00  0.00     0.181 C 
ATOM      7  C   UNL     1       8.830 -19.711 -17.487  1.00  0.00     0.214 C 
BRANCH   3   8
ATOM      8  C   UNL     1       6.067 -22.248 -16.918  1.00  0.00     0.073 C 
ATOM      9  O   UNL     1       6.539 -22.258 -15.750  1.00  0.00    -0.547 OA
ATOM     10  O   UNL     1       5.366 -23.358 -17.374  1.00  0.00    -0.547 OA
ENDBRANCH   3   8
BRANCH   4  11
ATOM     11  O   UNL     1       5.931 -18.595 -17.770  1.00  0.00    -0.387 OA
ATOM     12  H   UNL     1       5.320 -18.031 -17.227  1.00  0.00     0.211 HD
ENDBRANCH   4  11
BRANCH   6  13
ATOM     13  O   UNL     1       7.856 -18.149 -15.918  1.00  0.00    -0.387 OA
ATOM     14  H   UNL     1       8.396 -18.199 -15.088  1.00  0.00     0.211 HD
ENDBRANCH   6  13
BRANCH   7  15
ATOM     15  O   UNL     1       8.818 -18.684 -18.445  1.00  0.00    -0.384 OA
ATOM     16  H   UNL     1       9.636 -18.144 -18.302  1.00  0.00     0.211 HD
ENDBRANCH   7  15
ENDBRANCH   1   2
BRANCH   1  17
ATOM     17  C   UNL     1      10.081 -22.868 -17.208  1.00  0.00     0.172 A 
ATOM     18  C   UNL     1      11.175 -22.282 -16.558  1.00  0.00     0.205 A 
ATOM     19  C   UNL     1      10.199 -24.146 -17.773  1.00  0.00     0.097 A 
ATOM     20  C   UNL     1      12.393 -23.000 -16.453  1.00  0.00     0.188 A 
ATOM     21  C   UNL     1      11.399 -24.859 -17.690  1.00  0.00     0.134 A 
ATOM     22  C   UNL     1      12.505 -24.296 -17.019  1.00  0.00     0.111 A 
ATOM     23  O   UNL     1      13.432 -22.469 -15.812  1.00  0.00    -0.452 OA
ATOM     24  C   UNL     1      13.735 -24.973 -16.879  1.00  0.00     0.197 A 
ATOM     25  C   UNL     1      14.598 -23.089 -15.650  1.00  0.00     0.138 A 
ATOM     26  C   UNL     1      14.782 -24.365 -16.192  1.00  0.00     0.100 A 
ATOM     27  O   UNL     1      13.911 -26.125 -17.362  1.00  0.00    -0.289 OA
BRANCH  18  28
ATOM     28  O   UNL     1      10.978 -20.992 -16.027  1.00  0.00    -0.490 OA
ATOM     29  C   UNL     1      11.200 -19.757 -16.696  1.00  0.00     0.278 C 
ENDBRANCH  18  28
BRANCH  21  30
ATOM     30  O   UNL     1      11.481 -26.125 -18.272  1.00  0.00    -0.507 OA
ATOM     31  H   UNL     1      10.840 -26.871 -18.025  1.00  0.00     0.293 HD
ENDBRANCH  21  30
BRANCH  25  32
ATOM     32  C   UNL     1      15.675 -22.405 -14.896  1.00  0.00     0.017 A 
ATOM     33  C   UNL     1      15.490 -21.083 -14.460  1.00  0.00     0.012 A 
ATOM     34  C   UNL     1      16.873 -23.069 -14.568  1.00  0.00     0.012 A 
ATOM     35  C   UNL     1      16.485 -20.435 -13.725  1.00  0.00     0.001 A 
ATOM     36  C   UNL     1      17.866 -22.416 -13.832  1.00  0.00     0.001 A 
ATOM     37  C   UNL     1      17.672 -21.101 -13.410  1.00  0.00     0.000 A 
ENDBRANCH  25  32
ENDBRANCH   1  17
TORSDOF 9
ENDMDL
MODEL 2
REMARK VINA RESULT:    73.658      9.522     12.146
REMARK INTER + INTRA:         105.592
REMARK INTER:                 104.487
REMARK INTRA:                   1.105
REMARK UNBOUND:                 1.792
REMARK SMILES COc1c(O[C@H]2O[C@@H](C(=O)[O-])[C@H](O)[C@H](O)[C@@H]2O)cc(O)c2c(=O)cc(-c3ccccc3)oc12
REMARK SMILES IDX 5 1 6 2 8 3 12 4 7 5 14 6 16 7 9 8 10 9 11 10 13 11 15 13
REMARK SMILES IDX 17 15 4 17 3 18 18 19 33 20 19 21 21 22 32 23 22 24 25 25
REMARK SMILES IDX 24 26 23 27 2 28 1 29 20 30 26 32 27 33 31 34 28 35 30 36
REMARK SMILES IDX 29 37
REMARK H PARENT 13 12 15 14 17 16 20 31
REMARK Flexibility Score: inf
ROOT
ATOM      1  O   UNL     1      15.324 -13.458 -16.252  1.00  0.00    -0.458 OA
ENDROOT
BRANCH   1   2
ATOM      2  C   UNL     1      16.210 -14.506 -16.651  1.00  0.00     0.339 C 
ATOM      3  C   UNL     1      15.606 -14.473 -18.960  1.00  0.00     0.199 C 
ATOM      4  C   UNL     1      16.957 -13.819 -19.368  1.00  0.00     0.180 C 
ATOM      5  O   UNL     1      15.693 -15.235 -17.759  1.00  0.00    -0.328 OA
ATOM      6  C   UNL     1      17.617 -13.080 -18.190  1.00  0.00     0.181 C 
ATOM      7  C   UNL     1      17.617 -13.944 -16.920  1.00  0.00     0.214 C 
BRANCH   3   8
ATOM      8  C   UNL     1      14.436 -13.521 -18.944  1.00  0.00     0.073 C 
ATOM      9  O   UNL     1      13.416 -13.803 -18.262  1.00  0.00    -0.547 OA
ATOM     10  O   UNL     1      14.471 -12.322 -19.646  1.00  0.00    -0.547 OA
ENDBRANCH   3   8
BRANCH   4  11
ATOM     11  O   UNL     1      17.840 -14.767 -19.921  1.00  0.00    -0.387 OA
ATOM     12  H   UNL     1      18.173 -14.418 -20.788  1.00  0.00     0.211 HD
ENDBRANCH   4  11
BRANCH   6  13
ATOM     13  O   UNL     1      18.928 -12.711 -18.536  1.00  0.00    -0.387 OA
ATOM     14  H   UNL     1      19.022 -12.856 -19.512  1.00  0.00     0.211 HD
ENDBRANCH   6  13
BRANCH   7  15
ATOM     15  O   UNL     1      18.538 -14.998 -17.047  1.00  0.00    -0.384 OA
ATOM     16  H   UNL     1      18.105 -15.808 -16.676  1.00  0.00     0.211 HD
ENDBRANCH   7  15
ENDBRANCH   1   2
BRANCH   1  17
ATOM     17  C   UNL     1      15.000 -13.128 -14.923  1.00  0.00     0.172 A 
ATOM     18  C   UNL     1      16.054 -12.877 -14.034  1.00  0.00     0.205 A 
ATOM     19  C   UNL     1      13.672 -13.037 -14.483  1.00  0.00     0.097 A 
ATOM     20  C   UNL     1      15.768 -12.509 -12.696  1.00  0.00     0.188 A 
ATOM     21  C   UNL     1      13.375 -12.689 -13.162  1.00  0.00     0.134 A 
ATOM     22  C   UNL     1      14.422 -12.411 -12.258  1.00  0.00     0.111 A 
ATOM     23  O   UNL     1      16.757 -12.239 -11.847  1.00  0.00    -0.452 OA
ATOM     24  C   UNL     1      14.189 -12.030 -10.919  1.00  0.00     0.197 A 
ATOM     25  C   UNL     1      16.570 -11.863 -10.585  1.00  0.00     0.138 A 
ATOM     26  C   UNL     1      15.268 -11.756 -10.084  1.00  0.00     0.100 A 
ATOM     27  O   UNL     1      13.020 -11.929 -10.457  1.00  0.00    -0.289 OA
BRANCH  18  28
ATOM     28  O   UNL     1      17.359 -12.999 -14.551  1.00  0.00    -0.490 OA
ATOM     29  C   UNL     1      18.295 -11.947 -14.749  1.00  0.00     0.278 C 
ENDBRANCH  18  28
BRANCH  21  30
ATOM     30  O   UNL     1      12.041 -12.618 -12.759  1.00  0.00    -0.507 OA
ATOM     31  H   UNL     1      11.465 -11.807 -12.954  1.00  0.00     0.293 HD
ENDBRANCH  21  30
BRANCH  25  32
ATOM     32  C   UNL     1      17.751 -11.566  -9.741  1.00  0.00     0.017 A 
ATOM     33  C   UNL     1      17.596 -10.810  -8.567  1.00  0.00     0.012 A 
ATOM     34  C   UNL     1      19.027 -12.062 -10.068  1.00  0.00     0.012 A 
ATOM     35  C   UNL     1      18.696 -10.546  -7.747  1.00  0.00     0.001 A 
ATOM     36  C   UNL     1      20.124 -11.795  -9.244  1.00  0.00     0.001 A 
ATOM     37  C   UNL     1      19.959 -11.039  -8.084  1.00  0.00     0.000 A 
ENDBRANCH  25  32
ENDBRANCH   1  17
TORSDOF 9
ENDMDL
MODEL 3
REMARK VINA RESULT:    74.517      2.430      8.419
REMARK INTER + INTRA:         106.803
REMARK INTER:                 108.012
REMARK INTRA:                  -1.208
REMARK UNBOUND:                 1.792
REMARK SMILES COc1c(O[C@H]2O[C@@H](C(=O)[O-])[C@H](O)[C@H](O)[C@@H]2O)cc(O)c2c(=O)cc(-c3ccccc3)oc12
REMARK SMILES IDX 5 1 6 2 8 3 12 4 7 5 14 6 16 7 9 8 10 9 11 10 13 11 15 13
REMARK SMILES IDX 17 15 4 17 3 18 18 19 33 20 19 21 21 22 32 23 22 24 25 25
REMARK SMILES IDX 24 26 23 27 2 28 1 29 20 30 26 32 27 33 31 34 28 35 30 36
REMARK SMILES IDX 29 37
REMARK H PARENT 13 12 15 14 17 16 20 31
REMARK Flexibility Score: inf
ROOT
ATOM      1  O   UNL     1      14.983 -23.580 -14.676  1.00  0.00    -0.458 OA
ENDROOT
BRANCH   1   2
ATOM      2  C   UNL     1      16.326 -24.031 -14.859  1.00  0.00     0.339 C 
ATOM      3  C   UNL     1      17.342 -21.883 -14.630  1.00  0.00     0.199 C 
ATOM      4  C   UNL     1      17.915 -22.235 -13.227  1.00  0.00     0.180 C 
ATOM      5  O   UNL     1      17.140 -23.026 -15.455  1.00  0.00    -0.328 OA
ATOM      6  C   UNL     1      17.132 -23.377 -12.556  1.00  0.00     0.181 C 
ATOM      7  C   UNL     1      16.904 -24.544 -13.528  1.00  0.00     0.214 C 
BRANCH   3   8
ATOM      8  C   UNL     1      16.129 -20.987 -14.595  1.00  0.00     0.073 C 
ATOM      9  O   UNL     1      15.565 -20.665 -15.674  1.00  0.00    -0.547 OA
ATOM     10  O   UNL     1      15.602 -20.529 -13.393  1.00  0.00    -0.547 OA
ENDBRANCH   3   8
BRANCH   4  11
ATOM     11  O   UNL     1      19.287 -22.545 -13.297  1.00  0.00    -0.387 OA
ATOM     12  H   UNL     1      19.679 -22.066 -14.074  1.00  0.00     0.211 HD
ENDBRANCH   4  11
BRANCH   6  13
ATOM     13  O   UNL     1      17.819 -23.816 -11.411  1.00  0.00    -0.387 OA
ATOM     14  H   UNL     1      17.674 -23.132 -10.707  1.00  0.00     0.211 HD
ENDBRANCH   6  13
BRANCH   7  15
ATOM     15  O   UNL     1      18.109 -25.228 -13.760  1.00  0.00    -0.384 OA
ATOM     16  H   UNL     1      18.142 -25.984 -13.122  1.00  0.00     0.211 HD
ENDBRANCH   7  15
ENDBRANCH   1   2
BRANCH   1  17
ATOM     17  C   UNL     1      13.915 -23.825 -15.558  1.00  0.00     0.172 A 
ATOM     18  C   UNL     1      12.793 -22.990 -15.477  1.00  0.00     0.205 A 
ATOM     19  C   UNL     1      13.953 -24.863 -16.501  1.00  0.00     0.097 A 
ATOM     20  C   UNL     1      11.709 -23.185 -16.370  1.00  0.00     0.188 A 
ATOM     21  C   UNL     1      12.885 -25.076 -17.378  1.00  0.00     0.134 A 
ATOM     22  C   UNL     1      11.756 -24.230 -17.328  1.00  0.00     0.111 A 
ATOM     23  O   UNL     1      10.649 -22.380 -16.326  1.00  0.00    -0.452 OA
ATOM     24  C   UNL     1      10.657 -24.376 -18.201  1.00  0.00     0.197 A 
ATOM     25  C   UNL     1       9.607 -22.483 -17.145  1.00  0.00     0.138 A 
ATOM     26  C   UNL     1       9.582 -23.498 -18.107  1.00  0.00     0.100 A 
ATOM     27  O   UNL     1      10.626 -25.287 -19.072  1.00  0.00    -0.289 OA
BRANCH  18  28
ATOM     28  O   UNL     1      12.827 -21.979 -14.497  1.00  0.00    -0.490 OA
ATOM     29  C   UNL     1      12.012 -21.897 -13.334  1.00  0.00     0.278 C 
ENDBRANCH  18  28
BRANCH  21  30
ATOM     30  O   UNL     1      12.956 -26.124 -18.297  1.00  0.00    -0.507 OA
ATOM     31  H   UNL     1      12.169 -26.740 -18.468  1.00  0.00     0.293 HD
ENDBRANCH  21  30
BRANCH  25  32
ATOM     32  C   UNL     1       8.493 -21.513 -17.015  1.00  0.00     0.017 A 
ATOM     33  C   UNL     1       7.246 -21.945 -16.535  1.00  0.00     0.012 A 
ATOM     34  C   UNL     1       8.670 -20.151 -17.323  1.00  0.00     0.012 A 
ATOM     35  C   UNL     1       6.195 -21.037 -16.381  1.00  0.00     0.001 A 
ATOM     36  C   UNL     1       7.615 -19.247 -17.167  1.00  0.00     0.001 A 
ATOM     37  C   UNL     1       6.379 -19.689 -16.695  1.00  0.00     0.000 A 
ENDBRANCH  25  32
ENDBRANCH   1  17
TORSDOF 9
ENDMDL
MODEL 4
REMARK VINA RESULT:    74.746      1.203      1.706
REMARK INTER + INTRA:         107.125
REMARK INTER:                  91.787
REMARK INTRA:                  15.339
REMARK UNBOUND:                 1.792
REMARK SMILES COc1c(O[C@H]2O[C@@H](C(=O)[O-])[C@H](O)[C@H](O)[C@@H]2O)cc(O)c2c(=O)cc(-c3ccccc3)oc12
REMARK SMILES IDX 5 1 6 2 8 3 12 4 7 5 14 6 16 7 9 8 10 9 11 10 13 11 15 13
REMARK SMILES IDX 17 15 4 17 3 18 18 19 33 20 19 21 21 22 32 23 22 24 25 25
REMARK SMILES IDX 24 26 23 27 2 28 1 29 20 30 26 32 27 33 31 34 28 35 30 36
REMARK SMILES IDX 29 37
REMARK H PARENT 13 12 15 14 17 16 20 31
REMARK Flexibility Score: inf
ROOT
ATOM      1  O   UNL     1       9.344 -20.734 -18.386  1.00  0.00    -0.458 OA
ENDROOT
BRANCH   1   2
ATOM      2  C   UNL     1       7.926 -20.826 -18.537  1.00  0.00     0.339 C 
ATOM      3  C   UNL     1       7.566 -22.230 -16.640  1.00  0.00     0.199 C 
ATOM      4  C   UNL     1       6.930 -21.069 -15.824  1.00  0.00     0.180 C 
ATOM      5  O   UNL     1       7.427 -22.066 -18.048  1.00  0.00    -0.328 OA
ATOM      6  C   UNL     1       7.362 -19.690 -16.352  1.00  0.00     0.181 C 
ATOM      7  C   UNL     1       7.239 -19.615 -17.881  1.00  0.00     0.214 C 
BRANCH   3   8
ATOM      8  C   UNL     1       8.985 -22.559 -16.245  1.00  0.00     0.073 C 
ATOM      9  O   UNL     1       9.717 -21.659 -15.754  1.00  0.00    -0.547 OA
ATOM     10  O   UNL     1       9.495 -23.844 -16.387  1.00  0.00    -0.547 OA
ENDBRANCH   3   8
BRANCH   4  11
ATOM     11  O   UNL     1       5.526 -21.175 -15.792  1.00  0.00    -0.387 OA
ATOM     12  H   UNL     1       5.158 -20.727 -16.598  1.00  0.00     0.211 HD
ENDBRANCH   4  11
BRANCH   6  13
ATOM     13  O   UNL     1       6.589 -18.685 -15.745  1.00  0.00    -0.387 OA
ATOM     14  H   UNL     1       5.686 -18.730 -16.152  1.00  0.00     0.211 HD
ENDBRANCH   6  13
BRANCH   7  15
ATOM     15  O   UNL     1       5.886 -19.568 -18.260  1.00  0.00    -0.384 OA
ATOM     16  H   UNL     1       5.425 -18.974 -17.615  1.00  0.00     0.211 HD
ENDBRANCH   7  15
ENDBRANCH   1   2
BRANCH   1  17
ATOM     17  C   UNL     1      10.199 -21.801 -18.056  1.00  0.00     0.172 A 
ATOM     18  C   UNL     1      11.383 -21.505 -17.369  1.00  0.00     0.205 A 
ATOM     19  C   UNL     1       9.891 -23.129 -18.388  1.00  0.00     0.097 A 
ATOM     20  C   UNL     1      12.255 -22.557 -16.990  1.00  0.00     0.188 A 
ATOM     21  C   UNL     1      10.748 -24.175 -18.034  1.00  0.00     0.134 A 
ATOM     22  C   UNL     1      11.935 -23.899 -17.321  1.00  0.00     0.111 A 
ATOM     23  O   UNL     1      13.369 -22.294 -16.311  1.00  0.00    -0.452 OA
ATOM     24  C   UNL     1      12.829 -24.911 -16.913  1.00  0.00     0.197 A 
ATOM     25  C   UNL     1      14.222 -23.227 -15.898  1.00  0.00     0.138 A 
ATOM     26  C   UNL     1      13.975 -24.570 -16.200  1.00  0.00     0.100 A 
ATOM     27  O   UNL     1      12.614 -26.125 -17.177  1.00  0.00    -0.289 OA
BRANCH  18  28
ATOM     28  O   UNL     1      11.624 -20.147 -17.083  1.00  0.00    -0.490 OA
ATOM     29  C   UNL     1      11.315 -19.036 -17.916  1.00  0.00     0.278 C 
ENDBRANCH  18  28
BRANCH  21  30
ATOM     30  O   UNL     1      10.412 -25.482 -18.390  1.00  0.00    -0.507 OA
ATOM     31  H   UNL     1      11.119 -26.176 -18.608  1.00  0.00     0.293 HD
ENDBRANCH  21  30
BRANCH  25  32
ATOM     32  C   UNL     1      15.420 -22.814 -15.128  1.00  0.00     0.017 A 
ATOM     33  C   UNL     1      15.496 -21.513 -14.604  1.00  0.00     0.012 A 
ATOM     34  C   UNL     1      16.470 -23.715 -14.871  1.00  0.00     0.012 A 
ATOM     35  C   UNL     1      16.606 -21.119 -13.852  1.00  0.00     0.001 A 
ATOM     36  C   UNL     1      17.578 -23.315 -14.118  1.00  0.00     0.001 A 
ATOM     37  C   UNL     1      17.646 -22.019 -13.609  1.00  0.00     0.000 A 
ENDBRANCH  25  32
ENDBRANCH   1  17
TORSDOF 9
ENDMDL
MODEL 5
REMARK VINA RESULT:    75.187      1.680      3.080
REMARK INTER + INTRA:         107.747
REMARK INTER:                 106.421
REMARK INTRA:                   1.326
REMARK UNBOUND:                 1.792
REMARK SMILES COc1c(O[C@H]2O[C@@H](C(=O)[O-])[C@H](O)[C@H](O)[C@@H]2O)cc(O)c2c(=O)cc(-c3ccccc3)oc12
REMARK SMILES IDX 5 1 6 2 8 3 12 4 7 5 14 6 16 7 9 8 10 9 11 10 13 11 15 13
REMARK SMILES IDX 17 15 4 17 3 18 18 19 33 20 19 21 21 22 32 23 22 24 25 25
REMARK SMILES IDX 24 26 23 27 2 28 1 29 20 30 26 32 27 33 31 34 28 35 30 36
REMARK SMILES IDX 29 37
REMARK H PARENT 13 12 15 14 17 16 20 31
REMARK Flexibility Score: inf
ROOT
ATOM      1  O   UNL     1       9.533 -23.460 -17.645  1.00  0.00    -0.458 OA
ENDROOT
BRANCH   1   2
ATOM      2  C   UNL     1       8.909 -23.397 -16.361  1.00  0.00     0.339 C 
ATOM      3  C   UNL     1       8.086 -21.169 -16.596  1.00  0.00     0.199 C 
ATOM      4  C   UNL     1       6.620 -21.661 -16.760  1.00  0.00     0.180 C 
ATOM      5  O   UNL     1       8.899 -22.068 -15.849  1.00  0.00    -0.328 OA
ATOM      6  C   UNL     1       6.554 -23.124 -17.233  1.00  0.00     0.181 C 
ATOM      7  C   UNL     1       7.502 -24.016 -16.418  1.00  0.00     0.214 C 
BRANCH   3   8
ATOM      8  C   UNL     1       8.745 -20.746 -17.886  1.00  0.00     0.073 C 
ATOM      9  O   UNL     1       8.172 -20.986 -18.982  1.00  0.00    -0.547 OA
ATOM     10  O   UNL     1       9.961 -20.072 -17.890  1.00  0.00    -0.547 OA
ENDBRANCH   3   8
BRANCH   4  11
ATOM     11  O   UNL     1       5.885 -21.487 -15.570  1.00  0.00    -0.387 OA
ATOM     12  H   UNL     1       6.522 -21.324 -14.827  1.00  0.00     0.211 HD
ENDBRANCH   4  11
BRANCH   6  13
ATOM     13  O   UNL     1       5.233 -23.594 -17.141  1.00  0.00    -0.387 OA
ATOM     14  H   UNL     1       4.950 -23.479 -16.197  1.00  0.00     0.211 HD
ENDBRANCH   6  13
BRANCH   7  15
ATOM     15  O   UNL     1       7.004 -24.197 -15.117  1.00  0.00    -0.384 OA
ATOM     16  H   UNL     1       6.040 -23.974 -15.142  1.00  0.00     0.211 HD
ENDBRANCH   7  15
ENDBRANCH   1   2
BRANCH   1  17
ATOM     17  C   UNL     1      10.912 -23.611 -17.874  1.00  0.00     0.172 A 
ATOM     18  C   UNL     1      11.791 -23.261 -16.840  1.00  0.00     0.205 A 
ATOM     19  C   UNL     1      11.415 -24.101 -19.089  1.00  0.00     0.097 A 
ATOM     20  C   UNL     1      13.187 -23.429 -17.020  1.00  0.00     0.188 A 
ATOM     21  C   UNL     1      12.790 -24.259 -19.285  1.00  0.00     0.134 A 
ATOM     22  C   UNL     1      13.689 -23.934 -18.247  1.00  0.00     0.111 A 
ATOM     23  O   UNL     1      14.032 -23.130 -16.036  1.00  0.00    -0.452 OA
ATOM     24  C   UNL     1      15.086 -24.093 -18.374  1.00  0.00     0.197 A 
ATOM     25  C   UNL     1      15.350 -23.284 -16.119  1.00  0.00     0.138 A 
ATOM     26  C   UNL     1      15.915 -23.766 -17.305  1.00  0.00     0.100 A 
ATOM     27  O   UNL     1      15.605 -24.529 -19.437  1.00  0.00    -0.289 OA
BRANCH  18  28
ATOM     28  O   UNL     1      11.208 -22.766 -15.657  1.00  0.00    -0.490 OA
ATOM     29  C   UNL     1      11.855 -22.590 -14.402  1.00  0.00     0.278 C 
ENDBRANCH  18  28
BRANCH  21  30
ATOM     30  O   UNL     1      13.252 -24.741 -20.511  1.00  0.00    -0.507 OA
ATOM     31  H   UNL     1      13.244 -25.730 -20.735  1.00  0.00     0.293 HD
ENDBRANCH  21  30
BRANCH  25  32
ATOM     32  C   UNL     1      16.189 -22.937 -14.948  1.00  0.00     0.017 A 
ATOM     33  C   UNL     1      17.278 -23.756 -14.604  1.00  0.00     0.012 A 
ATOM     34  C   UNL     1      15.944 -21.776 -14.190  1.00  0.00     0.012 A 
ATOM     35  C   UNL     1      18.094 -23.427 -13.519  1.00  0.00     0.001 A 
ATOM     36  C   UNL     1      16.764 -21.452 -13.106  1.00  0.00     0.001 A 
ATOM     37  C   UNL     1      17.839 -22.276 -12.771  1.00  0.00     0.000 A 
ENDBRANCH  25  32
ENDBRANCH   1  17
TORSDOF 9
ENDMDL
