MODEL 1
REMARK VINA RESULT:    -4.035      0.000      0.000
REMARK INTER + INTRA:          -6.926
REMARK INTER:                  -5.450
REMARK INTRA:                  -1.476
REMARK UNBOUND:                -1.476
REMARK SMILES CC[C@H](CC[C@H](C)[C@H]1CC[C@@H]2[C@H]3CC(=O)C4=CC(=O)CC[C@@]4(C)[C@@H]3CC[C@@]21C)C(C)C
REMARK SMILES IDX 4 1 3 2 2 3 1 4 29 5 30 6 31 7 5 8 6 9 7 10 8 11 9 12 27 13
REMARK SMILES IDX 10 14 11 15 26 16 28 17 12 18 25 19 24 20 13 21 22 22 14 23
REMARK SMILES IDX 16 24 21 25 23 26 15 27 17 28 20 29 18 30 19 31
REMARK H PARENT
REMARK Flexibility Score: inf
ROOT
ATOM      1  C   UNL     1      -3.963  32.563  64.211  1.00  0.00     0.004 C 
ENDROOT
BRANCH   1   2
ATOM      2  C   UNL     1      -2.865  32.941  65.247  1.00  0.00    -0.009 C 
BRANCH   2   3
ATOM      3  C   UNL     1      -2.854  34.453  65.637  1.00  0.00     0.000 C 
ATOM      4  C   UNL     1      -3.445  35.422  64.605  1.00  0.00     0.004 C 
ENDBRANCH   2   3
BRANCH   2   5
ATOM      5  C   UNL     1      -2.829  32.007  66.502  1.00  0.00    -0.014 C 
ATOM      6  C   UNL     1      -2.567  32.738  67.827  1.00  0.00     0.007 C 
ATOM      7  C   UNL     1      -4.093  31.139  66.624  1.00  0.00     0.007 C 
ENDBRANCH   2   5
ENDBRANCH   1   2
BRANCH   1   8
ATOM      8  C   UNL     1      -3.489  31.472  63.224  1.00  0.00     0.004 C 
BRANCH   8   9
ATOM      9  C   UNL     1      -3.028  31.989  61.833  1.00  0.00    -0.011 C 
ATOM     10  C   UNL     1      -2.066  30.978  61.171  1.00  0.00     0.008 C 
BRANCH   9  11
ATOM     11  C   UNL     1      -2.530  33.484  61.851  1.00  0.00    -0.002 C 
ATOM     12  C   UNL     1      -1.032  33.659  62.162  1.00  0.00     0.005 C 
ATOM     13  C   UNL     1      -2.844  34.403  60.589  1.00  0.00    -0.026 C 
ATOM     14  C   UNL     1      -0.663  34.993  61.559  1.00  0.00     0.005 C 
ATOM     15  C   UNL     1      -1.452  35.044  60.257  1.00  0.00    -0.001 C 
ATOM     16  C   UNL     1      -3.965  35.461  60.949  1.00  0.00     0.007 C 
ATOM     17  C   UNL     1      -3.319  33.627  59.326  1.00  0.00     0.012 C 
ATOM     18  C   UNL     1      -1.417  36.470  59.602  1.00  0.00     0.004 C 
ATOM     19  C   UNL     1      -3.544  36.926  60.829  1.00  0.00     0.005 C 
ATOM     20  C   UNL     1      -2.805  37.149  59.498  1.00  0.00     0.003 C 
ATOM     21  C   UNL     1      -0.753  36.434  58.220  1.00  0.00     0.085 C 
ATOM     22  C   UNL     1      -2.706  38.659  59.045  1.00  0.00    -0.000 C 
ATOM     23  C   UNL     1      -0.675  37.806  57.625  1.00  0.00     0.159 C 
ATOM     24  C   UNL     1      -1.782  38.776  57.821  1.00  0.00     0.005 C 
ATOM     25  C   UNL     1      -4.125  39.178  58.647  1.00  0.00     0.020 C 
ATOM     26  C   UNL     1      -2.137  39.555  60.179  1.00  0.00     0.017 C 
ATOM     27  O   UNL     1       0.314  38.099  56.896  1.00  0.00    -0.295 OA
ATOM     28  C   UNL     1      -1.905  39.812  56.963  1.00  0.00     0.055 C 
ATOM     29  C   UNL     1      -4.103  40.603  58.067  1.00  0.00     0.081 C 
ATOM     30  C   UNL     1      -3.014  40.772  57.053  1.00  0.00     0.156 C 
ATOM     31  O   UNL     1      -3.032  41.773  56.287  1.00  0.00    -0.295 OA
ENDBRANCH   9  11
ENDBRANCH   8   9
ENDBRANCH   1   8
TORSDOF 6
ENDMDL
MODEL 2
REMARK VINA RESULT:    -3.774      0.519      1.565
REMARK INTER + INTRA:          -6.573
REMARK INTER:                  -4.866
REMARK INTRA:                  -1.707
REMARK UNBOUND:                -1.476
REMARK SMILES CC[C@H](CC[C@H](C)[C@H]1CC[C@@H]2[C@H]3CC(=O)C4=CC(=O)CC[C@@]4(C)[C@@H]3CC[C@@]21C)C(C)C
REMARK SMILES IDX 4 1 3 2 2 3 1 4 29 5 30 6 31 7 5 8 6 9 7 10 8 11 9 12 27 13
REMARK SMILES IDX 10 14 11 15 26 16 28 17 12 18 25 19 24 20 13 21 22 22 14 23
REMARK SMILES IDX 16 24 21 25 23 26 15 27 17 28 20 29 18 30 19 31
REMARK H PARENT
REMARK Flexibility Score: inf
ROOT
ATOM      1  C   UNL     1      -4.125  32.557  64.280  1.00  0.00     0.004 C 
ENDROOT
BRANCH   1   2
ATOM      2  C   UNL     1      -3.475  33.052  65.604  1.00  0.00    -0.009 C 
BRANCH   2   3
ATOM      3  C   UNL     1      -2.562  31.992  66.298  1.00  0.00     0.000 C 
ATOM      4  C   UNL     1      -3.087  31.407  67.616  1.00  0.00     0.004 C 
ENDBRANCH   2   3
BRANCH   2   5
ATOM      5  C   UNL     1      -2.775  34.447  65.484  1.00  0.00    -0.014 C 
ATOM      6  C   UNL     1      -3.744  35.634  65.397  1.00  0.00     0.007 C 
ATOM      7  C   UNL     1      -1.751  34.687  66.605  1.00  0.00     0.007 C 
ENDBRANCH   2   5
ENDBRANCH   1   2
BRANCH   1   8
ATOM      8  C   UNL     1      -3.259  31.499  63.559  1.00  0.00     0.004 C 
BRANCH   8   9
ATOM      9  C   UNL     1      -2.705  31.927  62.172  1.00  0.00    -0.011 C 
ATOM     10  C   UNL     1      -1.651  30.914  61.674  1.00  0.00     0.008 C 
BRANCH   9  11
ATOM     11  C   UNL     1      -2.271  33.441  62.108  1.00  0.00    -0.002 C 
ATOM     12  C   UNL     1      -0.783  33.697  62.414  1.00  0.00     0.005 C 
ATOM     13  C   UNL     1      -2.616  34.274  60.795  1.00  0.00    -0.026 C 
ATOM     14  C   UNL     1      -0.469  35.010  61.738  1.00  0.00     0.005 C 
ATOM     15  C   UNL     1      -1.251  34.954  60.432  1.00  0.00    -0.001 C 
ATOM     16  C   UNL     1      -3.784  35.301  61.091  1.00  0.00     0.007 C 
ATOM     17  C   UNL     1      -3.050  33.408  59.576  1.00  0.00     0.012 C 
ATOM     18  C   UNL     1      -1.274  36.342  59.699  1.00  0.00     0.004 C 
ATOM     19  C   UNL     1      -3.426  36.774  60.890  1.00  0.00     0.005 C 
ATOM     20  C   UNL     1      -2.689  36.953  59.552  1.00  0.00     0.003 C 
ATOM     21  C   UNL     1      -0.600  36.257  58.323  1.00  0.00     0.085 C 
ATOM     22  C   UNL     1      -2.651  38.438  59.015  1.00  0.00    -0.000 C 
ATOM     23  C   UNL     1      -0.577  37.595  57.652  1.00  0.00     0.159 C 
ATOM     24  C   UNL     1      -1.726  38.527  57.789  1.00  0.00     0.005 C 
ATOM     25  C   UNL     1      -4.089  38.873  58.583  1.00  0.00     0.020 C 
ATOM     26  C   UNL     1      -2.128  39.421  60.098  1.00  0.00     0.017 C 
ATOM     27  O   UNL     1       0.402  37.889  56.912  1.00  0.00    -0.295 OA
ATOM     28  C   UNL     1      -1.888  39.506  56.874  1.00  0.00     0.055 C 
ATOM     29  C   UNL     1      -4.125  40.262  57.924  1.00  0.00     0.081 C 
ATOM     30  C   UNL     1      -3.038  40.422  56.906  1.00  0.00     0.156 C 
ATOM     31  O   UNL     1      -3.094  41.377  56.085  1.00  0.00    -0.295 OA
ENDBRANCH   9  11
ENDBRANCH   8   9
ENDBRANCH   1   8
TORSDOF 6
ENDMDL
MODEL 3
REMARK VINA RESULT:    -3.275      3.783      7.419
REMARK INTER + INTRA:          -5.900
REMARK INTER:                  -5.269
REMARK INTRA:                  -0.631
REMARK UNBOUND:                -1.476
REMARK SMILES CC[C@H](CC[C@H](C)[C@H]1CC[C@@H]2[C@H]3CC(=O)C4=CC(=O)CC[C@@]4(C)[C@@H]3CC[C@@]21C)C(C)C
REMARK SMILES IDX 4 1 3 2 2 3 1 4 29 5 30 6 31 7 5 8 6 9 7 10 8 11 9 12 27 13
REMARK SMILES IDX 10 14 11 15 26 16 28 17 12 18 25 19 24 20 13 21 22 22 14 23
REMARK SMILES IDX 16 24 21 25 23 26 15 27 17 28 20 29 18 30 19 31
REMARK H PARENT
REMARK Flexibility Score: inf
ROOT
ATOM      1  C   UNL     1      -1.538  39.063  65.990  1.00  0.00     0.004 C 
ENDROOT
BRANCH   1   2
ATOM      2  C   UNL     1      -2.195  40.342  66.584  1.00  0.00    -0.009 C 
BRANCH   2   3
ATOM      3  C   UNL     1      -1.488  40.883  67.866  1.00  0.00     0.000 C 
ATOM      4  C   UNL     1       0.040  40.740  67.907  1.00  0.00     0.004 C 
ENDBRANCH   2   3
BRANCH   2   5
ATOM      5  C   UNL     1      -2.451  41.471  65.530  1.00  0.00    -0.014 C 
ATOM      6  C   UNL     1      -1.380  41.568  64.435  1.00  0.00     0.007 C 
ATOM      7  C   UNL     1      -3.846  41.371  64.891  1.00  0.00     0.007 C 
ENDBRANCH   2   5
ENDBRANCH   1   2
BRANCH   1   8
ATOM      8  C   UNL     1      -1.984  37.777  66.723  1.00  0.00     0.004 C 
BRANCH   8   9
ATOM      9  C   UNL     1      -3.491  37.425  66.589  1.00  0.00    -0.011 C 
ATOM     10  C   UNL     1      -3.978  36.651  67.835  1.00  0.00     0.008 C 
BRANCH   9  11
ATOM     11  C   UNL     1      -3.864  36.777  65.202  1.00  0.00    -0.002 C 
ATOM     12  C   UNL     1      -3.930  37.768  64.026  1.00  0.00     0.005 C 
ATOM     13  C   UNL     1      -3.015  35.526  64.697  1.00  0.00    -0.026 C 
ATOM     14  C   UNL     1      -3.698  36.926  62.794  1.00  0.00     0.005 C 
ATOM     15  C   UNL     1      -2.639  35.919  63.226  1.00  0.00    -0.001 C 
ATOM     16  C   UNL     1      -3.876  34.202  64.805  1.00  0.00     0.007 C 
ATOM     17  C   UNL     1      -1.688  35.289  65.475  1.00  0.00     0.012 C 
ATOM     18  C   UNL     1      -2.448  34.775  62.168  1.00  0.00     0.004 C 
ATOM     19  C   UNL     1      -4.125  33.475  63.484  1.00  0.00     0.005 C 
ATOM     20  C   UNL     1      -2.810  33.365  62.694  1.00  0.00     0.003 C 
ATOM     21  C   UNL     1      -1.020  34.769  61.606  1.00  0.00     0.085 C 
ATOM     22  C   UNL     1      -2.819  32.278  61.547  1.00  0.00    -0.000 C 
ATOM     23  C   UNL     1      -0.860  33.711  60.559  1.00  0.00     0.159 C 
ATOM     24  C   UNL     1      -1.538  32.398  60.704  1.00  0.00     0.005 C 
ATOM     25  C   UNL     1      -2.864  30.851  62.181  1.00  0.00     0.020 C 
ATOM     26  C   UNL     1      -4.044  32.455  60.608  1.00  0.00     0.017 C 
ATOM     27  O   UNL     1      -0.083  33.928  59.587  1.00  0.00    -0.295 OA
ATOM     28  C   UNL     1      -1.068  31.337  60.013  1.00  0.00     0.055 C 
ATOM     29  C   UNL     1      -2.744  29.725  61.140  1.00  0.00     0.081 C 
ATOM     30  C   UNL     1      -1.645  29.993  60.159  1.00  0.00     0.156 C 
ATOM     31  O   UNL     1      -1.231  29.057  59.423  1.00  0.00    -0.295 OA
ENDBRANCH   9  11
ENDBRANCH   8   9
ENDBRANCH   1   8
TORSDOF 6
ENDMDL
MODEL 4
REMARK VINA RESULT:    -3.104      4.876      8.625
REMARK INTER + INTRA:          -5.668
REMARK INTER:                  -6.072
REMARK INTRA:                   0.404
REMARK UNBOUND:                -1.476
REMARK SMILES CC[C@H](CC[C@H](C)[C@H]1CC[C@@H]2[C@H]3CC(=O)C4=CC(=O)CC[C@@]4(C)[C@@H]3CC[C@@]21C)C(C)C
REMARK SMILES IDX 4 1 3 2 2 3 1 4 29 5 30 6 31 7 5 8 6 9 7 10 8 11 9 12 27 13
REMARK SMILES IDX 10 14 11 15 26 16 28 17 12 18 25 19 24 20 13 21 22 22 14 23
REMARK SMILES IDX 16 24 21 25 23 26 15 27 17 28 20 29 18 30 19 31
REMARK H PARENT
REMARK Flexibility Score: inf
ROOT
ATOM      1  C   UNL     1      -2.270  28.545  54.683  1.00  0.00     0.004 C 
ENDROOT
BRANCH   1   2
ATOM      2  C   UNL     1      -1.166  29.133  53.758  1.00  0.00    -0.009 C 
BRANCH   2   3
ATOM      3  C   UNL     1       0.102  28.231  53.629  1.00  0.00     0.000 C 
ATOM      4  C   UNL     1      -0.151  26.749  53.323  1.00  0.00     0.004 C 
ENDBRANCH   2   3
BRANCH   2   5
ATOM      5  C   UNL     1      -1.694  29.611  52.364  1.00  0.00    -0.014 C 
ATOM      6  C   UNL     1      -0.596  30.070  51.395  1.00  0.00     0.007 C 
ATOM      7  C   UNL     1      -2.587  28.561  51.685  1.00  0.00     0.007 C 
ENDBRANCH   2   5
ENDBRANCH   1   2
BRANCH   1   8
ATOM      8  C   UNL     1      -1.886  28.620  56.179  1.00  0.00     0.004 C 
BRANCH   8   9
ATOM      9  C   UNL     1      -3.055  28.947  57.149  1.00  0.00    -0.011 C 
ATOM     10  C   UNL     1      -4.031  29.955  56.501  1.00  0.00     0.008 C 
BRANCH   9  11
ATOM     11  C   UNL     1      -2.579  29.309  58.607  1.00  0.00    -0.002 C 
ATOM     12  C   UNL     1      -1.098  29.003  58.895  1.00  0.00     0.005 C 
ATOM     13  C   UNL     1      -2.855  30.781  59.151  1.00  0.00    -0.026 C 
ATOM     14  C   UNL     1      -0.725  29.925  60.031  1.00  0.00     0.005 C 
ATOM     15  C   UNL     1      -1.460  31.222  59.715  1.00  0.00    -0.001 C 
ATOM     16  C   UNL     1      -4.005  30.756  60.238  1.00  0.00     0.007 C 
ATOM     17  C   UNL     1      -3.266  31.808  58.055  1.00  0.00     0.012 C 
ATOM     18  C   UNL     1      -1.420  32.230  60.917  1.00  0.00     0.004 C 
ATOM     19  C   UNL     1      -3.601  31.246  61.629  1.00  0.00     0.005 C 
ATOM     20  C   UNL     1      -2.812  32.560  61.509  1.00  0.00     0.003 C 
ATOM     21  C   UNL     1      -0.698  33.528  60.532  1.00  0.00     0.085 C 
ATOM     22  C   UNL     1      -2.716  33.395  62.847  1.00  0.00    -0.000 C 
ATOM     23  C   UNL     1      -0.616  34.464  61.699  1.00  0.00     0.159 C 
ATOM     24  C   UNL     1      -1.745  34.572  62.658  1.00  0.00     0.005 C 
ATOM     25  C   UNL     1      -4.125  33.967  63.206  1.00  0.00     0.020 C 
ATOM     26  C   UNL     1      -2.207  32.521  64.026  1.00  0.00     0.017 C 
ATOM     27  O   UNL     1       0.397  35.208  61.812  1.00  0.00    -0.295 OA
ATOM     28  C   UNL     1      -1.847  35.678  63.426  1.00  0.00     0.055 C 
ATOM     29  C   UNL     1      -4.100  34.904  64.426  1.00  0.00     0.081 C 
ATOM     30  C   UNL     1      -2.973  35.887  64.348  1.00  0.00     0.156 C 
ATOM     31  O   UNL     1      -2.974  36.892  65.109  1.00  0.00    -0.295 OA
ENDBRANCH   9  11
ENDBRANCH   8   9
ENDBRANCH   1   8
TORSDOF 6
ENDMDL
MODEL 5
REMARK VINA RESULT:    -3.001      3.489      8.337
REMARK INTER + INTRA:          -5.529
REMARK INTER:                  -4.868
REMARK INTRA:                  -0.661
REMARK UNBOUND:                -1.476
REMARK SMILES CC[C@H](CC[C@H](C)[C@H]1CC[C@@H]2[C@H]3CC(=O)C4=CC(=O)CC[C@@]4(C)[C@@H]3CC[C@@]21C)C(C)C
REMARK SMILES IDX 4 1 3 2 2 3 1 4 29 5 30 6 31 7 5 8 6 9 7 10 8 11 9 12 27 13
REMARK SMILES IDX 10 14 11 15 26 16 28 17 12 18 25 19 24 20 13 21 22 22 14 23
REMARK SMILES IDX 16 24 21 25 23 26 15 27 17 28 20 29 18 30 19 31
REMARK H PARENT
REMARK Flexibility Score: inf
ROOT
ATOM      1  C   UNL     1      -2.340  39.251  59.512  1.00  0.00     0.004 C 
ENDROOT
BRANCH   1   2
ATOM      2  C   UNL     1      -3.063  39.391  58.141  1.00  0.00    -0.009 C 
BRANCH   2   3
ATOM      3  C   UNL     1      -3.346  40.867  57.719  1.00  0.00     0.000 C 
ATOM      4  C   UNL     1      -3.660  41.098  56.235  1.00  0.00     0.004 C 
ENDBRANCH   2   3
BRANCH   2   5
ATOM      5  C   UNL     1      -2.400  38.564  56.988  1.00  0.00    -0.014 C 
ATOM      6  C   UNL     1      -1.125  37.815  57.400  1.00  0.00     0.007 C 
ATOM      7  C   UNL     1      -3.387  37.591  56.322  1.00  0.00     0.007 C 
ENDBRANCH   2   5
ENDBRANCH   1   2
BRANCH   1   8
ATOM      8  C   UNL     1      -2.932  40.191  60.587  1.00  0.00     0.004 C 
BRANCH   8   9
ATOM      9  C   UNL     1      -3.644  39.480  61.771  1.00  0.00    -0.011 C 
ATOM     10  C   UNL     1      -4.121  40.514  62.814  1.00  0.00     0.008 C 
BRANCH   9  11
ATOM     11  C   UNL     1      -2.834  38.259  62.350  1.00  0.00    -0.002 C 
ATOM     12  C   UNL     1      -3.060  37.990  63.850  1.00  0.00     0.005 C 
ATOM     13  C   UNL     1      -2.952  36.852  61.612  1.00  0.00    -0.026 C 
ATOM     14  C   UNL     1      -2.719  36.531  64.038  1.00  0.00     0.005 C 
ATOM     15  C   UNL     1      -3.259  35.856  62.784  1.00  0.00    -0.001 C 
ATOM     16  C   UNL     1      -1.612  36.529  60.834  1.00  0.00     0.007 C 
ATOM     17  C   UNL     1      -4.123  36.754  60.591  1.00  0.00     0.012 C 
ATOM     18  C   UNL     1      -2.770  34.371  62.656  1.00  0.00     0.004 C 
ATOM     19  C   UNL     1      -0.884  35.262  61.283  1.00  0.00     0.005 C 
ATOM     20  C   UNL     1      -1.888  34.103  61.412  1.00  0.00     0.003 C 
ATOM     21  C   UNL     1      -3.950  33.391  62.676  1.00  0.00     0.085 C 
ATOM     22  C   UNL     1      -1.234  32.665  61.435  1.00  0.00    -0.000 C 
ATOM     23  C   UNL     1      -3.473  31.973  62.608  1.00  0.00     0.159 C 
ATOM     24  C   UNL     1      -2.304  31.611  61.767  1.00  0.00     0.005 C 
ATOM     25  C   UNL     1      -0.640  32.341  60.026  1.00  0.00     0.020 C 
ATOM     26  C   UNL     1      -0.104  32.571  62.496  1.00  0.00     0.017 C 
ATOM     27  O   UNL     1      -4.124  31.082  63.221  1.00  0.00    -0.295 OA
ATOM     28  C   UNL     1      -2.148  30.327  61.380  1.00  0.00     0.055 C 
ATOM     29  C   UNL     1      -0.098  30.905  59.918  1.00  0.00     0.081 C 
ATOM     30  C   UNL     1      -1.054  29.907  60.492  1.00  0.00     0.156 C 
ATOM     31  O   UNL     1      -0.898  28.682  60.236  1.00  0.00    -0.295 OA
ENDBRANCH   9  11
ENDBRANCH   8   9
ENDBRANCH   1   8
TORSDOF 6
ENDMDL
MODEL 6
REMARK VINA RESULT:    -2.154      3.160      8.295
REMARK INTER + INTRA:          -4.385
REMARK INTER:                  -3.764
REMARK INTRA:                  -0.621
REMARK UNBOUND:                -1.476
REMARK SMILES CC[C@H](CC[C@H](C)[C@H]1CC[C@@H]2[C@H]3CC(=O)C4=CC(=O)CC[C@@]4(C)[C@@H]3CC[C@@]21C)C(C)C
REMARK SMILES IDX 4 1 3 2 2 3 1 4 29 5 30 6 31 7 5 8 6 9 7 10 8 11 9 12 27 13
REMARK SMILES IDX 10 14 11 15 26 16 28 17 12 18 25 19 24 20 13 21 22 22 14 23
REMARK SMILES IDX 16 24 21 25 23 26 15 27 17 28 20 29 18 30 19 31
REMARK H PARENT
REMARK Flexibility Score: inf
ROOT
ATOM      1  C   UNL     1      -4.063  39.784  58.468  1.00  0.00     0.004 C 
ENDROOT
BRANCH   1   2
ATOM      2  C   UNL     1      -3.922  41.334  58.447  1.00  0.00    -0.009 C 
BRANCH   2   3
ATOM      3  C   UNL     1      -3.402  41.943  59.787  1.00  0.00     0.000 C 
ATOM      4  C   UNL     1      -3.118  40.946  60.918  1.00  0.00     0.004 C 
ENDBRANCH   2   3
BRANCH   2   5
ATOM      5  C   UNL     1      -3.141  41.882  57.206  1.00  0.00    -0.014 C 
ATOM      6  C   UNL     1      -4.037  42.345  56.049  1.00  0.00     0.007 C 
ATOM      7  C   UNL     1      -2.153  42.998  57.582  1.00  0.00     0.007 C 
ENDBRANCH   2   5
ENDBRANCH   1   2
BRANCH   1   8
ATOM      8  C   UNL     1      -4.125  39.179  57.047  1.00  0.00     0.004 C 
BRANCH   8   9
ATOM      9  C   UNL     1      -3.516  37.757  56.903  1.00  0.00    -0.011 C 
ATOM     10  C   UNL     1      -3.740  37.215  55.474  1.00  0.00     0.008 C 
BRANCH   9  11
ATOM     11  C   UNL     1      -3.924  36.778  58.069  1.00  0.00    -0.002 C 
ATOM     12  C   UNL     1      -4.091  35.307  57.645  1.00  0.00     0.005 C 
ATOM     13  C   UNL     1      -3.044  36.773  59.397  1.00  0.00    -0.026 C 
ATOM     14  C   UNL     1      -3.878  34.512  58.911  1.00  0.00     0.005 C 
ATOM     15  C   UNL     1      -2.756  35.249  59.630  1.00  0.00    -0.001 C 
ATOM     16  C   UNL     1      -3.838  37.462  60.581  1.00  0.00     0.007 C 
ATOM     17  C   UNL     1      -1.673  37.497  59.266  1.00  0.00     0.012 C 
ATOM     18  C   UNL     1      -2.562  34.737  61.101  1.00  0.00     0.004 C 
ATOM     19  C   UNL     1      -4.115  36.568  61.790  1.00  0.00     0.005 C 
ATOM     20  C   UNL     1      -2.835  35.811  62.183  1.00  0.00     0.003 C 
ATOM     21  C   UNL     1      -1.164  34.139  61.304  1.00  0.00     0.085 C 
ATOM     22  C   UNL     1      -2.849  35.207  63.642  1.00  0.00    -0.000 C 
ATOM     23  C   UNL     1      -1.005  33.604  62.694  1.00  0.00     0.159 C 
ATOM     24  C   UNL     1      -1.615  34.312  63.848  1.00  0.00     0.005 C 
ATOM     25  C   UNL     1      -2.798  36.368  64.688  1.00  0.00     0.020 C 
ATOM     26  C   UNL     1      -4.123  34.354  63.892  1.00  0.00     0.017 C 
ATOM     27  O   UNL     1      -0.285  32.583  62.874  1.00  0.00    -0.295 OA
ATOM     28  C   UNL     1      -1.130  34.083  65.087  1.00  0.00     0.055 C 
ATOM     29  C   UNL     1      -2.676  35.868  66.137  1.00  0.00     0.081 C 
ATOM     30  C   UNL     1      -1.638  34.797  66.268  1.00  0.00     0.156 C 
ATOM     31  O   UNL     1      -1.216  34.480  67.414  1.00  0.00    -0.295 OA
ENDBRANCH   9  11
ENDBRANCH   8   9
ENDBRANCH   1   8
TORSDOF 6
ENDMDL
MODEL 7
REMARK VINA RESULT:    -1.854      3.099      8.433
REMARK INTER + INTRA:          -3.980
REMARK INTER:                  -2.770
REMARK INTRA:                  -1.210
REMARK UNBOUND:                -1.476
REMARK SMILES CC[C@H](CC[C@H](C)[C@H]1CC[C@@H]2[C@H]3CC(=O)C4=CC(=O)CC[C@@]4(C)[C@@H]3CC[C@@]21C)C(C)C
REMARK SMILES IDX 4 1 3 2 2 3 1 4 29 5 30 6 31 7 5 8 6 9 7 10 8 11 9 12 27 13
REMARK SMILES IDX 10 14 11 15 26 16 28 17 12 18 25 19 24 20 13 21 22 22 14 23
REMARK SMILES IDX 16 24 21 25 23 26 15 27 17 28 20 29 18 30 19 31
REMARK H PARENT
REMARK Flexibility Score: inf
ROOT
ATOM      1  C   UNL     1      -3.238  39.979  57.534  1.00  0.00     0.004 C 
ENDROOT
BRANCH   1   2
ATOM      2  C   UNL     1      -3.128  41.336  58.288  1.00  0.00    -0.009 C 
BRANCH   2   3
ATOM      3  C   UNL     1      -3.498  42.578  57.418  1.00  0.00     0.000 C 
ATOM      4  C   UNL     1      -2.962  42.581  55.980  1.00  0.00     0.004 C 
ENDBRANCH   2   3
BRANCH   2   5
ATOM      5  C   UNL     1      -3.853  41.350  59.676  1.00  0.00    -0.014 C 
ATOM      6  C   UNL     1      -3.280  40.358  60.698  1.00  0.00     0.007 C 
ATOM      7  C   UNL     1      -3.915  42.758  60.291  1.00  0.00     0.007 C 
ENDBRANCH   2   5
ENDBRANCH   1   2
BRANCH   1   8
ATOM      8  C   UNL     1      -1.859  39.437  57.095  1.00  0.00     0.004 C 
BRANCH   8   9
ATOM      9  C   UNL     1      -1.636  37.918  57.332  1.00  0.00    -0.011 C 
ATOM     10  C   UNL     1      -1.643  37.154  55.989  1.00  0.00     0.008 C 
BRANCH   9  11
ATOM     11  C   UNL     1      -2.559  37.315  58.457  1.00  0.00    -0.002 C 
ATOM     12  C   UNL     1      -3.753  36.492  57.939  1.00  0.00     0.005 C 
ATOM     13  C   UNL     1      -1.881  36.455  59.614  1.00  0.00    -0.026 C 
ATOM     14  C   UNL     1      -4.108  35.564  59.075  1.00  0.00     0.005 C 
ATOM     15  C   UNL     1      -2.761  35.158  59.660  1.00  0.00    -0.001 C 
ATOM     16  C   UNL     1      -1.875  37.272  60.970  1.00  0.00     0.007 C 
ATOM     17  C   UNL     1      -0.415  36.020  59.321  1.00  0.00     0.012 C 
ATOM     18  C   UNL     1      -2.915  34.402  61.026  1.00  0.00     0.004 C 
ATOM     19  C   UNL     1      -2.644  36.628  62.124  1.00  0.00     0.005 C 
ATOM     20  C   UNL     1      -2.276  35.138  62.229  1.00  0.00     0.003 C 
ATOM     21  C   UNL     1      -2.361  32.973  60.939  1.00  0.00     0.085 C 
ATOM     22  C   UNL     1      -2.641  34.465  63.611  1.00  0.00    -0.000 C 
ATOM     23  C   UNL     1      -2.561  32.240  62.229  1.00  0.00     0.159 C 
ATOM     24  C   UNL     1      -2.415  32.946  63.528  1.00  0.00     0.005 C 
ATOM     25  C   UNL     1      -1.718  35.043  64.732  1.00  0.00     0.020 C 
ATOM     26  C   UNL     1      -4.125  34.722  63.993  1.00  0.00     0.017 C 
ATOM     27  O   UNL     1      -2.783  30.998  62.196  1.00  0.00    -0.295 OA
ATOM     28  C   UNL     1      -2.176  32.224  64.643  1.00  0.00     0.055 C 
ATOM     29  C   UNL     1      -1.914  34.348  66.090  1.00  0.00     0.081 C 
ATOM     30  C   UNL     1      -1.954  32.858  65.951  1.00  0.00     0.156 C 
ATOM     31  O   UNL     1      -1.827  32.137  66.977  1.00  0.00    -0.295 OA
ENDBRANCH   9  11
ENDBRANCH   8   9
ENDBRANCH   1   8
TORSDOF 6
ENDMDL
MODEL 8
REMARK VINA RESULT:    -1.398      4.213      6.792
REMARK INTER + INTRA:          -3.364
REMARK INTER:                  -2.114
REMARK INTRA:                  -1.250
REMARK UNBOUND:                -1.476
REMARK SMILES CC[C@H](CC[C@H](C)[C@H]1CC[C@@H]2[C@H]3CC(=O)C4=CC(=O)CC[C@@]4(C)[C@@H]3CC[C@@]21C)C(C)C
REMARK SMILES IDX 4 1 3 2 2 3 1 4 29 5 30 6 31 7 5 8 6 9 7 10 8 11 9 12 27 13
REMARK SMILES IDX 10 14 11 15 26 16 28 17 12 18 25 19 24 20 13 21 22 22 14 23
REMARK SMILES IDX 16 24 21 25 23 26 15 27 17 28 20 29 18 30 19 31
REMARK H PARENT
REMARK Flexibility Score: inf
ROOT
ATOM      1  C   UNL     1      -2.032  37.170  65.776  1.00  0.00     0.004 C 
ENDROOT
BRANCH   1   2
ATOM      2  C   UNL     1      -2.972  38.403  65.650  1.00  0.00    -0.009 C 
BRANCH   2   3
ATOM      3  C   UNL     1      -2.793  39.458  66.787  1.00  0.00     0.000 C 
ATOM      4  C   UNL     1      -1.415  40.128  66.877  1.00  0.00     0.004 C 
ENDBRANCH   2   3
BRANCH   2   5
ATOM      5  C   UNL     1      -2.967  39.061  64.229  1.00  0.00    -0.014 C 
ATOM      6  C   UNL     1      -3.014  38.057  63.068  1.00  0.00     0.007 C 
ATOM      7  C   UNL     1      -4.082  40.106  64.063  1.00  0.00     0.007 C 
ENDBRANCH   2   5
ENDBRANCH   1   2
BRANCH   1   8
ATOM      8  C   UNL     1      -2.581  36.111  66.759  1.00  0.00     0.004 C 
BRANCH   8   9
ATOM      9  C   UNL     1      -2.469  34.637  66.278  1.00  0.00    -0.011 C 
ATOM     10  C   UNL     1      -1.791  33.766  67.358  1.00  0.00     0.008 C 
BRANCH   9  11
ATOM     11  C   UNL     1      -1.879  34.494  64.824  1.00  0.00    -0.002 C 
ATOM     12  C   UNL     1      -0.360  34.246  64.768  1.00  0.00     0.005 C 
ATOM     13  C   UNL     1      -2.549  33.440  63.834  1.00  0.00    -0.026 C 
ATOM     14  C   UNL     1      -0.125  33.568  63.440  1.00  0.00     0.005 C 
ATOM     15  C   UNL     1      -1.321  32.637  63.281  1.00  0.00    -0.001 C 
ATOM     16  C   UNL     1      -3.378  34.192  62.716  1.00  0.00     0.007 C 
ATOM     17  C   UNL     1      -3.505  32.423  64.524  1.00  0.00     0.012 C 
ATOM     18  C   UNL     1      -1.409  32.032  61.835  1.00  0.00     0.004 C 
ATOM     19  C   UNL     1      -2.912  33.947  61.280  1.00  0.00     0.005 C 
ATOM     20  C   UNL     1      -2.682  32.443  61.057  1.00  0.00     0.003 C 
ATOM     21  C   UNL     1      -1.288  30.503  61.863  1.00  0.00     0.085 C 
ATOM     22  C   UNL     1      -2.630  32.002  59.540  1.00  0.00    -0.000 C 
ATOM     23  C   UNL     1      -1.318  29.936  60.477  1.00  0.00     0.159 C 
ATOM     24  C   UNL     1      -2.200  30.529  59.439  1.00  0.00     0.005 C 
ATOM     25  C   UNL     1      -4.052  32.148  58.907  1.00  0.00     0.020 C 
ATOM     26  C   UNL     1      -1.623  32.866  58.733  1.00  0.00     0.017 C 
ATOM     27  O   UNL     1      -0.635  28.904  60.225  1.00  0.00    -0.295 OA
ATOM     28  C   UNL     1      -2.538  29.786  58.364  1.00  0.00     0.055 C 
ATOM     29  C   UNL     1      -4.125  31.617  57.465  1.00  0.00     0.081 C 
ATOM     30  C   UNL     1      -3.460  30.281  57.332  1.00  0.00     0.156 C 
ATOM     31  O   UNL     1      -3.671  29.585  56.302  1.00  0.00    -0.295 OA
ENDBRANCH   9  11
ENDBRANCH   8   9
ENDBRANCH   1   8
TORSDOF 6
ENDMDL
