MODEL 1
REMARK VINA RESULT:    -5.655      0.000      0.000
REMARK INTER + INTRA:          -9.261
REMARK INTER:                  -7.968
REMARK INTRA:                  -1.293
REMARK UNBOUND:                -1.293
REMARK SMILES OCC1=C[C@H](O)[C@@H]2C=CO[C@H](O[C@H]3O[C@H](CO)[C@@H](O)[C@@H](O)[C@@H]3O)[C@H]12
REMARK SMILES IDX 12 1 11 2 8 3 9 4 7 5 10 6 24 7 5 8 3 9 4 10 6 11 2 13 1 14
REMARK SMILES IDX 13 16 22 17 14 18 20 19 15 20 18 21 23 22 21 24 16 26 17 27
REMARK SMILES IDX 19 29
REMARK H PARENT 6 12 1 15 23 23 21 25 17 28 19 30
REMARK Flexibility Score: inf
ROOT
ATOM      1  O   UNL     1       7.165   5.293 -32.333  1.00  0.00    -0.310 OA
ENDROOT
BRANCH   1   2
ATOM      2  C   UNL     1       6.306   5.238 -31.209  1.00  0.00     0.316 C 
ATOM      3  C   UNL     1       3.968   5.520 -29.646  1.00  0.00     0.018 C 
ATOM      4  C   UNL     1       4.611   6.602 -30.090  1.00  0.00     0.186 C 
ATOM      5  C   UNL     1       4.200   4.134 -30.236  1.00  0.00     0.061 C 
ATOM      6  O   UNL     1       5.635   6.482 -31.028  1.00  0.00    -0.472 OA
ATOM      7  C   UNL     1       5.265   4.109 -31.368  1.00  0.00     0.096 C 
ATOM      8  C   UNL     1       2.921   3.608 -30.930  1.00  0.00     0.145 C 
ATOM      9  C   UNL     1       4.429   4.179 -32.619  1.00  0.00    -0.036 C 
ATOM     10  C   UNL     1       3.153   3.912 -32.367  1.00  0.00     0.007 C 
BRANCH   8  11
ATOM     11  O   UNL     1       1.741   4.225 -30.486  1.00  0.00    -0.388 OA
ATOM     12  H   UNL     1       1.852   4.367 -29.510  1.00  0.00     0.211 HD
ENDBRANCH   8  11
BRANCH   9  13
ATOM     13  C   UNL     1       4.962   4.309 -34.019  1.00  0.00     0.187 C 
BRANCH  13  14
ATOM     14  O   UNL     1       5.991   3.380 -34.211  1.00  0.00    -0.392 OA
ATOM     15  H   UNL     1       5.734   2.844 -35.006  1.00  0.00     0.211 HD
ENDBRANCH  13  14
ENDBRANCH   9  13
ENDBRANCH   1   2
BRANCH   1  16
ATOM     16  C   UNL     1       7.534   6.633 -32.624  1.00  0.00     0.286 C 
ATOM     17  C   UNL     1       7.478   6.891 -34.143  1.00  0.00     0.202 C 
ATOM     18  O   UNL     1       8.812   6.959 -32.096  1.00  0.00    -0.341 OA
ATOM     19  C   UNL     1       8.638   6.197 -34.890  1.00  0.00     0.179 C 
ATOM     20  C   UNL     1       9.832   6.138 -32.640  1.00  0.00     0.178 C 
ATOM     21  C   UNL     1       9.983   6.399 -34.158  1.00  0.00     0.177 C 
BRANCH  17  22
ATOM     22  O   UNL     1       7.538   8.277 -34.365  1.00  0.00    -0.385 OA
ATOM     23  H   UNL     1       8.368   8.452 -34.882  1.00  0.00     0.211 HD
ENDBRANCH  17  22
BRANCH  19  24
ATOM     24  O   UNL     1       8.350   4.838 -35.122  1.00  0.00    -0.387 OA
ATOM     25  H   UNL     1       8.796   4.297 -34.424  1.00  0.00     0.211 HD
ENDBRANCH  19  24
BRANCH  20  26
ATOM     26  C   UNL     1      11.139   6.449 -31.901  1.00  0.00     0.191 C 
BRANCH  26  27
ATOM     27  O   UNL     1      10.855   7.113 -30.699  1.00  0.00    -0.394 OA
ATOM     28  H   UNL     1      10.534   8.016 -30.953  1.00  0.00     0.210 HD
ENDBRANCH  26  27
ENDBRANCH  20  26
BRANCH  21  29
ATOM     29  O   UNL     1      10.946   5.538 -34.714  1.00  0.00    -0.387 OA
ATOM     30  H   UNL     1      11.801   5.706 -34.239  1.00  0.00     0.211 HD
ENDBRANCH  21  29
ENDBRANCH   1  16
TORSDOF 10
ENDMDL
MODEL 2
REMARK VINA RESULT:    -5.174      3.226      8.099
REMARK INTER + INTRA:          -8.584
REMARK INTER:                  -7.310
REMARK INTRA:                  -1.274
REMARK UNBOUND:                -1.293
REMARK SMILES OCC1=C[C@H](O)[C@@H]2C=CO[C@H](O[C@H]3O[C@H](CO)[C@@H](O)[C@@H](O)[C@@H]3O)[C@H]12
REMARK SMILES IDX 12 1 11 2 8 3 9 4 7 5 10 6 24 7 5 8 3 9 4 10 6 11 2 13 1 14
REMARK SMILES IDX 13 16 22 17 14 18 20 19 15 20 18 21 23 22 21 24 16 26 17 27
REMARK SMILES IDX 19 29
REMARK H PARENT 6 12 1 15 23 23 21 25 17 28 19 30
REMARK Flexibility Score: inf
ROOT
ATOM      1  O   UNL     1      11.576   5.378 -33.279  1.00  0.00    -0.310 OA
ENDROOT
BRANCH   1   2
ATOM      2  C   UNL     1      12.855   5.178 -33.853  1.00  0.00     0.316 C 
ATOM      3  C   UNL     1      15.637   5.433 -34.278  1.00  0.00     0.018 C 
ATOM      4  C   UNL     1      14.827   6.468 -34.509  1.00  0.00     0.186 C 
ATOM      5  C   UNL     1      15.208   4.233 -33.444  1.00  0.00     0.061 C 
ATOM      6  O   UNL     1      13.492   6.426 -34.109  1.00  0.00    -0.472 OA
ATOM      7  C   UNL     1      13.745   4.325 -32.925  1.00  0.00     0.096 C 
ATOM      8  C   UNL     1      16.046   4.132 -32.147  1.00  0.00     0.145 C 
ATOM      9  C   UNL     1      13.916   4.862 -31.528  1.00  0.00    -0.036 C 
ATOM     10  C   UNL     1      15.175   4.759 -31.118  1.00  0.00     0.007 C 
BRANCH   8  11
ATOM     11  O   UNL     1      17.277   4.803 -32.215  1.00  0.00    -0.388 OA
ATOM     12  H   UNL     1      17.527   4.827 -33.175  1.00  0.00     0.211 HD
ENDBRANCH   8  11
BRANCH   9  13
ATOM     13  C   UNL     1      12.799   5.261 -30.605  1.00  0.00     0.187 C 
BRANCH  13  14
ATOM     14  O   UNL     1      12.382   6.560 -30.915  1.00  0.00    -0.392 OA
ATOM     15  H   UNL     1      13.093   7.166 -30.577  1.00  0.00     0.211 HD
ENDBRANCH  13  14
ENDBRANCH   9  13
ENDBRANCH   1   2
BRANCH   1  16
ATOM     16  C   UNL     1      10.713   6.049 -34.187  1.00  0.00     0.286 C 
ATOM     17  C   UNL     1      10.093   7.294 -33.520  1.00  0.00     0.202 C 
ATOM     18  O   UNL     1       9.707   5.187 -34.699  1.00  0.00    -0.341 OA
ATOM     19  C   UNL     1       9.025   6.915 -32.471  1.00  0.00     0.179 C 
ATOM     20  C   UNL     1       8.879   4.672 -33.669  1.00  0.00     0.178 C 
ATOM     21  C   UNL     1       8.079   5.813 -32.997  1.00  0.00     0.177 C 
BRANCH  17  22
ATOM     22  O   UNL     1       9.508   8.092 -34.519  1.00  0.00    -0.385 OA
ATOM     23  H   UNL     1       8.978   8.793 -34.056  1.00  0.00     0.211 HD
ENDBRANCH  17  22
BRANCH  19  24
ATOM     24  O   UNL     1       9.622   6.571 -31.242  1.00  0.00    -0.387 OA
ATOM     25  H   UNL     1       9.381   5.636 -31.025  1.00  0.00     0.211 HD
ENDBRANCH  19  24
BRANCH  20  26
ATOM     26  C   UNL     1       7.935   3.636 -34.290  1.00  0.00     0.191 C 
BRANCH  26  27
ATOM     27  O   UNL     1       7.231   2.972 -33.276  1.00  0.00    -0.394 OA
ATOM     28  H   UNL     1       7.700   3.186 -32.429  1.00  0.00     0.210 HD
ENDBRANCH  26  27
ENDBRANCH  20  26
BRANCH  21  29
ATOM     29  O   UNL     1       7.309   5.316 -31.930  1.00  0.00    -0.387 OA
ATOM     30  H   UNL     1       7.759   5.594 -31.089  1.00  0.00     0.211 HD
ENDBRANCH  21  29
ENDBRANCH   1  16
TORSDOF 10
ENDMDL
MODEL 3
REMARK VINA RESULT:    -5.158      1.692      6.355
REMARK INTER + INTRA:          -8.561
REMARK INTER:                  -7.490
REMARK INTRA:                  -1.071
REMARK UNBOUND:                -1.293
REMARK SMILES OCC1=C[C@H](O)[C@@H]2C=CO[C@H](O[C@H]3O[C@H](CO)[C@@H](O)[C@@H](O)[C@@H]3O)[C@H]12
REMARK SMILES IDX 12 1 11 2 8 3 9 4 7 5 10 6 24 7 5 8 3 9 4 10 6 11 2 13 1 14
REMARK SMILES IDX 13 16 22 17 14 18 20 19 15 20 18 21 23 22 21 24 16 26 17 27
REMARK SMILES IDX 19 29
REMARK H PARENT 6 12 1 15 23 23 21 25 17 28 19 30
REMARK Flexibility Score: inf
ROOT
ATOM      1  O   UNL     1       6.250   5.431 -33.023  1.00  0.00    -0.310 OA
ENDROOT
BRANCH   1   2
ATOM      2  C   UNL     1       7.391   6.270 -33.010  1.00  0.00     0.316 C 
ATOM      3  C   UNL     1      10.101   7.051 -32.847  1.00  0.00     0.018 C 
ATOM      4  C   UNL     1       9.484   6.550 -31.775  1.00  0.00     0.186 C 
ATOM      5  C   UNL     1       9.550   6.886 -34.258  1.00  0.00     0.061 C 
ATOM      6  O   UNL     1       8.222   5.970 -31.892  1.00  0.00    -0.472 OA
ATOM      7  C   UNL     1       8.202   6.112 -34.313  1.00  0.00     0.096 C 
ATOM      8  C   UNL     1      10.498   6.024 -35.125  1.00  0.00     0.145 C 
ATOM      9  C   UNL     1       8.634   4.705 -34.634  1.00  0.00    -0.036 C 
ATOM     10  C   UNL     1       9.889   4.669 -35.067  1.00  0.00     0.007 C 
BRANCH   8  11
ATOM     11  O   UNL     1      11.818   5.983 -34.651  1.00  0.00    -0.388 OA
ATOM     12  H   UNL     1      12.119   6.927 -34.587  1.00  0.00     0.211 HD
ENDBRANCH   8  11
BRANCH   9  13
ATOM     13  C   UNL     1       7.730   3.506 -34.686  1.00  0.00     0.187 C 
BRANCH  13  14
ATOM     14  O   UNL     1       7.478   3.058 -33.384  1.00  0.00    -0.392 OA
ATOM     15  H   UNL     1       7.035   2.175 -33.477  1.00  0.00     0.211 HD
ENDBRANCH  13  14
ENDBRANCH   9  13
ENDBRANCH   1   2
BRANCH   1  16
ATOM     16  C   UNL     1       5.163   6.044 -32.343  1.00  0.00     0.286 C 
ATOM     17  C   UNL     1       5.103   5.563 -30.879  1.00  0.00     0.202 C 
ATOM     18  O   UNL     1       3.927   5.821 -33.007  1.00  0.00    -0.341 OA
ATOM     19  C   UNL     1       4.610   4.103 -30.771  1.00  0.00     0.179 C 
ATOM     20  C   UNL     1       3.616   4.439 -33.093  1.00  0.00     0.178 C 
ATOM     21  C   UNL     1       3.388   3.849 -31.680  1.00  0.00     0.177 C 
BRANCH  17  22
ATOM     22  O   UNL     1       4.233   6.407 -30.167  1.00  0.00    -0.385 OA
ATOM     23  H   UNL     1       3.307   6.134 -30.402  1.00  0.00     0.211 HD
ENDBRANCH  17  22
BRANCH  19  24
ATOM     24  O   UNL     1       5.659   3.195 -31.012  1.00  0.00    -0.387 OA
ATOM     25  H   UNL     1       5.391   2.306 -30.671  1.00  0.00     0.211 HD
ENDBRANCH  19  24
BRANCH  20  26
ATOM     26  C   UNL     1       2.360   4.285 -33.958  1.00  0.00     0.191 C 
BRANCH  26  27
ATOM     27  O   UNL     1       1.232   4.679 -33.225  1.00  0.00    -0.394 OA
ATOM     28  H   UNL     1       0.613   3.905 -33.233  1.00  0.00     0.210 HD
ENDBRANCH  26  27
ENDBRANCH  20  26
BRANCH  21  29
ATOM     29  O   UNL     1       3.147   2.465 -31.755  1.00  0.00    -0.387 OA
ATOM     30  H   UNL     1       3.942   2.052 -32.184  1.00  0.00     0.211 HD
ENDBRANCH  21  29
ENDBRANCH   1  16
TORSDOF 10
ENDMDL
MODEL 4
REMARK VINA RESULT:    -4.776      1.954      6.626
REMARK INTER + INTRA:          -8.023
REMARK INTER:                  -7.115
REMARK INTRA:                  -0.908
REMARK UNBOUND:                -1.293
REMARK SMILES OCC1=C[C@H](O)[C@@H]2C=CO[C@H](O[C@H]3O[C@H](CO)[C@@H](O)[C@@H](O)[C@@H]3O)[C@H]12
REMARK SMILES IDX 12 1 11 2 8 3 9 4 7 5 10 6 24 7 5 8 3 9 4 10 6 11 2 13 1 14
REMARK SMILES IDX 13 16 22 17 14 18 20 19 15 20 18 21 23 22 21 24 16 26 17 27
REMARK SMILES IDX 19 29
REMARK H PARENT 6 12 1 15 23 23 21 25 17 28 19 30
REMARK Flexibility Score: inf
ROOT
ATOM      1  O   UNL     1       5.000   4.460 -32.042  1.00  0.00    -0.310 OA
ENDROOT
BRANCH   1   2
ATOM      2  C   UNL     1       6.111   4.094 -32.841  1.00  0.00     0.316 C 
ATOM      3  C   UNL     1       8.209   4.316 -34.720  1.00  0.00     0.018 C 
ATOM      4  C   UNL     1       6.939   4.382 -35.125  1.00  0.00     0.186 C 
ATOM      5  C   UNL     1       8.612   4.502 -33.263  1.00  0.00     0.061 C 
ATOM      6  O   UNL     1       5.904   4.484 -34.196  1.00  0.00    -0.472 OA
ATOM      7  C   UNL     1       7.407   4.742 -32.310  1.00  0.00     0.096 C 
ATOM      8  C   UNL     1       9.473   5.775 -33.084  1.00  0.00     0.145 C 
ATOM      9  C   UNL     1       7.369   6.242 -32.184  1.00  0.00    -0.036 C 
ATOM     10  C   UNL     1       8.497   6.794 -32.616  1.00  0.00     0.007 C 
BRANCH   8  11
ATOM     11  O   UNL     1      10.097   6.206 -34.265  1.00  0.00    -0.388 OA
ATOM     12  H   UNL     1      10.830   6.815 -33.986  1.00  0.00     0.211 HD
ENDBRANCH   8  11
BRANCH   9  13
ATOM     13  C   UNL     1       6.312   7.031 -31.464  1.00  0.00     0.187 C 
BRANCH  13  14
ATOM     14  O   UNL     1       6.311   6.680 -30.110  1.00  0.00    -0.392 OA
ATOM     15  H   UNL     1       6.359   7.533 -29.604  1.00  0.00     0.211 HD
ENDBRANCH  13  14
ENDBRANCH   9  13
ENDBRANCH   1   2
BRANCH   1  16
ATOM     16  C   UNL     1       4.042   3.412 -31.996  1.00  0.00     0.286 C 
ATOM     17  C   UNL     1       3.349   3.255 -33.364  1.00  0.00     0.202 C 
ATOM     18  O   UNL     1       3.091   3.608 -30.959  1.00  0.00    -0.341 OA
ATOM     19  C   UNL     1       2.367   4.413 -33.650  1.00  0.00     0.179 C 
ATOM     20  C   UNL     1       2.359   4.810 -31.134  1.00  0.00     0.178 C 
ATOM     21  C   UNL     1       1.496   4.734 -32.416  1.00  0.00     0.177 C 
BRANCH  17  22
ATOM     22  O   UNL     1       2.653   2.034 -33.375  1.00  0.00    -0.385 OA
ATOM     23  H   UNL     1       2.710   1.676 -34.301  1.00  0.00     0.211 HD
ENDBRANCH  17  22
BRANCH  19  24
ATOM     24  O   UNL     1       3.047   5.544 -34.140  1.00  0.00    -0.387 OA
ATOM     25  H   UNL     1       3.807   5.741 -33.537  1.00  0.00     0.211 HD
ENDBRANCH  19  24
BRANCH  20  26
ATOM     26  C   UNL     1       1.479   5.017 -29.896  1.00  0.00     0.191 C 
BRANCH  26  27
ATOM     27  O   UNL     1       0.915   6.300 -29.928  1.00  0.00    -0.394 OA
ATOM     28  H   UNL     1       0.755   6.555 -28.983  1.00  0.00     0.210 HD
ENDBRANCH  26  27
ENDBRANCH  20  26
BRANCH  21  29
ATOM     29  O   UNL     1       0.822   5.950 -32.631  1.00  0.00    -0.387 OA
ATOM     30  H   UNL     1       1.472   6.681 -32.461  1.00  0.00     0.211 HD
ENDBRANCH  21  29
ENDBRANCH   1  16
TORSDOF 10
ENDMDL
MODEL 5
REMARK VINA RESULT:    -4.765      3.500      7.715
REMARK INTER + INTRA:          -8.008
REMARK INTER:                  -6.650
REMARK INTRA:                  -1.358
REMARK UNBOUND:                -1.293
REMARK SMILES OCC1=C[C@H](O)[C@@H]2C=CO[C@H](O[C@H]3O[C@H](CO)[C@@H](O)[C@@H](O)[C@@H]3O)[C@H]12
REMARK SMILES IDX 12 1 11 2 8 3 9 4 7 5 10 6 24 7 5 8 3 9 4 10 6 11 2 13 1 14
REMARK SMILES IDX 13 16 22 17 14 18 20 19 15 20 18 21 23 22 21 24 16 26 17 27
REMARK SMILES IDX 19 29
REMARK H PARENT 6 12 1 15 23 23 21 25 17 28 19 30
REMARK Flexibility Score: inf
ROOT
ATOM      1  O   UNL     1      11.289   4.499 -33.249  1.00  0.00    -0.310 OA
ENDROOT
BRANCH   1   2
ATOM      2  C   UNL     1      12.637   4.914 -33.123  1.00  0.00     0.316 C 
ATOM      3  C   UNL     1      15.298   5.018 -32.178  1.00  0.00     0.018 C 
ATOM      4  C   UNL     1      14.290   5.371 -31.378  1.00  0.00     0.186 C 
ATOM      5  C   UNL     1      15.084   4.206 -33.449  1.00  0.00     0.061 C 
ATOM      6  O   UNL     1      12.969   5.129 -31.754  1.00  0.00    -0.472 OA
ATOM      7  C   UNL     1      13.593   3.864 -33.727  1.00  0.00     0.096 C 
ATOM      8  C   UNL     1      15.759   2.817 -33.339  1.00  0.00     0.145 C 
ATOM      9  C   UNL     1      13.455   2.473 -33.167  1.00  0.00    -0.036 C 
ATOM     10  C   UNL     1      14.642   1.916 -32.952  1.00  0.00     0.007 C 
BRANCH   8  11
ATOM     11  O   UNL     1      16.783   2.760 -32.381  1.00  0.00    -0.388 OA
ATOM     12  H   UNL     1      17.360   3.551 -32.545  1.00  0.00     0.211 HD
ENDBRANCH   8  11
BRANCH   9  13
ATOM     13  C   UNL     1      12.172   1.698 -33.062  1.00  0.00     0.187 C 
BRANCH  13  14
ATOM     14  O   UNL     1      11.469   1.798 -34.267  1.00  0.00    -0.392 OA
ATOM     15  H   UNL     1      11.997   2.409 -34.844  1.00  0.00     0.211 HD
ENDBRANCH  13  14
ENDBRANCH   9  13
ENDBRANCH   1   2
BRANCH   1  16
ATOM     16  C   UNL     1      10.575   5.356 -34.129  1.00  0.00     0.286 C 
ATOM     17  C   UNL     1      10.616   6.810 -33.617  1.00  0.00     0.202 C 
ATOM     18  O   UNL     1       9.238   4.920 -34.328  1.00  0.00    -0.341 OA
ATOM     19  C   UNL     1       9.721   7.009 -32.374  1.00  0.00     0.179 C 
ATOM     20  C   UNL     1       8.505   4.896 -33.114  1.00  0.00     0.178 C 
ATOM     21  C   UNL     1       8.346   6.329 -32.552  1.00  0.00     0.177 C 
BRANCH  17  22
ATOM     22  O   UNL     1      10.184   7.660 -34.650  1.00  0.00    -0.385 OA
ATOM     23  H   UNL     1      10.970   8.202 -34.926  1.00  0.00     0.211 HD
ENDBRANCH  17  22
BRANCH  19  24
ATOM     24  O   UNL     1      10.381   6.592 -31.202  1.00  0.00    -0.387 OA
ATOM     25  H   UNL     1      10.615   7.392 -30.670  1.00  0.00     0.211 HD
ENDBRANCH  19  24
BRANCH  20  26
ATOM     26  C   UNL     1       7.136   4.265 -33.395  1.00  0.00     0.191 C 
BRANCH  26  27
ATOM     27  O   UNL     1       6.691   3.577 -32.258  1.00  0.00    -0.394 OA
ATOM     28  H   UNL     1       6.998   4.107 -31.478  1.00  0.00     0.210 HD
ENDBRANCH  26  27
ENDBRANCH  20  26
BRANCH  21  29
ATOM     29  O   UNL     1       7.679   6.303 -31.313  1.00  0.00    -0.387 OA
ATOM     30  H   UNL     1       6.818   5.830 -31.453  1.00  0.00     0.211 HD
ENDBRANCH  21  29
ENDBRANCH   1  16
TORSDOF 10
ENDMDL
MODEL 6
REMARK VINA RESULT:    -4.752      4.246      7.170
REMARK INTER + INTRA:          -7.989
REMARK INTER:                  -7.041
REMARK INTRA:                  -0.948
REMARK UNBOUND:                -1.293
REMARK SMILES OCC1=C[C@H](O)[C@@H]2C=CO[C@H](O[C@H]3O[C@H](CO)[C@@H](O)[C@@H](O)[C@@H]3O)[C@H]12
REMARK SMILES IDX 12 1 11 2 8 3 9 4 7 5 10 6 24 7 5 8 3 9 4 10 6 11 2 13 1 14
REMARK SMILES IDX 13 16 22 17 14 18 20 19 15 20 18 21 23 22 21 24 16 26 17 27
REMARK SMILES IDX 19 29
REMARK H PARENT 6 12 1 15 23 23 21 25 17 28 19 30
REMARK Flexibility Score: inf
ROOT
ATOM      1  O   UNL     1      12.976   4.167 -33.341  1.00  0.00    -0.310 OA
ENDROOT
BRANCH   1   2
ATOM      2  C   UNL     1      11.827   4.544 -34.079  1.00  0.00     0.316 C 
ATOM      3  C   UNL     1       9.130   5.168 -34.643  1.00  0.00     0.018 C 
ATOM      4  C   UNL     1       9.471   3.923 -34.304  1.00  0.00     0.186 C 
ATOM      5  C   UNL     1      10.039   6.362 -34.385  1.00  0.00     0.061 C 
ATOM      6  O   UNL     1      10.750   3.646 -33.823  1.00  0.00    -0.472 OA
ATOM      7  C   UNL     1      11.394   5.982 -33.725  1.00  0.00     0.096 C 
ATOM      8  C   UNL     1       9.400   7.334 -33.364  1.00  0.00     0.145 C 
ATOM      9  C   UNL     1      11.140   6.234 -32.262  1.00  0.00    -0.036 C 
ATOM     10  C   UNL     1      10.046   6.965 -32.078  1.00  0.00     0.007 C 
BRANCH   8  11
ATOM     11  O   UNL     1       8.006   7.210 -33.261  1.00  0.00    -0.388 OA
ATOM     12  H   UNL     1       7.796   6.260 -33.460  1.00  0.00     0.211 HD
ENDBRANCH   8  11
BRANCH   9  13
ATOM     13  C   UNL     1      12.090   5.913 -31.143  1.00  0.00     0.187 C 
BRANCH  13  14
ATOM     14  O   UNL     1      11.530   6.319 -29.926  1.00  0.00    -0.392 OA
ATOM     15  H   UNL     1      11.890   5.702 -29.237  1.00  0.00     0.211 HD
ENDBRANCH  13  14
ENDBRANCH   9  13
ENDBRANCH   1   2
BRANCH   1  16
ATOM     16  C   UNL     1      14.104   4.030 -34.194  1.00  0.00     0.286 C 
ATOM     17  C   UNL     1      15.109   3.022 -33.601  1.00  0.00     0.202 C 
ATOM     18  O   UNL     1      14.725   5.279 -34.459  1.00  0.00    -0.341 OA
ATOM     19  C   UNL     1      15.852   3.602 -32.377  1.00  0.00     0.179 C 
ATOM     20  C   UNL     1      15.196   5.896 -33.271  1.00  0.00     0.178 C 
ATOM     21  C   UNL     1      16.325   5.050 -32.635  1.00  0.00     0.177 C 
BRANCH  17  22
ATOM     22  O   UNL     1      16.039   2.679 -34.597  1.00  0.00    -0.385 OA
ATOM     23  H   UNL     1      16.942   2.859 -34.224  1.00  0.00     0.211 HD
ENDBRANCH  17  22
BRANCH  19  24
ATOM     24  O   UNL     1      15.072   3.490 -31.210  1.00  0.00    -0.387 OA
ATOM     25  H   UNL     1      15.029   4.377 -30.773  1.00  0.00     0.211 HD
ENDBRANCH  19  24
BRANCH  20  26
ATOM     26  C   UNL     1      15.702   7.298 -33.630  1.00  0.00     0.191 C 
BRANCH  26  27
ATOM     27  O   UNL     1      15.617   8.132 -32.507  1.00  0.00    -0.394 OA
ATOM     28  H   UNL     1      15.362   9.028 -32.847  1.00  0.00     0.210 HD
ENDBRANCH  26  27
ENDBRANCH  20  26
BRANCH  21  29
ATOM     29  O   UNL     1      16.748   5.621 -31.422  1.00  0.00    -0.387 OA
ATOM     30  H   UNL     1      17.736   5.710 -31.467  1.00  0.00     0.211 HD
ENDBRANCH  21  29
ENDBRANCH   1  16
TORSDOF 10
ENDMDL
MODEL 7
REMARK VINA RESULT:    -4.683      3.203      5.835
REMARK INTER + INTRA:          -7.893
REMARK INTER:                  -6.603
REMARK INTRA:                  -1.289
REMARK UNBOUND:                -1.293
REMARK SMILES OCC1=C[C@H](O)[C@@H]2C=CO[C@H](O[C@H]3O[C@H](CO)[C@@H](O)[C@@H](O)[C@@H]3O)[C@H]12
REMARK SMILES IDX 12 1 11 2 8 3 9 4 7 5 10 6 24 7 5 8 3 9 4 10 6 11 2 13 1 14
REMARK SMILES IDX 13 16 22 17 14 18 20 19 15 20 18 21 23 22 21 24 16 26 17 27
REMARK SMILES IDX 19 29
REMARK H PARENT 6 12 1 15 23 23 21 25 17 28 19 30
REMARK Flexibility Score: inf
ROOT
ATOM      1  O   UNL     1      11.373   5.257 -33.289  1.00  0.00    -0.310 OA
ENDROOT
BRANCH   1   2
ATOM      2  C   UNL     1      10.282   5.168 -34.188  1.00  0.00     0.316 C 
ATOM      3  C   UNL     1       7.649   4.753 -35.125  1.00  0.00     0.018 C 
ATOM      4  C   UNL     1       8.359   3.728 -34.649  1.00  0.00     0.186 C 
ATOM      5  C   UNL     1       8.028   6.203 -34.854  1.00  0.00     0.061 C 
ATOM      6  O   UNL     1       9.570   3.949 -33.995  1.00  0.00    -0.472 OA
ATOM      7  C   UNL     1       9.321   6.361 -34.006  1.00  0.00     0.096 C 
ATOM      8  C   UNL     1       6.947   6.907 -34.000  1.00  0.00     0.145 C 
ATOM      9  C   UNL     1       8.788   6.548 -32.609  1.00  0.00    -0.036 C 
ATOM     10  C   UNL     1       7.492   6.837 -32.619  1.00  0.00     0.007 C 
BRANCH   8  11
ATOM     11  O   UNL     1       5.688   6.288 -34.057  1.00  0.00    -0.388 OA
ATOM     12  H   UNL     1       5.187   6.605 -33.261  1.00  0.00     0.211 HD
ENDBRANCH   8  11
BRANCH   9  13
ATOM     13  C   UNL     1       9.621   6.628 -31.361  1.00  0.00     0.187 C 
BRANCH  13  14
ATOM     14  O   UNL     1      10.808   7.316 -31.638  1.00  0.00    -0.392 OA
ATOM     15  H   UNL     1      11.119   6.984 -32.521  1.00  0.00     0.211 HD
ENDBRANCH  13  14
ENDBRANCH   9  13
ENDBRANCH   1   2
BRANCH   1  16
ATOM     16  C   UNL     1      12.489   4.521 -33.771  1.00  0.00     0.286 C 
ATOM     17  C   UNL     1      13.333   3.992 -32.594  1.00  0.00     0.202 C 
ATOM     18  O   UNL     1      13.281   5.285 -34.668  1.00  0.00    -0.341 OA
ATOM     19  C   UNL     1      14.123   5.121 -31.897  1.00  0.00     0.179 C 
ATOM     20  C   UNL     1      13.807   6.448 -34.048  1.00  0.00     0.178 C 
ATOM     21  C   UNL     1      14.796   6.059 -32.923  1.00  0.00     0.177 C 
BRANCH  17  22
ATOM     22  O   UNL     1      14.228   3.025 -33.086  1.00  0.00    -0.385 OA
ATOM     23  H   UNL     1      13.763   2.148 -33.036  1.00  0.00     0.211 HD
ENDBRANCH  17  22
BRANCH  19  24
ATOM     24  O   UNL     1      13.310   5.817 -30.982  1.00  0.00    -0.387 OA
ATOM     25  H   UNL     1      12.708   5.169 -30.538  1.00  0.00     0.211 HD
ENDBRANCH  19  24
BRANCH  20  26
ATOM     26  C   UNL     1      14.508   7.286 -35.124  1.00  0.00     0.191 C 
BRANCH  26  27
ATOM     27  O   UNL     1      14.556   8.627 -34.720  1.00  0.00    -0.394 OA
ATOM     28  H   UNL     1      15.462   8.954 -34.956  1.00  0.00     0.210 HD
ENDBRANCH  26  27
ENDBRANCH  20  26
BRANCH  21  29
ATOM     29  O   UNL     1      15.267   7.207 -32.260  1.00  0.00    -0.387 OA
ATOM     30  H   UNL     1      15.481   7.881 -32.957  1.00  0.00     0.211 HD
ENDBRANCH  21  29
ENDBRANCH   1  16
TORSDOF 10
ENDMDL
MODEL 8
REMARK VINA RESULT:    -4.655      1.342      2.558
REMARK INTER + INTRA:          -7.853
REMARK INTER:                  -6.799
REMARK INTRA:                  -1.053
REMARK UNBOUND:                -1.293
REMARK SMILES OCC1=C[C@H](O)[C@@H]2C=CO[C@H](O[C@H]3O[C@H](CO)[C@@H](O)[C@@H](O)[C@@H]3O)[C@H]12
REMARK SMILES IDX 12 1 11 2 8 3 9 4 7 5 10 6 24 7 5 8 3 9 4 10 6 11 2 13 1 14
REMARK SMILES IDX 13 16 22 17 14 18 20 19 15 20 18 21 23 22 21 24 16 26 17 27
REMARK SMILES IDX 19 29
REMARK H PARENT 6 12 1 15 23 23 21 25 17 28 19 30
REMARK Flexibility Score: inf
ROOT
ATOM      1  O   UNL     1       6.254   5.251 -32.079  1.00  0.00    -0.310 OA
ENDROOT
BRANCH   1   2
ATOM      2  C   UNL     1       4.950   4.828 -32.435  1.00  0.00     0.316 C 
ATOM      3  C   UNL     1       2.416   3.595 -32.226  1.00  0.00     0.018 C 
ATOM      4  C   UNL     1       3.522   2.849 -32.266  1.00  0.00     0.186 C 
ATOM      5  C   UNL     1       2.449   5.085 -31.910  1.00  0.00     0.061 C 
ATOM      6  O   UNL     1       4.780   3.440 -32.159  1.00  0.00    -0.472 OA
ATOM      7  C   UNL     1       3.881   5.640 -31.674  1.00  0.00     0.096 C 
ATOM      8  C   UNL     1       1.721   5.384 -30.578  1.00  0.00     0.145 C 
ATOM      9  C   UNL     1       4.009   5.620 -30.173  1.00  0.00    -0.036 C 
ATOM     10  C   UNL     1       2.826   5.472 -29.588  1.00  0.00     0.007 C 
BRANCH   8  11
ATOM     11  O   UNL     1       0.805   4.391 -30.198  1.00  0.00    -0.388 OA
ATOM     12  H   UNL     1       0.759   3.751 -30.955  1.00  0.00     0.211 HD
ENDBRANCH   8  11
BRANCH   9  13
ATOM     13  C   UNL     1       5.255   5.946 -29.399  1.00  0.00     0.187 C 
BRANCH  13  14
ATOM     14  O   UNL     1       5.928   7.001 -30.025  1.00  0.00    -0.392 OA
ATOM     15  H   UNL     1       5.478   7.833 -29.722  1.00  0.00     0.211 HD
ENDBRANCH  13  14
ENDBRANCH   9  13
ENDBRANCH   1   2
BRANCH   1  16
ATOM     16  C   UNL     1       6.658   6.364 -32.865  1.00  0.00     0.286 C 
ATOM     17  C   UNL     1       6.793   5.958 -34.346  1.00  0.00     0.202 C 
ATOM     18  O   UNL     1       7.859   6.948 -32.381  1.00  0.00    -0.341 OA
ATOM     19  C   UNL     1       8.038   5.077 -34.591  1.00  0.00     0.179 C 
ATOM     20  C   UNL     1       8.939   6.029 -32.407  1.00  0.00     0.178 C 
ATOM     21  C   UNL     1       9.280   5.637 -33.864  1.00  0.00     0.177 C 
BRANCH  17  22
ATOM     22  O   UNL     1       6.882   7.125 -35.124  1.00  0.00    -0.385 OA
ATOM     23  H   UNL     1       6.724   7.893 -34.513  1.00  0.00     0.211 HD
ENDBRANCH  17  22
BRANCH  19  24
ATOM     24  O   UNL     1       7.780   3.732 -34.259  1.00  0.00    -0.387 OA
ATOM     25  H   UNL     1       8.150   3.155 -34.973  1.00  0.00     0.211 HD
ENDBRANCH  19  24
BRANCH  20  26
ATOM     26  C   UNL     1      10.143   6.689 -31.723  1.00  0.00     0.191 C 
BRANCH  26  27
ATOM     27  O   UNL     1      11.082   7.073 -32.691  1.00  0.00    -0.394 OA
ATOM     28  H   UNL     1      10.838   6.587 -33.520  1.00  0.00     0.210 HD
ENDBRANCH  26  27
ENDBRANCH  20  26
BRANCH  21  29
ATOM     29  O   UNL     1      10.305   4.674 -33.891  1.00  0.00    -0.387 OA
ATOM     30  H   UNL     1      10.420   4.393 -34.836  1.00  0.00     0.211 HD
ENDBRANCH  21  29
ENDBRANCH   1  16
TORSDOF 10
ENDMDL
MODEL 9
REMARK VINA RESULT:    -4.475      6.530      9.940
REMARK INTER + INTRA:          -7.600
REMARK INTER:                  -6.726
REMARK INTRA:                  -0.873
REMARK UNBOUND:                -1.293
REMARK SMILES OCC1=C[C@H](O)[C@@H]2C=CO[C@H](O[C@H]3O[C@H](CO)[C@@H](O)[C@@H](O)[C@@H]3O)[C@H]12
REMARK SMILES IDX 12 1 11 2 8 3 9 4 7 5 10 6 24 7 5 8 3 9 4 10 6 11 2 13 1 14
REMARK SMILES IDX 13 16 22 17 14 18 20 19 15 20 18 21 23 22 21 24 16 26 17 27
REMARK SMILES IDX 19 29
REMARK H PARENT 6 12 1 15 23 23 21 25 17 28 19 30
REMARK Flexibility Score: inf
ROOT
ATOM      1  O   UNL     1      15.489   3.187 -30.456  1.00  0.00    -0.310 OA
ENDROOT
BRANCH   1   2
ATOM      2  C   UNL     1      14.872   2.595 -31.584  1.00  0.00     0.316 C 
ATOM      3  C   UNL     1      12.832   1.744 -33.345  1.00  0.00     0.018 C 
ATOM      4  C   UNL     1      12.939   1.198 -32.132  1.00  0.00     0.186 C 
ATOM      5  C   UNL     1      13.505   3.061 -33.709  1.00  0.00     0.061 C 
ATOM      6  O   UNL     1      13.800   1.746 -31.182  1.00  0.00    -0.472 OA
ATOM      7  C   UNL     1      14.340   3.675 -32.550  1.00  0.00     0.096 C 
ATOM      8  C   UNL     1      12.454   4.155 -34.015  1.00  0.00     0.145 C 
ATOM      9  C   UNL     1      13.389   4.670 -31.938  1.00  0.00    -0.036 C 
ATOM     10  C   UNL     1      12.361   4.917 -32.742  1.00  0.00     0.007 C 
BRANCH   8  11
ATOM     11  O   UNL     1      11.194   3.645 -34.369  1.00  0.00    -0.388 OA
ATOM     12  H   UNL     1      10.781   3.319 -33.528  1.00  0.00     0.211 HD
ENDBRANCH   8  11
BRANCH   9  13
ATOM     13  C   UNL     1      13.644   5.468 -30.691  1.00  0.00     0.187 C 
BRANCH  13  14
ATOM     14  O   UNL     1      13.147   4.772 -29.584  1.00  0.00    -0.392 OA
ATOM     15  H   UNL     1      13.342   3.813 -29.751  1.00  0.00     0.211 HD
ENDBRANCH  13  14
ENDBRANCH   9  13
ENDBRANCH   1   2
BRANCH   1  16
ATOM     16  C   UNL     1      16.743   3.757 -30.805  1.00  0.00     0.286 C 
ATOM     17  C   UNL     1      17.659   2.695 -31.444  1.00  0.00     0.202 C 
ATOM     18  O   UNL     1      17.373   4.377 -29.693  1.00  0.00    -0.341 OA
ATOM     19  C   UNL     1      18.183   1.682 -30.402  1.00  0.00     0.179 C 
ATOM     20  C   UNL     1      17.634   3.450 -28.651  1.00  0.00     0.178 C 
ATOM     21  C   UNL     1      18.662   2.391 -29.116  1.00  0.00     0.177 C 
BRANCH  17  22
ATOM     22  O   UNL     1      18.745   3.348 -32.053  1.00  0.00    -0.385 OA
ATOM     23  H   UNL     1      18.422   3.693 -32.927  1.00  0.00     0.211 HD
ENDBRANCH  17  22
BRANCH  19  24
ATOM     24  O   UNL     1      17.227   0.682 -30.142  1.00  0.00    -0.387 OA
ATOM     25  H   UNL     1      16.330   1.037 -30.366  1.00  0.00     0.211 HD
ENDBRANCH  19  24
BRANCH  20  26
ATOM     26  C   UNL     1      18.162   4.229 -27.441  1.00  0.00     0.191 C 
BRANCH  26  27
ATOM     27  O   UNL     1      19.123   5.158 -27.862  1.00  0.00    -0.394 OA
ATOM     28  H   UNL     1      19.987   4.851 -27.485  1.00  0.00     0.210 HD
ENDBRANCH  26  27
ENDBRANCH  20  26
BRANCH  21  29
ATOM     29  O   UNL     1      18.871   1.430 -28.109  1.00  0.00    -0.387 OA
ATOM     30  H   UNL     1      19.200   1.912 -27.307  1.00  0.00     0.211 HD
ENDBRANCH  21  29
ENDBRANCH   1  16
TORSDOF 10
ENDMDL
