MODEL 1
REMARK VINA RESULT:    -4.658      0.000      0.000
REMARK INTER + INTRA:          -5.935
REMARK INTER:                  -6.565
REMARK INTRA:                   0.630
REMARK UNBOUND:                 0.630
REMARK SMILES CC1=CCCC(C)=CCC(C)(C)C=CC1
REMARK SMILES IDX 2 1 3 2 1 3 4 4 5 5 6 6 7 7 8 8 15 10 14 11 13 12 10 13
REMARK SMILES IDX 11 14 12 15 9 16
REMARK H PARENT
REMARK Flexibility Score: 60.00
ROOT
ATOM      1  C   UNL     1      -5.843   0.781  11.866  1.00  0.00    -0.074 C 
ATOM      2  C   UNL     1      -4.548   1.183  11.954  1.00  0.00    -0.027 C 
ATOM      3  C   UNL     1      -6.728   1.029  13.064  1.00  0.00     0.039 C 
ENDROOT
BRANCH   2   4
ATOM      4  C   UNL     1      -3.507   1.109  10.861  1.00  0.00     0.032 C 
BRANCH   4   5
ATOM      5  C   UNL     1      -2.269   0.283  11.239  1.00  0.00     0.034 C 
BRANCH   5   6
ATOM      6  C   UNL     1      -2.581  -1.129  11.696  1.00  0.00    -0.077 C 
ATOM      7  C   UNL     1      -2.092  -1.573  13.053  1.00  0.00     0.039 C 
ATOM      8  C   UNL     1      -3.244  -2.035  10.938  1.00  0.00    -0.027 CG0
ATOM      9  G   UNL     1      -3.842  -1.788   9.571  1.00  0.00     0.000 G0
ENDBRANCH   5   6
ENDBRANCH   4   5
ENDBRANCH   2   4
BRANCH   1  10
ATOM     10  C   UNL     1      -6.431   0.050  10.669  1.00  0.00     0.057 C 
BRANCH  10  11
ATOM     11  C   UNL     1      -6.744  -1.390  10.972  1.00  0.00    -0.026 C 
ATOM     12  C   UNL     1      -6.231  -2.494  10.381  1.00  0.00    -0.024 C 
BRANCH  12  13
ATOM     13  C   UNL     1      -5.174  -2.625   9.267  1.00  0.00    -0.014 C 
ATOM     14  C   UNL     1      -4.907  -4.108   8.914  1.00  0.00     0.016 C 
ATOM     15  C   UNL     1      -5.800  -1.988   7.998  1.00  0.00     0.016 C 
BRANCH  13  16
ATOM     16  C   UNL     1      -3.866  -1.809   9.570  1.00  0.00     0.038 CG0
ATOM     17  G   UNL     1      -3.251  -2.033  10.932  1.00  0.00     0.000 G0
ENDBRANCH  13  16
ENDBRANCH  12  13
ENDBRANCH  10  11
ENDBRANCH   1  10
TORSDOF 0
ENDMDL
MODEL 2
REMARK VINA RESULT:    -4.643      1.850      4.905
REMARK INTER + INTRA:          -5.913
REMARK INTER:                  -6.390
REMARK INTRA:                   0.477
REMARK UNBOUND:                 0.630
REMARK SMILES CC1=CCCC(C)=CCC(C)(C)C=CC1
REMARK SMILES IDX 2 1 3 2 1 3 4 4 5 5 6 6 7 7 8 8 15 10 14 11 13 12 10 13
REMARK SMILES IDX 11 14 12 15 9 16
REMARK H PARENT
REMARK Flexibility Score: 60.00
ROOT
ATOM      1  C   UNL     1      -1.358  -2.247  12.319  1.00  0.00    -0.074 C 
ATOM      2  C   UNL     1      -2.187  -3.247  11.921  1.00  0.00    -0.027 C 
ATOM      3  C   UNL     1       0.020  -2.205  11.704  1.00  0.00     0.039 C 
ENDROOT
BRANCH   2   4
ATOM      4  C   UNL     1      -3.627  -3.442  12.339  1.00  0.00     0.032 C 
BRANCH   4   5
ATOM      5  C   UNL     1      -4.638  -3.210  11.207  1.00  0.00     0.034 C 
BRANCH   5   6
ATOM      6  C   UNL     1      -4.404  -1.936  10.417  1.00  0.00    -0.077 C 
ATOM      7  C   UNL     1      -3.724  -2.035   9.074  1.00  0.00     0.039 C 
ATOM      8  C   UNL     1      -4.739  -0.703  10.865  1.00  0.00    -0.027 CG0
ATOM      9  G   UNL     1      -5.452  -0.386  12.161  1.00  0.00     0.000 G0
ENDBRANCH   5   6
ENDBRANCH   4   5
ENDBRANCH   2   4
BRANCH   1  10
ATOM     10  C   UNL     1      -1.711  -1.216  13.381  1.00  0.00     0.057 C 
BRANCH  10  11
ATOM     11  C   UNL     1      -1.995   0.139  12.794  1.00  0.00    -0.026 C 
ATOM     12  C   UNL     1      -3.183   0.785  12.730  1.00  0.00    -0.024 C 
BRANCH  12  13
ATOM     13  C   UNL     1      -4.572   0.364  13.249  1.00  0.00    -0.014 C 
ATOM     14  C   UNL     1      -4.462  -0.412  14.585  1.00  0.00     0.016 C 
ATOM     15  C   UNL     1      -5.329   1.677  13.577  1.00  0.00     0.016 C 
BRANCH  13  16
ATOM     16  C   UNL     1      -5.429  -0.380  12.163  1.00  0.00     0.038 CG0
ATOM     17  G   UNL     1      -4.722  -0.686  10.861  1.00  0.00     0.000 G0
ENDBRANCH  13  16
ENDBRANCH  12  13
ENDBRANCH  10  11
ENDBRANCH   1  10
TORSDOF 0
ENDMDL
MODEL 3
REMARK VINA RESULT:    -4.617      1.567      3.997
REMARK INTER + INTRA:          -5.876
REMARK INTER:                  -6.466
REMARK INTRA:                   0.590
REMARK UNBOUND:                 0.630
REMARK SMILES CC1=CCCC(C)=CCC(C)(C)C=CC1
REMARK SMILES IDX 2 1 3 2 1 3 4 4 5 5 6 6 7 7 8 8 15 10 14 11 13 12 10 13
REMARK SMILES IDX 11 14 12 15 9 16
REMARK H PARENT
REMARK Flexibility Score: 60.00
ROOT
ATOM      1  C   UNL     1      -4.791  -2.074   8.746  1.00  0.00    -0.074 C 
ATOM      2  C   UNL     1      -4.240  -3.247   9.155  1.00  0.00    -0.027 C 
ATOM      3  C   UNL     1      -5.999  -2.155   7.846  1.00  0.00     0.039 C 
ENDROOT
BRANCH   2   4
ATOM      4  C   UNL     1      -3.081  -3.411  10.113  1.00  0.00     0.032 C 
BRANCH   4   5
ATOM      5  C   UNL     1      -3.497  -3.424  11.591  1.00  0.00     0.034 C 
BRANCH   5   6
ATOM      6  C   UNL     1      -2.973  -2.249  12.394  1.00  0.00    -0.077 C 
ATOM      7  C   UNL     1      -1.583  -2.334  12.975  1.00  0.00     0.039 C 
ATOM      8  C   UNL     1      -3.698  -1.134  12.654  1.00  0.00    -0.027 CG0
ATOM      9  G   UNL     1      -5.090  -0.834  12.144  1.00  0.00     0.000 G0
ENDBRANCH   5   6
ENDBRANCH   4   5
ENDBRANCH   2   4
BRANCH   1  10
ATOM     10  C   UNL     1      -4.231  -0.702   9.089  1.00  0.00     0.057 C 
BRANCH  10  11
ATOM     11  C   UNL     1      -5.306   0.342   9.216  1.00  0.00    -0.026 C 
ATOM     12  C   UNL     1      -5.789   0.904  10.349  1.00  0.00    -0.024 C 
BRANCH  12  13
ATOM     13  C   UNL     1      -5.383   0.683  11.819  1.00  0.00    -0.014 C 
ATOM     14  C   UNL     1      -4.236   1.636  12.236  1.00  0.00     0.016 C 
ATOM     15  C   UNL     1      -6.611   1.090  12.675  1.00  0.00     0.016 C 
BRANCH  13  16
ATOM     16  C   UNL     1      -5.094  -0.825  12.151  1.00  0.00     0.038 CG0
ATOM     17  G   UNL     1      -3.697  -1.138  12.637  1.00  0.00     0.000 G0
ENDBRANCH  13  16
ENDBRANCH  12  13
ENDBRANCH  10  11
ENDBRANCH   1  10
TORSDOF 0
ENDMDL
MODEL 4
REMARK VINA RESULT:    -4.607      1.512      4.490
REMARK INTER + INTRA:          -5.863
REMARK INTER:                  -6.423
REMARK INTRA:                   0.560
REMARK UNBOUND:                 0.630
REMARK SMILES CC1=CCCC(C)=CCC(C)(C)C=CC1
REMARK SMILES IDX 2 1 3 2 1 3 4 4 5 5 6 6 7 7 8 8 15 10 14 11 13 12 10 13
REMARK SMILES IDX 11 14 12 15 9 16
REMARK H PARENT
REMARK Flexibility Score: 60.00
ROOT
ATOM      1  C   UNL     1      -4.907  -3.074   9.317  1.00  0.00    -0.074 C 
ATOM      2  C   UNL     1      -5.947  -2.643  10.078  1.00  0.00    -0.027 C 
ATOM      3  C   UNL     1      -5.094  -3.062   7.820  1.00  0.00     0.039 C 
ENDROOT
BRANCH   2   4
ATOM      4  C   UNL     1      -5.960  -2.494  11.583  1.00  0.00     0.032 C 
BRANCH   4   5
ATOM      5  C   UNL     1      -5.917  -1.036  12.061  1.00  0.00     0.034 C 
BRANCH   5   6
ATOM      6  C   UNL     1      -4.917  -0.168  11.321  1.00  0.00    -0.077 C 
ATOM      7  C   UNL     1      -5.429   0.798  10.281  1.00  0.00     0.039 C 
ATOM      8  C   UNL     1      -3.577  -0.236  11.513  1.00  0.00    -0.027 CG0
ATOM      9  G   UNL     1      -2.862  -1.108  12.520  1.00  0.00     0.000 G0
ENDBRANCH   5   6
ENDBRANCH   4   5
ENDBRANCH   2   4
BRANCH   1  10
ATOM     10  C   UNL     1      -3.604  -3.618   9.882  1.00  0.00     0.057 C 
BRANCH  10  11
ATOM     11  C   UNL     1      -2.430  -2.730   9.576  1.00  0.00    -0.026 C 
ATOM     12  C   UNL     1      -1.650  -2.052  10.451  1.00  0.00    -0.024 C 
BRANCH  12  13
ATOM     13  C   UNL     1      -1.698  -2.001  11.991  1.00  0.00    -0.014 C 
ATOM     14  C   UNL     1      -1.688  -3.424  12.602  1.00  0.00     0.016 C 
ATOM     15  C   UNL     1      -0.374  -1.331  12.444  1.00  0.00     0.016 C 
BRANCH  13  16
ATOM     16  C   UNL     1      -2.860  -1.095  12.535  1.00  0.00     0.038 CG0
ATOM     17  G   UNL     1      -3.571  -0.245  11.505  1.00  0.00     0.000 G0
ENDBRANCH  13  16
ENDBRANCH  12  13
ENDBRANCH  10  11
ENDBRANCH   1  10
TORSDOF 0
ENDMDL
MODEL 5
REMARK VINA RESULT:    -4.607      1.459      3.727
REMARK INTER + INTRA:          -5.862
REMARK INTER:                  -6.342
REMARK INTRA:                   0.480
REMARK UNBOUND:                 0.630
REMARK SMILES CC1=CCCC(C)=CCC(C)(C)C=CC1
REMARK SMILES IDX 2 1 3 2 1 3 4 4 5 5 6 6 7 7 8 8 15 10 14 11 13 12 10 13
REMARK SMILES IDX 11 14 12 15 9 16
REMARK H PARENT
REMARK Flexibility Score: 60.00
ROOT
ATOM      1  C   UNL     1      -2.013  -1.000  13.168  1.00  0.00    -0.074 C 
ATOM      2  C   UNL     1      -2.890  -0.558  14.107  1.00  0.00    -0.027 C 
ATOM      3  C   UNL     1      -0.762  -1.687  13.659  1.00  0.00     0.039 C 
ENDROOT
BRANCH   2   4
ATOM      4  C   UNL     1      -4.234   0.085  13.850  1.00  0.00     0.032 C 
BRANCH   4   5
ATOM      5  C   UNL     1      -5.263  -0.862  13.216  1.00  0.00     0.034 C 
BRANCH   5   6
ATOM      6  C   UNL     1      -6.024  -0.262  12.049  1.00  0.00    -0.077 C 
ATOM      7  C   UNL     1      -6.756   1.041  12.259  1.00  0.00     0.039 C 
ATOM      8  C   UNL     1      -6.117  -0.849  10.832  1.00  0.00    -0.027 CG0
ATOM      9  G   UNL     1      -5.440  -2.132  10.405  1.00  0.00     0.000 G0
ENDBRANCH   5   6
ENDBRANCH   4   5
ENDBRANCH   2   4
BRANCH   1  10
ATOM     10  C   UNL     1      -2.187  -0.792  11.671  1.00  0.00     0.057 C 
BRANCH  10  11
ATOM     11  C   UNL     1      -2.063  -2.073  10.894  1.00  0.00    -0.026 C 
ATOM     12  C   UNL     1      -2.916  -2.568   9.966  1.00  0.00    -0.024 C 
BRANCH  12  13
ATOM     13  C   UNL     1      -4.225  -1.979   9.406  1.00  0.00    -0.014 C 
ATOM     14  C   UNL     1      -4.022  -0.528   8.907  1.00  0.00     0.016 C 
ATOM     15  C   UNL     1      -4.577  -2.819   8.150  1.00  0.00     0.016 C 
BRANCH  13  16
ATOM     16  C   UNL     1      -5.435  -2.136  10.395  1.00  0.00     0.038 CG0
ATOM     17  G   UNL     1      -6.099  -0.850  10.834  1.00  0.00     0.000 G0
ENDBRANCH  13  16
ENDBRANCH  12  13
ENDBRANCH  10  11
ENDBRANCH   1  10
TORSDOF 0
ENDMDL
MODEL 6
REMARK VINA RESULT:    -4.598      1.200      3.746
REMARK INTER + INTRA:          -5.849
REMARK INTER:                  -6.340
REMARK INTRA:                   0.490
REMARK UNBOUND:                 0.630
REMARK SMILES CC1=CCCC(C)=CCC(C)(C)C=CC1
REMARK SMILES IDX 2 1 3 2 1 3 4 4 5 5 6 6 7 7 8 8 15 10 14 11 13 12 10 13
REMARK SMILES IDX 11 14 12 15 9 16
REMARK H PARENT
REMARK Flexibility Score: 60.00
ROOT
ATOM      1  C   UNL     1      -5.121   1.282  12.158  1.00  0.00    -0.074 C 
ATOM      2  C   UNL     1      -6.337   0.676  12.151  1.00  0.00    -0.027 C 
ATOM      3  C   UNL     1      -4.945   2.469  13.073  1.00  0.00     0.039 C 
ENDROOT
BRANCH   2   4
ATOM      4  C   UNL     1      -6.719  -0.567  11.379  1.00  0.00     0.032 C 
BRANCH   4   5
ATOM      5  C   UNL     1      -5.982  -1.832  11.840  1.00  0.00     0.034 C 
BRANCH   5   6
ATOM      6  C   UNL     1      -5.207  -2.535  10.741  1.00  0.00    -0.077 C 
ATOM      7  C   UNL     1      -5.960  -3.032   9.531  1.00  0.00     0.039 C 
ATOM      8  C   UNL     1      -3.876  -2.778  10.799  1.00  0.00    -0.027 CG0
ATOM      9  G   UNL     1      -2.935  -2.341  11.899  1.00  0.00     0.000 G0
ENDBRANCH   5   6
ENDBRANCH   4   5
ENDBRANCH   2   4
BRANCH   1  10
ATOM     10  C   UNL     1      -3.960   0.877  11.262  1.00  0.00     0.057 C 
BRANCH  10  11
ATOM     11  C   UNL     1      -2.639   0.919  11.979  1.00  0.00    -0.026 C 
ATOM     12  C   UNL     1      -1.710  -0.062  12.068  1.00  0.00    -0.024 C 
BRANCH  12  13
ATOM     13  C   UNL     1      -1.697  -1.476  11.456  1.00  0.00    -0.014 C 
ATOM     14  C   UNL     1      -1.501  -1.424   9.922  1.00  0.00     0.016 C 
ATOM     15  C   UNL     1      -0.440  -2.185  12.026  1.00  0.00     0.016 C 
BRANCH  13  16
ATOM     16  C   UNL     1      -2.931  -2.343  11.900  1.00  0.00     0.038 CG0
ATOM     17  G   UNL     1      -3.863  -2.778  10.791  1.00  0.00     0.000 G0
ENDBRANCH  13  16
ENDBRANCH  12  13
ENDBRANCH  10  11
ENDBRANCH   1  10
TORSDOF 0
ENDMDL
MODEL 7
REMARK VINA RESULT:    -4.494      2.016      3.441
REMARK INTER + INTRA:          -5.702
REMARK INTER:                  -6.307
REMARK INTRA:                   0.604
REMARK UNBOUND:                 0.630
REMARK SMILES CC1=CCCC(C)=CCC(C)(C)C=CC1
REMARK SMILES IDX 2 1 3 2 1 3 4 4 5 5 6 6 7 7 8 8 15 10 14 11 13 12 10 13
REMARK SMILES IDX 11 14 12 15 9 16
REMARK H PARENT
REMARK Flexibility Score: 60.00
ROOT
ATOM      1  C   UNL     1      -1.478  -2.508  11.586  1.00  0.00    -0.074 C 
ATOM      2  C   UNL     1      -0.814  -1.857  10.595  1.00  0.00    -0.027 C 
ATOM      3  C   UNL     1      -1.026  -2.256  13.003  1.00  0.00     0.039 C 
ENDROOT
BRANCH   2   4
ATOM      4  C   UNL     1      -1.139  -1.896   9.119  1.00  0.00     0.032 C 
BRANCH   4   5
ATOM      5  C   UNL     1      -1.818  -0.620   8.601  1.00  0.00     0.034 C 
BRANCH   5   6
ATOM      6  C   UNL     1      -2.813  -0.009   9.569  1.00  0.00    -0.077 C 
ATOM      7  C   UNL     1      -2.343   1.090  10.490  1.00  0.00     0.039 C 
ATOM      8  C   UNL     1      -4.099  -0.420   9.683  1.00  0.00    -0.027 CG0
ATOM      9  G   UNL     1      -4.777  -1.478   8.841  1.00  0.00     0.000 G0
ENDBRANCH   5   6
ENDBRANCH   4   5
ENDBRANCH   2   4
BRANCH   1  10
ATOM     10  C   UNL     1      -2.597  -3.512  11.348  1.00  0.00     0.057 C 
BRANCH  10  11
ATOM     11  C   UNL     1      -3.927  -3.018  11.845  1.00  0.00    -0.026 C 
ATOM     12  C   UNL     1      -5.021  -2.699  11.114  1.00  0.00    -0.024 C 
BRANCH  12  13
ATOM     13  C   UNL     1      -5.254  -2.769   9.592  1.00  0.00    -0.014 C 
ATOM     14  C   UNL     1      -4.671  -4.072   8.992  1.00  0.00     0.016 C 
ATOM     15  C   UNL     1      -6.789  -2.853   9.390  1.00  0.00     0.016 C 
BRANCH  13  16
ATOM     16  C   UNL     1      -4.781  -1.471   8.844  1.00  0.00     0.038 CG0
ATOM     17  G   UNL     1      -4.099  -0.427   9.700  1.00  0.00     0.000 G0
ENDBRANCH  13  16
ENDBRANCH  12  13
ENDBRANCH  10  11
ENDBRANCH   1  10
TORSDOF 0
ENDMDL
MODEL 8
REMARK VINA RESULT:    -4.451      1.432      3.691
REMARK INTER + INTRA:          -5.642
REMARK INTER:                  -6.105
REMARK INTRA:                   0.464
REMARK UNBOUND:                 0.630
REMARK SMILES CC1=CCCC(C)=CCC(C)(C)C=CC1
REMARK SMILES IDX 2 1 3 2 1 3 4 4 5 5 6 6 7 7 8 8 15 10 14 11 13 12 10 13
REMARK SMILES IDX 11 14 12 15 9 16
REMARK H PARENT
REMARK Flexibility Score: 60.00
ROOT
ATOM      1  C   UNL     1      -4.360  -2.689   9.092  1.00  0.00    -0.074 C 
ATOM      2  C   UNL     1      -3.133  -2.222   8.741  1.00  0.00    -0.027 C 
ATOM      3  C   UNL     1      -4.530  -4.186   9.181  1.00  0.00     0.039 C 
ENDROOT
BRANCH   2   4
ATOM      4  C   UNL     1      -2.711  -0.772   8.664  1.00  0.00     0.032 C 
BRANCH   4   5
ATOM      5  C   UNL     1      -1.691  -0.366   9.737  1.00  0.00     0.034 C 
BRANCH   5   6
ATOM      6  C   UNL     1      -2.073  -0.781  11.146  1.00  0.00    -0.077 C 
ATOM      7  C   UNL     1      -1.373  -1.965  11.765  1.00  0.00     0.039 C 
ATOM      8  C   UNL     1      -3.039  -0.169  11.872  1.00  0.00    -0.027 CG0
ATOM      9  G   UNL     1      -3.837   1.047  11.454  1.00  0.00     0.000 G0
ENDBRANCH   5   6
ENDBRANCH   4   5
ENDBRANCH   2   4
BRANCH   1  10
ATOM     10  C   UNL     1      -5.573  -1.805   9.338  1.00  0.00     0.057 C 
BRANCH  10  11
ATOM     11  C   UNL     1      -5.923  -1.703  10.797  1.00  0.00    -0.026 C 
ATOM     12  C   UNL     1      -5.838  -0.615  11.599  1.00  0.00    -0.024 C 
BRANCH  12  13
ATOM     13  C   UNL     1      -5.398   0.826  11.274  1.00  0.00    -0.014 C 
ATOM     14  C   UNL     1      -5.930   1.280   9.893  1.00  0.00     0.016 C 
ATOM     15  C   UNL     1      -6.090   1.737  12.321  1.00  0.00     0.016 C 
BRANCH  13  16
ATOM     16  C   UNL     1      -3.852   1.045  11.451  1.00  0.00     0.038 CG0
ATOM     17  G   UNL     1      -3.056  -0.174  11.858  1.00  0.00     0.000 G0
ENDBRANCH  13  16
ENDBRANCH  12  13
ENDBRANCH  10  11
ENDBRANCH   1  10
TORSDOF 0
ENDMDL
MODEL 9
REMARK VINA RESULT:    -4.413      1.631      2.388
REMARK INTER + INTRA:          -5.589
REMARK INTER:                  -6.062
REMARK INTRA:                   0.473
REMARK UNBOUND:                 0.630
REMARK SMILES CC1=CCCC(C)=CCC(C)(C)C=CC1
REMARK SMILES IDX 2 1 3 2 1 3 4 4 5 5 6 6 7 7 8 8 15 10 14 11 13 12 10 13
REMARK SMILES IDX 11 14 12 15 9 16
REMARK H PARENT
REMARK Flexibility Score: 60.00
ROOT
ATOM      1  C   UNL     1      -4.124  -0.858  13.762  1.00  0.00    -0.074 C 
ATOM      2  C   UNL     1      -2.770  -0.767  13.838  1.00  0.00    -0.027 C 
ATOM      3  C   UNL     1      -4.929   0.087  14.619  1.00  0.00     0.039 C 
ENDROOT
BRANCH   2   4
ATOM      4  C   UNL     1      -1.768  -1.551  13.021  1.00  0.00     0.032 C 
BRANCH   4   5
ATOM      5  C   UNL     1      -0.945  -0.688  12.055  1.00  0.00     0.034 C 
BRANCH   5   6
ATOM      6  C   UNL     1      -1.779   0.186  11.137  1.00  0.00    -0.077 C 
ATOM      7  C   UNL     1      -1.835   1.669  11.407  1.00  0.00     0.039 C 
ATOM      8  C   UNL     1      -2.510  -0.296  10.103  1.00  0.00    -0.027 CG0
ATOM      9  G   UNL     1      -2.569  -1.736   9.645  1.00  0.00     0.000 G0
ENDBRANCH   5   6
ENDBRANCH   4   5
ENDBRANCH   2   4
BRANCH   1  10
ATOM     10  C   UNL     1      -4.865  -1.887  12.921  1.00  0.00     0.057 C 
BRANCH  10  11
ATOM     11  C   UNL     1      -5.435  -1.295  11.662  1.00  0.00    -0.026 C 
ATOM     12  C   UNL     1      -5.048  -1.527  10.385  1.00  0.00    -0.024 C 
BRANCH  12  13
ATOM     13  C   UNL     1      -3.955  -2.464   9.833  1.00  0.00    -0.014 C 
ATOM     14  C   UNL     1      -3.856  -3.766  10.665  1.00  0.00     0.016 C 
ATOM     15  C   UNL     1      -4.425  -2.893   8.419  1.00  0.00     0.016 C 
BRANCH  13  16
ATOM     16  C   UNL     1      -2.574  -1.740   9.639  1.00  0.00     0.038 CG0
ATOM     17  G   UNL     1      -2.506  -0.309  10.121  1.00  0.00     0.000 G0
ENDBRANCH  13  16
ENDBRANCH  12  13
ENDBRANCH  10  11
ENDBRANCH   1  10
TORSDOF 0
ENDMDL
