MODEL 1
REMARK VINA RESULT:    -2.577      0.000      0.000
REMARK INTER + INTRA:          -3.573
REMARK INTER:                  -3.179
REMARK INTRA:                  -0.394
REMARK UNBOUND:                -0.394
REMARK SMILES C=CC[C@@H](C)C(=O)CC
REMARK SMILES IDX 4 1 5 2 6 3 7 4 8 5 9 6 3 7 2 8 1 9
REMARK H PARENT
REMARK Flexibility Score: inf
ROOT
ATOM      1  C   UNL     1      10.734  14.207   0.319  1.00  0.00     0.057 C 
ATOM      2  C   UNL     1      10.013  13.994  -1.016  1.00  0.00     0.016 C 
ENDROOT
BRANCH   1   3
ATOM      3  C   UNL     1       9.785  14.837   1.319  1.00  0.00     0.135 C 
ATOM      4  O   UNL     1       8.802  14.216   1.696  1.00  0.00    -0.299 OA
BRANCH   3   5
ATOM      5  C   UNL     1      10.020  16.229   1.846  1.00  0.00     0.072 C 
ATOM      6  C   UNL     1      11.493  16.613   1.741  1.00  0.00     0.012 C 
ENDBRANCH   3   5
ENDBRANCH   1   3
BRANCH   1   7
ATOM      7  C   UNL     1      11.302  12.875   0.845  1.00  0.00     0.038 C 
BRANCH   7   8
ATOM      8  C   UNL     1      12.097  13.078   2.107  1.00  0.00    -0.034 C 
ATOM      9  C   UNL     1      13.430  12.983   2.125  1.00  0.00     0.004 C 
ENDBRANCH   7   8
ENDBRANCH   1   7
TORSDOF 4
ENDMDL
MODEL 2
REMARK VINA RESULT:    -2.565      1.669      3.781
REMARK INTER + INTRA:          -3.559
REMARK INTER:                  -3.501
REMARK INTRA:                  -0.058
REMARK UNBOUND:                -0.394
REMARK SMILES C=CC[C@@H](C)C(=O)CC
REMARK SMILES IDX 4 1 5 2 6 3 7 4 8 5 9 6 3 7 2 8 1 9
REMARK H PARENT
REMARK Flexibility Score: inf
ROOT
ATOM      1  C   UNL     1      10.494  15.643   1.232  1.00  0.00     0.057 C 
ATOM      2  C   UNL     1      11.394  16.760   1.769  1.00  0.00     0.016 C 
ENDROOT
BRANCH   1   3
ATOM      3  C   UNL     1      11.277  14.347   1.152  1.00  0.00     0.135 C 
ATOM      4  O   UNL     1      11.919  13.966   2.119  1.00  0.00    -0.299 OA
BRANCH   3   5
ATOM      5  C   UNL     1      11.296  13.526  -0.111  1.00  0.00     0.072 C 
ATOM      6  C   UNL     1      10.202  13.976  -1.074  1.00  0.00     0.012 C 
ENDBRANCH   3   5
ENDBRANCH   1   3
BRANCH   1   7
ATOM      7  C   UNL     1       9.241  15.488   2.115  1.00  0.00     0.038 C 
BRANCH   7   8
ATOM      8  C   UNL     1       8.506  14.211   1.804  1.00  0.00    -0.034 C 
ATOM      9  C   UNL     1       7.220  14.041   2.125  1.00  0.00     0.004 C 
ENDBRANCH   7   8
ENDBRANCH   1   7
TORSDOF 4
ENDMDL
MODEL 3
REMARK VINA RESULT:    -2.397      1.810      3.842
REMARK INTER + INTRA:          -3.352
REMARK INTER:                  -3.543
REMARK INTRA:                   0.191
REMARK UNBOUND:                -0.394
REMARK SMILES C=CC[C@@H](C)C(=O)CC
REMARK SMILES IDX 4 1 5 2 6 3 7 4 8 5 9 6 3 7 2 8 1 9
REMARK H PARENT
REMARK Flexibility Score: inf
ROOT
ATOM      1  C   UNL     1       9.738  15.152   0.982  1.00  0.00     0.057 C 
ATOM      2  C   UNL     1      10.833  16.063   1.546  1.00  0.00     0.016 C 
ENDROOT
BRANCH   1   3
ATOM      3  C   UNL     1      10.354  14.124   0.055  1.00  0.00     0.135 C 
ATOM      4  O   UNL     1       9.700  13.678  -0.877  1.00  0.00    -0.299 OA
BRANCH   3   5
ATOM      5  C   UNL     1      11.757  13.621   0.271  1.00  0.00     0.072 C 
ATOM      6  C   UNL     1      11.897  12.962   1.640  1.00  0.00     0.012 C 
ENDBRANCH   3   5
ENDBRANCH   1   3
BRANCH   1   7
ATOM      7  C   UNL     1       8.953  14.479   2.124  1.00  0.00     0.038 C 
BRANCH   7   8
ATOM      8  C   UNL     1       7.509  14.905   2.123  1.00  0.00    -0.034 C 
ATOM      9  C   UNL     1       6.512  14.020   2.038  1.00  0.00     0.004 C 
ENDBRANCH   7   8
ENDBRANCH   1   7
TORSDOF 4
ENDMDL
MODEL 4
REMARK VINA RESULT:    -2.331      1.598      3.056
REMARK INTER + INTRA:          -3.270
REMARK INTER:                  -3.416
REMARK INTRA:                   0.146
REMARK UNBOUND:                -0.394
REMARK SMILES C=CC[C@@H](C)C(=O)CC
REMARK SMILES IDX 4 1 5 2 6 3 7 4 8 5 9 6 3 7 2 8 1 9
REMARK H PARENT
REMARK Flexibility Score: inf
ROOT
ATOM      1  C   UNL     1      10.785  15.461   2.008  1.00  0.00     0.057 C 
ATOM      2  C   UNL     1      11.412  16.703   1.366  1.00  0.00     0.016 C 
ENDROOT
BRANCH   1   3
ATOM      3  C   UNL     1       9.275  15.591   2.008  1.00  0.00     0.135 C 
ATOM      4  O   UNL     1       8.761  16.698   1.929  1.00  0.00    -0.299 OA
BRANCH   3   5
ATOM      5  C   UNL     1       8.389  14.378   2.125  1.00  0.00     0.072 C 
ATOM      6  C   UNL     1       6.915  14.772   2.093  1.00  0.00     0.012 C 
ENDBRANCH   3   5
ENDBRANCH   1   3
BRANCH   1   7
ATOM      7  C   UNL     1      11.239  14.186   1.272  1.00  0.00     0.038 C 
BRANCH   7   8
ATOM      8  C   UNL     1      10.514  14.022  -0.038  1.00  0.00    -0.034 C 
ATOM      9  C   UNL     1      11.161  13.737  -1.172  1.00  0.00     0.004 C 
ENDBRANCH   7   8
ENDBRANCH   1   7
TORSDOF 4
ENDMDL
MODEL 5
REMARK VINA RESULT:    -2.002      1.616      3.096
REMARK INTER + INTRA:          -2.864
REMARK INTER:                  -2.432
REMARK INTRA:                  -0.432
REMARK UNBOUND:                -0.394
REMARK SMILES C=CC[C@@H](C)C(=O)CC
REMARK SMILES IDX 4 1 5 2 6 3 7 4 8 5 9 6 3 7 2 8 1 9
REMARK H PARENT
REMARK Flexibility Score: inf
ROOT
ATOM      1  C   UNL     1      11.183  14.255   1.234  1.00  0.00     0.057 C 
ATOM      2  C   UNL     1      12.155  13.474   2.124  1.00  0.00     0.016 C 
ENDROOT
BRANCH   1   3
ATOM      3  C   UNL     1      10.934  15.627   1.827  1.00  0.00     0.135 C 
ATOM      4  O   UNL     1      11.880  16.356   2.089  1.00  0.00    -0.299 OA
BRANCH   3   5
ATOM      5  C   UNL     1       9.536  16.106   2.122  1.00  0.00     0.072 C 
ATOM      6  C   UNL     1       8.547  14.945   2.116  1.00  0.00     0.012 C 
ENDBRANCH   3   5
ENDBRANCH   1   3
BRANCH   1   7
ATOM      7  C   UNL     1      11.728  14.355  -0.203  1.00  0.00     0.038 C 
BRANCH   7   8
ATOM      8  C   UNL     1      10.856  13.603  -1.174  1.00  0.00    -0.034 C 
ATOM      9  C   UNL     1       9.523  13.640  -1.100  1.00  0.00     0.004 C 
ENDBRANCH   7   8
ENDBRANCH   1   7
TORSDOF 4
ENDMDL
MODEL 6
REMARK VINA RESULT:    -1.474      1.640      3.206
REMARK INTER + INTRA:          -2.213
REMARK INTER:                  -2.564
REMARK INTRA:                   0.350
REMARK UNBOUND:                -0.394
REMARK SMILES C=CC[C@@H](C)C(=O)CC
REMARK SMILES IDX 4 1 5 2 6 3 7 4 8 5 9 6 3 7 2 8 1 9
REMARK H PARENT
REMARK Flexibility Score: inf
ROOT
ATOM      1  C   UNL     1       9.245  14.692   1.868  1.00  0.00     0.057 C 
ATOM      2  C   UNL     1       7.771  14.360   2.125  1.00  0.00     0.016 C 
ENDROOT
BRANCH   1   3
ATOM      3  C   UNL     1       9.660  14.165   0.509  1.00  0.00     0.135 C 
ATOM      4  O   UNL     1       9.015  14.472  -0.483  1.00  0.00    -0.299 OA
BRANCH   3   5
ATOM      5  C   UNL     1      10.847  13.248   0.358  1.00  0.00     0.072 C 
ATOM      6  C   UNL     1      11.634  13.577  -0.907  1.00  0.00     0.012 C 
ENDBRANCH   3   5
ENDBRANCH   1   3
BRANCH   1   7
ATOM      7  C   UNL     1       9.484  16.209   1.979  1.00  0.00     0.038 C 
BRANCH   7   8
ATOM      8  C   UNL     1      10.946  16.546   1.844  1.00  0.00    -0.034 C 
ATOM      9  C   UNL     1      11.903  15.656   2.121  1.00  0.00     0.004 C 
ENDBRANCH   7   8
ENDBRANCH   1   7
TORSDOF 4
ENDMDL
MODEL 7
REMARK VINA RESULT:    -1.297      1.758      2.515
REMARK INTER + INTRA:          -1.994
REMARK INTER:                  -2.378
REMARK INTRA:                   0.383
REMARK UNBOUND:                -0.394
REMARK SMILES C=CC[C@@H](C)C(=O)CC
REMARK SMILES IDX 4 1 5 2 6 3 7 4 8 5 9 6 3 7 2 8 1 9
REMARK H PARENT
REMARK Flexibility Score: inf
ROOT
ATOM      1  C   UNL     1       9.596  14.835   1.129  1.00  0.00     0.057 C 
ATOM      2  C   UNL     1       8.461  14.418   2.071  1.00  0.00     0.016 C 
ENDROOT
BRANCH   1   3
ATOM      3  C   UNL     1      10.933  14.614   1.808  1.00  0.00     0.135 C 
ATOM      4  O   UNL     1      11.274  13.483   2.124  1.00  0.00    -0.299 OA
BRANCH   3   5
ATOM      5  C   UNL     1      11.847  15.770   2.123  1.00  0.00     0.072 C 
ATOM      6  C   UNL     1      11.161  17.103   1.840  1.00  0.00     0.012 C 
ENDBRANCH   3   5
ENDBRANCH   1   3
BRANCH   1   7
ATOM      7  C   UNL     1       9.507  14.060  -0.199  1.00  0.00     0.038 C 
BRANCH   7   8
ATOM      8  C   UNL     1      10.782  14.179  -0.990  1.00  0.00    -0.034 C 
ATOM      9  C   UNL     1      11.775  13.293  -0.868  1.00  0.00     0.004 C 
ENDBRANCH   7   8
ENDBRANCH   1   7
TORSDOF 4
ENDMDL
MODEL 8
REMARK VINA RESULT:    -1.282      1.608      3.165
REMARK INTER + INTRA:          -1.976
REMARK INTER:                  -1.769
REMARK INTRA:                  -0.207
REMARK UNBOUND:                -0.394
REMARK SMILES C=CC[C@@H](C)C(=O)CC
REMARK SMILES IDX 4 1 5 2 6 3 7 4 8 5 9 6 3 7 2 8 1 9
REMARK H PARENT
REMARK Flexibility Score: inf
ROOT
ATOM      1  C   UNL     1      10.171  14.054   0.015  1.00  0.00     0.057 C 
ATOM      2  C   UNL     1      10.111  14.856  -1.289  1.00  0.00     0.016 C 
ENDROOT
BRANCH   1   3
ATOM      3  C   UNL     1      11.545  13.435   0.175  1.00  0.00     0.135 C 
ATOM      4  O   UNL     1      12.294  13.365  -0.789  1.00  0.00    -0.299 OA
BRANCH   3   5
ATOM      5  C   UNL     1      12.002  12.883   1.500  1.00  0.00     0.072 C 
ATOM      6  C   UNL     1      13.071  13.774   2.125  1.00  0.00     0.012 C 
ENDBRANCH   3   5
ENDBRANCH   1   3
BRANCH   1   7
ATOM      7  C   UNL     1       9.816  14.951   1.216  1.00  0.00     0.038 C 
BRANCH   7   8
ATOM      8  C   UNL     1      10.555  16.262   1.159  1.00  0.00    -0.034 C 
ATOM      9  C   UNL     1      11.409  16.634   2.117  1.00  0.00     0.004 C 
ENDBRANCH   7   8
ENDBRANCH   1   7
TORSDOF 4
ENDMDL
MODEL 9
REMARK VINA RESULT:    -1.203      1.826      2.961
REMARK INTER + INTRA:          -1.878
REMARK INTER:                  -2.627
REMARK INTRA:                   0.749
REMARK UNBOUND:                -0.394
REMARK SMILES C=CC[C@@H](C)C(=O)CC
REMARK SMILES IDX 4 1 5 2 6 3 7 4 8 5 9 6 3 7 2 8 1 9
REMARK H PARENT
REMARK Flexibility Score: inf
ROOT
ATOM      1  C   UNL     1      10.751  13.575   0.494  1.00  0.00     0.057 C 
ATOM      2  C   UNL     1      11.422  13.722  -0.876  1.00  0.00     0.016 C 
ENDROOT
BRANCH   1   3
ATOM      3  C   UNL     1      11.602  14.241   1.556  1.00  0.00     0.135 C 
ATOM      4  O   UNL     1      12.602  13.675   1.975  1.00  0.00    -0.299 OA
BRANCH   3   5
ATOM      5  C   UNL     1      11.228  15.585   2.125  1.00  0.00     0.072 C 
ATOM      6  C   UNL     1      11.505  16.700   1.121  1.00  0.00     0.012 C 
ENDBRANCH   3   5
ENDBRANCH   1   3
BRANCH   1   7
ATOM      7  C   UNL     1       9.328  14.165   0.463  1.00  0.00     0.038 C 
BRANCH   7   8
ATOM      8  C   UNL     1       8.789  14.368   1.855  1.00  0.00    -0.034 C 
ATOM      9  C   UNL     1       7.481  14.308   2.121  1.00  0.00     0.004 C 
ENDBRANCH   7   8
ENDBRANCH   1   7
TORSDOF 4
ENDMDL
