MODEL 1
REMARK VINA RESULT:    -4.952      0.000      0.000
REMARK INTER + INTRA:         -16.725
REMARK INTER:                 -12.479
REMARK INTRA:                  -4.246
REMARK UNBOUND:                -4.246
REMARK SMILES CCCCCCCCCCCCCCCCCCCCCCCCCCCC(=O)[O-]
REMARK SMILES IDX 15 1 16 2 17 3 18 4 19 5 20 6 21 7 22 8 23 9 24 10 25 11
REMARK SMILES IDX 26 12 27 13 28 14 29 15 30 16 14 17 13 18 12 19 11 20 10 21
REMARK SMILES IDX 9 22 8 23 7 24 6 25 5 26 4 27 3 28 2 29 1 30
REMARK H PARENT
REMARK Flexibility Score: inf
ROOT
ATOM      1  C   UNL     1     -45.902 -48.366  31.865  1.00  0.00     0.000 C 
ENDROOT
BRANCH   1   2
ATOM      2  C   UNL     1     -46.919 -49.301  32.545  1.00  0.00     0.000 C 
BRANCH   2   3
ATOM      3  C   UNL     1     -46.268 -50.195  33.610  1.00  0.00     0.000 C 
BRANCH   3   4
ATOM      4  C   UNL     1     -46.206 -51.673  33.187  1.00  0.00     0.000 C 
BRANCH   4   5
ATOM      5  C   UNL     1     -45.005 -51.954  32.270  1.00  0.00     0.000 C 
BRANCH   5   6
ATOM      6  C   UNL     1     -43.686 -51.426  32.866  1.00  0.00     0.000 C 
BRANCH   6   7
ATOM      7  C   UNL     1     -42.700 -50.984  31.773  1.00  0.00     0.000 C 
BRANCH   7   8
ATOM      8  C   UNL     1     -43.166 -51.407  30.369  1.00  0.00     0.000 C 
BRANCH   8   9
ATOM      9  C   UNL     1     -42.058 -51.228  29.309  1.00  0.00     0.000 C 
BRANCH   9  10
ATOM     10  C   UNL     1     -41.313 -49.885  29.425  1.00  0.00     0.000 C 
BRANCH  10  11
ATOM     11  C   UNL     1     -40.655 -49.400  28.119  1.00  0.00     0.000 C 
BRANCH  11  12
ATOM     12  C   UNL     1     -40.367 -47.886  28.053  1.00  0.00     0.006 C 
BRANCH  12  13
ATOM     13  C   UNL     1     -39.560 -47.334  29.240  1.00  0.00     0.053 C 
BRANCH  13  14
ATOM     14  C   UNL     1     -38.083 -47.457  29.023  1.00  0.00     0.041 C 
ATOM     15  O   UNL     1     -37.321 -46.483  29.272  1.00  0.00    -0.550 OA
ATOM     16  O   UNL     1     -37.542 -48.655  28.570  1.00  0.00    -0.550 OA
ENDBRANCH  13  14
ENDBRANCH  12  13
ENDBRANCH  11  12
ENDBRANCH  10  11
ENDBRANCH   9  10
ENDBRANCH   8   9
ENDBRANCH   7   8
ENDBRANCH   6   7
ENDBRANCH   5   6
ENDBRANCH   4   5
ENDBRANCH   3   4
ENDBRANCH   2   3
ENDBRANCH   1   2
BRANCH   1  17
ATOM     17  C   UNL     1     -45.502 -48.844  30.460  1.00  0.00     0.000 C 
BRANCH  17  18
ATOM     18  C   UNL     1     -44.407 -47.962  29.828  1.00  0.00     0.000 C 
BRANCH  18  19
ATOM     19  C   UNL     1     -44.340 -48.099  28.297  1.00  0.00     0.000 C 
BRANCH  19  20
ATOM     20  C   UNL     1     -44.969 -49.388  27.738  1.00  0.00     0.000 C 
BRANCH  20  21
ATOM     21  C   UNL     1     -44.152 -50.032  26.597  1.00  0.00     0.000 C 
BRANCH  21  22
ATOM     22  C   UNL     1     -43.414 -48.984  25.746  1.00  0.00    -0.000 C 
BRANCH  22  23
ATOM     23  C   UNL     1     -44.117 -48.709  24.408  1.00  0.00    -0.000 C 
BRANCH  23  24
ATOM     24  C   UNL     1     -44.755 -47.310  24.355  1.00  0.00    -0.000 C 
BRANCH  24  25
ATOM     25  C   UNL     1     -46.203 -47.339  23.839  1.00  0.00    -0.000 C 
BRANCH  25  26
ATOM     26  C   UNL     1     -47.233 -47.512  24.971  1.00  0.00    -0.000 C 
BRANCH  26  27
ATOM     27  C   UNL     1     -47.612 -48.986  25.209  1.00  0.00    -0.000 C 
BRANCH  27  28
ATOM     28  C   UNL     1     -48.136 -49.722  23.964  1.00  0.00    -0.000 C 
BRANCH  28  29
ATOM     29  C   UNL     1     -49.637 -50.037  24.047  1.00  0.00    -0.003 C 
ATOM     30  C   UNL     1     -50.372 -49.543  22.804  1.00  0.00     0.004 C 
ENDBRANCH  28  29
ENDBRANCH  27  28
ENDBRANCH  26  27
ENDBRANCH  25  26
ENDBRANCH  24  25
ENDBRANCH  23  24
ENDBRANCH  22  23
ENDBRANCH  21  22
ENDBRANCH  20  21
ENDBRANCH  19  20
ENDBRANCH  18  19
ENDBRANCH  17  18
ENDBRANCH   1  17
TORSDOF 26
ENDMDL
MODEL 2
REMARK VINA RESULT:    -4.950      7.726     12.744
REMARK INTER + INTRA:         -16.719
REMARK INTER:                 -12.071
REMARK INTRA:                  -4.648
REMARK UNBOUND:                -4.246
REMARK SMILES CCCCCCCCCCCCCCCCCCCCCCCCCCCC(=O)[O-]
REMARK SMILES IDX 15 1 16 2 17 3 18 4 19 5 20 6 21 7 22 8 23 9 24 10 25 11
REMARK SMILES IDX 26 12 27 13 28 14 29 15 30 16 14 17 13 18 12 19 11 20 10 21
REMARK SMILES IDX 9 22 8 23 7 24 6 25 5 26 4 27 3 28 2 29 1 30
REMARK H PARENT
REMARK Flexibility Score: inf
ROOT
ATOM      1  C   UNL     1     -48.016 -51.404  16.364  1.00  0.00     0.000 C 
ENDROOT
BRANCH   1   2
ATOM      2  C   UNL     1     -48.459 -51.153  17.817  1.00  0.00     0.000 C 
BRANCH   2   3
ATOM      3  C   UNL     1     -49.930 -50.723  17.912  1.00  0.00     0.000 C 
BRANCH   3   4
ATOM      4  C   UNL     1     -50.446 -50.688  19.361  1.00  0.00     0.000 C 
BRANCH   4   5
ATOM      5  C   UNL     1     -51.420 -49.521  19.592  1.00  0.00     0.000 C 
BRANCH   5   6
ATOM      6  C   UNL     1     -51.893 -49.443  21.055  1.00  0.00     0.000 C 
BRANCH   6   7
ATOM      7  C   UNL     1     -50.809 -49.921  22.035  1.00  0.00     0.000 C 
BRANCH   7   8
ATOM      8  C   UNL     1     -50.929 -49.234  23.407  1.00  0.00     0.000 C 
BRANCH   8   9
ATOM      9  C   UNL     1     -52.303 -48.559  23.602  1.00  0.00     0.000 C 
BRANCH   9  10
ATOM     10  C   UNL     1     -52.225 -47.023  23.676  1.00  0.00     0.000 C 
BRANCH  10  11
ATOM     11  C   UNL     1     -53.063 -46.284  22.616  1.00  0.00     0.000 C 
BRANCH  11  12
ATOM     12  C   UNL     1     -54.543 -46.711  22.535  1.00  0.00     0.006 C 
BRANCH  12  13
ATOM     13  C   UNL     1     -55.138 -46.699  21.117  1.00  0.00     0.053 C 
BRANCH  13  14
ATOM     14  C   UNL     1     -55.425 -48.080  20.615  1.00  0.00     0.041 C 
ATOM     15  O   UNL     1     -54.964 -48.461  19.504  1.00  0.00    -0.550 OA
ATOM     16  O   UNL     1     -56.180 -48.960  21.382  1.00  0.00    -0.550 OA
ENDBRANCH  13  14
ENDBRANCH  12  13
ENDBRANCH  11  12
ENDBRANCH  10  11
ENDBRANCH   9  10
ENDBRANCH   8   9
ENDBRANCH   7   8
ENDBRANCH   6   7
ENDBRANCH   5   6
ENDBRANCH   4   5
ENDBRANCH   3   4
ENDBRANCH   2   3
ENDBRANCH   1   2
BRANCH   1  17
ATOM     17  C   UNL     1     -48.137 -50.151  15.482  1.00  0.00     0.000 C 
BRANCH  17  18
ATOM     18  C   UNL     1     -47.175 -49.028  15.919  1.00  0.00     0.000 C 
BRANCH  18  19
ATOM     19  C   UNL     1     -47.758 -47.622  15.696  1.00  0.00     0.000 C 
BRANCH  19  20
ATOM     20  C   UNL     1     -47.801 -46.736  16.954  1.00  0.00     0.000 C 
BRANCH  20  21
ATOM     21  C   UNL     1     -48.514 -47.396  18.154  1.00  0.00     0.000 C 
BRANCH  21  22
ATOM     22  C   UNL     1     -47.524 -47.853  19.239  1.00  0.00    -0.000 C 
BRANCH  22  23
ATOM     23  C   UNL     1     -48.181 -47.980  20.622  1.00  0.00    -0.000 C 
BRANCH  23  24
ATOM     24  C   UNL     1     -49.153 -46.826  20.920  1.00  0.00    -0.000 C 
BRANCH  24  25
ATOM     25  C   UNL     1     -49.037 -46.313  22.365  1.00  0.00    -0.000 C 
BRANCH  25  26
ATOM     26  C   UNL     1     -47.915 -47.011  23.154  1.00  0.00    -0.000 C 
BRANCH  26  27
ATOM     27  C   UNL     1     -48.118 -46.924  24.678  1.00  0.00    -0.000 C 
BRANCH  27  28
ATOM     28  C   UNL     1     -47.749 -48.203  25.450  1.00  0.00    -0.000 C 
BRANCH  28  29
ATOM     29  C   UNL     1     -46.669 -49.034  24.741  1.00  0.00    -0.003 C 
ATOM     30  C   UNL     1     -46.975 -50.526  24.832  1.00  0.00     0.004 C 
ENDBRANCH  28  29
ENDBRANCH  27  28
ENDBRANCH  26  27
ENDBRANCH  25  26
ENDBRANCH  24  25
ENDBRANCH  23  24
ENDBRANCH  22  23
ENDBRANCH  21  22
ENDBRANCH  20  21
ENDBRANCH  19  20
ENDBRANCH  18  19
ENDBRANCH  17  18
ENDBRANCH   1  17
TORSDOF 26
ENDMDL
MODEL 3
REMARK VINA RESULT:    -4.815      6.320     12.538
REMARK INTER + INTRA:         -16.378
REMARK INTER:                 -12.071
REMARK INTRA:                  -4.307
REMARK UNBOUND:                -4.246
REMARK SMILES CCCCCCCCCCCCCCCCCCCCCCCCCCCC(=O)[O-]
REMARK SMILES IDX 15 1 16 2 17 3 18 4 19 5 20 6 21 7 22 8 23 9 24 10 25 11
REMARK SMILES IDX 26 12 27 13 28 14 29 15 30 16 14 17 13 18 12 19 11 20 10 21
REMARK SMILES IDX 9 22 8 23 7 24 6 25 5 26 4 27 3 28 2 29 1 30
REMARK H PARENT
REMARK Flexibility Score: inf
ROOT
ATOM      1  C   UNL     1     -47.971 -47.798  19.084  1.00  0.00     0.000 C 
ENDROOT
BRANCH   1   2
ATOM      2  C   UNL     1     -48.128 -47.031  17.758  1.00  0.00     0.000 C 
BRANCH   2   3
ATOM      3  C   UNL     1     -47.589 -47.824  16.558  1.00  0.00     0.000 C 
BRANCH   3   4
ATOM      4  C   UNL     1     -47.214 -49.270  16.924  1.00  0.00     0.000 C 
BRANCH   4   5
ATOM      5  C   UNL     1     -47.765 -50.278  15.902  1.00  0.00     0.000 C 
BRANCH   5   6
ATOM      6  C   UNL     1     -48.728 -51.290  16.549  1.00  0.00     0.000 C 
BRANCH   6   7
ATOM      7  C   UNL     1     -48.525 -51.384  18.070  1.00  0.00     0.000 C 
BRANCH   7   8
ATOM      8  C   UNL     1     -49.829 -51.121  18.843  1.00  0.00     0.000 C 
BRANCH   8   9
ATOM      9  C   UNL     1     -50.882 -50.396  17.979  1.00  0.00     0.000 C 
BRANCH   9  10
ATOM     10  C   UNL     1     -52.212 -50.149  18.715  1.00  0.00     0.000 C 
BRANCH  10  11
ATOM     11  C   UNL     1     -52.105 -50.144  20.252  1.00  0.00     0.000 C 
BRANCH  11  12
ATOM     12  C   UNL     1     -52.672 -48.887  20.945  1.00  0.00     0.006 C 
BRANCH  12  13
ATOM     13  C   UNL     1     -53.932 -49.133  21.790  1.00  0.00     0.053 C 
BRANCH  13  14
ATOM     14  C   UNL     1     -55.052 -48.211  21.414  1.00  0.00     0.041 C 
ATOM     15  O   UNL     1     -56.192 -48.676  21.141  1.00  0.00    -0.550 OA
ATOM     16  O   UNL     1     -54.845 -46.837  21.390  1.00  0.00    -0.550 OA
ENDBRANCH  13  14
ENDBRANCH  12  13
ENDBRANCH  11  12
ENDBRANCH  10  11
ENDBRANCH   9  10
ENDBRANCH   8   9
ENDBRANCH   7   8
ENDBRANCH   6   7
ENDBRANCH   5   6
ENDBRANCH   4   5
ENDBRANCH   3   4
ENDBRANCH   2   3
ENDBRANCH   1   2
BRANCH   1  17
ATOM     17  C   UNL     1     -49.234 -47.739  19.958  1.00  0.00     0.000 C 
BRANCH  17  18
ATOM     18  C   UNL     1     -48.932 -48.007  21.446  1.00  0.00     0.000 C 
BRANCH  18  19
ATOM     19  C   UNL     1     -49.046 -49.495  21.819  1.00  0.00     0.000 C 
BRANCH  19  20
ATOM     20  C   UNL     1     -49.111 -49.777  23.331  1.00  0.00     0.000 C 
BRANCH  20  21
ATOM     21  C   UNL     1     -50.392 -49.242  24.008  1.00  0.00     0.000 C 
BRANCH  21  22
ATOM     22  C   UNL     1     -50.087 -48.169  25.066  1.00  0.00    -0.000 C 
BRANCH  22  23
ATOM     23  C   UNL     1     -48.600 -48.126  25.451  1.00  0.00    -0.000 C 
BRANCH  23  24
ATOM     24  C   UNL     1     -47.972 -46.740  25.222  1.00  0.00    -0.000 C 
BRANCH  24  25
ATOM     25  C   UNL     1     -46.453 -46.810  24.994  1.00  0.00    -0.000 C 
BRANCH  25  26
ATOM     26  C   UNL     1     -46.078 -47.608  23.732  1.00  0.00    -0.000 C 
BRANCH  26  27
ATOM     27  C   UNL     1     -44.690 -48.267  23.837  1.00  0.00    -0.000 C 
BRANCH  27  28
ATOM     28  C   UNL     1     -44.695 -49.682  24.441  1.00  0.00    -0.000 C 
BRANCH  28  29
ATOM     29  C   UNL     1     -43.934 -49.762  25.773  1.00  0.00    -0.003 C 
ATOM     30  C   UNL     1     -44.893 -49.694  26.959  1.00  0.00     0.004 C 
ENDBRANCH  28  29
ENDBRANCH  27  28
ENDBRANCH  26  27
ENDBRANCH  25  26
ENDBRANCH  24  25
ENDBRANCH  23  24
ENDBRANCH  22  23
ENDBRANCH  21  22
ENDBRANCH  20  21
ENDBRANCH  19  20
ENDBRANCH  18  19
ENDBRANCH  17  18
ENDBRANCH   1  17
TORSDOF 26
ENDMDL
MODEL 4
REMARK VINA RESULT:    -4.812      3.614      8.231
REMARK INTER + INTRA:         -16.371
REMARK INTER:                 -11.768
REMARK INTRA:                  -4.603
REMARK UNBOUND:                -4.246
REMARK SMILES CCCCCCCCCCCCCCCCCCCCCCCCCCCC(=O)[O-]
REMARK SMILES IDX 15 1 16 2 17 3 18 4 19 5 20 6 21 7 22 8 23 9 24 10 25 11
REMARK SMILES IDX 26 12 27 13 28 14 29 15 30 16 14 17 13 18 12 19 11 20 10 21
REMARK SMILES IDX 9 22 8 23 7 24 6 25 5 26 4 27 3 28 2 29 1 30
REMARK H PARENT
REMARK Flexibility Score: inf
ROOT
ATOM      1  C   UNL     1     -44.976 -48.477  29.549  1.00  0.00     0.000 C 
ENDROOT
BRANCH   1   2
ATOM      2  C   UNL     1     -44.085 -47.409  28.887  1.00  0.00     0.000 C 
BRANCH   2   3
ATOM      3  C   UNL     1     -44.869 -46.521  27.909  1.00  0.00     0.000 C 
BRANCH   3   4
ATOM      4  C   UNL     1     -43.994 -45.982  26.765  1.00  0.00     0.000 C 
BRANCH   4   5
ATOM      5  C   UNL     1     -42.549 -46.499  26.860  1.00  0.00     0.000 C 
BRANCH   5   6
ATOM      6  C   UNL     1     -42.051 -47.075  25.522  1.00  0.00     0.000 C 
BRANCH   6   7
ATOM      7  C   UNL     1     -42.040 -48.612  25.527  1.00  0.00     0.000 C 
BRANCH   7   8
ATOM      8  C   UNL     1     -43.319 -49.200  24.906  1.00  0.00     0.000 C 
BRANCH   8   9
ATOM      9  C   UNL     1     -43.954 -50.285  25.801  1.00  0.00     0.000 C 
BRANCH   9  10
ATOM     10  C   UNL     1     -45.352 -49.906  26.325  1.00  0.00     0.000 C 
BRANCH  10  11
ATOM     11  C   UNL     1     -46.226 -49.131  25.321  1.00  0.00     0.000 C 
BRANCH  11  12
ATOM     12  C   UNL     1     -47.375 -49.944  24.687  1.00  0.00     0.006 C 
BRANCH  12  13
ATOM     13  C   UNL     1     -48.503 -49.095  24.081  1.00  0.00     0.053 C 
BRANCH  13  14
ATOM     14  C   UNL     1     -49.721 -49.071  24.953  1.00  0.00     0.041 C 
ATOM     15  O   UNL     1     -50.492 -50.069  24.994  1.00  0.00    -0.550 OA
ATOM     16  O   UNL     1     -49.994 -47.959  25.741  1.00  0.00    -0.550 OA
ENDBRANCH  13  14
ENDBRANCH  12  13
ENDBRANCH  11  12
ENDBRANCH  10  11
ENDBRANCH   9  10
ENDBRANCH   8   9
ENDBRANCH   7   8
ENDBRANCH   6   7
ENDBRANCH   5   6
ENDBRANCH   4   5
ENDBRANCH   3   4
ENDBRANCH   2   3
ENDBRANCH   1   2
BRANCH   1  17
ATOM     17  C   UNL     1     -45.185 -48.227  31.052  1.00  0.00     0.000 C 
BRANCH  17  18
ATOM     18  C   UNL     1     -46.493 -48.853  31.575  1.00  0.00     0.000 C 
BRANCH  18  19
ATOM     19  C   UNL     1     -46.402 -49.279  33.051  1.00  0.00     0.000 C 
BRANCH  19  20
ATOM     20  C   UNL     1     -46.753 -50.754  33.318  1.00  0.00     0.000 C 
BRANCH  20  21
ATOM     21  C   UNL     1     -45.581 -51.727  33.060  1.00  0.00     0.000 C 
BRANCH  21  22
ATOM     22  C   UNL     1     -45.581 -52.267  31.619  1.00  0.00    -0.000 C 
BRANCH  22  23
ATOM     23  C   UNL     1     -44.337 -51.837  30.828  1.00  0.00    -0.000 C 
BRANCH  23  24
ATOM     24  C   UNL     1     -43.325 -51.068  31.695  1.00  0.00    -0.000 C 
BRANCH  24  25
ATOM     25  C   UNL     1     -42.017 -50.761  30.947  1.00  0.00    -0.000 C 
BRANCH  25  26
ATOM     26  C   UNL     1     -42.175 -50.843  29.417  1.00  0.00    -0.000 C 
BRANCH  26  27
ATOM     27  C   UNL     1     -41.295 -49.820  28.674  1.00  0.00    -0.000 C 
BRANCH  27  28
ATOM     28  C   UNL     1     -40.473 -48.896  29.588  1.00  0.00    -0.000 C 
BRANCH  28  29
ATOM     29  C   UNL     1     -39.905 -47.677  28.845  1.00  0.00    -0.003 C 
ATOM     30  C   UNL     1     -38.389 -47.780  28.699  1.00  0.00     0.004 C 
ENDBRANCH  28  29
ENDBRANCH  27  28
ENDBRANCH  26  27
ENDBRANCH  25  26
ENDBRANCH  24  25
ENDBRANCH  23  24
ENDBRANCH  22  23
ENDBRANCH  21  22
ENDBRANCH  20  21
ENDBRANCH  19  20
ENDBRANCH  18  19
ENDBRANCH  17  18
ENDBRANCH   1  17
TORSDOF 26
ENDMDL
MODEL 5
REMARK VINA RESULT:    -4.787      4.158      8.900
REMARK INTER + INTRA:         -16.309
REMARK INTER:                 -11.461
REMARK INTRA:                  -4.847
REMARK UNBOUND:                -4.246
REMARK SMILES CCCCCCCCCCCCCCCCCCCCCCCCCCCC(=O)[O-]
REMARK SMILES IDX 15 1 16 2 17 3 18 4 19 5 20 6 21 7 22 8 23 9 24 10 25 11
REMARK SMILES IDX 26 12 27 13 28 14 29 15 30 16 14 17 13 18 12 19 11 20 10 21
REMARK SMILES IDX 9 22 8 23 7 24 6 25 5 26 4 27 3 28 2 29 1 30
REMARK H PARENT
REMARK Flexibility Score: inf
ROOT
ATOM      1  C   UNL     1     -45.194 -48.977  27.797  1.00  0.00     0.000 C 
ENDROOT
BRANCH   1   2
ATOM      2  C   UNL     1     -44.369 -49.998  26.991  1.00  0.00     0.000 C 
BRANCH   2   3
ATOM      3  C   UNL     1     -44.781 -50.042  25.512  1.00  0.00     0.000 C 
BRANCH   3   4
ATOM      4  C   UNL     1     -43.827 -49.246  24.606  1.00  0.00     0.000 C 
BRANCH   4   5
ATOM      5  C   UNL     1     -44.478 -47.954  24.086  1.00  0.00     0.000 C 
BRANCH   5   6
ATOM      6  C   UNL     1     -45.997 -48.112  23.888  1.00  0.00     0.000 C 
BRANCH   6   7
ATOM      7  C   UNL     1     -46.793 -47.097  24.724  1.00  0.00     0.000 C 
BRANCH   7   8
ATOM      8  C   UNL     1     -47.878 -47.778  25.578  1.00  0.00     0.000 C 
BRANCH   8   9
ATOM      9  C   UNL     1     -48.220 -49.193  25.065  1.00  0.00     0.000 C 
BRANCH   9  10
ATOM     10  C   UNL     1     -49.732 -49.436  24.904  1.00  0.00     0.000 C 
BRANCH  10  11
ATOM     11  C   UNL     1     -50.367 -48.748  23.681  1.00  0.00     0.000 C 
BRANCH  11  12
ATOM     12  C   UNL     1     -50.496 -49.633  22.423  1.00  0.00     0.006 C 
BRANCH  12  13
ATOM     13  C   UNL     1     -49.279 -49.595  21.484  1.00  0.00     0.053 C 
BRANCH  13  14
ATOM     14  C   UNL     1     -49.681 -49.610  20.041  1.00  0.00     0.041 C 
ATOM     15  O   UNL     1     -50.640 -48.894  19.642  1.00  0.00    -0.550 OA
ATOM     16  O   UNL     1     -48.981 -50.392  19.130  1.00  0.00    -0.550 OA
ENDBRANCH  13  14
ENDBRANCH  12  13
ENDBRANCH  11  12
ENDBRANCH  10  11
ENDBRANCH   9  10
ENDBRANCH   8   9
ENDBRANCH   7   8
ENDBRANCH   6   7
ENDBRANCH   5   6
ENDBRANCH   4   5
ENDBRANCH   3   4
ENDBRANCH   2   3
ENDBRANCH   1   2
BRANCH   1  17
ATOM     17  C   UNL     1     -44.317 -47.925  28.496  1.00  0.00     0.000 C 
BRANCH  17  18
ATOM     18  C   UNL     1     -43.790 -46.855  27.519  1.00  0.00     0.000 C 
BRANCH  18  19
ATOM     19  C   UNL     1     -42.310 -46.509  27.755  1.00  0.00     0.000 C 
BRANCH  19  20
ATOM     20  C   UNL     1     -41.336 -47.108  26.723  1.00  0.00     0.000 C 
BRANCH  20  21
ATOM     21  C   UNL     1     -41.020 -48.601  26.962  1.00  0.00     0.000 C 
BRANCH  21  22
ATOM     22  C   UNL     1     -40.586 -48.878  28.412  1.00  0.00    -0.000 C 
BRANCH  22  23
ATOM     23  C   UNL     1     -41.383 -50.021  29.058  1.00  0.00    -0.000 C 
BRANCH  23  24
ATOM     24  C   UNL     1     -41.482 -49.880  30.587  1.00  0.00    -0.000 C 
BRANCH  24  25
ATOM     25  C   UNL     1     -42.860 -50.290  31.131  1.00  0.00    -0.000 C 
BRANCH  25  26
ATOM     26  C   UNL     1     -43.535 -51.380  30.278  1.00  0.00    -0.000 C 
BRANCH  26  27
ATOM     27  C   UNL     1     -44.992 -51.647  30.701  1.00  0.00    -0.000 C 
BRANCH  27  28
ATOM     28  C   UNL     1     -45.300 -51.336  32.176  1.00  0.00    -0.000 C 
BRANCH  28  29
ATOM     29  C   UNL     1     -46.599 -50.536  32.355  1.00  0.00    -0.003 C 
ATOM     30  C   UNL     1     -46.851 -49.622  31.160  1.00  0.00     0.004 C 
ENDBRANCH  28  29
ENDBRANCH  27  28
ENDBRANCH  26  27
ENDBRANCH  25  26
ENDBRANCH  24  25
ENDBRANCH  23  24
ENDBRANCH  22  23
ENDBRANCH  21  22
ENDBRANCH  20  21
ENDBRANCH  19  20
ENDBRANCH  18  19
ENDBRANCH  17  18
ENDBRANCH   1  17
TORSDOF 26
ENDMDL
MODEL 6
REMARK VINA RESULT:    -4.771      4.177      8.494
REMARK INTER + INTRA:         -16.269
REMARK INTER:                 -12.206
REMARK INTRA:                  -4.063
REMARK UNBOUND:                -4.246
REMARK SMILES CCCCCCCCCCCCCCCCCCCCCCCCCCCC(=O)[O-]
REMARK SMILES IDX 15 1 16 2 17 3 18 4 19 5 20 6 21 7 22 8 23 9 24 10 25 11
REMARK SMILES IDX 26 12 27 13 28 14 29 15 30 16 14 17 13 18 12 19 11 20 10 21
REMARK SMILES IDX 9 22 8 23 7 24 6 25 5 26 4 27 3 28 2 29 1 30
REMARK H PARENT
REMARK Flexibility Score: inf
ROOT
ATOM      1  C   UNL     1     -50.786 -46.286  23.662  1.00  0.00     0.000 C 
ENDROOT
BRANCH   1   2
ATOM      2  C   UNL     1     -51.288 -47.014  24.922  1.00  0.00     0.000 C 
BRANCH   2   3
ATOM      3  C   UNL     1     -50.233 -47.966  25.504  1.00  0.00     0.000 C 
BRANCH   3   4
ATOM      4  C   UNL     1     -50.113 -49.277  24.708  1.00  0.00     0.000 C 
BRANCH   4   5
ATOM      5  C   UNL     1     -48.673 -49.524  24.230  1.00  0.00     0.000 C 
BRANCH   5   6
ATOM      6  C   UNL     1     -48.411 -48.912  22.842  1.00  0.00     0.000 C 
BRANCH   6   7
ATOM      7  C   UNL     1     -47.488 -47.685  22.920  1.00  0.00     0.000 C 
BRANCH   7   8
ATOM      8  C   UNL     1     -46.425 -47.833  24.024  1.00  0.00     0.000 C 
BRANCH   8   9
ATOM      9  C   UNL     1     -45.006 -48.014  23.445  1.00  0.00     0.000 C 
BRANCH   9  10
ATOM     10  C   UNL     1     -44.184 -49.097  24.168  1.00  0.00     0.000 C 
BRANCH  10  11
ATOM     11  C   UNL     1     -45.008 -50.033  25.073  1.00  0.00     0.000 C 
BRANCH  11  12
ATOM     12  C   UNL     1     -44.567 -50.072  26.551  1.00  0.00     0.006 C 
BRANCH  12  13
ATOM     13  C   UNL     1     -45.072 -48.897  27.404  1.00  0.00     0.053 C 
BRANCH  13  14
ATOM     14  C   UNL     1     -44.697 -49.045  28.846  1.00  0.00     0.041 C 
ATOM     15  O   UNL     1     -44.393 -48.030  29.531  1.00  0.00    -0.550 OA
ATOM     16  O   UNL     1     -44.706 -50.299  29.445  1.00  0.00    -0.550 OA
ENDBRANCH  13  14
ENDBRANCH  12  13
ENDBRANCH  11  12
ENDBRANCH  10  11
ENDBRANCH   9  10
ENDBRANCH   8   9
ENDBRANCH   7   8
ENDBRANCH   6   7
ENDBRANCH   5   6
ENDBRANCH   4   5
ENDBRANCH   3   4
ENDBRANCH   2   3
ENDBRANCH   1   2
BRANCH   1  17
ATOM     17  C   UNL     1     -51.779 -46.371  22.491  1.00  0.00     0.000 C 
BRANCH  17  18
ATOM     18  C   UNL     1     -52.846 -47.463  22.703  1.00  0.00     0.000 C 
BRANCH  18  19
ATOM     19  C   UNL     1     -52.975 -48.413  21.500  1.00  0.00     0.000 C 
BRANCH  19  20
ATOM     20  C   UNL     1     -51.825 -49.426  21.353  1.00  0.00     0.000 C 
BRANCH  20  21
ATOM     21  C   UNL     1     -51.421 -49.698  19.887  1.00  0.00     0.000 C 
BRANCH  21  22
ATOM     22  C   UNL     1     -49.905 -49.559  19.667  1.00  0.00    -0.000 C 
BRANCH  22  23
ATOM     23  C   UNL     1     -49.485 -48.116  19.351  1.00  0.00    -0.000 C 
BRANCH  23  24
ATOM     24  C   UNL     1     -47.970 -47.981  19.117  1.00  0.00    -0.000 C 
BRANCH  24  25
ATOM     25  C   UNL     1     -47.378 -49.182  18.362  1.00  0.00    -0.000 C 
BRANCH  25  26
ATOM     26  C   UNL     1     -47.450 -49.015  16.832  1.00  0.00    -0.000 C 
BRANCH  26  27
ATOM     27  C   UNL     1     -47.572 -50.361  16.094  1.00  0.00    -0.000 C 
BRANCH  27  28
ATOM     28  C   UNL     1     -48.610 -51.329  16.689  1.00  0.00    -0.000 C 
BRANCH  28  29
ATOM     29  C   UNL     1     -50.039 -51.034  16.210  1.00  0.00    -0.003 C 
ATOM     30  C   UNL     1     -50.119 -51.027  14.686  1.00  0.00     0.004 C 
ENDBRANCH  28  29
ENDBRANCH  27  28
ENDBRANCH  26  27
ENDBRANCH  25  26
ENDBRANCH  24  25
ENDBRANCH  23  24
ENDBRANCH  22  23
ENDBRANCH  21  22
ENDBRANCH  20  21
ENDBRANCH  19  20
ENDBRANCH  18  19
ENDBRANCH  17  18
ENDBRANCH   1  17
TORSDOF 26
ENDMDL
MODEL 7
REMARK VINA RESULT:    -4.765      5.460     10.879
REMARK INTER + INTRA:         -16.254
REMARK INTER:                 -12.736
REMARK INTRA:                  -3.518
REMARK UNBOUND:                -4.246
REMARK SMILES CCCCCCCCCCCCCCCCCCCCCCCCCCCC(=O)[O-]
REMARK SMILES IDX 15 1 16 2 17 3 18 4 19 5 20 6 21 7 22 8 23 9 24 10 25 11
REMARK SMILES IDX 26 12 27 13 28 14 29 15 30 16 14 17 13 18 12 19 11 20 10 21
REMARK SMILES IDX 9 22 8 23 7 24 6 25 5 26 4 27 3 28 2 29 1 30
REMARK H PARENT
REMARK Flexibility Score: inf
ROOT
ATOM      1  C   UNL     1     -49.639 -50.066  24.616  1.00  0.00     0.000 C 
ENDROOT
BRANCH   1   2
ATOM      2  C   UNL     1     -50.537 -48.896  25.061  1.00  0.00     0.000 C 
BRANCH   2   3
ATOM      3  C   UNL     1     -51.879 -48.875  24.313  1.00  0.00     0.000 C 
BRANCH   3   4
ATOM      4  C   UNL     1     -52.395 -47.448  24.062  1.00  0.00     0.000 C 
BRANCH   4   5
ATOM      5  C   UNL     1     -53.039 -47.309  22.673  1.00  0.00     0.000 C 
BRANCH   5   6
ATOM      6  C   UNL     1     -53.543 -48.660  22.132  1.00  0.00     0.000 C 
BRANCH   6   7
ATOM      7  C   UNL     1     -53.047 -48.927  20.702  1.00  0.00     0.000 C 
BRANCH   7   8
ATOM      8  C   UNL     1     -52.192 -50.204  20.617  1.00  0.00     0.000 C 
BRANCH   8   9
ATOM      9  C   UNL     1     -50.745 -49.970  21.100  1.00  0.00     0.000 C 
BRANCH   9  10
ATOM     10  C   UNL     1     -50.157 -48.623  20.639  1.00  0.00     0.000 C 
BRANCH  10  11
ATOM     11  C   UNL     1     -49.647 -48.608  19.186  1.00  0.00     0.000 C 
BRANCH  11  12
ATOM     12  C   UNL     1     -48.929 -49.896  18.730  1.00  0.00     0.006 C 
BRANCH  12  13
ATOM     13  C   UNL     1     -48.447 -49.879  17.270  1.00  0.00     0.053 C 
BRANCH  13  14
ATOM     14  C   UNL     1     -49.063 -50.978  16.460  1.00  0.00     0.041 C 
ATOM     15  O   UNL     1     -48.360 -51.950  16.069  1.00  0.00    -0.550 OA
ATOM     16  O   UNL     1     -50.419 -50.945  16.157  1.00  0.00    -0.550 OA
ENDBRANCH  13  14
ENDBRANCH  12  13
ENDBRANCH  11  12
ENDBRANCH  10  11
ENDBRANCH   9  10
ENDBRANCH   8   9
ENDBRANCH   7   8
ENDBRANCH   6   7
ENDBRANCH   5   6
ENDBRANCH   4   5
ENDBRANCH   3   4
ENDBRANCH   2   3
ENDBRANCH   1   2
BRANCH   1  17
ATOM     17  C   UNL     1     -48.353 -49.595  23.918  1.00  0.00     0.000 C 
BRANCH  17  18
ATOM     18  C   UNL     1     -48.233 -48.058  23.881  1.00  0.00     0.000 C 
BRANCH  18  19
ATOM     19  C   UNL     1     -46.972 -47.576  23.142  1.00  0.00     0.000 C 
BRANCH  19  20
ATOM     20  C   UNL     1     -45.719 -47.443  24.026  1.00  0.00     0.000 C 
BRANCH  20  21
ATOM     21  C   UNL     1     -44.478 -48.165  23.456  1.00  0.00     0.000 C 
BRANCH  21  22
ATOM     22  C   UNL     1     -43.879 -49.169  24.457  1.00  0.00    -0.000 C 
BRANCH  22  23
ATOM     23  C   UNL     1     -44.941 -50.091  25.075  1.00  0.00    -0.000 C 
BRANCH  23  24
ATOM     24  C   UNL     1     -44.940 -50.043  26.613  1.00  0.00    -0.000 C 
BRANCH  24  25
ATOM     25  C   UNL     1     -43.916 -49.043  27.173  1.00  0.00    -0.000 C 
BRANCH  25  26
ATOM     26  C   UNL     1     -42.874 -49.711  28.089  1.00  0.00    -0.000 C 
BRANCH  26  27
ATOM     27  C   UNL     1     -41.823 -48.717  28.617  1.00  0.00    -0.000 C 
BRANCH  27  28
ATOM     28  C   UNL     1     -40.771 -48.283  27.582  1.00  0.00    -0.000 C 
BRANCH  28  29
ATOM     29  C   UNL     1     -40.922 -46.813  27.161  1.00  0.00    -0.003 C 
ATOM     30  C   UNL     1     -41.383 -46.701  25.711  1.00  0.00     0.004 C 
ENDBRANCH  28  29
ENDBRANCH  27  28
ENDBRANCH  26  27
ENDBRANCH  25  26
ENDBRANCH  24  25
ENDBRANCH  23  24
ENDBRANCH  22  23
ENDBRANCH  21  22
ENDBRANCH  20  21
ENDBRANCH  19  20
ENDBRANCH  18  19
ENDBRANCH  17  18
ENDBRANCH   1  17
TORSDOF 26
ENDMDL
MODEL 8
REMARK VINA RESULT:    -4.747      3.791      7.638
REMARK INTER + INTRA:         -16.207
REMARK INTER:                 -12.926
REMARK INTRA:                  -3.281
REMARK UNBOUND:                -4.246
REMARK SMILES CCCCCCCCCCCCCCCCCCCCCCCCCCCC(=O)[O-]
REMARK SMILES IDX 15 1 16 2 17 3 18 4 19 5 20 6 21 7 22 8 23 9 24 10 25 11
REMARK SMILES IDX 26 12 27 13 28 14 29 15 30 16 14 17 13 18 12 19 11 20 10 21
REMARK SMILES IDX 9 22 8 23 7 24 6 25 5 26 4 27 3 28 2 29 1 30
REMARK H PARENT
REMARK Flexibility Score: inf
ROOT
ATOM      1  C   UNL     1     -49.913 -50.047  23.946  1.00  0.00     0.000 C 
ENDROOT
BRANCH   1   2
ATOM      2  C   UNL     1     -48.536 -49.570  23.447  1.00  0.00     0.000 C 
BRANCH   2   3
ATOM      3  C   UNL     1     -48.631 -48.277  22.623  1.00  0.00     0.000 C 
BRANCH   3   4
ATOM      4  C   UNL     1     -47.349 -47.430  22.700  1.00  0.00     0.000 C 
BRANCH   4   5
ATOM      5  C   UNL     1     -47.033 -47.003  24.143  1.00  0.00     0.000 C 
BRANCH   5   6
ATOM      6  C   UNL     1     -45.531 -47.118  24.463  1.00  0.00     0.000 C 
BRANCH   6   7
ATOM      7  C   UNL     1     -44.797 -48.023  23.461  1.00  0.00     0.000 C 
BRANCH   7   8
ATOM      8  C   UNL     1     -43.912 -49.067  24.166  1.00  0.00     0.000 C 
BRANCH   8   9
ATOM      9  C   UNL     1     -43.568 -48.655  25.613  1.00  0.00     0.000 C 
BRANCH   9  10
ATOM     10  C   UNL     1     -42.054 -48.549  25.875  1.00  0.00     0.000 C 
BRANCH  10  11
ATOM     11  C   UNL     1     -41.634 -48.813  27.333  1.00  0.00     0.000 C 
BRANCH  11  12
ATOM     12  C   UNL     1     -41.409 -47.549  28.190  1.00  0.00     0.006 C 
BRANCH  12  13
ATOM     13  C   UNL     1     -40.026 -46.899  28.022  1.00  0.00     0.053 C 
BRANCH  13  14
ATOM     14  C   UNL     1     -39.163 -47.092  29.231  1.00  0.00     0.041 C 
ATOM     15  O   UNL     1     -38.343 -46.198  29.576  1.00  0.00    -0.550 OA
ATOM     16  O   UNL     1     -39.280 -48.248  29.995  1.00  0.00    -0.550 OA
ENDBRANCH  13  14
ENDBRANCH  12  13
ENDBRANCH  11  12
ENDBRANCH  10  11
ENDBRANCH   9  10
ENDBRANCH   8   9
ENDBRANCH   7   8
ENDBRANCH   6   7
ENDBRANCH   5   6
ENDBRANCH   4   5
ENDBRANCH   3   4
ENDBRANCH   2   3
ENDBRANCH   1   2
BRANCH   1  17
ATOM     17  C   UNL     1     -50.673 -48.958  24.721  1.00  0.00     0.000 C 
BRANCH  17  18
ATOM     18  C   UNL     1     -52.171 -48.916  24.358  1.00  0.00     0.000 C 
BRANCH  18  19
ATOM     19  C   UNL     1     -52.573 -47.620  23.634  1.00  0.00     0.000 C 
BRANCH  19  20
ATOM     20  C   UNL     1     -52.359 -47.641  22.109  1.00  0.00     0.000 C 
BRANCH  20  21
ATOM     21  C   UNL     1     -52.989 -48.866  21.411  1.00  0.00     0.000 C 
BRANCH  21  22
ATOM     22  C   UNL     1     -52.181 -49.311  20.179  1.00  0.00    -0.000 C 
BRANCH  22  23
ATOM     23  C   UNL     1     -51.020 -50.249  20.543  1.00  0.00    -0.000 C 
BRANCH  23  24
ATOM     24  C   UNL     1     -49.837 -50.127  19.567  1.00  0.00    -0.000 C 
BRANCH  24  25
ATOM     25  C   UNL     1     -49.539 -48.670  19.176  1.00  0.00    -0.000 C 
BRANCH  25  26
ATOM     26  C   UNL     1     -48.032 -48.396  19.012  1.00  0.00    -0.000 C 
BRANCH  26  27
ATOM     27  C   UNL     1     -47.324 -49.465  18.158  1.00  0.00    -0.000 C 
BRANCH  27  28
ATOM     28  C   UNL     1     -47.352 -49.197  16.643  1.00  0.00    -0.000 C 
BRANCH  28  29
ATOM     29  C   UNL     1     -47.784 -50.427  15.830  1.00  0.00    -0.003 C 
ATOM     30  C   UNL     1     -48.083 -51.612  16.744  1.00  0.00     0.004 C 
ENDBRANCH  28  29
ENDBRANCH  27  28
ENDBRANCH  26  27
ENDBRANCH  25  26
ENDBRANCH  24  25
ENDBRANCH  23  24
ENDBRANCH  22  23
ENDBRANCH  21  22
ENDBRANCH  20  21
ENDBRANCH  19  20
ENDBRANCH  18  19
ENDBRANCH  17  18
ENDBRANCH   1  17
TORSDOF 26
ENDMDL
MODEL 9
REMARK VINA RESULT:    -4.730      5.210     10.765
REMARK INTER + INTRA:         -16.166
REMARK INTER:                 -11.198
REMARK INTRA:                  -4.968
REMARK UNBOUND:                -4.246
REMARK SMILES CCCCCCCCCCCCCCCCCCCCCCCCCCCC(=O)[O-]
REMARK SMILES IDX 15 1 16 2 17 3 18 4 19 5 20 6 21 7 22 8 23 9 24 10 25 11
REMARK SMILES IDX 26 12 27 13 28 14 29 15 30 16 14 17 13 18 12 19 11 20 10 21
REMARK SMILES IDX 9 22 8 23 7 24 6 25 5 26 4 27 3 28 2 29 1 30
REMARK H PARENT
REMARK Flexibility Score: inf
ROOT
ATOM      1  C   UNL     1     -48.507 -49.663  23.821  1.00  0.00     0.000 C 
ENDROOT
BRANCH   1   2
ATOM      2  C   UNL     1     -49.017 -49.257  22.425  1.00  0.00     0.000 C 
BRANCH   2   3
ATOM      3  C   UNL     1     -48.288 -48.022  21.875  1.00  0.00     0.000 C 
BRANCH   3   4
ATOM      4  C   UNL     1     -49.006 -46.706  22.223  1.00  0.00     0.000 C 
BRANCH   4   5
ATOM      5  C   UNL     1     -50.492 -46.746  21.829  1.00  0.00     0.000 C 
BRANCH   5   6
ATOM      6  C   UNL     1     -51.418 -46.553  23.044  1.00  0.00     0.000 C 
BRANCH   6   7
ATOM      7  C   UNL     1     -52.794 -47.204  22.827  1.00  0.00     0.000 C 
BRANCH   7   8
ATOM      8  C   UNL     1     -52.691 -48.731  22.668  1.00  0.00     0.000 C 
BRANCH   8   9
ATOM      9  C   UNL     1     -53.191 -49.208  21.288  1.00  0.00     0.000 C 
BRANCH   9  10
ATOM     10  C   UNL     1     -52.243 -50.213  20.608  1.00  0.00     0.000 C 
BRANCH  10  11
ATOM     11  C   UNL     1     -51.799 -49.818  19.187  1.00  0.00     0.000 C 
BRANCH  11  12
ATOM     12  C   UNL     1     -50.362 -49.265  19.079  1.00  0.00     0.006 C 
BRANCH  12  13
ATOM     13  C   UNL     1     -49.293 -50.319  18.745  1.00  0.00     0.053 C 
BRANCH  13  14
ATOM     14  C   UNL     1     -49.011 -50.388  17.275  1.00  0.00     0.041 C 
ATOM     15  O   UNL     1     -47.972 -49.852  16.802  1.00  0.00    -0.550 OA
ATOM     16  O   UNL     1     -49.880 -51.067  16.429  1.00  0.00    -0.550 OA
ENDBRANCH  13  14
ENDBRANCH  12  13
ENDBRANCH  11  12
ENDBRANCH  10  11
ENDBRANCH   9  10
ENDBRANCH   8   9
ENDBRANCH   7   8
ENDBRANCH   6   7
ENDBRANCH   5   6
ENDBRANCH   4   5
ENDBRANCH   3   4
ENDBRANCH   2   3
ENDBRANCH   1   2
BRANCH   1  17
ATOM     17  C   UNL     1     -49.481 -49.273  24.945  1.00  0.00     0.000 C 
BRANCH  17  18
ATOM     18  C   UNL     1     -49.070 -47.968  25.653  1.00  0.00     0.000 C 
BRANCH  18  19
ATOM     19  C   UNL     1     -47.546 -47.835  25.822  1.00  0.00     0.000 C 
BRANCH  19  20
ATOM     20  C   UNL     1     -46.952 -46.518  25.290  1.00  0.00     0.000 C 
BRANCH  20  21
ATOM     21  C   UNL     1     -45.486 -46.645  24.818  1.00  0.00     0.000 C 
BRANCH  21  22
ATOM     22  C   UNL     1     -45.291 -47.816  23.839  1.00  0.00    -0.000 C 
BRANCH  22  23
ATOM     23  C   UNL     1     -44.074 -48.685  24.194  1.00  0.00    -0.000 C 
BRANCH  23  24
ATOM     24  C   UNL     1     -44.473 -50.099  24.650  1.00  0.00    -0.000 C 
BRANCH  24  25
ATOM     25  C   UNL     1     -44.963 -50.135  26.107  1.00  0.00    -0.000 C 
BRANCH  25  26
ATOM     26  C   UNL     1     -43.815 -49.998  27.123  1.00  0.00    -0.000 C 
BRANCH  26  27
ATOM     27  C   UNL     1     -43.946 -48.739  28.002  1.00  0.00    -0.000 C 
BRANCH  27  28
ATOM     28  C   UNL     1     -43.069 -47.554  27.562  1.00  0.00    -0.000 C 
BRANCH  28  29
ATOM     29  C   UNL     1     -41.681 -47.993  27.070  1.00  0.00    -0.003 C 
ATOM     30  C   UNL     1     -40.596 -47.041  27.566  1.00  0.00     0.004 C 
ENDBRANCH  28  29
ENDBRANCH  27  28
ENDBRANCH  26  27
ENDBRANCH  25  26
ENDBRANCH  24  25
ENDBRANCH  23  24
ENDBRANCH  22  23
ENDBRANCH  21  22
ENDBRANCH  20  21
ENDBRANCH  19  20
ENDBRANCH  18  19
ENDBRANCH  17  18
ENDBRANCH   1  17
TORSDOF 26
ENDMDL
