MODEL 1
REMARK VINA RESULT:    -8.117      0.000      0.000
REMARK INTER + INTRA:          -9.914
REMARK INTER:                  -9.778
REMARK INTRA:                  -0.136
REMARK UNBOUND:                -0.136
REMARK SMILES Oc1cc(O)c2cc(O)c(-c3ccc(O)c(O)c3)[o+]c2c1
REMARK SMILES IDX 10 1 19 2 20 3 21 4 2 5 3 6 4 7 6 8 7 9 8 10 11 11 12 12
REMARK SMILES IDX 13 13 14 14 18 15 16 16 15 17 17 19 9 21 1 23 5 25
REMARK H PARENT 15 18 17 20 9 22 1 24 5 26
REMARK Flexibility Score: inf
ROOT
ATOM      1  C   UNL     1     -10.298 -16.171  19.040  1.00  0.00     0.402 A 
ATOM      2  O   UNL     1     -10.750 -14.948  18.768  1.00  0.00    -0.202 OA
ATOM      3  C   UNL     1      -9.951 -13.917  18.509  1.00  0.00     0.368 A 
ATOM      4  C   UNL     1     -10.505 -12.663  18.238  1.00  0.00     0.162 A 
ATOM      5  C   UNL     1      -9.673 -11.568  17.968  1.00  0.00     0.128 A 
ATOM      6  C   UNL     1      -8.284 -11.731  17.969  1.00  0.00     0.093 A 
ATOM      7  C   UNL     1      -7.713 -12.984  18.239  1.00  0.00     0.136 A 
ATOM      8  C   UNL     1      -8.549 -14.084  18.510  1.00  0.00     0.125 A 
ATOM      9  C   UNL     1      -8.037 -15.358  18.779  1.00  0.00     0.078 A 
ATOM     10  C   UNL     1      -8.910 -16.419  19.036  1.00  0.00     0.223 A 
ENDROOT
BRANCH   1  11
ATOM     11  C   UNL     1     -11.287 -17.237  19.321  1.00  0.00     0.087 A 
ATOM     12  C   UNL     1     -11.354 -18.356  18.478  1.00  0.00     0.022 A 
ATOM     13  C   UNL     1     -12.293 -19.364  18.712  1.00  0.00     0.051 A 
ATOM     14  C   UNL     1     -13.188 -19.260  19.784  1.00  0.00     0.157 A 
ATOM     15  C   UNL     1     -12.201 -17.126  20.384  1.00  0.00     0.068 A 
ATOM     16  C   UNL     1     -13.145 -18.133  20.621  1.00  0.00     0.158 A 
BRANCH  14  17
ATOM     17  O   UNL     1     -14.122 -20.268  20.017  1.00  0.00    -0.504 OA
ATOM     18  H   UNL     1     -13.851 -21.245  20.057  1.00  0.00     0.293 HD
ENDBRANCH  14  17
BRANCH  16  19
ATOM     19  O   UNL     1     -14.032 -17.992  21.687  1.00  0.00    -0.504 OA
ATOM     20  H   UNL     1     -13.728 -18.050  22.652  1.00  0.00     0.293 HD
ENDBRANCH  16  19
ENDBRANCH   1  11
BRANCH  10  21
ATOM     21  O   UNL     1      -8.407 -17.701  19.254  1.00  0.00    -0.500 OA
ATOM     22  H   UNL     1      -8.889 -18.368  19.845  1.00  0.00     0.294 HD
ENDBRANCH  10  21
BRANCH   5  23
ATOM     23  O   UNL     1     -10.218 -10.314  17.696  1.00  0.00    -0.507 OA
ATOM     24  H   UNL     1     -10.858  -9.865  18.340  1.00  0.00     0.293 HD
ENDBRANCH   5  23
BRANCH   7  25
ATOM     25  O   UNL     1      -6.326 -13.133  18.235  1.00  0.00    -0.507 OA
ATOM     26  H   UNL     1      -5.779 -13.035  19.082  1.00  0.00     0.293 HD
ENDBRANCH   7  25
TORSDOF 6
ENDMDL
MODEL 2
REMARK VINA RESULT:    -6.165      5.801      8.400
REMARK INTER + INTRA:          -7.562
REMARK INTER:                  -7.847
REMARK INTRA:                   0.284
REMARK UNBOUND:                -0.136
REMARK SMILES Oc1cc(O)c2cc(O)c(-c3ccc(O)c(O)c3)[o+]c2c1
REMARK SMILES IDX 10 1 19 2 20 3 21 4 2 5 3 6 4 7 6 8 7 9 8 10 11 11 12 12
REMARK SMILES IDX 13 13 14 14 18 15 16 16 15 17 17 19 9 21 1 23 5 25
REMARK H PARENT 15 18 17 20 9 22 1 24 5 26
REMARK Flexibility Score: inf
ROOT
ATOM      1  C   UNL     1     -12.602 -18.202  24.056  1.00  0.00     0.402 A 
ATOM      2  O   UNL     1     -12.022 -18.712  25.142  1.00  0.00    -0.202 OA
ATOM      3  C   UNL     1     -12.184 -18.204  26.360  1.00  0.00     0.368 A 
ATOM      4  C   UNL     1     -11.536 -18.795  27.448  1.00  0.00     0.162 A 
ATOM      5  C   UNL     1     -11.696 -18.266  28.736  1.00  0.00     0.128 A 
ATOM      6  C   UNL     1     -12.507 -17.143  28.933  1.00  0.00     0.093 A 
ATOM      7  C   UNL     1     -13.164 -16.540  27.851  1.00  0.00     0.136 A 
ATOM      8  C   UNL     1     -13.003 -17.071  26.557  1.00  0.00     0.125 A 
ATOM      9  C   UNL     1     -13.640 -16.516  25.442  1.00  0.00     0.078 A 
ATOM     10  C   UNL     1     -13.453 -17.085  24.179  1.00  0.00     0.223 A 
ENDROOT
BRANCH   1  11
ATOM     11  C   UNL     1     -12.338 -18.852  22.752  1.00  0.00     0.087 A 
ATOM     12  C   UNL     1     -11.120 -19.518  22.547  1.00  0.00     0.022 A 
ATOM     13  C   UNL     1     -10.840 -20.120  21.317  1.00  0.00     0.051 A 
ATOM     14  C   UNL     1     -11.769 -20.053  20.270  1.00  0.00     0.157 A 
ATOM     15  C   UNL     1     -13.258 -18.768  21.692  1.00  0.00     0.068 A 
ATOM     16  C   UNL     1     -12.982 -19.369  20.458  1.00  0.00     0.158 A 
BRANCH  14  17
ATOM     17  O   UNL     1     -11.489 -20.657  19.046  1.00  0.00    -0.504 OA
ATOM     18  H   UNL     1     -12.224 -20.888  18.387  1.00  0.00     0.293 HD
ENDBRANCH  14  17
BRANCH  16  19
ATOM     19  O   UNL     1     -13.919 -19.271  19.432  1.00  0.00    -0.504 OA
ATOM     20  H   UNL     1     -14.765 -18.721  19.525  1.00  0.00     0.293 HD
ENDBRANCH  16  19
ENDBRANCH   1  11
BRANCH  10  21
ATOM     21  O   UNL     1     -14.125 -16.567  23.072  1.00  0.00    -0.500 OA
ATOM     22  H   UNL     1     -14.920 -15.948  23.174  1.00  0.00     0.294 HD
ENDBRANCH  10  21
BRANCH   5  23
ATOM     23  O   UNL     1     -11.053 -18.849  29.826  1.00  0.00    -0.507 OA
ATOM     24  H   UNL     1     -11.566 -19.374  30.525  1.00  0.00     0.293 HD
ENDBRANCH   5  23
BRANCH   7  25
ATOM     25  O   UNL     1     -13.971 -15.422  28.062  1.00  0.00    -0.507 OA
ATOM     26  H   UNL     1     -14.534 -15.024  27.320  1.00  0.00     0.293 HD
ENDBRANCH   7  25
TORSDOF 6
ENDMDL
MODEL 3
REMARK VINA RESULT:    -6.128      5.901      8.587
REMARK INTER + INTRA:          -7.518
REMARK INTER:                  -7.189
REMARK INTRA:                  -0.329
REMARK UNBOUND:                -0.136
REMARK SMILES Oc1cc(O)c2cc(O)c(-c3ccc(O)c(O)c3)[o+]c2c1
REMARK SMILES IDX 10 1 19 2 20 3 21 4 2 5 3 6 4 7 6 8 7 9 8 10 11 11 12 12
REMARK SMILES IDX 13 13 14 14 18 15 16 16 15 17 17 19 9 21 1 23 5 25
REMARK H PARENT 15 18 17 20 9 22 1 24 5 26
REMARK Flexibility Score: inf
ROOT
ATOM      1  C   UNL     1     -13.029 -17.689  25.250  1.00  0.00     0.402 A 
ATOM      2  O   UNL     1     -12.687 -16.438  25.552  1.00  0.00    -0.202 OA
ATOM      3  C   UNL     1     -12.850 -15.910  26.762  1.00  0.00     0.368 A 
ATOM      4  C   UNL     1     -12.470 -14.586  26.997  1.00  0.00     0.162 A 
ATOM      5  C   UNL     1     -12.640 -14.018  28.266  1.00  0.00     0.128 A 
ATOM      6  C   UNL     1     -13.192 -14.779  29.302  1.00  0.00     0.093 A 
ATOM      7  C   UNL     1     -13.578 -16.109  29.082  1.00  0.00     0.136 A 
ATOM      8  C   UNL     1     -13.406 -16.680  27.806  1.00  0.00     0.125 A 
ATOM      9  C   UNL     1     -13.766 -18.004  27.531  1.00  0.00     0.078 A 
ATOM     10  C   UNL     1     -13.569 -18.525  26.249  1.00  0.00     0.223 A 
ENDROOT
BRANCH   1  11
ATOM     11  C   UNL     1     -12.807 -18.161  23.864  1.00  0.00     0.087 A 
ATOM     12  C   UNL     1     -13.777 -17.902  22.884  1.00  0.00     0.022 A 
ATOM     13  C   UNL     1     -13.598 -18.355  21.574  1.00  0.00     0.051 A 
ATOM     14  C   UNL     1     -12.453 -19.085  21.229  1.00  0.00     0.157 A 
ATOM     15  C   UNL     1     -11.669 -18.911  23.519  1.00  0.00     0.068 A 
ATOM     16  C   UNL     1     -11.487 -19.368  22.208  1.00  0.00     0.158 A 
BRANCH  14  17
ATOM     17  O   UNL     1     -12.276 -19.532  19.921  1.00  0.00    -0.504 OA
ATOM     18  H   UNL     1     -12.935 -20.167  19.483  1.00  0.00     0.293 HD
ENDBRANCH  14  17
BRANCH  16  19
ATOM     19  O   UNL     1     -10.344 -20.104  21.900  1.00  0.00    -0.504 OA
ATOM     20  H   UNL     1      -9.572 -19.708  21.377  1.00  0.00     0.293 HD
ENDBRANCH  16  19
ENDBRANCH   1  11
BRANCH  10  21
ATOM     21  O   UNL     1     -13.877 -19.859  25.982  1.00  0.00    -0.500 OA
ATOM     22  H   UNL     1     -14.799 -20.239  26.164  1.00  0.00     0.294 HD
ENDBRANCH  10  21
BRANCH   5  23
ATOM     23  O   UNL     1     -12.264 -12.698  28.508  1.00  0.00    -0.507 OA
ATOM     24  H   UNL     1     -11.292 -12.436  28.616  1.00  0.00     0.293 HD
ENDBRANCH   5  23
BRANCH   7  25
ATOM     25  O   UNL     1     -14.125 -16.857  30.125  1.00  0.00    -0.507 OA
ATOM     26  H   UNL     1     -15.044 -16.655  30.499  1.00  0.00     0.293 HD
ENDBRANCH   7  25
TORSDOF 6
ENDMDL
MODEL 4
REMARK VINA RESULT:    -6.128      5.691      9.346
REMARK INTER + INTRA:          -7.518
REMARK INTER:                  -7.164
REMARK INTRA:                  -0.354
REMARK UNBOUND:                -0.136
REMARK SMILES Oc1cc(O)c2cc(O)c(-c3ccc(O)c(O)c3)[o+]c2c1
REMARK SMILES IDX 10 1 19 2 20 3 21 4 2 5 3 6 4 7 6 8 7 9 8 10 11 11 12 12
REMARK SMILES IDX 13 13 14 14 18 15 16 16 15 17 17 19 9 21 1 23 5 25
REMARK H PARENT 15 18 17 20 9 22 1 24 5 26
REMARK Flexibility Score: inf
ROOT
ATOM      1  C   UNL     1     -12.780 -18.370  24.828  1.00  0.00     0.402 A 
ATOM      2  O   UNL     1     -13.217 -19.349  25.619  1.00  0.00    -0.202 OA
ATOM      3  C   UNL     1     -13.200 -19.274  26.946  1.00  0.00     0.368 A 
ATOM      4  C   UNL     1     -13.672 -20.348  27.706  1.00  0.00     0.162 A 
ATOM      5  C   UNL     1     -13.656 -20.282  29.106  1.00  0.00     0.128 A 
ATOM      6  C   UNL     1     -13.165 -19.138  29.744  1.00  0.00     0.093 A 
ATOM      7  C   UNL     1     -12.689 -18.052  28.995  1.00  0.00     0.136 A 
ATOM      8  C   UNL     1     -12.706 -18.118  27.589  1.00  0.00     0.125 A 
ATOM      9  C   UNL     1     -12.250 -17.063  26.790  1.00  0.00     0.078 A 
ATOM     10  C   UNL     1     -12.294 -17.176  25.398  1.00  0.00     0.223 A 
ENDROOT
BRANCH   1  11
ATOM     11  C   UNL     1     -12.842 -18.575  23.362  1.00  0.00     0.087 A 
ATOM     12  C   UNL     1     -14.029 -18.282  22.674  1.00  0.00     0.022 A 
ATOM     13  C   UNL     1     -14.117 -18.486  21.294  1.00  0.00     0.051 A 
ATOM     14  C   UNL     1     -13.024 -19.000  20.585  1.00  0.00     0.157 A 
ATOM     15  C   UNL     1     -11.754 -19.110  22.651  1.00  0.00     0.068 A 
ATOM     16  C   UNL     1     -11.838 -19.318  21.268  1.00  0.00     0.158 A 
BRANCH  14  17
ATOM     17  O   UNL     1     -13.113 -19.200  19.209  1.00  0.00    -0.504 OA
ATOM     18  H   UNL     1     -13.248 -18.427  18.567  1.00  0.00     0.293 HD
ENDBRANCH  14  17
BRANCH  16  19
ATOM     19  O   UNL     1     -10.738 -19.845  20.594  1.00  0.00    -0.504 OA
ATOM     20  H   UNL     1     -10.690 -19.876  19.583  1.00  0.00     0.293 HD
ENDBRANCH  16  19
ENDBRANCH   1  11
BRANCH  10  21
ATOM     21  O   UNL     1     -11.890 -16.108  24.597  1.00  0.00    -0.500 OA
ATOM     22  H   UNL     1     -11.157 -16.211  23.905  1.00  0.00     0.294 HD
ENDBRANCH  10  21
BRANCH   5  23
ATOM     23  O   UNL     1     -14.124 -21.349  29.871  1.00  0.00    -0.507 OA
ATOM     24  H   UNL     1     -14.683 -22.088  29.462  1.00  0.00     0.293 HD
ENDBRANCH   5  23
BRANCH   7  25
ATOM     25  O   UNL     1     -12.205 -16.917  29.645  1.00  0.00    -0.507 OA
ATOM     26  H   UNL     1     -11.788 -16.149  29.133  1.00  0.00     0.293 HD
ENDBRANCH   7  25
TORSDOF 6
ENDMDL
MODEL 5
REMARK VINA RESULT:    -5.726      1.695      6.860
REMARK INTER + INTRA:          -7.033
REMARK INTER:                  -6.911
REMARK INTRA:                  -0.122
REMARK UNBOUND:                -0.136
REMARK SMILES Oc1cc(O)c2cc(O)c(-c3ccc(O)c(O)c3)[o+]c2c1
REMARK SMILES IDX 10 1 19 2 20 3 21 4 2 5 3 6 4 7 6 8 7 9 8 10 11 11 12 12
REMARK SMILES IDX 13 13 14 14 18 15 16 16 15 17 17 19 9 21 1 23 5 25
REMARK H PARENT 15 18 17 20 9 22 1 24 5 26
REMARK Flexibility Score: inf
ROOT
ATOM      1  C   UNL     1     -10.317 -15.598  19.161  1.00  0.00     0.402 A 
ATOM      2  O   UNL     1     -11.300 -15.865  20.019  1.00  0.00    -0.202 OA
ATOM      3  C   UNL     1     -11.651 -17.100  20.363  1.00  0.00     0.368 A 
ATOM      4  C   UNL     1     -12.699 -17.295  21.267  1.00  0.00     0.162 A 
ATOM      5  C   UNL     1     -13.081 -18.592  21.635  1.00  0.00     0.128 A 
ATOM      6  C   UNL     1     -12.411 -19.696  21.095  1.00  0.00     0.093 A 
ATOM      7  C   UNL     1     -11.358 -19.515  20.187  1.00  0.00     0.136 A 
ATOM      8  C   UNL     1     -10.974 -18.212  19.818  1.00  0.00     0.125 A 
ATOM      9  C   UNL     1      -9.926 -17.971  18.923  1.00  0.00     0.078 A 
ATOM     10  C   UNL     1      -9.580 -16.658  18.594  1.00  0.00     0.223 A 
ENDROOT
BRANCH   1  11
ATOM     11  C   UNL     1     -10.025 -14.180  18.849  1.00  0.00     0.087 A 
ATOM     12  C   UNL     1      -9.816 -13.272  19.899  1.00  0.00     0.022 A 
ATOM     13  C   UNL     1      -9.559 -11.925  19.629  1.00  0.00     0.051 A 
ATOM     14  C   UNL     1      -9.521 -11.464  18.306  1.00  0.00     0.157 A 
ATOM     15  C   UNL     1     -10.006 -13.710  17.525  1.00  0.00     0.068 A 
ATOM     16  C   UNL     1      -9.750 -12.361  17.250  1.00  0.00     0.158 A 
BRANCH  14  17
ATOM     17  O   UNL     1      -9.261 -10.121  18.040  1.00  0.00    -0.504 OA
ATOM     18  H   UNL     1      -9.942  -9.398  18.246  1.00  0.00     0.293 HD
ENDBRANCH  14  17
BRANCH  16  19
ATOM     19  O   UNL     1      -9.735 -11.931  15.924  1.00  0.00    -0.504 OA
ATOM     20  H   UNL     1      -8.950 -12.110  15.309  1.00  0.00     0.293 HD
ENDBRANCH  16  19
ENDBRANCH   1  11
BRANCH  10  21
ATOM     21  O   UNL     1      -8.503 -16.410  17.743  1.00  0.00    -0.500 OA
ATOM     22  H   UNL     1      -7.544 -16.516  18.053  1.00  0.00     0.294 HD
ENDBRANCH  10  21
BRANCH   5  23
ATOM     23  O   UNL     1     -14.125 -18.796  22.535  1.00  0.00    -0.507 OA
ATOM     24  H   UNL     1     -14.321 -18.134  23.277  1.00  0.00     0.293 HD
ENDBRANCH   5  23
BRANCH   7  25
ATOM     25  O   UNL     1     -10.697 -20.624  19.658  1.00  0.00    -0.507 OA
ATOM     26  H   UNL     1     -11.101 -21.178  18.912  1.00  0.00     0.293 HD
ENDBRANCH   7  25
TORSDOF 6
ENDMDL
MODEL 6
REMARK VINA RESULT:    -5.603      1.748      2.879
REMARK INTER + INTRA:          -6.885
REMARK INTER:                  -6.584
REMARK INTRA:                  -0.302
REMARK UNBOUND:                -0.136
REMARK SMILES Oc1cc(O)c2cc(O)c(-c3ccc(O)c(O)c3)[o+]c2c1
REMARK SMILES IDX 10 1 19 2 20 3 21 4 2 5 3 6 4 7 6 8 7 9 8 10 11 11 12 12
REMARK SMILES IDX 13 13 14 14 18 15 16 16 15 17 17 19 9 21 1 23 5 25
REMARK H PARENT 15 18 17 20 9 22 1 24 5 26
REMARK Flexibility Score: inf
ROOT
ATOM      1  C   UNL     1     -10.835 -16.797  19.566  1.00  0.00     0.402 A 
ATOM      2  O   UNL     1      -9.622 -16.435  19.151  1.00  0.00    -0.202 OA
ATOM      3  C   UNL     1      -9.242 -15.166  19.033  1.00  0.00     0.368 A 
ATOM      4  C   UNL     1      -7.952 -14.869  18.584  1.00  0.00     0.162 A 
ATOM      5  C   UNL     1      -7.540 -13.537  18.452  1.00  0.00     0.128 A 
ATOM      6  C   UNL     1      -8.424 -12.500  18.770  1.00  0.00     0.093 A 
ATOM      7  C   UNL     1      -9.721 -12.782  19.222  1.00  0.00     0.136 A 
ATOM      8  C   UNL     1     -10.134 -14.122  19.355  1.00  0.00     0.125 A 
ATOM      9  C   UNL     1     -11.413 -14.463  19.808  1.00  0.00     0.078 A 
ATOM     10  C   UNL     1     -11.772 -15.808  19.929  1.00  0.00     0.223 A 
ENDROOT
BRANCH   1  11
ATOM     11  C   UNL     1     -11.144 -18.243  19.648  1.00  0.00     0.087 A 
ATOM     12  C   UNL     1     -11.496 -18.940  18.483  1.00  0.00     0.022 A 
ATOM     13  C   UNL     1     -11.812 -20.300  18.539  1.00  0.00     0.051 A 
ATOM     14  C   UNL     1     -11.794 -20.980  19.764  1.00  0.00     0.157 A 
ATOM     15  C   UNL     1     -11.147 -18.923  20.879  1.00  0.00     0.068 A 
ATOM     16  C   UNL     1     -11.464 -20.285  20.940  1.00  0.00     0.158 A 
BRANCH  14  17
ATOM     17  O   UNL     1     -12.106 -22.337  19.817  1.00  0.00    -0.504 OA
ATOM     18  H   UNL     1     -12.404 -22.780  20.679  1.00  0.00     0.293 HD
ENDBRANCH  14  17
BRANCH  16  19
ATOM     19  O   UNL     1     -11.452 -20.929  22.177  1.00  0.00    -0.504 OA
ATOM     20  H   UNL     1     -12.144 -20.736  22.891  1.00  0.00     0.293 HD
ENDBRANCH  16  19
ENDBRANCH   1  11
BRANCH  10  21
ATOM     21  O   UNL     1     -13.027 -16.155  20.428  1.00  0.00    -0.500 OA
ATOM     22  H   UNL     1     -13.832 -15.550  20.312  1.00  0.00     0.294 HD
ENDBRANCH  10  21
BRANCH   5  23
ATOM     23  O   UNL     1      -6.256 -13.232  18.005  1.00  0.00    -0.507 OA
ATOM     24  H   UNL     1      -5.515 -13.922  18.015  1.00  0.00     0.293 HD
ENDBRANCH   5  23
BRANCH   7  25
ATOM     25  O   UNL     1     -10.591 -11.738  19.538  1.00  0.00    -0.507 OA
ATOM     26  H   UNL     1     -11.187 -11.772  20.356  1.00  0.00     0.293 HD
ENDBRANCH   7  25
TORSDOF 6
ENDMDL
MODEL 7
REMARK VINA RESULT:    -5.551      5.051      8.007
REMARK INTER + INTRA:          -6.822
REMARK INTER:                  -6.473
REMARK INTRA:                  -0.349
REMARK UNBOUND:                -0.136
REMARK SMILES Oc1cc(O)c2cc(O)c(-c3ccc(O)c(O)c3)[o+]c2c1
REMARK SMILES IDX 10 1 19 2 20 3 21 4 2 5 3 6 4 7 6 8 7 9 8 10 11 11 12 12
REMARK SMILES IDX 13 13 14 14 18 15 16 16 15 17 17 19 9 21 1 23 5 25
REMARK H PARENT 15 18 17 20 9 22 1 24 5 26
REMARK Flexibility Score: inf
ROOT
ATOM      1  C   UNL     1     -12.990 -18.529  24.668  1.00  0.00     0.402 A 
ATOM      2  O   UNL     1     -12.404 -19.313  23.764  1.00  0.00    -0.202 OA
ATOM      3  C   UNL     1     -12.342 -19.011  22.471  1.00  0.00     0.368 A 
ATOM      4  C   UNL     1     -11.713 -19.890  21.584  1.00  0.00     0.162 A 
ATOM      5  C   UNL     1     -11.644 -19.585  20.218  1.00  0.00     0.128 A 
ATOM      6  C   UNL     1     -12.207 -18.397  19.740  1.00  0.00     0.093 A 
ATOM      7  C   UNL     1     -12.841 -17.505  20.617  1.00  0.00     0.136 A 
ATOM      8  C   UNL     1     -12.909 -17.812  21.990  1.00  0.00     0.125 A 
ATOM      9  C   UNL     1     -13.522 -16.956  22.912  1.00  0.00     0.078 A 
ATOM     10  C   UNL     1     -13.558 -17.304  24.266  1.00  0.00     0.223 A 
ENDROOT
BRANCH   1  11
ATOM     11  C   UNL     1     -13.004 -18.978  26.079  1.00  0.00     0.087 A 
ATOM     12  C   UNL     1     -14.081 -19.744  26.550  1.00  0.00     0.022 A 
ATOM     13  C   UNL     1     -14.125 -20.161  27.883  1.00  0.00     0.051 A 
ATOM     14  C   UNL     1     -13.099 -19.806  28.768  1.00  0.00     0.157 A 
ATOM     15  C   UNL     1     -11.987 -18.606  26.976  1.00  0.00     0.068 A 
ATOM     16  C   UNL     1     -12.027 -19.020  28.313  1.00  0.00     0.158 A 
BRANCH  14  17
ATOM     17  O   UNL     1     -13.144 -20.226  30.096  1.00  0.00    -0.504 OA
ATOM     18  H   UNL     1     -13.522 -21.131  30.355  1.00  0.00     0.293 HD
ENDBRANCH  14  17
BRANCH  16  19
ATOM     19  O   UNL     1     -10.999 -18.637  29.173  1.00  0.00    -0.504 OA
ATOM     20  H   UNL     1     -10.447 -19.313  29.687  1.00  0.00     0.293 HD
ENDBRANCH  16  19
ENDBRANCH   1  11
BRANCH  10  21
ATOM     21  O   UNL     1     -14.122 -16.432  25.197  1.00  0.00    -0.500 OA
ATOM     22  H   UNL     1     -14.411 -16.748  26.115  1.00  0.00     0.294 HD
ENDBRANCH  10  21
BRANCH   5  23
ATOM     23  O   UNL     1     -11.019 -20.456  19.329  1.00  0.00    -0.507 OA
ATOM     24  H   UNL     1     -11.537 -20.928  18.597  1.00  0.00     0.293 HD
ENDBRANCH   5  23
BRANCH   7  25
ATOM     25  O   UNL     1     -13.396 -16.323  20.127  1.00  0.00    -0.507 OA
ATOM     26  H   UNL     1     -14.398 -16.196  20.056  1.00  0.00     0.293 HD
ENDBRANCH   7  25
TORSDOF 6
ENDMDL
