MODEL 1
REMARK VINA RESULT:    -6.379      0.000      0.000
REMARK INTER + INTRA:         -18.018
REMARK INTER:                 -16.075
REMARK INTRA:                  -1.943
REMARK UNBOUND:                -1.943
REMARK SMILES CCCCCCCCCCCCCCCCCCCCCCCCCCCC(=O)[O-]
REMARK SMILES IDX 15 1 16 2 17 3 18 4 19 5 20 6 21 7 22 8 23 9 24 10 25 11
REMARK SMILES IDX 26 12 27 13 28 14 29 15 30 16 14 17 13 18 12 19 11 20 10 21
REMARK SMILES IDX 9 22 8 23 7 24 6 25 5 26 4 27 3 28 2 29 1 30
REMARK H PARENT
REMARK Flexibility Score: inf
ROOT
ATOM      1  C   UNL     1     -11.998  10.784   5.683  1.00  0.00     0.000 C 
ENDROOT
BRANCH   1   2
ATOM      2  C   UNL     1     -10.857  11.687   5.170  1.00  0.00     0.000 C 
BRANCH   2   3
ATOM      3  C   UNL     1     -10.724  11.669   3.637  1.00  0.00     0.000 C 
BRANCH   3   4
ATOM      4  C   UNL     1      -9.733  12.724   3.109  1.00  0.00     0.000 C 
BRANCH   4   5
ATOM      5  C   UNL     1      -8.511  12.981   4.013  1.00  0.00     0.000 C 
BRANCH   5   6
ATOM      6  C   UNL     1      -7.147  12.913   3.299  1.00  0.00     0.000 C 
BRANCH   6   7
ATOM      7  C   UNL     1      -6.614  11.488   3.044  1.00  0.00     0.000 C 
BRANCH   7   8
ATOM      8  C   UNL     1      -5.126  11.274   3.375  1.00  0.00     0.000 C 
BRANCH   8   9
ATOM      9  C   UNL     1      -4.879  10.051   4.273  1.00  0.00     0.000 C 
BRANCH   9  10
ATOM     10  C   UNL     1      -4.280  10.428   5.641  1.00  0.00     0.000 C 
BRANCH  10  11
ATOM     11  C   UNL     1      -3.515   9.297   6.356  1.00  0.00     0.000 C 
BRANCH  11  12
ATOM     12  C   UNL     1      -3.871   9.093   7.841  1.00  0.00     0.006 C 
BRANCH  12  13
ATOM     13  C   UNL     1      -5.131   8.235   8.071  1.00  0.00     0.053 C 
BRANCH  13  14
ATOM     14  C   UNL     1      -5.027   6.882   7.434  1.00  0.00     0.041 C 
ATOM     15  O   UNL     1      -5.977   6.431   6.739  1.00  0.00    -0.550 OA
ATOM     16  O   UNL     1      -3.870   6.129   7.583  1.00  0.00    -0.550 OA
ENDBRANCH  13  14
ENDBRANCH  12  13
ENDBRANCH  11  12
ENDBRANCH  10  11
ENDBRANCH   9  10
ENDBRANCH   8   9
ENDBRANCH   7   8
ENDBRANCH   6   7
ENDBRANCH   5   6
ENDBRANCH   4   5
ENDBRANCH   3   4
ENDBRANCH   2   3
ENDBRANCH   1   2
BRANCH   1  17
ATOM     17  C   UNL     1     -12.010  10.595   7.213  1.00  0.00     0.000 C 
BRANCH  17  18
ATOM     18  C   UNL     1     -13.018  11.476   7.974  1.00  0.00     0.000 C 
BRANCH  18  19
ATOM     19  C   UNL     1     -12.396  12.650   8.760  1.00  0.00     0.000 C 
BRANCH  19  20
ATOM     20  C   UNL     1     -10.859  12.619   8.878  1.00  0.00     0.000 C 
BRANCH  20  21
ATOM     21  C   UNL     1     -10.238  13.836   9.588  1.00  0.00     0.000 C 
BRANCH  21  22
ATOM     22  C   UNL     1      -9.072  14.452   8.800  1.00  0.00    -0.000 C 
BRANCH  22  23
ATOM     23  C   UNL     1      -7.773  14.402   9.619  1.00  0.00    -0.000 C 
BRANCH  23  24
ATOM     24  C   UNL     1      -7.938  14.967  11.042  1.00  0.00    -0.000 C 
BRANCH  24  25
ATOM     25  C   UNL     1      -7.598  13.982  12.176  1.00  0.00    -0.000 C 
BRANCH  25  26
ATOM     26  C   UNL     1      -7.779  12.512  11.766  1.00  0.00    -0.000 C 
BRANCH  26  27
ATOM     27  C   UNL     1      -6.790  11.608  12.513  1.00  0.00    -0.000 C 
BRANCH  27  28
ATOM     28  C   UNL     1      -5.992  12.404  13.556  1.00  0.00    -0.000 C 
BRANCH  28  29
ATOM     29  C   UNL     1      -6.306  11.971  14.996  1.00  0.00    -0.003 C 
ATOM     30  C   UNL     1      -5.255  12.443  15.999  1.00  0.00     0.004 C 
ENDBRANCH  28  29
ENDBRANCH  27  28
ENDBRANCH  26  27
ENDBRANCH  25  26
ENDBRANCH  24  25
ENDBRANCH  23  24
ENDBRANCH  22  23
ENDBRANCH  21  22
ENDBRANCH  20  21
ENDBRANCH  19  20
ENDBRANCH  18  19
ENDBRANCH  17  18
ENDBRANCH   1  17
TORSDOF 26
ENDMDL
MODEL 2
REMARK VINA RESULT:    -6.376      2.092      7.277
REMARK INTER + INTRA:         -18.009
REMARK INTER:                 -15.843
REMARK INTRA:                  -2.167
REMARK UNBOUND:                -1.943
REMARK SMILES CCCCCCCCCCCCCCCCCCCCCCCCCCCC(=O)[O-]
REMARK SMILES IDX 15 1 16 2 17 3 18 4 19 5 20 6 21 7 22 8 23 9 24 10 25 11
REMARK SMILES IDX 26 12 27 13 28 14 29 15 30 16 14 17 13 18 12 19 11 20 10 21
REMARK SMILES IDX 9 22 8 23 7 24 6 25 5 26 4 27 3 28 2 29 1 30
REMARK H PARENT
REMARK Flexibility Score: inf
ROOT
ATOM      1  C   UNL     1      -9.982  12.565   4.508  1.00  0.00     0.000 C 
ENDROOT
BRANCH   1   2
ATOM      2  C   UNL     1     -11.108  11.518   4.636  1.00  0.00     0.000 C 
BRANCH   2   3
ATOM      3  C   UNL     1     -11.295  11.013   6.077  1.00  0.00     0.000 C 
BRANCH   3   4
ATOM      4  C   UNL     1     -12.671  11.379   6.667  1.00  0.00     0.000 C 
BRANCH   4   5
ATOM      5  C   UNL     1     -12.647  11.851   8.135  1.00  0.00     0.000 C 
BRANCH   5   6
ATOM      6  C   UNL     1     -11.250  12.199   8.683  1.00  0.00     0.000 C 
BRANCH   6   7
ATOM      7  C   UNL     1     -11.105  13.629   9.243  1.00  0.00     0.000 C 
BRANCH   7   8
ATOM      8  C   UNL     1      -9.735  14.291   9.009  1.00  0.00     0.000 C 
BRANCH   8   9
ATOM      9  C   UNL     1      -9.467  15.470   9.959  1.00  0.00     0.000 C 
BRANCH   9  10
ATOM     10  C   UNL     1      -8.167  15.299  10.767  1.00  0.00     0.000 C 
BRANCH  10  11
ATOM     11  C   UNL     1      -7.538  13.892  10.709  1.00  0.00     0.000 C 
BRANCH  11  12
ATOM     12  C   UNL     1      -7.892  12.960  11.883  1.00  0.00     0.006 C 
BRANCH  12  13
ATOM     13  C   UNL     1      -6.667  12.370  12.606  1.00  0.00     0.053 C 
BRANCH  13  14
ATOM     14  C   UNL     1      -6.553  10.886  12.426  1.00  0.00     0.041 C 
ATOM     15  O   UNL     1      -5.651  10.401  11.692  1.00  0.00    -0.550 OA
ATOM     16  O   UNL     1      -7.425  10.035  13.092  1.00  0.00    -0.550 OA
ENDBRANCH  13  14
ENDBRANCH  12  13
ENDBRANCH  11  12
ENDBRANCH  10  11
ENDBRANCH   9  10
ENDBRANCH   8   9
ENDBRANCH   7   8
ENDBRANCH   6   7
ENDBRANCH   5   6
ENDBRANCH   4   5
ENDBRANCH   3   4
ENDBRANCH   2   3
ENDBRANCH   1   2
BRANCH   1  17
ATOM     17  C   UNL     1      -9.907  13.243   3.126  1.00  0.00     0.000 C 
BRANCH  17  18
ATOM     18  C   UNL     1      -8.484  13.550   2.623  1.00  0.00     0.000 C 
BRANCH  18  19
ATOM     19  C   UNL     1      -7.356  12.786   3.348  1.00  0.00     0.000 C 
BRANCH  19  20
ATOM     20  C   UNL     1      -6.814  11.552   2.599  1.00  0.00     0.000 C 
BRANCH  20  21
ATOM     21  C   UNL     1      -5.801  10.704   3.390  1.00  0.00     0.000 C 
BRANCH  21  22
ATOM     22  C   UNL     1      -5.996   9.195   3.180  1.00  0.00    -0.000 C 
BRANCH  22  23
ATOM     23  C   UNL     1      -4.888   8.398   3.885  1.00  0.00    -0.000 C 
BRANCH  23  24
ATOM     24  C   UNL     1      -5.430   7.432   4.954  1.00  0.00    -0.000 C 
BRANCH  24  25
ATOM     25  C   UNL     1      -4.355   6.625   5.706  1.00  0.00    -0.000 C 
BRANCH  25  26
ATOM     26  C   UNL     1      -3.941   7.274   7.036  1.00  0.00    -0.000 C 
BRANCH  26  27
ATOM     27  C   UNL     1      -4.960   8.335   7.470  1.00  0.00    -0.000 C 
BRANCH  27  28
ATOM     28  C   UNL     1      -4.376   9.249   8.557  1.00  0.00    -0.000 C 
BRANCH  28  29
ATOM     29  C   UNL     1      -3.418  10.306   7.987  1.00  0.00    -0.003 C 
ATOM     30  C   UNL     1      -3.795  10.745   6.573  1.00  0.00     0.004 C 
ENDBRANCH  28  29
ENDBRANCH  27  28
ENDBRANCH  26  27
ENDBRANCH  25  26
ENDBRANCH  24  25
ENDBRANCH  23  24
ENDBRANCH  22  23
ENDBRANCH  21  22
ENDBRANCH  20  21
ENDBRANCH  19  20
ENDBRANCH  18  19
ENDBRANCH  17  18
ENDBRANCH   1  17
TORSDOF 26
ENDMDL
MODEL 3
REMARK VINA RESULT:    -6.352      1.564      2.574
REMARK INTER + INTRA:         -17.949
REMARK INTER:                 -15.450
REMARK INTRA:                  -2.499
REMARK UNBOUND:                -1.943
REMARK SMILES CCCCCCCCCCCCCCCCCCCCCCCCCCCC(=O)[O-]
REMARK SMILES IDX 15 1 16 2 17 3 18 4 19 5 20 6 21 7 22 8 23 9 24 10 25 11
REMARK SMILES IDX 26 12 27 13 28 14 29 15 30 16 14 17 13 18 12 19 11 20 10 21
REMARK SMILES IDX 9 22 8 23 7 24 6 25 5 26 4 27 3 28 2 29 1 30
REMARK H PARENT
REMARK Flexibility Score: inf
ROOT
ATOM      1  C   UNL     1     -12.163  10.602   7.718  1.00  0.00     0.000 C 
ENDROOT
BRANCH   1   2
ATOM      2  C   UNL     1     -11.960  10.380   6.205  1.00  0.00     0.000 C 
BRANCH   2   3
ATOM      3  C   UNL     1     -11.225  11.546   5.522  1.00  0.00     0.000 C 
BRANCH   3   4
ATOM      4  C   UNL     1     -10.875  11.255   4.050  1.00  0.00     0.000 C 
BRANCH   4   5
ATOM      5  C   UNL     1     -10.042  12.347   3.349  1.00  0.00     0.000 C 
BRANCH   5   6
ATOM      6  C   UNL     1      -9.184  13.216   4.290  1.00  0.00     0.000 C 
BRANCH   6   7
ATOM      7  C   UNL     1      -7.662  13.105   4.074  1.00  0.00     0.000 C 
BRANCH   7   8
ATOM      8  C   UNL     1      -7.223  12.109   2.985  1.00  0.00     0.000 C 
BRANCH   8   9
ATOM      9  C   UNL     1      -5.698  11.930   2.912  1.00  0.00     0.000 C 
BRANCH   9  10
ATOM     10  C   UNL     1      -5.190  10.776   3.796  1.00  0.00     0.000 C 
BRANCH  10  11
ATOM     11  C   UNL     1      -5.074   9.410   3.089  1.00  0.00     0.000 C 
BRANCH  11  12
ATOM     12  C   UNL     1      -5.134   8.179   4.013  1.00  0.00     0.006 C 
BRANCH  12  13
ATOM     13  C   UNL     1      -4.873   8.498   5.498  1.00  0.00     0.053 C 
BRANCH  13  14
ATOM     14  C   UNL     1      -3.534   8.010   5.962  1.00  0.00     0.041 C 
ATOM     15  O   UNL     1      -2.478   8.560   5.549  1.00  0.00    -0.550 OA
ATOM     16  O   UNL     1      -3.451   6.966   6.875  1.00  0.00    -0.550 OA
ENDBRANCH  13  14
ENDBRANCH  12  13
ENDBRANCH  11  12
ENDBRANCH  10  11
ENDBRANCH   9  10
ENDBRANCH   8   9
ENDBRANCH   7   8
ENDBRANCH   6   7
ENDBRANCH   5   6
ENDBRANCH   4   5
ENDBRANCH   3   4
ENDBRANCH   2   3
ENDBRANCH   1   2
BRANCH   1  17
ATOM     17  C   UNL     1     -13.029  11.830   8.062  1.00  0.00     0.000 C 
BRANCH  17  18
ATOM     18  C   UNL     1     -12.297  12.957   8.815  1.00  0.00     0.000 C 
BRANCH  18  19
ATOM     19  C   UNL     1     -10.835  12.645   9.198  1.00  0.00     0.000 C 
BRANCH  19  20
ATOM     20  C   UNL     1      -9.801  13.697   8.748  1.00  0.00     0.000 C 
BRANCH  20  21
ATOM     21  C   UNL     1      -9.564  14.844   9.747  1.00  0.00     0.000 C 
BRANCH  21  22
ATOM     22  C   UNL     1      -8.080  15.216   9.885  1.00  0.00    -0.000 C 
BRANCH  22  23
ATOM     23  C   UNL     1      -7.808  15.879  11.243  1.00  0.00    -0.000 C 
BRANCH  23  24
ATOM     24  C   UNL     1      -7.811  14.877  12.413  1.00  0.00    -0.000 C 
BRANCH  24  25
ATOM     25  C   UNL     1      -6.726  13.786  12.336  1.00  0.00    -0.000 C 
BRANCH  25  26
ATOM     26  C   UNL     1      -7.303  12.384  12.093  1.00  0.00    -0.000 C 
BRANCH  26  27
ATOM     27  C   UNL     1      -8.822  12.370  12.307  1.00  0.00    -0.000 C 
BRANCH  27  28
ATOM     28  C   UNL     1      -9.343  10.935  12.476  1.00  0.00    -0.000 C 
BRANCH  28  29
ATOM     29  C   UNL     1      -8.215   9.927  12.745  1.00  0.00    -0.003 C 
ATOM     30  C   UNL     1      -8.737   8.551  13.155  1.00  0.00     0.004 C 
ENDBRANCH  28  29
ENDBRANCH  27  28
ENDBRANCH  26  27
ENDBRANCH  25  26
ENDBRANCH  24  25
ENDBRANCH  23  24
ENDBRANCH  22  23
ENDBRANCH  21  22
ENDBRANCH  20  21
ENDBRANCH  19  20
ENDBRANCH  18  19
ENDBRANCH  17  18
ENDBRANCH   1  17
TORSDOF 26
ENDMDL
MODEL 4
REMARK VINA RESULT:    -6.340      2.863      7.441
REMARK INTER + INTRA:         -17.920
REMARK INTER:                 -15.678
REMARK INTRA:                  -2.242
REMARK UNBOUND:                -1.943
REMARK SMILES CCCCCCCCCCCCCCCCCCCCCCCCCCCC(=O)[O-]
REMARK SMILES IDX 15 1 16 2 17 3 18 4 19 5 20 6 21 7 22 8 23 9 24 10 25 11
REMARK SMILES IDX 26 12 27 13 28 14 29 15 30 16 14 17 13 18 12 19 11 20 10 21
REMARK SMILES IDX 9 22 8 23 7 24 6 25 5 26 4 27 3 28 2 29 1 30
REMARK H PARENT
REMARK Flexibility Score: inf
ROOT
ATOM      1  C   UNL     1     -11.908  10.564   5.624  1.00  0.00     0.000 C 
ENDROOT
BRANCH   1   2
ATOM      2  C   UNL     1     -12.061  10.609   7.159  1.00  0.00     0.000 C 
BRANCH   2   3
ATOM      3  C   UNL     1     -13.044  11.694   7.631  1.00  0.00     0.000 C 
BRANCH   3   4
ATOM      4  C   UNL     1     -12.472  12.569   8.763  1.00  0.00     0.000 C 
BRANCH   4   5
ATOM      5  C   UNL     1     -10.980  12.337   9.077  1.00  0.00     0.000 C 
BRANCH   5   6
ATOM      6  C   UNL     1     -10.049  13.510   8.714  1.00  0.00     0.000 C 
BRANCH   6   7
ATOM      7  C   UNL     1     -10.292  14.807   9.510  1.00  0.00     0.000 C 
BRANCH   7   8
ATOM      8  C   UNL     1      -9.021  15.566   9.934  1.00  0.00     0.000 C 
BRANCH   8   9
ATOM      9  C   UNL     1      -7.796  14.650  10.084  1.00  0.00     0.000 C 
BRANCH   9  10
ATOM     10  C   UNL     1      -7.593  14.159  11.530  1.00  0.00     0.000 C 
BRANCH  10  11
ATOM     11  C   UNL     1      -8.241  12.799  11.858  1.00  0.00     0.000 C 
BRANCH  11  12
ATOM     12  C   UNL     1      -7.630  12.047  13.055  1.00  0.00     0.006 C 
BRANCH  12  13
ATOM     13  C   UNL     1      -6.225  12.539  13.453  1.00  0.00     0.053 C 
BRANCH  13  14
ATOM     14  C   UNL     1      -6.110  12.819  14.922  1.00  0.00     0.041 C 
ATOM     15  O   UNL     1      -6.813  13.720  15.455  1.00  0.00    -0.550 OA
ATOM     16  O   UNL     1      -5.251  12.065  15.710  1.00  0.00    -0.550 OA
ENDBRANCH  13  14
ENDBRANCH  12  13
ENDBRANCH  11  12
ENDBRANCH  10  11
ENDBRANCH   9  10
ENDBRANCH   8   9
ENDBRANCH   7   8
ENDBRANCH   6   7
ENDBRANCH   5   6
ENDBRANCH   4   5
ENDBRANCH   3   4
ENDBRANCH   2   3
ENDBRANCH   1   2
BRANCH   1  17
ATOM     17  C   UNL     1     -10.946  11.627   5.057  1.00  0.00     0.000 C 
BRANCH  17  18
ATOM     18  C   UNL     1     -10.712  11.555   3.537  1.00  0.00     0.000 C 
BRANCH  18  19
ATOM     19  C   UNL     1      -9.715  12.592   2.979  1.00  0.00     0.000 C 
BRANCH  19  20
ATOM     20  C   UNL     1      -8.624  13.050   3.968  1.00  0.00     0.000 C 
BRANCH  20  21
ATOM     21  C   UNL     1      -7.191  12.622   3.598  1.00  0.00     0.000 C 
BRANCH  21  22
ATOM     22  C   UNL     1      -7.097  11.140   3.202  1.00  0.00    -0.000 C 
BRANCH  22  23
ATOM     23  C   UNL     1      -5.630  10.706   3.062  1.00  0.00    -0.000 C 
BRANCH  23  24
ATOM     24  C   UNL     1      -4.819  10.903   4.356  1.00  0.00    -0.000 C 
BRANCH  24  25
ATOM     25  C   UNL     1      -4.516   9.610   5.136  1.00  0.00    -0.000 C 
BRANCH  25  26
ATOM     26  C   UNL     1      -3.703   9.860   6.416  1.00  0.00    -0.000 C 
BRANCH  26  27
ATOM     27  C   UNL     1      -3.702   8.619   7.317  1.00  0.00    -0.000 C 
BRANCH  27  28
ATOM     28  C   UNL     1      -5.128   8.252   7.755  1.00  0.00    -0.000 C 
BRANCH  28  29
ATOM     29  C   UNL     1      -5.405   6.744   7.659  1.00  0.00    -0.003 C 
ATOM     30  C   UNL     1      -5.937   6.326   6.289  1.00  0.00     0.004 C 
ENDBRANCH  28  29
ENDBRANCH  27  28
ENDBRANCH  26  27
ENDBRANCH  25  26
ENDBRANCH  24  25
ENDBRANCH  23  24
ENDBRANCH  22  23
ENDBRANCH  21  22
ENDBRANCH  20  21
ENDBRANCH  19  20
ENDBRANCH  18  19
ENDBRANCH  17  18
ENDBRANCH   1  17
TORSDOF 26
ENDMDL
MODEL 5
REMARK VINA RESULT:    -6.295      1.387      3.355
REMARK INTER + INTRA:         -17.806
REMARK INTER:                 -15.990
REMARK INTRA:                  -1.815
REMARK UNBOUND:                -1.943
REMARK SMILES CCCCCCCCCCCCCCCCCCCCCCCCCCCC(=O)[O-]
REMARK SMILES IDX 15 1 16 2 17 3 18 4 19 5 20 6 21 7 22 8 23 9 24 10 25 11
REMARK SMILES IDX 26 12 27 13 28 14 29 15 30 16 14 17 13 18 12 19 11 20 10 21
REMARK SMILES IDX 9 22 8 23 7 24 6 25 5 26 4 27 3 28 2 29 1 30
REMARK H PARENT
REMARK Flexibility Score: inf
ROOT
ATOM      1  C   UNL     1      -9.717  12.135   3.166  1.00  0.00     0.000 C 
ENDROOT
BRANCH   1   2
ATOM      2  C   UNL     1      -8.406  11.357   2.928  1.00  0.00     0.000 C 
BRANCH   2   3
ATOM      3  C   UNL     1      -7.490  12.031   1.891  1.00  0.00     0.000 C 
BRANCH   3   4
ATOM      4  C   UNL     1      -6.016  12.077   2.334  1.00  0.00     0.000 C 
BRANCH   4   5
ATOM      5  C   UNL     1      -5.700  11.308   3.634  1.00  0.00     0.000 C 
BRANCH   5   6
ATOM      6  C   UNL     1      -5.071   9.916   3.430  1.00  0.00     0.000 C 
BRANCH   6   7
ATOM      7  C   UNL     1      -4.945   9.063   4.708  1.00  0.00     0.000 C 
BRANCH   7   8
ATOM      8  C   UNL     1      -4.053   9.660   5.811  1.00  0.00     0.000 C 
BRANCH   8   9
ATOM      9  C   UNL     1      -4.281   9.010   7.186  1.00  0.00     0.000 C 
BRANCH   9  10
ATOM     10  C   UNL     1      -3.482   7.706   7.369  1.00  0.00     0.000 C 
BRANCH  10  11
ATOM     11  C   UNL     1      -4.334   6.441   7.597  1.00  0.00     0.000 C 
BRANCH  11  12
ATOM     12  C   UNL     1      -5.858   6.645   7.505  1.00  0.00     0.006 C 
BRANCH  12  13
ATOM     13  C   UNL     1      -6.680   5.391   7.862  1.00  0.00     0.053 C 
BRANCH  13  14
ATOM     14  C   UNL     1      -6.796   4.436   6.712  1.00  0.00     0.041 C 
ATOM     15  O   UNL     1      -7.275   4.821   5.611  1.00  0.00    -0.550 OA
ATOM     16  O   UNL     1      -6.349   3.128   6.844  1.00  0.00    -0.550 OA
ENDBRANCH  13  14
ENDBRANCH  12  13
ENDBRANCH  11  12
ENDBRANCH  10  11
ENDBRANCH   9  10
ENDBRANCH   8   9
ENDBRANCH   7   8
ENDBRANCH   6   7
ENDBRANCH   5   6
ENDBRANCH   4   5
ENDBRANCH   3   4
ENDBRANCH   2   3
ENDBRANCH   1   2
BRANCH   1  17
ATOM     17  C   UNL     1     -10.844  11.292   3.792  1.00  0.00     0.000 C 
BRANCH  17  18
ATOM     18  C   UNL     1     -11.115  11.562   5.284  1.00  0.00     0.000 C 
BRANCH  18  19
ATOM     19  C   UNL     1     -11.982  10.501   5.994  1.00  0.00     0.000 C 
BRANCH  19  20
ATOM     20  C   UNL     1     -11.914  10.523   7.534  1.00  0.00     0.000 C 
BRANCH  20  21
ATOM     21  C   UNL     1     -13.000  11.371   8.221  1.00  0.00     0.000 C 
BRANCH  21  22
ATOM     22  C   UNL     1     -12.470  12.724   8.720  1.00  0.00    -0.000 C 
BRANCH  22  23
ATOM     23  C   UNL     1     -10.964  12.645   9.014  1.00  0.00    -0.000 C 
BRANCH  23  24
ATOM     24  C   UNL     1     -10.349  14.013   9.365  1.00  0.00    -0.000 C 
BRANCH  24  25
ATOM     25  C   UNL     1      -8.936  14.254   8.801  1.00  0.00    -0.000 C 
BRANCH  25  26
ATOM     26  C   UNL     1      -7.934  14.711   9.872  1.00  0.00    -0.000 C 
BRANCH  26  27
ATOM     27  C   UNL     1      -8.276  14.104  11.239  1.00  0.00    -0.000 C 
BRANCH  27  28
ATOM     28  C   UNL     1      -7.027  14.011  12.129  1.00  0.00    -0.000 C 
BRANCH  28  29
ATOM     29  C   UNL     1      -7.038  12.766  13.030  1.00  0.00    -0.003 C 
ATOM     30  C   UNL     1      -6.662  11.489  12.279  1.00  0.00     0.004 C 
ENDBRANCH  28  29
ENDBRANCH  27  28
ENDBRANCH  26  27
ENDBRANCH  25  26
ENDBRANCH  24  25
ENDBRANCH  23  24
ENDBRANCH  22  23
ENDBRANCH  21  22
ENDBRANCH  20  21
ENDBRANCH  19  20
ENDBRANCH  18  19
ENDBRANCH  17  18
ENDBRANCH   1  17
TORSDOF 26
ENDMDL
MODEL 6
REMARK VINA RESULT:    -6.258      3.431      8.745
REMARK INTER + INTRA:         -17.713
REMARK INTER:                 -14.116
REMARK INTRA:                  -3.597
REMARK UNBOUND:                -1.943
REMARK SMILES CCCCCCCCCCCCCCCCCCCCCCCCCCCC(=O)[O-]
REMARK SMILES IDX 15 1 16 2 17 3 18 4 19 5 20 6 21 7 22 8 23 9 24 10 25 11
REMARK SMILES IDX 26 12 27 13 28 14 29 15 30 16 14 17 13 18 12 19 11 20 10 21
REMARK SMILES IDX 9 22 8 23 7 24 6 25 5 26 4 27 3 28 2 29 1 30
REMARK H PARENT
REMARK Flexibility Score: inf
ROOT
ATOM      1  C   UNL     1     -10.071  12.535   4.975  1.00  0.00     0.000 C 
ENDROOT
BRANCH   1   2
ATOM      2  C   UNL     1     -10.857  11.427   4.244  1.00  0.00     0.000 C 
BRANCH   2   3
ATOM      3  C   UNL     1     -11.871  10.712   5.154  1.00  0.00     0.000 C 
BRANCH   3   4
ATOM      4  C   UNL     1     -11.611  10.961   6.652  1.00  0.00     0.000 C 
BRANCH   4   5
ATOM      5  C   UNL     1     -12.813  11.520   7.439  1.00  0.00     0.000 C 
BRANCH   5   6
ATOM      6  C   UNL     1     -12.449  12.479   8.589  1.00  0.00     0.000 C 
BRANCH   6   7
ATOM      7  C   UNL     1     -10.947  12.548   8.931  1.00  0.00     0.000 C 
BRANCH   7   8
ATOM      8  C   UNL     1     -10.443  13.925   9.400  1.00  0.00     0.000 C 
BRANCH   8   9
ATOM      9  C   UNL     1      -9.226  14.424   8.603  1.00  0.00     0.000 C 
BRANCH   9  10
ATOM     10  C   UNL     1      -7.924  14.399   9.426  1.00  0.00     0.000 C 
BRANCH  10  11
ATOM     11  C   UNL     1      -8.113  14.484  10.955  1.00  0.00     0.000 C 
BRANCH  11  12
ATOM     12  C   UNL     1      -7.537  13.303  11.759  1.00  0.00     0.006 C 
BRANCH  12  13
ATOM     13  C   UNL     1      -8.569  12.206  12.084  1.00  0.00     0.053 C 
BRANCH  13  14
ATOM     14  C   UNL     1      -8.592  11.854  13.541  1.00  0.00     0.041 C 
ATOM     15  O   UNL     1      -8.232  12.698  14.405  1.00  0.00    -0.550 OA
ATOM     16  O   UNL     1      -9.040  10.605  13.950  1.00  0.00    -0.550 OA
ENDBRANCH  13  14
ENDBRANCH  12  13
ENDBRANCH  11  12
ENDBRANCH  10  11
ENDBRANCH   9  10
ENDBRANCH   8   9
ENDBRANCH   7   8
ENDBRANCH   6   7
ENDBRANCH   5   6
ENDBRANCH   4   5
ENDBRANCH   3   4
ENDBRANCH   2   3
ENDBRANCH   1   2
BRANCH   1  17
ATOM     17  C   UNL     1      -9.151  13.364   4.058  1.00  0.00     0.000 C 
BRANCH  17  18
ATOM     18  C   UNL     1      -9.768  13.772   2.707  1.00  0.00     0.000 C 
BRANCH  18  19
ATOM     19  C   UNL     1      -8.981  14.847   1.928  1.00  0.00     0.000 C 
BRANCH  19  20
ATOM     20  C   UNL     1      -7.451  14.797   2.106  1.00  0.00     0.000 C 
BRANCH  20  21
ATOM     21  C   UNL     1      -6.638  15.140   0.844  1.00  0.00     0.000 C 
BRANCH  21  22
ATOM     22  C   UNL     1      -5.687  14.008   0.423  1.00  0.00    -0.000 C 
BRANCH  22  23
ATOM     23  C   UNL     1      -5.887  13.649  -1.057  1.00  0.00    -0.000 C 
BRANCH  23  24
ATOM     24  C   UNL     1      -6.560  12.278  -1.257  1.00  0.00    -0.000 C 
BRANCH  24  25
ATOM     25  C   UNL     1      -7.866  12.074  -0.465  1.00  0.00    -0.000 C 
BRANCH  25  26
ATOM     26  C   UNL     1      -7.998  10.658   0.116  1.00  0.00    -0.000 C 
BRANCH  26  27
ATOM     27  C   UNL     1      -8.410  10.706   1.593  1.00  0.00    -0.000 C 
BRANCH  27  28
ATOM     28  C   UNL     1      -7.410   9.940   2.471  1.00  0.00    -0.000 C 
BRANCH  28  29
ATOM     29  C   UNL     1      -6.006  10.564   2.448  1.00  0.00    -0.003 C 
ATOM     30  C   UNL     1      -5.886  11.783   3.362  1.00  0.00     0.004 C 
ENDBRANCH  28  29
ENDBRANCH  27  28
ENDBRANCH  26  27
ENDBRANCH  25  26
ENDBRANCH  24  25
ENDBRANCH  23  24
ENDBRANCH  22  23
ENDBRANCH  21  22
ENDBRANCH  20  21
ENDBRANCH  19  20
ENDBRANCH  18  19
ENDBRANCH  17  18
ENDBRANCH   1  17
TORSDOF 26
ENDMDL
MODEL 7
REMARK VINA RESULT:    -6.254      3.634      4.888
REMARK INTER + INTRA:         -17.704
REMARK INTER:                 -14.627
REMARK INTRA:                  -3.077
REMARK UNBOUND:                -1.943
REMARK SMILES CCCCCCCCCCCCCCCCCCCCCCCCCCCC(=O)[O-]
REMARK SMILES IDX 15 1 16 2 17 3 18 4 19 5 20 6 21 7 22 8 23 9 24 10 25 11
REMARK SMILES IDX 26 12 27 13 28 14 29 15 30 16 14 17 13 18 12 19 11 20 10 21
REMARK SMILES IDX 9 22 8 23 7 24 6 25 5 26 4 27 3 28 2 29 1 30
REMARK H PARENT
REMARK Flexibility Score: inf
ROOT
ATOM      1  C   UNL     1     -11.829  10.950   7.413  1.00  0.00     0.000 C 
ENDROOT
BRANCH   1   2
ATOM      2  C   UNL     1     -11.967  10.782   5.886  1.00  0.00     0.000 C 
BRANCH   2   3
ATOM      3  C   UNL     1     -10.853  11.497   5.102  1.00  0.00     0.000 C 
BRANCH   3   4
ATOM      4  C   UNL     1     -10.846  11.137   3.605  1.00  0.00     0.000 C 
BRANCH   4   5
ATOM      5  C   UNL     1     -10.819  12.343   2.644  1.00  0.00     0.000 C 
BRANCH   5   6
ATOM      6  C   UNL     1     -10.020  13.560   3.149  1.00  0.00     0.000 C 
BRANCH   6   7
ATOM      7  C   UNL     1      -9.053  14.178   2.120  1.00  0.00     0.000 C 
BRANCH   7   8
ATOM      8  C   UNL     1      -7.563  13.867   2.349  1.00  0.00     0.000 C 
BRANCH   8   9
ATOM      9  C   UNL     1      -7.330  12.814   3.446  1.00  0.00     0.000 C 
BRANCH   9  10
ATOM     10  C   UNL     1      -6.831  11.469   2.885  1.00  0.00     0.000 C 
BRANCH  10  11
ATOM     11  C   UNL     1      -6.971  11.303   1.359  1.00  0.00     0.000 C 
BRANCH  11  12
ATOM     12  C   UNL     1      -8.092  10.351   0.898  1.00  0.00     0.006 C 
BRANCH  12  13
ATOM     13  C   UNL     1      -8.728  10.740  -0.451  1.00  0.00     0.053 C 
BRANCH  13  14
ATOM     14  C   UNL     1      -9.997   9.991  -0.724  1.00  0.00     0.041 C 
ATOM     15  O   UNL     1     -10.033   9.104  -1.619  1.00  0.00    -0.550 OA
ATOM     16  O   UNL     1     -11.134  10.249   0.030  1.00  0.00    -0.550 OA
ENDBRANCH  13  14
ENDBRANCH  12  13
ENDBRANCH  11  12
ENDBRANCH  10  11
ENDBRANCH   9  10
ENDBRANCH   8   9
ENDBRANCH   7   8
ENDBRANCH   6   7
ENDBRANCH   5   6
ENDBRANCH   4   5
ENDBRANCH   3   4
ENDBRANCH   2   3
ENDBRANCH   1   2
BRANCH   1  17
ATOM     17  C   UNL     1     -10.894  12.099   7.838  1.00  0.00     0.000 C 
BRANCH  17  18
ATOM     18  C   UNL     1     -11.272  12.798   9.157  1.00  0.00     0.000 C 
BRANCH  18  19
ATOM     19  C   UNL     1     -10.391  14.010   9.530  1.00  0.00     0.000 C 
BRANCH  19  20
ATOM     20  C   UNL     1      -9.114  14.177   8.683  1.00  0.00     0.000 C 
BRANCH  20  21
ATOM     21  C   UNL     1      -7.915  14.791   9.428  1.00  0.00     0.000 C 
BRANCH  21  22
ATOM     22  C   UNL     1      -8.322  15.939  10.364  1.00  0.00    -0.000 C 
BRANCH  22  23
ATOM     23  C   UNL     1      -7.800  15.694  11.788  1.00  0.00    -0.000 C 
BRANCH  23  24
ATOM     24  C   UNL     1      -7.165  14.302  11.963  1.00  0.00    -0.000 C 
BRANCH  24  25
ATOM     25  C   UNL     1      -7.956  13.335  12.865  1.00  0.00    -0.000 C 
BRANCH  25  26
ATOM     26  C   UNL     1      -8.659  12.221  12.076  1.00  0.00    -0.000 C 
BRANCH  26  27
ATOM     27  C   UNL     1      -8.626  10.896  12.847  1.00  0.00    -0.000 C 
BRANCH  27  28
ATOM     28  C   UNL     1      -7.185  10.393  13.019  1.00  0.00    -0.000 C 
BRANCH  28  29
ATOM     29  C   UNL     1      -6.992   8.965  12.488  1.00  0.00    -0.003 C 
ATOM     30  C   UNL     1      -8.303   8.187  12.389  1.00  0.00     0.004 C 
ENDBRANCH  28  29
ENDBRANCH  27  28
ENDBRANCH  26  27
ENDBRANCH  25  26
ENDBRANCH  24  25
ENDBRANCH  23  24
ENDBRANCH  22  23
ENDBRANCH  21  22
ENDBRANCH  20  21
ENDBRANCH  19  20
ENDBRANCH  18  19
ENDBRANCH  17  18
ENDBRANCH   1  17
TORSDOF 26
ENDMDL
MODEL 8
REMARK VINA RESULT:    -6.215      2.307      5.240
REMARK INTER + INTRA:         -17.605
REMARK INTER:                 -15.432
REMARK INTRA:                  -2.172
REMARK UNBOUND:                -1.943
REMARK SMILES CCCCCCCCCCCCCCCCCCCCCCCCCCCC(=O)[O-]
REMARK SMILES IDX 15 1 16 2 17 3 18 4 19 5 20 6 21 7 22 8 23 9 24 10 25 11
REMARK SMILES IDX 26 12 27 13 28 14 29 15 30 16 14 17 13 18 12 19 11 20 10 21
REMARK SMILES IDX 9 22 8 23 7 24 6 25 5 26 4 27 3 28 2 29 1 30
REMARK H PARENT
REMARK Flexibility Score: inf
ROOT
ATOM      1  C   UNL     1      -7.363  11.850   2.823  1.00  0.00     0.000 C 
ENDROOT
BRANCH   1   2
ATOM      2  C   UNL     1      -5.878  11.448   2.708  1.00  0.00     0.000 C 
BRANCH   2   3
ATOM      3  C   UNL     1      -5.504  10.268   3.622  1.00  0.00     0.000 C 
BRANCH   3   4
ATOM      4  C   UNL     1      -4.490   9.307   2.974  1.00  0.00     0.000 C 
BRANCH   4   5
ATOM      5  C   UNL     1      -4.651   7.825   3.371  1.00  0.00     0.000 C 
BRANCH   5   6
ATOM      6  C   UNL     1      -3.630   7.313   4.406  1.00  0.00     0.000 C 
BRANCH   6   7
ATOM      7  C   UNL     1      -2.928   8.412   5.228  1.00  0.00     0.000 C 
BRANCH   7   8
ATOM      8  C   UNL     1      -3.565   8.719   6.595  1.00  0.00     0.000 C 
BRANCH   8   9
ATOM      9  C   UNL     1      -5.033   8.272   6.689  1.00  0.00     0.000 C 
BRANCH   9  10
ATOM     10  C   UNL     1      -5.319   7.423   7.942  1.00  0.00     0.000 C 
BRANCH  10  11
ATOM     11  C   UNL     1      -5.867   6.009   7.666  1.00  0.00     0.000 C 
BRANCH  11  12
ATOM     12  C   UNL     1      -4.810   4.950   7.299  1.00  0.00     0.006 C 
BRANCH  12  13
ATOM     13  C   UNL     1      -5.207   4.055   6.110  1.00  0.00     0.053 C 
BRANCH  13  14
ATOM     14  C   UNL     1      -6.129   2.943   6.511  1.00  0.00     0.041 C 
ATOM     15  O   UNL     1      -7.360   3.013   6.251  1.00  0.00    -0.550 OA
ATOM     16  O   UNL     1      -5.626   1.815   7.146  1.00  0.00    -0.550 OA
ENDBRANCH  13  14
ENDBRANCH  12  13
ENDBRANCH  11  12
ENDBRANCH  10  11
ENDBRANCH   9  10
ENDBRANCH   8   9
ENDBRANCH   7   8
ENDBRANCH   6   7
ENDBRANCH   5   6
ENDBRANCH   4   5
ENDBRANCH   3   4
ENDBRANCH   2   3
ENDBRANCH   1   2
BRANCH   1  17
ATOM     17  C   UNL     1      -7.603  13.155   3.608  1.00  0.00     0.000 C 
BRANCH  17  18
ATOM     18  C   UNL     1      -9.074  13.453   3.949  1.00  0.00     0.000 C 
BRANCH  18  19
ATOM     19  C   UNL     1     -10.110  12.750   3.047  1.00  0.00     0.000 C 
BRANCH  19  20
ATOM     20  C   UNL     1     -10.833  11.550   3.691  1.00  0.00     0.000 C 
BRANCH  20  21
ATOM     21  C   UNL     1     -10.809  11.527   5.230  1.00  0.00     0.000 C 
BRANCH  21  22
ATOM     22  C   UNL     1     -12.075  10.901   5.835  1.00  0.00    -0.000 C 
BRANCH  22  23
ATOM     23  C   UNL     1     -12.048  10.989   7.368  1.00  0.00    -0.000 C 
BRANCH  23  24
ATOM     24  C   UNL     1     -10.945  11.925   7.896  1.00  0.00    -0.000 C 
BRANCH  24  25
ATOM     25  C   UNL     1     -11.392  12.897   9.005  1.00  0.00    -0.000 C 
BRANCH  25  26
ATOM     26  C   UNL     1     -10.219  13.646   9.654  1.00  0.00    -0.000 C 
BRANCH  26  27
ATOM     27  C   UNL     1      -9.305  14.264   8.588  1.00  0.00    -0.000 C 
BRANCH  27  28
ATOM     28  C   UNL     1      -7.896  14.514   9.147  1.00  0.00    -0.000 C 
BRANCH  28  29
ATOM     29  C   UNL     1      -7.887  14.673  10.675  1.00  0.00    -0.003 C 
ATOM     30  C   UNL     1      -7.680  16.120  11.118  1.00  0.00     0.004 C 
ENDBRANCH  28  29
ENDBRANCH  27  28
ENDBRANCH  26  27
ENDBRANCH  25  26
ENDBRANCH  24  25
ENDBRANCH  23  24
ENDBRANCH  22  23
ENDBRANCH  21  22
ENDBRANCH  20  21
ENDBRANCH  19  20
ENDBRANCH  18  19
ENDBRANCH  17  18
ENDBRANCH   1  17
TORSDOF 26
ENDMDL
MODEL 9
REMARK VINA RESULT:    -6.210      2.417      7.781
REMARK INTER + INTRA:         -17.591
REMARK INTER:                 -14.693
REMARK INTRA:                  -2.898
REMARK UNBOUND:                -1.943
REMARK SMILES CCCCCCCCCCCCCCCCCCCCCCCCCCCC(=O)[O-]
REMARK SMILES IDX 15 1 16 2 17 3 18 4 19 5 20 6 21 7 22 8 23 9 24 10 25 11
REMARK SMILES IDX 26 12 27 13 28 14 29 15 30 16 14 17 13 18 12 19 11 20 10 21
REMARK SMILES IDX 9 22 8 23 7 24 6 25 5 26 4 27 3 28 2 29 1 30
REMARK H PARENT
REMARK Flexibility Score: inf
ROOT
ATOM      1  C   UNL     1      -9.918  12.503   4.986  1.00  0.00     0.000 C 
ENDROOT
BRANCH   1   2
ATOM      2  C   UNL     1     -10.803  11.527   4.183  1.00  0.00     0.000 C 
BRANCH   2   3
ATOM      3  C   UNL     1     -11.729  10.685   5.078  1.00  0.00     0.000 C 
BRANCH   3   4
ATOM      4  C   UNL     1     -11.562  10.998   6.577  1.00  0.00     0.000 C 
BRANCH   4   5
ATOM      5  C   UNL     1     -12.857  11.412   7.305  1.00  0.00     0.000 C 
BRANCH   5   6
ATOM      6  C   UNL     1     -12.647  12.274   8.566  1.00  0.00     0.000 C 
BRANCH   6   7
ATOM      7  C   UNL     1     -11.178  12.453   8.997  1.00  0.00     0.000 C 
BRANCH   7   8
ATOM      8  C   UNL     1     -10.757  13.901   9.308  1.00  0.00     0.000 C 
BRANCH   8   9
ATOM      9  C   UNL     1      -9.258  14.155   9.076  1.00  0.00     0.000 C 
BRANCH   9  10
ATOM     10  C   UNL     1      -8.730  15.369   9.863  1.00  0.00     0.000 C 
BRANCH  10  11
ATOM     11  C   UNL     1      -7.607  15.058  10.872  1.00  0.00     0.000 C 
BRANCH  11  12
ATOM     12  C   UNL     1      -8.019  14.187  12.074  1.00  0.00     0.006 C 
BRANCH  12  13
ATOM     13  C   UNL     1      -7.158  12.923  12.257  1.00  0.00     0.053 C 
BRANCH  13  14
ATOM     14  C   UNL     1      -7.982  11.672  12.320  1.00  0.00     0.041 C 
ATOM     15  O   UNL     1      -7.467  10.590  12.712  1.00  0.00    -0.550 OA
ATOM     16  O   UNL     1      -9.327  11.705  11.974  1.00  0.00    -0.550 OA
ENDBRANCH  13  14
ENDBRANCH  12  13
ENDBRANCH  11  12
ENDBRANCH  10  11
ENDBRANCH   9  10
ENDBRANCH   8   9
ENDBRANCH   7   8
ENDBRANCH   6   7
ENDBRANCH   5   6
ENDBRANCH   4   5
ENDBRANCH   3   4
ENDBRANCH   2   3
ENDBRANCH   1   2
BRANCH   1  17
ATOM     17  C   UNL     1      -9.022  13.402   4.113  1.00  0.00     0.000 C 
BRANCH  17  18
ATOM     18  C   UNL     1      -9.680  13.931   2.825  1.00  0.00     0.000 C 
BRANCH  18  19
ATOM     19  C   UNL     1      -8.765  14.794   1.930  1.00  0.00     0.000 C 
BRANCH  19  20
ATOM     20  C   UNL     1      -7.435  14.132   1.520  1.00  0.00     0.000 C 
BRANCH  20  21
ATOM     21  C   UNL     1      -7.542  13.120   0.364  1.00  0.00     0.000 C 
BRANCH  21  22
ATOM     22  C   UNL     1      -6.962  11.743   0.724  1.00  0.00    -0.000 C 
BRANCH  22  23
ATOM     23  C   UNL     1      -7.998  10.894   1.476  1.00  0.00    -0.000 C 
BRANCH  23  24
ATOM     24  C   UNL     1      -7.471  10.351   2.817  1.00  0.00    -0.000 C 
BRANCH  24  25
ATOM     25  C   UNL     1      -5.985  10.648   3.099  1.00  0.00    -0.000 C 
BRANCH  25  26
ATOM     26  C   UNL     1      -5.083   9.421   2.906  1.00  0.00    -0.000 C 
BRANCH  26  27
ATOM     27  C   UNL     1      -4.246   9.150   4.164  1.00  0.00    -0.000 C 
BRANCH  27  28
ATOM     28  C   UNL     1      -5.056   8.364   5.206  1.00  0.00    -0.000 C 
BRANCH  28  29
ATOM     29  C   UNL     1      -4.550   8.593   6.639  1.00  0.00    -0.003 C 
ATOM     30  C   UNL     1      -5.306   7.760   7.673  1.00  0.00     0.004 C 
ENDBRANCH  28  29
ENDBRANCH  27  28
ENDBRANCH  26  27
ENDBRANCH  25  26
ENDBRANCH  24  25
ENDBRANCH  23  24
ENDBRANCH  22  23
ENDBRANCH  21  22
ENDBRANCH  20  21
ENDBRANCH  19  20
ENDBRANCH  18  19
ENDBRANCH  17  18
ENDBRANCH   1  17
TORSDOF 26
ENDMDL
