MODEL 1
REMARK VINA RESULT:    -3.070      0.000      0.000
REMARK INTER + INTRA:          -3.458
REMARK INTER:                  -3.429
REMARK INTRA:                  -0.029
REMARK UNBOUND:                -0.029
REMARK SMILES CCCC(=O)[O-]
REMARK SMILES IDX 3 1 4 2 5 3 6 4 2 5 1 6
REMARK H PARENT
REMARK Flexibility Score: inf
ROOT
ATOM      1  C   UNL     1       2.688  42.926  70.121  1.00  0.00     0.052 C 
ENDROOT
BRANCH   1   2
ATOM      2  C   UNL     1       3.675  43.453  71.116  1.00  0.00     0.041 C 
ATOM      3  O   UNL     1       3.298  44.232  72.031  1.00  0.00    -0.550 OA
ATOM      4  O   UNL     1       5.001  43.045  71.061  1.00  0.00    -0.550 OA
ENDBRANCH   1   2
BRANCH   1   5
ATOM      5  C   UNL     1       2.711  43.773  68.846  1.00  0.00     0.003 C 
ATOM      6  C   UNL     1       3.160  42.947  67.645  1.00  0.00     0.004 C 
ENDBRANCH   1   5
TORSDOF 2
ENDMDL
MODEL 2
REMARK VINA RESULT:    -2.932     10.659     11.272
REMARK INTER + INTRA:          -3.304
REMARK INTER:                  -3.283
REMARK INTRA:                  -0.021
REMARK UNBOUND:                -0.029
REMARK SMILES CCCC(=O)[O-]
REMARK SMILES IDX 3 1 4 2 5 3 6 4 2 5 1 6
REMARK H PARENT
REMARK Flexibility Score: inf
ROOT
ATOM      1  C   UNL     1       8.137  33.154  68.427  1.00  0.00     0.052 C 
ENDROOT
BRANCH   1   2
ATOM      2  C   UNL     1       7.317  34.368  68.121  1.00  0.00     0.041 C 
ATOM      3  O   UNL     1       6.941  35.131  69.050  1.00  0.00    -0.550 OA
ATOM      4  O   UNL     1       7.009  34.684  66.804  1.00  0.00    -0.550 OA
ENDBRANCH   1   2
BRANCH   1   5
ATOM      5  C   UNL     1       8.480  32.401  67.138  1.00  0.00     0.003 C 
ATOM      6  C   UNL     1       9.938  31.954  67.134  1.00  0.00     0.004 C 
ENDBRANCH   1   5
TORSDOF 2
ENDMDL
MODEL 3
REMARK VINA RESULT:    -2.815     14.991     15.962
REMARK INTER + INTRA:          -3.174
REMARK INTER:                  -3.132
REMARK INTRA:                  -0.041
REMARK UNBOUND:                -0.029
REMARK SMILES CCCC(=O)[O-]
REMARK SMILES IDX 3 1 4 2 5 3 6 4 2 5 1 6
REMARK H PARENT
REMARK Flexibility Score: inf
ROOT
ATOM      1  C   UNL     1      17.910  40.076  75.561  1.00  0.00     0.052 C 
ENDROOT
BRANCH   1   2
ATOM      2  C   UNL     1      18.067  39.136  76.715  1.00  0.00     0.041 C 
ATOM      3  O   UNL     1      18.478  37.961  76.525  1.00  0.00    -0.550 OA
ATOM      4  O   UNL     1      17.804  39.573  78.008  1.00  0.00    -0.550 OA
ENDBRANCH   1   2
BRANCH   1   5
ATOM      5  C   UNL     1      17.493  39.311  74.302  1.00  0.00     0.003 C 
ATOM      6  C   UNL     1      15.975  39.299  74.143  1.00  0.00     0.004 C 
ENDBRANCH   1   5
TORSDOF 2
ENDMDL
MODEL 4
REMARK VINA RESULT:    -2.799     13.903     14.931
REMARK INTER + INTRA:          -3.155
REMARK INTER:                  -3.116
REMARK INTRA:                  -0.039
REMARK UNBOUND:                -0.029
REMARK SMILES CCCC(=O)[O-]
REMARK SMILES IDX 3 1 4 2 5 3 6 4 2 5 1 6
REMARK H PARENT
REMARK Flexibility Score: inf
ROOT
ATOM      1  C   UNL     1      17.688  40.431  74.998  1.00  0.00     0.052 C 
ENDROOT
BRANCH   1   2
ATOM      2  C   UNL     1      17.125  39.278  74.229  1.00  0.00     0.041 C 
ATOM      3  O   UNL     1      17.894  38.441  73.686  1.00  0.00    -0.550 OA
ATOM      4  O   UNL     1      15.750  39.100  74.151  1.00  0.00    -0.550 OA
ENDBRANCH   1   2
BRANCH   1   5
ATOM      5  C   UNL     1      17.857  41.650  74.087  1.00  0.00     0.003 C 
ATOM      6  C   UNL     1      16.616  42.535  74.117  1.00  0.00     0.004 C 
ENDBRANCH   1   5
TORSDOF 2
ENDMDL
MODEL 5
REMARK VINA RESULT:    -2.782     14.714     15.877
REMARK INTER + INTRA:          -3.136
REMARK INTER:                  -3.130
REMARK INTRA:                  -0.006
REMARK UNBOUND:                -0.029
REMARK SMILES CCCC(=O)[O-]
REMARK SMILES IDX 3 1 4 2 5 3 6 4 2 5 1 6
REMARK H PARENT
REMARK Flexibility Score: inf
ROOT
ATOM      1  C   UNL     1      17.726  39.959  75.534  1.00  0.00     0.052 C 
ENDROOT
BRANCH   1   2
ATOM      2  C   UNL     1      17.109  39.248  74.370  1.00  0.00     0.041 C 
ATOM      3  O   UNL     1      15.915  39.482  74.045  1.00  0.00    -0.550 OA
ATOM      4  O   UNL     1      17.867  38.363  73.615  1.00  0.00    -0.550 OA
ENDBRANCH   1   2
BRANCH   1   5
ATOM      5  C   UNL     1      18.078  38.964  76.643  1.00  0.00     0.003 C 
ATOM      6  C   UNL     1      18.028  39.629  78.015  1.00  0.00     0.004 C 
ENDBRANCH   1   5
TORSDOF 2
ENDMDL
MODEL 6
REMARK VINA RESULT:    -2.685     10.152     10.833
REMARK INTER + INTRA:          -3.028
REMARK INTER:                  -2.981
REMARK INTRA:                  -0.047
REMARK UNBOUND:                -0.029
REMARK SMILES CCCC(=O)[O-]
REMARK SMILES IDX 3 1 4 2 5 3 6 4 2 5 1 6
REMARK H PARENT
REMARK Flexibility Score: inf
ROOT
ATOM      1  C   UNL     1       7.771  34.761  68.390  1.00  0.00     0.052 C 
ENDROOT
BRANCH   1   2
ATOM      2  C   UNL     1       7.427  33.725  67.367  1.00  0.00     0.041 C 
ATOM      3  O   UNL     1       6.300  33.737  66.805  1.00  0.00    -0.550 OA
ATOM      4  O   UNL     1       8.370  32.774  66.997  1.00  0.00    -0.550 OA
ENDBRANCH   1   2
BRANCH   1   5
ATOM      5  C   UNL     1       6.732  34.766  69.515  1.00  0.00     0.003 C 
ATOM      6  C   UNL     1       7.117  33.791  70.624  1.00  0.00     0.004 C 
ENDBRANCH   1   5
TORSDOF 2
ENDMDL
MODEL 7
REMARK VINA RESULT:    -2.624     11.393     12.118
REMARK INTER + INTRA:          -2.960
REMARK INTER:                  -2.922
REMARK INTRA:                  -0.038
REMARK UNBOUND:                -0.029
REMARK SMILES CCCC(=O)[O-]
REMARK SMILES IDX 3 1 4 2 5 3 6 4 2 5 1 6
REMARK H PARENT
REMARK Flexibility Score: inf
ROOT
ATOM      1  C   UNL     1       8.303  33.362  68.016  1.00  0.00     0.052 C 
ENDROOT
BRANCH   1   2
ATOM      2  C   UNL     1       8.882  32.225  67.233  1.00  0.00     0.041 C 
ATOM      3  O   UNL     1       8.125  31.436  66.608  1.00  0.00    -0.550 OA
ATOM      4  O   UNL     1      10.259  32.066  67.153  1.00  0.00    -0.550 OA
ENDBRANCH   1   2
BRANCH   1   5
ATOM      5  C   UNL     1       7.244  34.096  67.191  1.00  0.00     0.003 C 
ATOM      6  C   UNL     1       5.857  33.933  67.805  1.00  0.00     0.004 C 
ENDBRANCH   1   5
TORSDOF 2
ENDMDL
MODEL 8
REMARK VINA RESULT:    -2.582     13.187     14.219
REMARK INTER + INTRA:          -2.913
REMARK INTER:                  -2.896
REMARK INTRA:                  -0.017
REMARK UNBOUND:                -0.029
REMARK SMILES CCCC(=O)[O-]
REMARK SMILES IDX 3 1 4 2 5 3 6 4 2 5 1 6
REMARK H PARENT
REMARK Flexibility Score: inf
ROOT
ATOM      1  C   UNL     1      17.359  41.508  74.369  1.00  0.00     0.052 C 
ENDROOT
BRANCH   1   2
ATOM      2  C   UNL     1      16.253  42.449  74.006  1.00  0.00     0.041 C 
ATOM      3  O   UNL     1      16.478  43.685  73.913  1.00  0.00    -0.550 OA
ATOM      4  O   UNL     1      14.986  41.957  73.724  1.00  0.00    -0.550 OA
ENDBRANCH   1   2
BRANCH   1   5
ATOM      5  C   UNL     1      16.857  40.062  74.349  1.00  0.00     0.003 C 
ATOM      6  C   UNL     1      17.499  39.242  75.464  1.00  0.00     0.004 C 
ENDBRANCH   1   5
TORSDOF 2
ENDMDL
MODEL 9
REMARK VINA RESULT:    -2.573     11.977     12.898
REMARK INTER + INTRA:          -2.904
REMARK INTER:                  -2.890
REMARK INTRA:                  -0.014
REMARK UNBOUND:                -0.029
REMARK SMILES CCCC(=O)[O-]
REMARK SMILES IDX 3 1 4 2 5 3 6 4 2 5 1 6
REMARK H PARENT
REMARK Flexibility Score: inf
ROOT
ATOM      1  C   UNL     1      14.989  42.891  74.018  1.00  0.00     0.052 C 
ENDROOT
BRANCH   1   2
ATOM      2  C   UNL     1      14.549  44.061  74.842  1.00  0.00     0.041 C 
ATOM      3  O   UNL     1      15.190  45.144  74.799  1.00  0.00    -0.550 OA
ATOM      4  O   UNL     1      13.402  43.970  75.619  1.00  0.00    -0.550 OA
ENDBRANCH   1   2
BRANCH   1   5
ATOM      5  C   UNL     1      16.518  42.820  73.965  1.00  0.00     0.003 C 
ATOM      6  C   UNL     1      17.018  41.431  74.350  1.00  0.00     0.004 C 
ENDBRANCH   1   5
TORSDOF 2
ENDMDL
