MODEL 1
REMARK VINA RESULT:    -2.955      0.000      0.000
REMARK INTER + INTRA:          -3.924
REMARK INTER:                  -3.819
REMARK INTRA:                  -0.106
REMARK UNBOUND:                -0.106
REMARK SMILES CCCCCCC(=O)[O-]
REMARK SMILES IDX 5 1 6 2 7 3 8 4 9 5 4 6 3 7 2 8 1 9
REMARK H PARENT
REMARK Flexibility Score: inf
ROOT
ATOM      1  C   UNL     1      -4.213 -11.721  14.328  1.00  0.00     0.006 C 
ENDROOT
BRANCH   1   2
ATOM      2  C   UNL     1      -2.898 -11.082  14.792  1.00  0.00     0.053 C 
BRANCH   2   3
ATOM      3  C   UNL     1      -2.790  -9.652  14.356  1.00  0.00     0.041 C 
ATOM      4  O   UNL     1      -2.073  -9.344  13.368  1.00  0.00    -0.550 OA
ATOM      5  O   UNL     1      -3.508  -8.666  15.021  1.00  0.00    -0.550 OA
ENDBRANCH   2   3
ENDBRANCH   1   2
BRANCH   1   6
ATOM      6  C   UNL     1      -4.021 -13.171  13.857  1.00  0.00     0.000 C 
BRANCH   6   7
ATOM      7  C   UNL     1      -5.212 -13.634  13.005  1.00  0.00    -0.000 C 
BRANCH   7   8
ATOM      8  C   UNL     1      -4.822 -14.705  11.977  1.00  0.00    -0.003 C 
ATOM      9  C   UNL     1      -3.837 -15.731  12.536  1.00  0.00     0.004 C 
ENDBRANCH   7   8
ENDBRANCH   6   7
ENDBRANCH   1   6
TORSDOF 5
ENDMDL
MODEL 2
REMARK VINA RESULT:    -2.842     13.873     14.773
REMARK INTER + INTRA:          -3.778
REMARK INTER:                  -3.659
REMARK INTRA:                  -0.119
REMARK UNBOUND:                -0.106
REMARK SMILES CCCCCCC(=O)[O-]
REMARK SMILES IDX 5 1 6 2 7 3 8 4 9 5 4 6 3 7 2 8 1 9
REMARK H PARENT
REMARK Flexibility Score: inf
ROOT
ATOM      1  C   UNL     1       8.769 -14.643   7.093  1.00  0.00     0.006 C 
ENDROOT
BRANCH   1   2
ATOM      2  C   UNL     1       9.510 -15.487   6.049  1.00  0.00     0.053 C 
BRANCH   2   3
ATOM      3  C   UNL     1      10.979 -15.191   6.034  1.00  0.00     0.041 C 
ATOM      4  O   UNL     1      11.594 -15.089   4.940  1.00  0.00    -0.550 OA
ATOM      5  O   UNL     1      11.661 -14.996   7.228  1.00  0.00    -0.550 OA
ENDBRANCH   2   3
ENDBRANCH   1   2
BRANCH   1   6
ATOM      6  C   UNL     1       7.246 -14.828   7.016  1.00  0.00     0.000 C 
BRANCH   6   7
ATOM      7  C   UNL     1       6.543 -13.489   6.746  1.00  0.00    -0.000 C 
BRANCH   7   8
ATOM      8  C   UNL     1       5.025 -13.564   6.966  1.00  0.00    -0.003 C 
ATOM      9  C   UNL     1       4.577 -14.905   7.549  1.00  0.00     0.004 C 
ENDBRANCH   7   8
ENDBRANCH   6   7
ENDBRANCH   1   6
TORSDOF 5
ENDMDL
MODEL 3
REMARK VINA RESULT:    -2.818     21.719     22.582
REMARK INTER + INTRA:          -3.748
REMARK INTER:                  -3.559
REMARK INTRA:                  -0.189
REMARK UNBOUND:                -0.106
REMARK SMILES CCCCCCC(=O)[O-]
REMARK SMILES IDX 5 1 6 2 7 3 8 4 9 5 4 6 3 7 2 8 1 9
REMARK H PARENT
REMARK Flexibility Score: inf
ROOT
ATOM      1  C   UNL     1      11.947 -16.378  -3.620  1.00  0.00     0.006 C 
ENDROOT
BRANCH   1   2
ATOM      2  C   UNL     1      11.606 -14.883  -3.673  1.00  0.00     0.053 C 
BRANCH   2   3
ATOM      3  C   UNL     1      11.641 -14.256  -2.313  1.00  0.00     0.041 C 
ATOM      4  O   UNL     1      12.676 -13.658  -1.917  1.00  0.00    -0.550 OA
ATOM      5  O   UNL     1      10.518 -14.304  -1.495  1.00  0.00    -0.550 OA
ENDBRANCH   2   3
ENDBRANCH   1   2
BRANCH   1   6
ATOM      6  C   UNL     1      10.717 -17.245  -3.307  1.00  0.00     0.000 C 
BRANCH   6   7
ATOM      7  C   UNL     1      11.129 -18.549  -2.608  1.00  0.00    -0.000 C 
BRANCH   7   8
ATOM      8  C   UNL     1      11.062 -18.446  -1.077  1.00  0.00    -0.003 C 
ATOM      9  C   UNL     1      12.419 -18.670  -0.409  1.00  0.00     0.004 C 
ENDBRANCH   7   8
ENDBRANCH   6   7
ENDBRANCH   1   6
TORSDOF 5
ENDMDL
MODEL 4
REMARK VINA RESULT:    -2.803     13.033     14.852
REMARK INTER + INTRA:          -3.728
REMARK INTER:                  -3.318
REMARK INTRA:                  -0.410
REMARK UNBOUND:                -0.106
REMARK SMILES CCCCCCC(=O)[O-]
REMARK SMILES IDX 5 1 6 2 7 3 8 4 9 5 4 6 3 7 2 8 1 9
REMARK H PARENT
REMARK Flexibility Score: inf
ROOT
ATOM      1  C   UNL     1       3.862 -18.349   2.242  1.00  0.00     0.006 C 
ENDROOT
BRANCH   1   2
ATOM      2  C   UNL     1       4.338 -19.765   2.590  1.00  0.00     0.053 C 
BRANCH   2   3
ATOM      3  C   UNL     1       5.535 -19.744   3.492  1.00  0.00     0.041 C 
ATOM      4  O   UNL     1       5.435 -20.132   4.685  1.00  0.00    -0.550 OA
ATOM      5  O   UNL     1       6.767 -19.327   3.004  1.00  0.00    -0.550 OA
ENDBRANCH   2   3
ENDBRANCH   1   2
BRANCH   1   6
ATOM      6  C   UNL     1       2.761 -17.856   3.193  1.00  0.00     0.000 C 
BRANCH   6   7
ATOM      7  C   UNL     1       1.920 -19.030   3.715  1.00  0.00    -0.000 C 
BRANCH   7   8
ATOM      8  C   UNL     1       1.947 -19.141   5.247  1.00  0.00    -0.003 C 
ATOM      9  C   UNL     1       2.807 -18.060   5.902  1.00  0.00     0.004 C 
ENDBRANCH   7   8
ENDBRANCH   6   7
ENDBRANCH   1   6
TORSDOF 5
ENDMDL
MODEL 5
REMARK VINA RESULT:    -2.783     15.744     17.073
REMARK INTER + INTRA:          -3.702
REMARK INTER:                  -3.429
REMARK INTRA:                  -0.272
REMARK UNBOUND:                -0.106
REMARK SMILES CCCCCCC(=O)[O-]
REMARK SMILES IDX 5 1 6 2 7 3 8 4 9 5 4 6 3 7 2 8 1 9
REMARK H PARENT
REMARK Flexibility Score: inf
ROOT
ATOM      1  C   UNL     1      10.441 -17.156   4.500  1.00  0.00     0.006 C 
ENDROOT
BRANCH   1   2
ATOM      2  C   UNL     1       9.114 -17.925   4.509  1.00  0.00     0.053 C 
BRANCH   2   3
ATOM      3  C   UNL     1       8.643 -18.238   3.122  1.00  0.00     0.041 C 
ATOM      4  O   UNL     1       9.310 -17.855   2.125  1.00  0.00    -0.550 OA
ATOM      5  O   UNL     1       7.483 -18.979   2.931  1.00  0.00    -0.550 OA
ENDBRANCH   2   3
ENDBRANCH   1   2
BRANCH   1   6
ATOM      6  C   UNL     1      10.246 -15.656   4.768  1.00  0.00     0.000 C 
BRANCH   6   7
ATOM      7  C   UNL     1      10.140 -15.376   6.275  1.00  0.00    -0.000 C 
BRANCH   7   8
ATOM      8  C   UNL     1       8.757 -14.845   6.681  1.00  0.00    -0.003 C 
ATOM      9  C   UNL     1       7.964 -15.843   7.524  1.00  0.00     0.004 C 
ENDBRANCH   7   8
ENDBRANCH   6   7
ENDBRANCH   1   6
TORSDOF 5
ENDMDL
MODEL 6
REMARK VINA RESULT:    -2.776     13.449     14.605
REMARK INTER + INTRA:          -3.694
REMARK INTER:                  -3.261
REMARK INTRA:                  -0.432
REMARK UNBOUND:                -0.106
REMARK SMILES CCCCCCC(=O)[O-]
REMARK SMILES IDX 5 1 6 2 7 3 8 4 9 5 4 6 3 7 2 8 1 9
REMARK H PARENT
REMARK Flexibility Score: inf
ROOT
ATOM      1  C   UNL     1       1.813 -18.670   3.163  1.00  0.00     0.006 C 
ENDROOT
BRANCH   1   2
ATOM      2  C   UNL     1       3.107 -17.971   2.728  1.00  0.00     0.053 C 
BRANCH   2   3
ATOM      3  C   UNL     1       4.063 -18.925   2.080  1.00  0.00     0.041 C 
ATOM      4  O   UNL     1       5.147 -19.220   2.648  1.00  0.00    -0.550 OA
ATOM      5  O   UNL     1       3.742 -19.512   0.862  1.00  0.00    -0.550 OA
ENDBRANCH   2   3
ENDBRANCH   1   2
BRANCH   1   6
ATOM      6  C   UNL     1       1.933 -19.300   4.560  1.00  0.00     0.000 C 
BRANCH   6   7
ATOM      7  C   UNL     1       2.732 -18.391   5.506  1.00  0.00    -0.000 C 
BRANCH   7   8
ATOM      8  C   UNL     1       3.923 -19.114   6.152  1.00  0.00    -0.003 C 
ATOM      9  C   UNL     1       4.008 -20.588   5.755  1.00  0.00     0.004 C 
ENDBRANCH   7   8
ENDBRANCH   6   7
ENDBRANCH   1   6
TORSDOF 5
ENDMDL
MODEL 7
REMARK VINA RESULT:    -2.760     13.600     15.488
REMARK INTER + INTRA:          -3.673
REMARK INTER:                  -3.457
REMARK INTRA:                  -0.216
REMARK UNBOUND:                -0.106
REMARK SMILES CCCCCCC(=O)[O-]
REMARK SMILES IDX 5 1 6 2 7 3 8 4 9 5 4 6 3 7 2 8 1 9
REMARK H PARENT
REMARK Flexibility Score: inf
ROOT
ATOM      1  C   UNL     1       3.755 -18.297   2.163  1.00  0.00     0.006 C 
ENDROOT
BRANCH   1   2
ATOM      2  C   UNL     1       3.824 -19.827   2.096  1.00  0.00     0.053 C 
BRANCH   2   3
ATOM      3  C   UNL     1       3.258 -20.355   0.814  1.00  0.00     0.041 C 
ATOM      4  O   UNL     1       2.231 -21.083   0.826  1.00  0.00    -0.550 OA
ATOM      5  O   UNL     1       3.846 -20.016  -0.399  1.00  0.00    -0.550 OA
ENDBRANCH   2   3
ENDBRANCH   1   2
BRANCH   1   6
ATOM      6  C   UNL     1       2.786 -17.805   3.249  1.00  0.00     0.000 C 
BRANCH   6   7
ATOM      7  C   UNL     1       2.397 -18.949   4.197  1.00  0.00    -0.000 C 
BRANCH   7   8
ATOM      8  C   UNL     1       3.124 -18.870   5.547  1.00  0.00    -0.003 C 
ATOM      9  C   UNL     1       2.829 -17.573   6.302  1.00  0.00     0.004 C 
ENDBRANCH   7   8
ENDBRANCH   6   7
ENDBRANCH   1   6
TORSDOF 5
ENDMDL
MODEL 8
REMARK VINA RESULT:    -2.658     12.162     13.776
REMARK INTER + INTRA:          -3.541
REMARK INTER:                  -3.244
REMARK INTRA:                  -0.297
REMARK UNBOUND:                -0.106
REMARK SMILES CCCCCCC(=O)[O-]
REMARK SMILES IDX 5 1 6 2 7 3 8 4 9 5 4 6 3 7 2 8 1 9
REMARK H PARENT
REMARK Flexibility Score: inf
ROOT
ATOM      1  C   UNL     1       2.039 -19.414   4.777  1.00  0.00     0.006 C 
ENDROOT
BRANCH   1   2
ATOM      2  C   UNL     1       2.519 -18.386   5.808  1.00  0.00     0.053 C 
BRANCH   2   3
ATOM      3  C   UNL     1       3.818 -18.792   6.436  1.00  0.00     0.041 C 
ATOM      4  O   UNL     1       4.180 -18.281   7.528  1.00  0.00    -0.550 OA
ATOM      5  O   UNL     1       4.611 -19.758   5.831  1.00  0.00    -0.550 OA
ENDBRANCH   2   3
ENDBRANCH   1   2
BRANCH   1   6
ATOM      6  C   UNL     1       1.747 -18.775   3.410  1.00  0.00     0.000 C 
BRANCH   6   7
ATOM      7  C   UNL     1       2.854 -17.784   3.020  1.00  0.00    -0.000 C 
BRANCH   7   8
ATOM      8  C   UNL     1       3.969 -18.440   2.193  1.00  0.00    -0.003 C 
ATOM      9  C   UNL     1       3.434 -19.436   1.163  1.00  0.00     0.004 C 
ENDBRANCH   7   8
ENDBRANCH   6   7
ENDBRANCH   1   6
TORSDOF 5
ENDMDL
MODEL 9
REMARK VINA RESULT:    -2.614     15.187     16.221
REMARK INTER + INTRA:          -3.484
REMARK INTER:                  -3.294
REMARK INTRA:                  -0.190
REMARK UNBOUND:                -0.106
REMARK SMILES CCCCCCC(=O)[O-]
REMARK SMILES IDX 5 1 6 2 7 3 8 4 9 5 4 6 3 7 2 8 1 9
REMARK H PARENT
REMARK Flexibility Score: inf
ROOT
ATOM      1  C   UNL     1      11.270 -14.662   7.603  1.00  0.00     0.006 C 
ENDROOT
BRANCH   1   2
ATOM      2  C   UNL     1       9.812 -14.662   8.080  1.00  0.00     0.053 C 
BRANCH   2   3
ATOM      3  C   UNL     1       8.860 -14.942   6.958  1.00  0.00     0.041 C 
ATOM      4  O   UNL     1       7.780 -14.301   6.869  1.00  0.00    -0.550 OA
ATOM      5  O   UNL     1       9.181 -15.888   5.993  1.00  0.00    -0.550 OA
ENDBRANCH   2   3
ENDBRANCH   1   2
BRANCH   1   6
ATOM      6  C   UNL     1      12.248 -14.263   8.720  1.00  0.00     0.000 C 
BRANCH   6   7
ATOM      7  C   UNL     1      11.493 -13.908  10.010  1.00  0.00    -0.000 C 
BRANCH   7   8
ATOM      8  C   UNL     1      11.875 -12.526  10.557  1.00  0.00    -0.003 C 
ATOM      9  C   UNL     1      13.387 -12.303  10.597  1.00  0.00     0.004 C 
ENDBRANCH   7   8
ENDBRANCH   6   7
ENDBRANCH   1   6
TORSDOF 5
ENDMDL
