MODEL 1
REMARK VINA RESULT:    -3.026      0.000      0.000
REMARK INTER + INTRA:          -3.026
REMARK INTER:                  -3.026
REMARK INTRA:                   0.000
REMARK UNBOUND:                 0.000
REMARK SMILES O=C1CCCCC1
REMARK SMILES IDX 5 1 4 2 3 3 2 4 1 5 7 6 6 7
REMARK H PARENT
REMARK Flexibility Score: inf
ROOT
ATOM      1  C   UNL     1     165.114 164.295 167.228  1.00  0.00     0.001 C 
ATOM      2  C   UNL     1     165.542 165.640 167.835  1.00  0.00     0.008 C 
ATOM      3  C   UNL     1     166.533 166.375 166.924  1.00  0.00     0.075 C 
ATOM      4  C   UNL     1     166.001 166.445 165.518  1.00  0.00     0.132 C 
ATOM      5  O   UNL     1     166.092 167.478 164.876  1.00  0.00    -0.300 OA
ATOM      6  C   UNL     1     165.444 165.201 164.883  1.00  0.00     0.075 C 
ATOM      7  C   UNL     1     164.479 164.495 165.844  1.00  0.00     0.008 C 
ENDROOT
TORSDOF 0
ENDMDL
MODEL 2
REMARK VINA RESULT:    -3.009      1.478      2.613
REMARK INTER + INTRA:          -3.009
REMARK INTER:                  -3.009
REMARK INTRA:                   0.000
REMARK UNBOUND:                 0.000
REMARK SMILES O=C1CCCCC1
REMARK SMILES IDX 5 1 4 2 3 3 2 4 1 5 7 6 6 7
REMARK H PARENT
REMARK Flexibility Score: inf
ROOT
ATOM      1  C   UNL     1     166.703 166.386 167.220  1.00  0.00     0.001 C 
ATOM      2  C   UNL     1     166.322 166.873 165.814  1.00  0.00     0.008 C 
ATOM      3  C   UNL     1     165.870 165.711 164.921  1.00  0.00     0.075 C 
ATOM      4  C   UNL     1     164.822 164.890 165.622  1.00  0.00     0.132 C 
ATOM      5  O   UNL     1     163.835 164.504 165.017  1.00  0.00    -0.300 OA
ATOM      6  C   UNL     1     165.052 164.469 167.047  1.00  0.00     0.075 C 
ATOM      7  C   UNL     1     165.524 165.663 167.887  1.00  0.00     0.008 C 
ENDROOT
TORSDOF 0
ENDMDL
MODEL 3
REMARK VINA RESULT:    -3.006      0.711      2.052
REMARK INTER + INTRA:          -3.006
REMARK INTER:                  -3.006
REMARK INTRA:                   0.000
REMARK UNBOUND:                 0.000
REMARK SMILES O=C1CCCCC1
REMARK SMILES IDX 5 1 4 2 3 3 2 4 1 5 7 6 6 7
REMARK H PARENT
REMARK Flexibility Score: inf
ROOT
ATOM      1  C   UNL     1     164.471 164.690 167.083  1.00  0.00     0.001 C 
ATOM      2  C   UNL     1     164.879 164.351 165.642  1.00  0.00     0.008 C 
ATOM      3  C   UNL     1     165.320 165.604 164.875  1.00  0.00     0.075 C 
ATOM      4  C   UNL     1     166.342 166.372 165.668  1.00  0.00     0.132 C 
ATOM      5  O   UNL     1     167.329 166.834 165.119  1.00  0.00    -0.300 OA
ATOM      6  C   UNL     1     166.086 166.645 167.125  1.00  0.00     0.075 C 
ATOM      7  C   UNL     1     165.626 165.365 167.836  1.00  0.00     0.008 C 
ENDROOT
TORSDOF 0
ENDMDL
MODEL 4
REMARK VINA RESULT:    -2.994      1.712      2.553
REMARK INTER + INTRA:          -2.994
REMARK INTER:                  -2.994
REMARK INTRA:                   0.000
REMARK UNBOUND:                 0.000
REMARK SMILES O=C1CCCCC1
REMARK SMILES IDX 5 1 4 2 3 3 2 4 1 5 7 6 6 7
REMARK H PARENT
REMARK Flexibility Score: inf
ROOT
ATOM      1  C   UNL     1     166.004 166.678 167.119  1.00  0.00     0.001 C 
ATOM      2  C   UNL     1     165.632 165.390 167.868  1.00  0.00     0.008 C 
ATOM      3  C   UNL     1     164.530 164.614 167.136  1.00  0.00     0.075 C 
ATOM      4  C   UNL     1     164.892 164.432 165.687  1.00  0.00     0.132 C 
ATOM      5  O   UNL     1     164.712 163.357 165.137  1.00  0.00    -0.300 OA
ATOM      6  C   UNL     1     165.387 165.614 164.901  1.00  0.00     0.075 C 
ATOM      7  C   UNL     1     166.468 166.366 165.689  1.00  0.00     0.008 C 
ENDROOT
TORSDOF 0
ENDMDL
MODEL 5
REMARK VINA RESULT:    -2.910      1.917      2.717
REMARK INTER + INTRA:          -2.910
REMARK INTER:                  -2.910
REMARK INTRA:                   0.000
REMARK UNBOUND:                 0.000
REMARK SMILES O=C1CCCCC1
REMARK SMILES IDX 5 1 4 2 3 3 2 4 1 5 7 6 6 7
REMARK H PARENT
REMARK Flexibility Score: inf
ROOT
ATOM      1  C   UNL     1     166.077 166.671 165.369  1.00  0.00     0.001 C 
ATOM      2  C   UNL     1     166.810 166.567 166.715  1.00  0.00     0.008 C 
ATOM      3  C   UNL     1     165.921 165.926 167.788  1.00  0.00     0.075 C 
ATOM      4  C   UNL     1     165.327 164.642 167.279  1.00  0.00     0.132 C 
ATOM      5  O   UNL     1     165.289 163.654 167.995  1.00  0.00    -0.300 OA
ATOM      6  C   UNL     1     164.696 164.616 165.915  1.00  0.00     0.075 C 
ATOM      7  C   UNL     1     165.615 165.289 164.887  1.00  0.00     0.008 C 
ENDROOT
TORSDOF 0
ENDMDL
MODEL 6
REMARK VINA RESULT:    -2.907      1.852      3.249
REMARK INTER + INTRA:          -2.907
REMARK INTER:                  -2.907
REMARK INTRA:                   0.000
REMARK UNBOUND:                 0.000
REMARK SMILES O=C1CCCCC1
REMARK SMILES IDX 5 1 4 2 3 3 2 4 1 5 7 6 6 7
REMARK H PARENT
REMARK Flexibility Score: inf
ROOT
ATOM      1  C   UNL     1     166.706 166.574 165.559  1.00  0.00     0.001 C 
ATOM      2  C   UNL     1     165.526 165.845 164.898  1.00  0.00     0.008 C 
ATOM      3  C   UNL     1     165.089 164.626 165.719  1.00  0.00     0.075 C 
ATOM      4  C   UNL     1     164.879 165.011 167.158  1.00  0.00     0.132 C 
ATOM      5  O   UNL     1     163.910 164.596 167.773  1.00  0.00    -0.300 OA
ATOM      6  C   UNL     1     165.927 165.834 167.857  1.00  0.00     0.075 C 
ATOM      7  C   UNL     1     166.343 167.024 166.982  1.00  0.00     0.008 C 
ENDROOT
TORSDOF 0
ENDMDL
MODEL 7
REMARK VINA RESULT:    -2.312      7.858      8.392
REMARK INTER + INTRA:          -2.312
REMARK INTER:                  -2.312
REMARK INTRA:                   0.000
REMARK UNBOUND:                 0.000
REMARK SMILES O=C1CCCCC1
REMARK SMILES IDX 5 1 4 2 3 3 2 4 1 5 7 6 6 7
REMARK H PARENT
REMARK Flexibility Score: inf
ROOT
ATOM      1  C   UNL     1     161.467 171.928 170.974  1.00  0.00     0.001 C 
ATOM      2  C   UNL     1     161.528 173.442 170.722  1.00  0.00     0.008 C 
ATOM      3  C   UNL     1     162.845 173.846 170.048  1.00  0.00     0.075 C 
ATOM      4  C   UNL     1     163.103 172.984 168.842  1.00  0.00     0.132 C 
ATOM      5  O   UNL     1     163.508 173.481 167.805  1.00  0.00    -0.300 OA
ATOM      6  C   UNL     1     162.946 171.493 168.960  1.00  0.00     0.075 C 
ATOM      7  C   UNL     1     161.626 171.147 169.661  1.00  0.00     0.008 C 
ENDROOT
TORSDOF 0
ENDMDL
MODEL 8
REMARK VINA RESULT:    -2.291      7.953      8.905
REMARK INTER + INTRA:          -2.291
REMARK INTER:                  -2.291
REMARK INTRA:                   0.000
REMARK UNBOUND:                 0.000
REMARK SMILES O=C1CCCCC1
REMARK SMILES IDX 5 1 4 2 3 3 2 4 1 5 7 6 6 7
REMARK H PARENT
REMARK Flexibility Score: inf
ROOT
ATOM      1  C   UNL     1     169.803 159.244 171.011  1.00  0.00     0.001 C 
ATOM      2  C   UNL     1     169.823 157.740 170.699  1.00  0.00     0.008 C 
ATOM      3  C   UNL     1     168.511 157.285 170.049  1.00  0.00     0.075 C 
ATOM      4  C   UNL     1     168.163 158.177 168.889  1.00  0.00     0.132 C 
ATOM      5  O   UNL     1     167.752 157.698 167.844  1.00  0.00    -0.300 OA
ATOM      6  C   UNL     1     168.235 159.669 169.064  1.00  0.00     0.075 C 
ATOM      7  C   UNL     1     169.555 160.065 169.737  1.00  0.00     0.008 C 
ENDROOT
TORSDOF 0
ENDMDL
