MODEL 1
REMARK VINA RESULT:    -5.768      0.000      0.000
REMARK INTER + INTRA:         -10.352
REMARK INTER:                  -8.971
REMARK INTRA:                  -1.381
REMARK UNBOUND:                -1.381
REMARK SMILES COc1cc(CNC(=O)CCCCC=CC(C)C)ccc1O
REMARK SMILES IDX 11 1 12 2 13 3 14 4 15 5 16 6 17 7 18 8 10 9 8 10 9 11 7 12
REMARK SMILES IDX 6 14 5 15 4 16 19 17 3 18 20 19 21 20 2 21 1 22 22 23
REMARK H PARENT 7 13 22 24
REMARK Flexibility Score: inf
ROOT
ATOM      1  C   UNL     1      -3.864  23.233  35.016  1.00  0.00     0.010 C 
ENDROOT
BRANCH   1   2
ATOM      2  C   UNL     1      -2.655  23.868  35.729  1.00  0.00     0.005 C 
BRANCH   2   3
ATOM      3  C   UNL     1      -1.684  24.549  34.756  1.00  0.00     0.027 C 
BRANCH   3   4
ATOM      4  C   UNL     1      -0.781  23.550  34.089  1.00  0.00    -0.031 C 
ATOM      5  C   UNL     1      -0.282  22.501  34.759  1.00  0.00    -0.028 C 
BRANCH   5   6
ATOM      6  C   UNL     1       0.674  21.532  34.102  1.00  0.00     0.005 C 
ATOM      7  C   UNL     1       0.061  20.127  34.048  1.00  0.00     0.012 C 
ATOM      8  C   UNL     1       2.009  21.504  34.852  1.00  0.00     0.012 C 
ENDBRANCH   5   6
ENDBRANCH   3   4
ENDBRANCH   2   3
ENDBRANCH   1   2
BRANCH   1   9
ATOM      9  C   UNL     1      -3.925  21.697  35.127  1.00  0.00     0.100 C 
BRANCH   9  10
ATOM     10  C   UNL     1      -3.646  21.000  33.824  1.00  0.00     0.220 C 
ATOM     11  O   UNL     1      -3.321  21.678  32.811  1.00  0.00    -0.275 OA
ATOM     12  N   UNL     1      -3.707  19.568  33.744  1.00  0.00    -0.352 N 
ATOM     13  H   UNL     1      -3.889  19.018  34.613  1.00  0.00     0.163 HD
BRANCH  12  14
ATOM     14  C   UNL     1      -3.669  18.850  32.472  1.00  0.00     0.151 C 
BRANCH  14  15
ATOM     15  C   UNL     1      -2.716  17.691  32.572  1.00  0.00    -0.025 A 
ATOM     16  C   UNL     1      -2.326  16.988  31.419  1.00  0.00     0.056 A 
ATOM     17  C   UNL     1      -2.291  17.241  33.829  1.00  0.00     0.009 A 
ATOM     18  C   UNL     1      -1.520  15.837  31.523  1.00  0.00     0.160 A 
ATOM     19  C   UNL     1      -1.478  16.113  33.936  1.00  0.00     0.050 A 
ATOM     20  C   UNL     1      -1.095  15.406  32.788  1.00  0.00     0.157 A 
BRANCH  18  21
ATOM     21  O   UNL     1      -1.136  15.089  30.399  1.00  0.00    -0.493 OA
ATOM     22  C   UNL     1      -2.027  14.661  29.374  1.00  0.00     0.278 C 
ENDBRANCH  18  21
BRANCH  20  23
ATOM     23  O   UNL     1      -0.302  14.267  32.898  1.00  0.00    -0.504 OA
ATOM     24  H   UNL     1       0.671  14.323  33.179  1.00  0.00     0.293 HD
ENDBRANCH  20  23
ENDBRANCH  14  15
ENDBRANCH  12  14
ENDBRANCH   9  10
ENDBRANCH   1   9
TORSDOF 10
ENDMDL
MODEL 2
REMARK VINA RESULT:    -5.555      2.619      7.631
REMARK INTER + INTRA:         -10.021
REMARK INTER:                  -9.280
REMARK INTRA:                  -0.740
REMARK UNBOUND:                -1.381
REMARK SMILES COc1cc(CNC(=O)CCCCC=CC(C)C)ccc1O
REMARK SMILES IDX 11 1 12 2 13 3 14 4 15 5 16 6 17 7 18 8 10 9 8 10 9 11 7 12
REMARK SMILES IDX 6 14 5 15 4 16 19 17 3 18 20 19 21 20 2 21 1 22 22 23
REMARK H PARENT 7 13 22 24
REMARK Flexibility Score: inf
ROOT
ATOM      1  C   UNL     1      -2.183  13.998  33.616  1.00  0.00     0.010 C 
ENDROOT
BRANCH   1   2
ATOM      2  C   UNL     1      -3.462  13.162  33.815  1.00  0.00     0.005 C 
BRANCH   2   3
ATOM      3  C   UNL     1      -4.112  12.747  32.489  1.00  0.00     0.027 C 
BRANCH   3   4
ATOM      4  C   UNL     1      -3.893  13.781  31.421  1.00  0.00    -0.031 C 
ATOM      5  C   UNL     1      -2.895  13.670  30.532  1.00  0.00    -0.028 C 
BRANCH   5   6
ATOM      6  C   UNL     1      -2.640  14.742  29.498  1.00  0.00     0.005 C 
ATOM      7  C   UNL     1      -1.136  15.002  29.353  1.00  0.00     0.012 C 
ATOM      8  C   UNL     1      -3.371  16.034  29.875  1.00  0.00     0.012 C 
ENDBRANCH   5   6
ENDBRANCH   3   4
ENDBRANCH   2   3
ENDBRANCH   1   2
BRANCH   1   9
ATOM      9  C   UNL     1      -2.224  15.381  34.295  1.00  0.00     0.100 C 
BRANCH   9  10
ATOM     10  C   UNL     1      -1.987  16.515  33.337  1.00  0.00     0.220 C 
ATOM     11  O   UNL     1      -2.951  17.254  32.994  1.00  0.00    -0.275 OA
ATOM     12  N   UNL     1      -0.665  16.783  32.848  1.00  0.00    -0.352 N 
ATOM     13  H   UNL     1       0.136  16.219  33.211  1.00  0.00     0.163 HD
BRANCH  12  14
ATOM     14  C   UNL     1      -0.406  17.717  31.754  1.00  0.00     0.151 C 
BRANCH  14  15
ATOM     15  C   UNL     1      -0.372  19.124  32.285  1.00  0.00    -0.025 A 
ATOM     16  C   UNL     1       0.702  19.560  33.080  1.00  0.00     0.056 A 
ATOM     17  C   UNL     1      -1.462  19.978  32.073  1.00  0.00     0.009 A 
ATOM     18  C   UNL     1       0.682  20.842  33.666  1.00  0.00     0.160 A 
ATOM     19  C   UNL     1      -1.479  21.254  32.636  1.00  0.00     0.050 A 
ATOM     20  C   UNL     1      -0.413  21.687  33.435  1.00  0.00     0.157 A 
BRANCH  18  21
ATOM     21  O   UNL     1       1.720  21.302  34.492  1.00  0.00    -0.493 OA
ATOM     22  C   UNL     1       1.804  21.055  35.892  1.00  0.00     0.278 C 
ENDBRANCH  18  21
BRANCH  20  23
ATOM     23  O   UNL     1      -0.440  22.953  34.015  1.00  0.00    -0.504 OA
ATOM     24  H   UNL     1       0.156  23.190  34.801  1.00  0.00     0.293 HD
ENDBRANCH  20  23
ENDBRANCH  14  15
ENDBRANCH  12  14
ENDBRANCH   9  10
ENDBRANCH   1   9
TORSDOF 10
ENDMDL
MODEL 3
REMARK VINA RESULT:    -5.466      2.444      7.343
REMARK INTER + INTRA:          -9.883
REMARK INTER:                  -8.723
REMARK INTRA:                  -1.160
REMARK UNBOUND:                -1.381
REMARK SMILES COc1cc(CNC(=O)CCCCC=CC(C)C)ccc1O
REMARK SMILES IDX 11 1 12 2 13 3 14 4 15 5 16 6 17 7 18 8 10 9 8 10 9 11 7 12
REMARK SMILES IDX 6 14 5 15 4 16 19 17 3 18 20 19 21 20 2 21 1 22 22 23
REMARK H PARENT 7 13 22 24
REMARK Flexibility Score: inf
ROOT
ATOM      1  C   UNL     1      -2.584  14.146  33.596  1.00  0.00     0.010 C 
ENDROOT
BRANCH   1   2
ATOM      2  C   UNL     1      -3.618  13.143  33.048  1.00  0.00     0.005 C 
BRANCH   2   3
ATOM      3  C   UNL     1      -4.020  13.438  31.597  1.00  0.00     0.027 C 
BRANCH   3   4
ATOM      4  C   UNL     1      -3.107  14.453  30.969  1.00  0.00    -0.031 C 
ATOM      5  C   UNL     1      -2.382  14.164  29.878  1.00  0.00    -0.028 C 
BRANCH   5   6
ATOM      6  C   UNL     1      -1.421  15.167  29.286  1.00  0.00     0.005 C 
ATOM      7  C   UNL     1      -0.323  14.452  28.489  1.00  0.00     0.012 C 
ATOM      8  C   UNL     1      -0.802  16.032  30.388  1.00  0.00     0.012 C 
ENDBRANCH   5   6
ENDBRANCH   3   4
ENDBRANCH   2   3
ENDBRANCH   1   2
BRANCH   1   9
ATOM      9  C   UNL     1      -3.083  14.970  34.797  1.00  0.00     0.100 C 
BRANCH   9  10
ATOM     10  C   UNL     1      -3.085  16.451  34.537  1.00  0.00     0.220 C 
ATOM     11  O   UNL     1      -3.457  17.244  35.445  1.00  0.00    -0.275 OA
ATOM     12  N   UNL     1      -2.623  16.963  33.278  1.00  0.00    -0.352 N 
ATOM     13  H   UNL     1      -2.234  16.299  32.571  1.00  0.00     0.163 HD
BRANCH  12  14
ATOM     14  C   UNL     1      -2.807  18.357  32.881  1.00  0.00     0.151 C 
BRANCH  14  15
ATOM     15  C   UNL     1      -1.595  19.159  33.268  1.00  0.00    -0.025 A 
ATOM     16  C   UNL     1      -1.737  20.418  33.875  1.00  0.00     0.056 A 
ATOM     17  C   UNL     1      -0.315  18.698  32.931  1.00  0.00     0.009 A 
ATOM     18  C   UNL     1      -0.605  21.216  34.138  1.00  0.00     0.160 A 
ATOM     19  C   UNL     1       0.810  19.476  33.206  1.00  0.00     0.050 A 
ATOM     20  C   UNL     1       0.669  20.735  33.804  1.00  0.00     0.157 A 
BRANCH  18  21
ATOM     21  O   UNL     1      -0.708  22.492  34.714  1.00  0.00    -0.493 OA
ATOM     22  C   UNL     1      -1.444  23.573  34.149  1.00  0.00     0.278 C 
ENDBRANCH  18  21
BRANCH  20  23
ATOM     23  O   UNL     1       1.790  21.521  34.058  1.00  0.00    -0.504 OA
ATOM     24  H   UNL     1       2.544  21.193  34.652  1.00  0.00     0.293 HD
ENDBRANCH  20  23
ENDBRANCH  14  15
ENDBRANCH  12  14
ENDBRANCH   9  10
ENDBRANCH   1   9
TORSDOF 10
ENDMDL
MODEL 4
REMARK VINA RESULT:    -5.464      1.360      1.549
REMARK INTER + INTRA:          -9.880
REMARK INTER:                  -8.672
REMARK INTRA:                  -1.208
REMARK UNBOUND:                -1.381
REMARK SMILES COc1cc(CNC(=O)CCCCC=CC(C)C)ccc1O
REMARK SMILES IDX 11 1 12 2 13 3 14 4 15 5 16 6 17 7 18 8 10 9 8 10 9 11 7 12
REMARK SMILES IDX 6 14 5 15 4 16 19 17 3 18 20 19 21 20 2 21 1 22 22 23
REMARK H PARENT 7 13 22 24
REMARK Flexibility Score: inf
ROOT
ATOM      1  C   UNL     1      -3.599  22.951  33.510  1.00  0.00     0.010 C 
ENDROOT
BRANCH   1   2
ATOM      2  C   UNL     1      -3.205  23.469  34.906  1.00  0.00     0.005 C 
BRANCH   2   3
ATOM      3  C   UNL     1      -1.850  24.188  34.910  1.00  0.00     0.027 C 
BRANCH   3   4
ATOM      4  C   UNL     1      -0.791  23.371  34.227  1.00  0.00    -0.031 C 
ATOM      5  C   UNL     1      -0.382  22.195  34.726  1.00  0.00    -0.028 C 
BRANCH   5   6
ATOM      6  C   UNL     1       0.726  21.405  34.069  1.00  0.00     0.005 C 
ATOM      7  C   UNL     1       0.319  19.935  33.917  1.00  0.00     0.012 C 
ATOM      8  C   UNL     1       2.019  21.519  34.881  1.00  0.00     0.012 C 
ENDBRANCH   5   6
ENDBRANCH   3   4
ENDBRANCH   2   3
ENDBRANCH   1   2
BRANCH   1   9
ATOM      9  C   UNL     1      -4.090  21.490  33.497  1.00  0.00     0.100 C 
BRANCH   9  10
ATOM     10  C   UNL     1      -3.448  20.661  32.419  1.00  0.00     0.220 C 
ATOM     11  O   UNL     1      -2.438  21.106  31.808  1.00  0.00    -0.275 OA
ATOM     12  N   UNL     1      -3.956  19.353  32.116  1.00  0.00    -0.352 N 
ATOM     13  H   UNL     1      -4.736  18.964  32.692  1.00  0.00     0.163 HD
BRANCH  12  14
ATOM     14  C   UNL     1      -3.526  18.596  30.942  1.00  0.00     0.151 C 
BRANCH  14  15
ATOM     15  C   UNL     1      -2.689  17.423  31.372  1.00  0.00    -0.025 A 
ATOM     16  C   UNL     1      -3.289  16.182  31.646  1.00  0.00     0.056 A 
ATOM     17  C   UNL     1      -1.317  17.590  31.601  1.00  0.00     0.009 A 
ATOM     18  C   UNL     1      -2.521  15.115  32.152  1.00  0.00     0.160 A 
ATOM     19  C   UNL     1      -0.549  16.531  32.085  1.00  0.00     0.050 A 
ATOM     20  C   UNL     1      -1.147  15.295  32.366  1.00  0.00     0.157 A 
BRANCH  18  21
ATOM     21  O   UNL     1      -3.089  13.870  32.468  1.00  0.00    -0.493 OA
ATOM     22  C   UNL     1      -4.009  13.172  31.636  1.00  0.00     0.278 C 
ENDBRANCH  18  21
BRANCH  20  23
ATOM     23  O   UNL     1      -0.384  14.245  32.870  1.00  0.00    -0.504 OA
ATOM     24  H   UNL     1      -0.528  13.290  32.562  1.00  0.00     0.293 HD
ENDBRANCH  20  23
ENDBRANCH  14  15
ENDBRANCH  12  14
ENDBRANCH   9  10
ENDBRANCH   1   9
TORSDOF 10
ENDMDL
MODEL 5
REMARK VINA RESULT:    -5.359      2.987      7.074
REMARK INTER + INTRA:          -9.716
REMARK INTER:                  -9.020
REMARK INTRA:                  -0.697
REMARK UNBOUND:                -1.381
REMARK SMILES COc1cc(CNC(=O)CCCCC=CC(C)C)ccc1O
REMARK SMILES IDX 11 1 12 2 13 3 14 4 15 5 16 6 17 7 18 8 10 9 8 10 9 11 7 12
REMARK SMILES IDX 6 14 5 15 4 16 19 17 3 18 20 19 21 20 2 21 1 22 22 23
REMARK H PARENT 7 13 22 24
REMARK Flexibility Score: inf
ROOT
ATOM      1  C   UNL     1      -3.048  14.159  34.650  1.00  0.00     0.010 C 
ENDROOT
BRANCH   1   2
ATOM      2  C   UNL     1      -3.980  12.996  34.261  1.00  0.00     0.005 C 
BRANCH   2   3
ATOM      3  C   UNL     1      -4.029  12.755  32.747  1.00  0.00     0.027 C 
BRANCH   3   4
ATOM      4  C   UNL     1      -3.526  13.947  31.984  1.00  0.00    -0.031 C 
ATOM      5  C   UNL     1      -3.232  13.870  30.677  1.00  0.00    -0.028 C 
BRANCH   5   6
ATOM      6  C   UNL     1      -2.669  15.055  29.927  1.00  0.00     0.005 C 
ATOM      7  C   UNL     1      -1.191  15.259  30.278  1.00  0.00     0.012 C 
ATOM      8  C   UNL     1      -3.472  16.320  30.243  1.00  0.00     0.012 C 
ENDBRANCH   5   6
ENDBRANCH   3   4
ENDBRANCH   2   3
ENDBRANCH   1   2
BRANCH   1   9
ATOM      9  C   UNL     1      -3.713  15.228  35.538  1.00  0.00     0.100 C 
BRANCH   9  10
ATOM     10  C   UNL     1      -3.698  16.600  34.922  1.00  0.00     0.220 C 
ATOM     11  O   UNL     1      -4.121  16.760  33.745  1.00  0.00    -0.275 OA
ATOM     12  N   UNL     1      -3.245  17.728  35.685  1.00  0.00    -0.352 N 
ATOM     13  H   UNL     1      -2.983  17.593  36.687  1.00  0.00     0.163 HD
BRANCH  12  14
ATOM     14  C   UNL     1      -2.995  19.036  35.081  1.00  0.00     0.151 C 
BRANCH  14  15
ATOM     15  C   UNL     1      -1.731  18.987  34.268  1.00  0.00    -0.025 A 
ATOM     16  C   UNL     1      -0.576  19.657  34.705  1.00  0.00     0.056 A 
ATOM     17  C   UNL     1      -1.728  18.355  33.017  1.00  0.00     0.009 A 
ATOM     18  C   UNL     1       0.574  19.702  33.892  1.00  0.00     0.160 A 
ATOM     19  C   UNL     1      -0.586  18.380  32.217  1.00  0.00     0.050 A 
ATOM     20  C   UNL     1       0.563  19.056  32.648  1.00  0.00     0.157 A 
BRANCH  18  21
ATOM     21  O   UNL     1       1.736  20.388  34.279  1.00  0.00    -0.493 OA
ATOM     22  C   UNL     1       1.753  21.716  34.792  1.00  0.00     0.278 C 
ENDBRANCH  18  21
BRANCH  20  23
ATOM     23  O   UNL     1       1.696  19.100  31.838  1.00  0.00    -0.504 OA
ATOM     24  H   UNL     1       1.739  18.597  30.959  1.00  0.00     0.293 HD
ENDBRANCH  20  23
ENDBRANCH  14  15
ENDBRANCH  12  14
ENDBRANCH   9  10
ENDBRANCH   1   9
TORSDOF 10
ENDMDL
MODEL 6
REMARK VINA RESULT:    -5.310      2.147      6.815
REMARK INTER + INTRA:          -9.639
REMARK INTER:                  -7.789
REMARK INTRA:                  -1.850
REMARK UNBOUND:                -1.381
REMARK SMILES COc1cc(CNC(=O)CCCCC=CC(C)C)ccc1O
REMARK SMILES IDX 11 1 12 2 13 3 14 4 15 5 16 6 17 7 18 8 10 9 8 10 9 11 7 12
REMARK SMILES IDX 6 14 5 15 4 16 19 17 3 18 20 19 21 20 2 21 1 22 22 23
REMARK H PARENT 7 13 22 24
REMARK Flexibility Score: inf
ROOT
ATOM      1  C   UNL     1      -1.864  15.010  31.801  1.00  0.00     0.010 C 
ENDROOT
BRANCH   1   2
ATOM      2  C   UNL     1      -3.343  14.698  31.506  1.00  0.00     0.005 C 
BRANCH   2   3
ATOM      3  C   UNL     1      -4.013  15.768  30.635  1.00  0.00     0.027 C 
BRANCH   3   4
ATOM      4  C   UNL     1      -3.242  17.058  30.657  1.00  0.00    -0.031 C 
ATOM      5  C   UNL     1      -3.750  18.168  31.213  1.00  0.00    -0.028 C 
BRANCH   5   6
ATOM      6  C   UNL     1      -2.997  19.478  31.180  1.00  0.00     0.005 C 
ATOM      7  C   UNL     1      -3.543  20.382  30.069  1.00  0.00     0.012 C 
ATOM      8  C   UNL     1      -1.499  19.230  30.978  1.00  0.00     0.012 C 
ENDBRANCH   5   6
ENDBRANCH   3   4
ENDBRANCH   2   3
ENDBRANCH   1   2
BRANCH   1   9
ATOM      9  C   UNL     1      -1.466  14.834  33.279  1.00  0.00     0.100 C 
BRANCH   9  10
ATOM     10  C   UNL     1      -2.202  15.764  34.203  1.00  0.00     0.220 C 
ATOM     11  O   UNL     1      -3.159  15.324  34.898  1.00  0.00    -0.275 OA
ATOM     12  N   UNL     1      -1.791  17.133  34.326  1.00  0.00    -0.352 N 
ATOM     13  H   UNL     1      -0.942  17.458  33.813  1.00  0.00     0.163 HD
BRANCH  12  14
ATOM     14  C   UNL     1      -2.593  18.134  35.027  1.00  0.00     0.151 C 
BRANCH  14  15
ATOM     15  C   UNL     1      -2.117  19.513  34.663  1.00  0.00    -0.025 A 
ATOM     16  C   UNL     1      -0.748  19.769  34.482  1.00  0.00     0.056 A 
ATOM     17  C   UNL     1      -3.030  20.574  34.601  1.00  0.00     0.009 A 
ATOM     18  C   UNL     1      -0.292  21.082  34.247  1.00  0.00     0.160 A 
ATOM     19  C   UNL     1      -2.586  21.873  34.351  1.00  0.00     0.050 A 
ATOM     20  C   UNL     1      -1.220  22.131  34.178  1.00  0.00     0.157 A 
BRANCH  18  21
ATOM     21  O   UNL     1       1.071  21.384  34.093  1.00  0.00    -0.493 OA
ATOM     22  C   UNL     1       2.001  21.474  35.166  1.00  0.00     0.278 C 
ENDBRANCH  18  21
BRANCH  20  23
ATOM     23  O   UNL     1      -0.774  23.431  33.950  1.00  0.00    -0.504 OA
ATOM     24  H   UNL     1      -0.486  24.034  34.712  1.00  0.00     0.293 HD
ENDBRANCH  20  23
ENDBRANCH  14  15
ENDBRANCH  12  14
ENDBRANCH   9  10
ENDBRANCH   1   9
TORSDOF 10
ENDMDL
MODEL 7
REMARK VINA RESULT:    -5.296      1.520      2.732
REMARK INTER + INTRA:          -9.617
REMARK INTER:                  -7.496
REMARK INTRA:                  -2.121
REMARK UNBOUND:                -1.381
REMARK SMILES COc1cc(CNC(=O)CCCCC=CC(C)C)ccc1O
REMARK SMILES IDX 11 1 12 2 13 3 14 4 15 5 16 6 17 7 18 8 10 9 8 10 9 11 7 12
REMARK SMILES IDX 6 14 5 15 4 16 19 17 3 18 20 19 21 20 2 21 1 22 22 23
REMARK H PARENT 7 13 22 24
REMARK Flexibility Score: inf
ROOT
ATOM      1  C   UNL     1      -0.758  22.610  34.166  1.00  0.00     0.010 C 
ENDROOT
BRANCH   1   2
ATOM      2  C   UNL     1       0.389  22.075  35.045  1.00  0.00     0.005 C 
BRANCH   2   3
ATOM      3  C   UNL     1       0.825  20.658  34.654  1.00  0.00     0.027 C 
BRANCH   3   4
ATOM      4  C   UNL     1       0.507  20.361  33.216  1.00  0.00    -0.031 C 
ATOM      5  C   UNL     1       0.084  19.149  32.827  1.00  0.00    -0.028 C 
BRANCH   5   6
ATOM      6  C   UNL     1      -0.177  18.837  31.372  1.00  0.00     0.005 C 
ATOM      7  C   UNL     1      -1.456  19.535  30.894  1.00  0.00     0.012 C 
ATOM      8  C   UNL     1      -0.284  17.324  31.159  1.00  0.00     0.012 C 
ENDBRANCH   5   6
ENDBRANCH   3   4
ENDBRANCH   2   3
ENDBRANCH   1   2
BRANCH   1   9
ATOM      9  C   UNL     1      -2.165  22.335  34.731  1.00  0.00     0.100 C 
BRANCH   9  10
ATOM     10  C   UNL     1      -2.960  21.373  33.893  1.00  0.00     0.220 C 
ATOM     11  O   UNL     1      -3.476  21.766  32.811  1.00  0.00    -0.275 OA
ATOM     12  N   UNL     1      -3.095  20.003  34.300  1.00  0.00    -0.352 N 
ATOM     13  H   UNL     1      -2.587  19.672  35.150  1.00  0.00     0.163 HD
BRANCH  12  14
ATOM     14  C   UNL     1      -4.029  19.081  33.657  1.00  0.00     0.151 C 
BRANCH  14  15
ATOM     15  C   UNL     1      -3.384  17.732  33.498  1.00  0.00    -0.025 A 
ATOM     16  C   UNL     1      -3.681  16.926  32.387  1.00  0.00     0.056 A 
ATOM     17  C   UNL     1      -2.559  17.228  34.513  1.00  0.00     0.009 A 
ATOM     18  C   UNL     1      -3.162  15.619  32.293  1.00  0.00     0.160 A 
ATOM     19  C   UNL     1      -2.027  15.942  34.415  1.00  0.00     0.050 A 
ATOM     20  C   UNL     1      -2.329  15.134  33.311  1.00  0.00     0.157 A 
BRANCH  18  21
ATOM     21  O   UNL     1      -3.461  14.772  31.214  1.00  0.00    -0.493 OA
ATOM     22  C   UNL     1      -2.848  14.856  29.931  1.00  0.00     0.278 C 
ENDBRANCH  18  21
BRANCH  20  23
ATOM     23  O   UNL     1      -1.816  13.842  33.225  1.00  0.00    -0.504 OA
ATOM     24  H   UNL     1      -1.305  13.422  33.994  1.00  0.00     0.293 HD
ENDBRANCH  20  23
ENDBRANCH  14  15
ENDBRANCH  12  14
ENDBRANCH   9  10
ENDBRANCH   1   9
TORSDOF 10
ENDMDL
MODEL 8
REMARK VINA RESULT:    -5.284      1.990      3.546
REMARK INTER + INTRA:          -9.600
REMARK INTER:                  -7.563
REMARK INTRA:                  -2.036
REMARK UNBOUND:                -1.381
REMARK SMILES COc1cc(CNC(=O)CCCCC=CC(C)C)ccc1O
REMARK SMILES IDX 11 1 12 2 13 3 14 4 15 5 16 6 17 7 18 8 10 9 8 10 9 11 7 12
REMARK SMILES IDX 6 14 5 15 4 16 19 17 3 18 20 19 21 20 2 21 1 22 22 23
REMARK H PARENT 7 13 22 24
REMARK Flexibility Score: inf
ROOT
ATOM      1  C   UNL     1      -1.056  22.839  33.968  1.00  0.00     0.010 C 
ENDROOT
BRANCH   1   2
ATOM      2  C   UNL     1      -2.385  22.833  34.747  1.00  0.00     0.005 C 
BRANCH   2   3
ATOM      3  C   UNL     1      -3.196  21.550  34.527  1.00  0.00     0.027 C 
BRANCH   3   4
ATOM      4  C   UNL     1      -3.388  21.265  33.064  1.00  0.00    -0.031 C 
ATOM      5  C   UNL     1      -3.494  20.009  32.603  1.00  0.00    -0.028 C 
BRANCH   5   6
ATOM      6  C   UNL     1      -3.626  19.724  31.126  1.00  0.00     0.005 C 
ATOM      7  C   UNL     1      -3.841  18.224  30.886  1.00  0.00     0.012 C 
ATOM      8  C   UNL     1      -2.384  20.212  30.373  1.00  0.00     0.012 C 
ENDBRANCH   5   6
ENDBRANCH   3   4
ENDBRANCH   2   3
ENDBRANCH   1   2
BRANCH   1   9
ATOM      9  C   UNL     1       0.137  22.262  34.754  1.00  0.00     0.100 C 
BRANCH   9  10
ATOM     10  C   UNL     1       0.746  21.053  34.099  1.00  0.00     0.220 C 
ATOM     11  O   UNL     1       1.918  20.702  34.405  1.00  0.00    -0.275 OA
ATOM     12  N   UNL     1      -0.018  20.278  33.164  1.00  0.00    -0.352 N 
ATOM     13  H   UNL     1      -1.017  20.530  32.989  1.00  0.00     0.163 HD
BRANCH  12  14
ATOM     14  C   UNL     1       0.582  19.236  32.332  1.00  0.00     0.151 C 
BRANCH  14  15
ATOM     15  C   UNL     1      -0.182  17.951  32.498  1.00  0.00    -0.025 A 
ATOM     16  C   UNL     1      -0.269  17.032  31.439  1.00  0.00     0.056 A 
ATOM     17  C   UNL     1      -0.897  17.710  33.679  1.00  0.00     0.009 A 
ATOM     18  C   UNL     1      -1.074  15.881  31.557  1.00  0.00     0.160 A 
ATOM     19  C   UNL     1      -1.680  16.563  33.808  1.00  0.00     0.050 A 
ATOM     20  C   UNL     1      -1.774  15.650  32.749  1.00  0.00     0.157 A 
BRANCH  18  21
ATOM     21  O   UNL     1      -1.212  14.956  30.510  1.00  0.00    -0.493 OA
ATOM     22  C   UNL     1      -2.291  14.947  29.581  1.00  0.00     0.278 C 
ENDBRANCH  18  21
BRANCH  20  23
ATOM     23  O   UNL     1      -2.573  14.515  32.870  1.00  0.00    -0.504 OA
ATOM     24  H   UNL     1      -2.186  13.621  33.149  1.00  0.00     0.293 HD
ENDBRANCH  20  23
ENDBRANCH  14  15
ENDBRANCH  12  14
ENDBRANCH   9  10
ENDBRANCH   1   9
TORSDOF 10
ENDMDL
MODEL 9
REMARK VINA RESULT:    -5.241      2.292      3.680
REMARK INTER + INTRA:          -9.532
REMARK INTER:                  -8.674
REMARK INTRA:                  -0.858
REMARK UNBOUND:                -1.381
REMARK SMILES COc1cc(CNC(=O)CCCCC=CC(C)C)ccc1O
REMARK SMILES IDX 11 1 12 2 13 3 14 4 15 5 16 6 17 7 18 8 10 9 8 10 9 11 7 12
REMARK SMILES IDX 6 14 5 15 4 16 19 17 3 18 20 19 21 20 2 21 1 22 22 23
REMARK H PARENT 7 13 22 24
REMARK Flexibility Score: inf
ROOT
ATOM      1  C   UNL     1      -1.113  20.383  31.041  1.00  0.00     0.010 C 
ENDROOT
BRANCH   1   2
ATOM      2  C   UNL     1      -0.692  18.920  31.278  1.00  0.00     0.005 C 
BRANCH   2   3
ATOM      3  C   UNL     1       0.284  18.767  32.452  1.00  0.00     0.027 C 
BRANCH   3   4
ATOM      4  C   UNL     1       0.295  19.992  33.322  1.00  0.00    -0.031 C 
ATOM      5  C   UNL     1       1.437  20.483  33.826  1.00  0.00    -0.028 C 
BRANCH   5   6
ATOM      6  C   UNL     1       1.437  21.679  34.750  1.00  0.00     0.005 C 
ATOM      7  C   UNL     1       1.868  21.265  36.162  1.00  0.00     0.012 C 
ATOM      8  C   UNL     1       0.051  22.330  34.785  1.00  0.00     0.012 C 
ENDBRANCH   5   6
ENDBRANCH   3   4
ENDBRANCH   2   3
ENDBRANCH   1   2
BRANCH   1   9
ATOM      9  C   UNL     1      -2.613  20.651  31.271  1.00  0.00     0.100 C 
BRANCH   9  10
ATOM     10  C   UNL     1      -3.432  19.393  31.351  1.00  0.00     0.220 C 
ATOM     11  O   UNL     1      -4.060  19.123  32.411  1.00  0.00    -0.275 OA
ATOM     12  N   UNL     1      -3.533  18.524  30.212  1.00  0.00    -0.352 N 
ATOM     13  H   UNL     1      -3.081  18.808  29.314  1.00  0.00     0.163 HD
BRANCH  12  14
ATOM     14  C   UNL     1      -4.121  17.189  30.293  1.00  0.00     0.151 C 
BRANCH  14  15
ATOM     15  C   UNL     1      -3.174  16.259  31.000  1.00  0.00    -0.025 A 
ATOM     16  C   UNL     1      -3.507  15.723  32.256  1.00  0.00     0.056 A 
ATOM     17  C   UNL     1      -1.909  16.002  30.455  1.00  0.00     0.009 A 
ATOM     18  C   UNL     1      -2.576  14.940  32.967  1.00  0.00     0.160 A 
ATOM     19  C   UNL     1      -0.991  15.212  31.147  1.00  0.00     0.050 A 
ATOM     20  C   UNL     1      -1.318  14.684  32.403  1.00  0.00     0.157 A 
BRANCH  18  21
ATOM     21  O   UNL     1      -2.858  14.413  34.237  1.00  0.00    -0.493 OA
ATOM     22  C   UNL     1      -3.570  13.202  34.466  1.00  0.00     0.278 C 
ENDBRANCH  18  21
BRANCH  20  23
ATOM     23  O   UNL     1      -0.392  13.913  33.103  1.00  0.00    -0.504 OA
ATOM     24  H   UNL     1       0.079  14.269  33.927  1.00  0.00     0.293 HD
ENDBRANCH  20  23
ENDBRANCH  14  15
ENDBRANCH  12  14
ENDBRANCH   9  10
ENDBRANCH   1   9
TORSDOF 10
ENDMDL
