MODEL 1
REMARK VINA RESULT:    19.327      0.000      0.000
REMARK INTER + INTRA:          29.258
REMARK INTER:                  28.366
REMARK INTRA:                   0.892
REMARK UNBOUND:                 0.892
REMARK SMILES Cc1cc2c(C(C)C)c(O)c(O)c(C=O)c2c(O)c1-c1c(C)cc2c(C(C)C)c(O)c(O)c(C=O)c2c1O
REMARK SMILES IDX 1 1 2 2 3 3 4 4 16 5 13 6 11 7 9 8 5 9 17 10 19 11 20 12
REMARK SMILES IDX 37 13 21 14 36 15 23 16 22 17 24 18 33 19 25 20 31 21 29 22
REMARK SMILES IDX 38 23 34 25 35 26 26 27 27 28 28 29 32 30 30 32 18 34 6 36
REMARK SMILES IDX 7 37 8 38 14 39 15 40 10 41 12 43
REMARK H PARENT 38 24 32 31 30 33 18 35 10 42 12 44
REMARK Flexibility Score: inf
ROOT
ATOM      1  C   UNL     1      10.586   7.913 -18.195  1.00  0.00     0.045 C 
ATOM      2  C   UNL     1      11.749   8.226 -19.107  1.00  0.00    -0.039 A 
ATOM      3  C   UNL     1      12.456   7.181 -19.700  1.00  0.00     0.013 A 
ATOM      4  C   UNL     1      13.572   7.411 -20.534  1.00  0.00    -0.006 A 
ATOM      5  C   UNL     1      13.913   8.758 -20.870  1.00  0.00     0.039 A 
ATOM      6  C   UNL     1      14.965   8.988 -21.809  1.00  0.00     0.072 A 
ATOM      7  C   UNL     1      15.593   7.896 -22.443  1.00  0.00     0.169 A 
ATOM      8  C   UNL     1      15.246   6.585 -22.108  1.00  0.00     0.162 A 
ATOM      9  C   UNL     1      14.327   6.322 -21.071  1.00  0.00     0.008 A 
ATOM     10  C   UNL     1      13.161   9.825 -20.288  1.00  0.00     0.132 A 
ATOM     11  C   UNL     1      12.109   9.553 -19.387  1.00  0.00     0.031 A 
ENDROOT
BRANCH  11  12
ATOM     12  C   UNL     1      11.354  10.668 -18.756  1.00  0.00     0.031 A 
ATOM     13  C   UNL     1      10.667  11.605 -19.557  1.00  0.00     0.132 A 
ATOM     14  C   UNL     1      11.358  10.808 -17.359  1.00  0.00    -0.039 A 
ATOM     15  C   UNL     1       9.900  12.646 -18.956  1.00  0.00     0.039 A 
ATOM     16  C   UNL     1      10.698  11.888 -16.774  1.00  0.00     0.013 A 
ATOM     17  C   UNL     1      12.140   9.860 -16.482  1.00  0.00     0.045 C 
ATOM     18  C   UNL     1       9.931  12.799 -17.536  1.00  0.00    -0.006 A 
ATOM     19  C   UNL     1       9.141  13.570 -19.731  1.00  0.00     0.072 A 
ATOM     20  C   UNL     1       9.235  13.882 -16.916  1.00  0.00     0.008 A 
ATOM     21  C   UNL     1       8.595  14.715 -19.122  1.00  0.00     0.169 A 
ATOM     22  C   UNL     1       8.719  14.909 -17.736  1.00  0.00     0.162 A 
BRANCH  13  23
ATOM     23  O   UNL     1      10.790  11.531 -20.950  1.00  0.00    -0.507 OA
ATOM     24  H   UNL     1      11.481  12.043 -21.484  1.00  0.00     0.293 HD
ENDBRANCH  13  23
BRANCH  19  25
ATOM     25  C   UNL     1       8.821  13.323 -21.159  1.00  0.00     0.264 C 
ATOM     26  O   UNL     1       7.815  12.641 -21.494  1.00  0.00    -0.298 OA
ENDBRANCH  19  25
BRANCH  20  27
ATOM     27  C   UNL     1       9.084  13.980 -15.387  1.00  0.00     0.017 C 
ATOM     28  C   UNL     1      10.302  14.665 -14.760  1.00  0.00     0.012 C 
ATOM     29  C   UNL     1       7.772  14.645 -14.931  1.00  0.00     0.012 C 
ENDBRANCH  20  27
BRANCH  21  30
ATOM     30  O   UNL     1       7.884  15.625 -19.913  1.00  0.00    -0.504 OA
ATOM     31  H   UNL     1       7.906  15.634 -20.923  1.00  0.00     0.293 HD
ENDBRANCH  21  30
BRANCH  22  32
ATOM     32  O   UNL     1       8.346  16.124 -17.154  1.00  0.00    -0.504 OA
ATOM     33  H   UNL     1       8.887  16.603 -16.448  1.00  0.00     0.293 HD
ENDBRANCH  22  32
ENDBRANCH  11  12
BRANCH  10  34
ATOM     34  O   UNL     1      13.443  11.156 -20.619  1.00  0.00    -0.507 OA
ATOM     35  H   UNL     1      13.658  11.474 -21.556  1.00  0.00     0.293 HD
ENDBRANCH  10  34
BRANCH   9  36
ATOM     36  C   UNL     1      14.144   4.880 -20.562  1.00  0.00     0.017 C 
ATOM     37  C   UNL     1      14.075   4.846 -19.032  1.00  0.00     0.012 C 
ATOM     38  C   UNL     1      12.947   4.143 -21.192  1.00  0.00     0.012 C 
ENDBRANCH   9  36
BRANCH   6  39
ATOM     39  C   UNL     1      15.426  10.350 -22.146  1.00  0.00     0.264 C 
ATOM     40  O   UNL     1      16.655  10.597 -22.277  1.00  0.00    -0.298 OA
ENDBRANCH   6  39
BRANCH   8  41
ATOM     41  O   UNL     1      15.825   5.524 -22.811  1.00  0.00    -0.504 OA
ATOM     42  H   UNL     1      15.334   5.003 -23.527  1.00  0.00     0.293 HD
ENDBRANCH   8  41
BRANCH   7  43
ATOM     43  O   UNL     1      16.603   8.081 -23.396  1.00  0.00    -0.504 OA
ATOM     44  H   UNL     1      16.821   7.421 -24.129  1.00  0.00     0.293 HD
ENDBRANCH   7  43
TORSDOF 11
ENDMDL
MODEL 2
REMARK VINA RESULT:    20.742      1.544      9.113
REMARK INTER + INTRA:          31.334
REMARK INTER:                  30.267
REMARK INTRA:                   1.067
REMARK UNBOUND:                 0.892
REMARK SMILES Cc1cc2c(C(C)C)c(O)c(O)c(C=O)c2c(O)c1-c1c(C)cc2c(C(C)C)c(O)c(O)c(C=O)c2c1O
REMARK SMILES IDX 1 1 2 2 3 3 4 4 16 5 13 6 11 7 9 8 5 9 17 10 19 11 20 12
REMARK SMILES IDX 37 13 21 14 36 15 23 16 22 17 24 18 33 19 25 20 31 21 29 22
REMARK SMILES IDX 38 23 34 25 35 26 26 27 27 28 28 29 32 30 30 32 18 34 6 36
REMARK SMILES IDX 7 37 8 38 14 39 15 40 10 41 12 43
REMARK H PARENT 38 24 32 31 30 33 18 35 10 42 12 44
REMARK Flexibility Score: inf
ROOT
ATOM      1  C   UNL     1      10.455  11.556 -21.452  1.00  0.00     0.045 C 
ATOM      2  C   UNL     1      10.461  11.987 -20.004  1.00  0.00    -0.039 A 
ATOM      3  C   UNL     1       9.746  13.122 -19.624  1.00  0.00     0.013 A 
ATOM      4  C   UNL     1       9.742  13.592 -18.292  1.00  0.00    -0.006 A 
ATOM      5  C   UNL     1      10.395  12.813 -17.286  1.00  0.00     0.039 A 
ATOM      6  C   UNL     1      10.289  13.223 -15.922  1.00  0.00     0.072 A 
ATOM      7  C   UNL     1       9.487  14.331 -15.581  1.00  0.00     0.169 A 
ATOM      8  C   UNL     1       8.850  15.079 -16.574  1.00  0.00     0.162 A 
ATOM      9  C   UNL     1       9.063  14.800 -17.940  1.00  0.00     0.008 A 
ATOM     10  C   UNL     1      11.095  11.630 -17.677  1.00  0.00     0.132 A 
ATOM     11  C   UNL     1      11.150  11.244 -19.034  1.00  0.00     0.031 A 
ENDROOT
BRANCH  11  12
ATOM     12  C   UNL     1      11.911  10.032 -19.439  1.00  0.00     0.031 A 
ATOM     13  C   UNL     1      13.040  10.148 -20.276  1.00  0.00     0.132 A 
ATOM     14  C   UNL     1      11.477   8.765 -19.016  1.00  0.00    -0.039 A 
ATOM     15  C   UNL     1      13.803   8.995 -20.627  1.00  0.00     0.039 A 
ATOM     16  C   UNL     1      12.158   7.626 -19.446  1.00  0.00     0.013 A 
ATOM     17  C   UNL     1      10.233   8.606 -18.176  1.00  0.00     0.045 C 
ATOM     18  C   UNL     1      13.341   7.707 -20.216  1.00  0.00    -0.006 A 
ATOM     19  C   UNL     1      14.987   9.082 -21.416  1.00  0.00     0.072 A 
ATOM     20  C   UNL     1      14.043   6.530 -20.621  1.00  0.00     0.008 A 
ATOM     21  C   UNL     1      15.572   7.912 -21.934  1.00  0.00     0.169 A 
ATOM     22  C   UNL     1      15.047   6.650 -21.607  1.00  0.00     0.162 A 
BRANCH  13  23
ATOM     23  O   UNL     1      13.374  11.402 -20.801  1.00  0.00    -0.507 OA
ATOM     24  H   UNL     1      12.731  11.988 -21.319  1.00  0.00     0.293 HD
ENDBRANCH  13  23
BRANCH  19  25
ATOM     25  C   UNL     1      15.689  10.370 -21.641  1.00  0.00     0.264 C 
ATOM     26  O   UNL     1      16.942  10.456 -21.540  1.00  0.00    -0.298 OA
ENDBRANCH  19  25
BRANCH  20  27
ATOM     27  C   UNL     1      13.696   5.142 -20.053  1.00  0.00     0.017 C 
ATOM     28  C   UNL     1      13.688   4.084 -21.161  1.00  0.00     0.012 C 
ATOM     29  C   UNL     1      14.587   4.710 -18.874  1.00  0.00     0.012 C 
ENDBRANCH  20  27
BRANCH  21  30
ATOM     30  O   UNL     1      16.714   8.028 -22.735  1.00  0.00    -0.504 OA
ATOM     31  H   UNL     1      17.075   7.285 -23.317  1.00  0.00     0.293 HD
ENDBRANCH  21  30
BRANCH  22  32
ATOM     32  O   UNL     1      15.503   5.502 -22.260  1.00  0.00    -0.504 OA
ATOM     33  H   UNL     1      16.453   5.369 -22.575  1.00  0.00     0.293 HD
ENDBRANCH  22  32
ENDBRANCH  11  12
BRANCH  10  34
ATOM     34  O   UNL     1      11.718  10.823 -16.717  1.00  0.00    -0.507 OA
ATOM     35  H   UNL     1      12.481  11.130 -16.126  1.00  0.00     0.293 HD
ENDBRANCH  10  34
BRANCH   9  36
ATOM     36  C   UNL     1       8.548  15.781 -19.009  1.00  0.00     0.017 C 
ATOM     37  C   UNL     1       9.652  16.125 -20.013  1.00  0.00     0.012 C 
ATOM     38  C   UNL     1       7.268  15.307 -19.725  1.00  0.00     0.012 C 
ENDBRANCH   9  36
BRANCH   6  39
ATOM     39  C   UNL     1      11.000  12.516 -14.837  1.00  0.00     0.264 C 
ATOM     40  O   UNL     1      10.529  12.496 -13.669  1.00  0.00    -0.298 OA
ENDBRANCH   6  39
BRANCH   8  41
ATOM     41  O   UNL     1       7.995  16.121 -16.202  1.00  0.00    -0.504 OA
ATOM     42  H   UNL     1       8.265  16.854 -15.558  1.00  0.00     0.293 HD
ENDBRANCH   8  41
BRANCH   7  43
ATOM     43  O   UNL     1       9.328  14.741 -14.250  1.00  0.00    -0.504 OA
ATOM     44  H   UNL     1      10.073  15.109 -13.676  1.00  0.00     0.293 HD
ENDBRANCH   7  43
TORSDOF 11
ENDMDL
MODEL 3
REMARK VINA RESULT:    21.445      9.922     11.077
REMARK INTER + INTRA:          32.367
REMARK INTER:                  32.049
REMARK INTRA:                   0.318
REMARK UNBOUND:                 0.892
REMARK SMILES Cc1cc2c(C(C)C)c(O)c(O)c(C=O)c2c(O)c1-c1c(C)cc2c(C(C)C)c(O)c(O)c(C=O)c2c1O
REMARK SMILES IDX 1 1 2 2 3 3 4 4 16 5 13 6 11 7 9 8 5 9 17 10 19 11 20 12
REMARK SMILES IDX 37 13 21 14 36 15 23 16 22 17 24 18 33 19 25 20 31 21 29 22
REMARK SMILES IDX 38 23 34 25 35 26 26 27 27 28 28 29 32 30 30 32 18 34 6 36
REMARK SMILES IDX 7 37 8 38 14 39 15 40 10 41 12 43
REMARK H PARENT 38 24 32 31 30 33 18 35 10 42 12 44
REMARK Flexibility Score: inf
ROOT
ATOM      1  C   UNL     1      -0.125   8.351 -16.481  1.00  0.00     0.045 C 
ATOM      2  C   UNL     1       1.039   7.575 -15.910  1.00  0.00    -0.039 A 
ATOM      3  C   UNL     1       1.158   6.214 -16.187  1.00  0.00     0.013 A 
ATOM      4  C   UNL     1       2.206   5.431 -15.655  1.00  0.00    -0.006 A 
ATOM      5  C   UNL     1       3.237   6.080 -14.905  1.00  0.00     0.039 A 
ATOM      6  C   UNL     1       4.358   5.310 -14.469  1.00  0.00     0.072 A 
ATOM      7  C   UNL     1       4.471   3.956 -14.846  1.00  0.00     0.169 A 
ATOM      8  C   UNL     1       3.458   3.337 -15.584  1.00  0.00     0.162 A 
ATOM      9  C   UNL     1       2.265   4.022 -15.892  1.00  0.00     0.008 A 
ATOM     10  C   UNL     1       3.128   7.483 -14.655  1.00  0.00     0.132 A 
ATOM     11  C   UNL     1       2.017   8.212 -15.130  1.00  0.00     0.031 A 
ENDROOT
BRANCH  11  12
ATOM     12  C   UNL     1       1.891   9.664 -14.836  1.00  0.00     0.031 A 
ATOM     13  C   UNL     1       2.031  10.614 -15.870  1.00  0.00     0.132 A 
ATOM     14  C   UNL     1       1.671  10.091 -13.516  1.00  0.00    -0.039 A 
ATOM     15  C   UNL     1       1.861  12.005 -15.604  1.00  0.00     0.039 A 
ATOM     16  C   UNL     1       1.612  11.456 -13.235  1.00  0.00     0.013 A 
ATOM     17  C   UNL     1       1.585   9.100 -12.380  1.00  0.00     0.045 C 
ATOM     18  C   UNL     1       1.664  12.432 -14.255  1.00  0.00    -0.006 A 
ATOM     19  C   UNL     1       1.930  12.987 -16.635  1.00  0.00     0.072 A 
ATOM     20  C   UNL     1       1.570  13.826 -13.951  1.00  0.00     0.008 A 
ATOM     21  C   UNL     1       1.993  14.352 -16.300  1.00  0.00     0.169 A 
ATOM     22  C   UNL     1       1.902  14.759 -14.959  1.00  0.00     0.162 A 
BRANCH  13  23
ATOM     23  O   UNL     1       2.389  10.179 -17.152  1.00  0.00    -0.507 OA
ATOM     24  H   UNL     1       3.152   9.540 -17.340  1.00  0.00     0.293 HD
ENDBRANCH  13  23
BRANCH  19  25
ATOM     25  C   UNL     1       1.844  12.626 -18.071  1.00  0.00     0.264 C 
ATOM     26  O   UNL     1       0.745  12.304 -18.598  1.00  0.00    -0.298 OA
ENDBRANCH  19  25
BRANCH  20  27
ATOM     27  C   UNL     1       1.174  14.327 -12.550  1.00  0.00     0.017 C 
ATOM     28  C   UNL     1       2.337  15.068 -11.885  1.00  0.00     0.012 C 
ATOM     29  C   UNL     1      -0.113  15.172 -12.531  1.00  0.00     0.012 C 
ENDBRANCH  20  27
BRANCH  21  30
ATOM     30  O   UNL     1       2.096  15.293 -17.331  1.00  0.00    -0.504 OA
ATOM     31  H   UNL     1       1.537  16.134 -17.387  1.00  0.00     0.293 HD
ENDBRANCH  21  30
BRANCH  22  32
ATOM     32  O   UNL     1       2.149  16.088 -14.602  1.00  0.00    -0.504 OA
ATOM     33  H   UNL     1       2.987  16.594 -14.851  1.00  0.00     0.293 HD
ENDBRANCH  22  32
ENDBRANCH  11  12
BRANCH  10  34
ATOM     34  O   UNL     1       4.134   8.159 -13.955  1.00  0.00    -0.507 OA
ATOM     35  H   UNL     1       3.983   8.659 -13.088  1.00  0.00     0.293 HD
ENDBRANCH  10  34
BRANCH   9  36
ATOM     36  C   UNL     1       1.075   3.250 -16.490  1.00  0.00     0.017 C 
ATOM     37  C   UNL     1      -0.123   3.268 -15.535  1.00  0.00     0.012 C 
ATOM     38  C   UNL     1       0.673   3.719 -17.901  1.00  0.00     0.012 C 
ENDBRANCH   9  36
BRANCH   6  39
ATOM     39  C   UNL     1       5.422   5.891 -13.625  1.00  0.00     0.264 C 
ATOM     40  O   UNL     1       6.545   5.327 -13.531  1.00  0.00    -0.298 OA
ENDBRANCH   6  39
BRANCH   8  41
ATOM     41  O   UNL     1       3.636   2.019 -16.014  1.00  0.00    -0.504 OA
ATOM     42  H   UNL     1       3.983   1.780 -16.934  1.00  0.00     0.293 HD
ENDBRANCH   8  41
BRANCH   7  43
ATOM     43  O   UNL     1       5.575   3.178 -14.470  1.00  0.00    -0.504 OA
ATOM     44  H   UNL     1       6.526   3.518 -14.440  1.00  0.00     0.293 HD
ENDBRANCH   7  43
TORSDOF 11
ENDMDL
MODEL 4
REMARK VINA RESULT:    21.894      1.583      3.049
REMARK INTER + INTRA:          33.026
REMARK INTER:                  31.343
REMARK INTRA:                   1.683
REMARK UNBOUND:                 0.892
REMARK SMILES Cc1cc2c(C(C)C)c(O)c(O)c(C=O)c2c(O)c1-c1c(C)cc2c(C(C)C)c(O)c(O)c(C=O)c2c1O
REMARK SMILES IDX 1 1 2 2 3 3 4 4 16 5 13 6 11 7 9 8 5 9 17 10 19 11 20 12
REMARK SMILES IDX 37 13 21 14 36 15 23 16 22 17 24 18 33 19 25 20 31 21 29 22
REMARK SMILES IDX 38 23 34 25 35 26 26 27 27 28 28 29 32 30 30 32 18 34 6 36
REMARK SMILES IDX 7 37 8 38 14 39 15 40 10 41 12 43
REMARK H PARENT 38 24 32 31 30 33 18 35 10 42 12 44
REMARK Flexibility Score: inf
ROOT
ATOM      1  C   UNL     1      10.063   8.712 -18.187  1.00  0.00     0.045 C 
ATOM      2  C   UNL     1      11.315   8.786 -19.028  1.00  0.00    -0.039 A 
ATOM      3  C   UNL     1      11.963   7.609 -19.399  1.00  0.00     0.013 A 
ATOM      4  C   UNL     1      13.155   7.617 -20.156  1.00  0.00    -0.006 A 
ATOM      5  C   UNL     1      13.644   8.866 -20.653  1.00  0.00     0.039 A 
ATOM      6  C   UNL     1      14.781   8.864 -21.518  1.00  0.00     0.072 A 
ATOM      7  C   UNL     1      15.350   7.640 -21.929  1.00  0.00     0.169 A 
ATOM      8  C   UNL     1      14.857   6.428 -21.439  1.00  0.00     0.162 A 
ATOM      9  C   UNL     1      13.842   6.402 -20.460  1.00  0.00     0.008 A 
ATOM     10  C   UNL     1      12.954  10.067 -20.300  1.00  0.00     0.132 A 
ATOM     11  C   UNL     1      11.817  10.021 -19.466  1.00  0.00     0.031 A 
ENDROOT
BRANCH  11  12
ATOM     12  C   UNL     1      11.124  11.277 -19.072  1.00  0.00     0.031 A 
ATOM     13  C   UNL     1      11.014  11.632 -17.711  1.00  0.00     0.132 A 
ATOM     14  C   UNL     1      10.546  12.091 -20.060  1.00  0.00    -0.039 A 
ATOM     15  C   UNL     1      10.396  12.860 -17.331  1.00  0.00     0.039 A 
ATOM     16  C   UNL     1       9.846  13.238 -19.682  1.00  0.00     0.013 A 
ATOM     17  C   UNL     1      10.590  11.701 -21.517  1.00  0.00     0.045 C 
ATOM     18  C   UNL     1       9.786  13.669 -18.338  1.00  0.00    -0.006 A 
ATOM     19  C   UNL     1      10.325  13.283 -15.972  1.00  0.00     0.072 A 
ATOM     20  C   UNL     1       9.091  14.864 -17.974  1.00  0.00     0.008 A 
ATOM     21  C   UNL     1       9.508  14.371 -15.617  1.00  0.00     0.169 A 
ATOM     22  C   UNL     1       8.827  15.101 -16.607  1.00  0.00     0.162 A 
BRANCH  13  23
ATOM     23  O   UNL     1      11.473  10.740 -16.735  1.00  0.00    -0.507 OA
ATOM     24  H   UNL     1      12.372  10.816 -16.277  1.00  0.00     0.293 HD
ENDBRANCH  13  23
BRANCH  19  25
ATOM     25  C   UNL     1      11.163  12.668 -14.913  1.00  0.00     0.264 C 
ATOM     26  O   UNL     1      10.700  12.446 -13.761  1.00  0.00    -0.298 OA
ENDBRANCH  19  25
BRANCH  20  27
ATOM     27  C   UNL     1       8.582  15.861 -19.031  1.00  0.00     0.017 C 
ATOM     28  C   UNL     1       9.652  16.124 -20.095  1.00  0.00     0.012 C 
ATOM     29  C   UNL     1       7.242  15.458 -19.673  1.00  0.00     0.012 C 
ENDBRANCH  20  27
BRANCH  21  30
ATOM     30  O   UNL     1       9.428  14.743 -14.270  1.00  0.00    -0.504 OA
ATOM     31  H   UNL     1      10.227  14.993 -13.704  1.00  0.00     0.293 HD
ENDBRANCH  21  30
BRANCH  22  32
ATOM     32  O   UNL     1       7.873  16.059 -16.252  1.00  0.00    -0.504 OA
ATOM     33  H   UNL     1       8.045  17.054 -16.247  1.00  0.00     0.293 HD
ENDBRANCH  22  32
ENDBRANCH  11  12
BRANCH  10  34
ATOM     34  O   UNL     1      13.383  11.304 -20.795  1.00  0.00    -0.507 OA
ATOM     35  H   UNL     1      13.755  12.048 -20.218  1.00  0.00     0.293 HD
ENDBRANCH  10  34
BRANCH   9  36
ATOM     36  C   UNL     1      13.488   5.074 -19.765  1.00  0.00     0.017 C 
ATOM     37  C   UNL     1      13.704   3.889 -20.710  1.00  0.00     0.012 C 
ATOM     38  C   UNL     1      14.215   4.860 -18.423  1.00  0.00     0.012 C 
ENDBRANCH   9  36
BRANCH   6  39
ATOM     39  C   UNL     1      15.391  10.116 -22.008  1.00  0.00     0.264 C 
ATOM     40  O   UNL     1      16.624  10.330 -21.858  1.00  0.00    -0.298 OA
ENDBRANCH   6  39
BRANCH   8  41
ATOM     41  O   UNL     1      15.385   5.229 -21.927  1.00  0.00    -0.504 OA
ATOM     42  H   UNL     1      15.975   4.619 -21.375  1.00  0.00     0.293 HD
ENDBRANCH   8  41
BRANCH   7  43
ATOM     43  O   UNL     1      16.441   7.596 -22.807  1.00  0.00    -0.504 OA
ATOM     44  H   UNL     1      17.325   8.057 -22.640  1.00  0.00     0.293 HD
ENDBRANCH   7  43
TORSDOF 11
ENDMDL
