MODEL 1
REMARK VINA RESULT:    -3.711      0.000      0.000
REMARK INTER + INTRA:          -9.966
REMARK INTER:                  -7.182
REMARK INTRA:                  -2.785
REMARK UNBOUND:                -2.785
REMARK SMILES CCCCCCCCCCCCCCCCCC(=O)[O-]
REMARK SMILES IDX 10 1 11 2 12 3 13 4 14 5 15 6 16 7 17 8 18 9 19 10 20 11
REMARK SMILES IDX 9 12 8 13 7 14 6 15 5 16 4 17 3 18 2 19 1 20
REMARK H PARENT
REMARK Flexibility Score: inf
ROOT
ATOM      1  C   UNL     1       2.853  36.687  -8.536  1.00  0.00     0.000 C 
ENDROOT
BRANCH   1   2
ATOM      2  C   UNL     1       4.274  36.456  -9.082  1.00  0.00     0.000 C 
BRANCH   2   3
ATOM      3  C   UNL     1       4.817  35.025  -8.913  1.00  0.00     0.000 C 
BRANCH   3   4
ATOM      4  C   UNL     1       5.190  34.693  -7.459  1.00  0.00     0.000 C 
BRANCH   4   5
ATOM      5  C   UNL     1       6.708  34.674  -7.223  1.00  0.00     0.000 C 
BRANCH   5   6
ATOM      6  C   UNL     1       7.075  34.254  -5.789  1.00  0.00     0.000 C 
BRANCH   6   7
ATOM      7  C   UNL     1       6.024  33.325  -5.159  1.00  0.00     0.006 C 
BRANCH   7   8
ATOM      8  C   UNL     1       6.282  31.845  -5.470  1.00  0.00     0.053 C 
BRANCH   8   9
ATOM      9  C   UNL     1       5.490  30.972  -4.550  1.00  0.00     0.041 C 
ATOM     10  O   UNL     1       5.419  29.732  -4.757  1.00  0.00    -0.550 OA
ATOM     11  O   UNL     1       4.792  31.534  -3.489  1.00  0.00    -0.550 OA
ENDBRANCH   8   9
ENDBRANCH   7   8
ENDBRANCH   6   7
ENDBRANCH   5   6
ENDBRANCH   4   5
ENDBRANCH   3   4
ENDBRANCH   2   3
ENDBRANCH   1   2
BRANCH   1  12
ATOM     12  C   UNL     1       2.607  38.141  -8.097  1.00  0.00     0.000 C 
BRANCH  12  13
ATOM     13  C   UNL     1       3.749  39.091  -8.498  1.00  0.00    -0.000 C 
BRANCH  13  14
ATOM     14  C   UNL     1       4.426  39.838  -7.333  1.00  0.00    -0.000 C 
BRANCH  14  15
ATOM     15  C   UNL     1       5.892  39.422  -7.125  1.00  0.00    -0.000 C 
BRANCH  15  16
ATOM     16  C   UNL     1       6.027  38.118  -6.322  1.00  0.00    -0.000 C 
BRANCH  16  17
ATOM     17  C   UNL     1       5.344  38.197  -4.946  1.00  0.00    -0.000 C 
BRANCH  17  18
ATOM     18  C   UNL     1       4.736  36.853  -4.503  1.00  0.00    -0.000 C 
BRANCH  18  19
ATOM     19  C   UNL     1       3.213  36.737  -4.688  1.00  0.00    -0.003 C 
ATOM     20  C   UNL     1       2.480  38.058  -4.459  1.00  0.00     0.004 C 
ENDBRANCH  18  19
ENDBRANCH  17  18
ENDBRANCH  16  17
ENDBRANCH  15  16
ENDBRANCH  14  15
ENDBRANCH  13  14
ENDBRANCH  12  13
ENDBRANCH   1  12
TORSDOF 16
ENDMDL
MODEL 2
REMARK VINA RESULT:    -3.557      2.257      3.533
REMARK INTER + INTRA:          -9.669
REMARK INTER:                  -7.279
REMARK INTRA:                  -2.389
REMARK UNBOUND:                -2.785
REMARK SMILES CCCCCCCCCCCCCCCCCC(=O)[O-]
REMARK SMILES IDX 10 1 11 2 12 3 13 4 14 5 15 6 16 7 17 8 18 9 19 10 20 11
REMARK SMILES IDX 9 12 8 13 7 14 6 15 5 16 4 17 3 18 2 19 1 20
REMARK H PARENT
REMARK Flexibility Score: inf
ROOT
ATOM      1  C   UNL     1       4.878  37.352  -4.640  1.00  0.00     0.000 C 
ENDROOT
BRANCH   1   2
ATOM      2  C   UNL     1       5.219  35.970  -5.226  1.00  0.00     0.000 C 
BRANCH   2   3
ATOM      3  C   UNL     1       5.938  35.994  -6.588  1.00  0.00     0.000 C 
BRANCH   3   4
ATOM      4  C   UNL     1       6.906  34.815  -6.775  1.00  0.00     0.000 C 
BRANCH   4   5
ATOM      5  C   UNL     1       7.040  33.948  -5.514  1.00  0.00     0.000 C 
BRANCH   5   6
ATOM      6  C   UNL     1       6.632  32.485  -5.760  1.00  0.00     0.000 C 
BRANCH   6   7
ATOM      7  C   UNL     1       6.216  32.226  -7.217  1.00  0.00     0.006 C 
BRANCH   7   8
ATOM      8  C   UNL     1       6.802  30.921  -7.774  1.00  0.00     0.053 C 
BRANCH   8   9
ATOM      9  C   UNL     1       8.124  31.178  -8.425  1.00  0.00     0.041 C 
ATOM     10  O   UNL     1       8.940  30.234  -8.597  1.00  0.00    -0.550 OA
ATOM     11  O   UNL     1       8.475  32.468  -8.799  1.00  0.00    -0.550 OA
ENDBRANCH   8   9
ENDBRANCH   7   8
ENDBRANCH   6   7
ENDBRANCH   5   6
ENDBRANCH   4   5
ENDBRANCH   3   4
ENDBRANCH   2   3
ENDBRANCH   1   2
BRANCH   1  12
ATOM     12  C   UNL     1       5.579  38.508  -5.374  1.00  0.00     0.000 C 
BRANCH  12  13
ATOM     13  C   UNL     1       4.593  39.478  -6.048  1.00  0.00    -0.000 C 
BRANCH  13  14
ATOM     14  C   UNL     1       4.878  39.785  -7.530  1.00  0.00    -0.000 C 
BRANCH  14  15
ATOM     15  C   UNL     1       3.728  39.364  -8.462  1.00  0.00    -0.000 C 
BRANCH  15  16
ATOM     16  C   UNL     1       3.915  37.947  -9.028  1.00  0.00    -0.000 C 
BRANCH  16  17
ATOM     17  C   UNL     1       2.646  37.088  -8.901  1.00  0.00    -0.000 C 
BRANCH  17  18
ATOM     18  C   UNL     1       2.380  36.624  -7.457  1.00  0.00    -0.000 C 
BRANCH  18  19
ATOM     19  C   UNL     1       1.102  37.194  -6.818  1.00  0.00    -0.003 C 
ATOM     20  C   UNL     1       1.385  38.121  -5.638  1.00  0.00     0.004 C 
ENDBRANCH  18  19
ENDBRANCH  17  18
ENDBRANCH  16  17
ENDBRANCH  15  16
ENDBRANCH  14  15
ENDBRANCH  13  14
ENDBRANCH  12  13
ENDBRANCH   1  12
TORSDOF 16
ENDMDL
MODEL 3
REMARK VINA RESULT:    -3.540     12.233     15.181
REMARK INTER + INTRA:          -9.637
REMARK INTER:                  -7.042
REMARK INTRA:                  -2.594
REMARK UNBOUND:                -2.785
REMARK SMILES CCCCCCCCCCCCCCCCCC(=O)[O-]
REMARK SMILES IDX 10 1 11 2 12 3 13 4 14 5 15 6 16 7 17 8 18 9 19 10 20 11
REMARK SMILES IDX 9 12 8 13 7 14 6 15 5 16 4 17 3 18 2 19 1 20
REMARK H PARENT
REMARK Flexibility Score: inf
ROOT
ATOM      1  C   UNL     1       9.477  29.567   7.272  1.00  0.00     0.000 C 
ENDROOT
BRANCH   1   2
ATOM      2  C   UNL     1      10.497  30.449   6.528  1.00  0.00     0.000 C 
BRANCH   2   3
ATOM      3  C   UNL     1       9.889  31.491   5.571  1.00  0.00     0.000 C 
BRANCH   3   4
ATOM      4  C   UNL     1       9.375  30.872   4.261  1.00  0.00     0.000 C 
BRANCH   4   5
ATOM      5  C   UNL     1       7.845  30.930   4.136  1.00  0.00     0.000 C 
BRANCH   5   6
ATOM      6  C   UNL     1       7.201  31.834   5.201  1.00  0.00     0.000 C 
BRANCH   6   7
ATOM      7  C   UNL     1       5.822  32.362   4.772  1.00  0.00     0.006 C 
BRANCH   7   8
ATOM      8  C   UNL     1       5.539  33.773   5.304  1.00  0.00     0.053 C 
BRANCH   8   9
ATOM      9  C   UNL     1       5.072  34.665   4.197  1.00  0.00     0.041 C 
ATOM     10  O   UNL     1       4.154  35.501   4.402  1.00  0.00    -0.550 OA
ATOM     11  O   UNL     1       5.619  34.540   2.927  1.00  0.00    -0.550 OA
ENDBRANCH   8   9
ENDBRANCH   7   8
ENDBRANCH   6   7
ENDBRANCH   5   6
ENDBRANCH   4   5
ENDBRANCH   3   4
ENDBRANCH   2   3
ENDBRANCH   1   2
BRANCH   1  12
ATOM     12  C   UNL     1       9.197  30.049   8.705  1.00  0.00     0.000 C 
BRANCH  12  13
ATOM     13  C   UNL     1       7.909  30.884   8.817  1.00  0.00    -0.000 C 
BRANCH  13  14
ATOM     14  C   UNL     1       8.083  32.291   9.419  1.00  0.00    -0.000 C 
BRANCH  14  15
ATOM     15  C   UNL     1       8.021  33.407   8.363  1.00  0.00    -0.000 C 
BRANCH  15  16
ATOM     16  C   UNL     1       9.387  34.069   8.122  1.00  0.00    -0.000 C 
BRANCH  16  17
ATOM     17  C   UNL     1      10.449  33.620   9.141  1.00  0.00    -0.000 C 
BRANCH  17  18
ATOM     18  C   UNL     1      11.831  33.389   8.501  1.00  0.00    -0.000 C 
BRANCH  18  19
ATOM     19  C   UNL     1      12.588  32.155   9.023  1.00  0.00    -0.003 C 
ATOM     20  C   UNL     1      13.949  32.499   9.624  1.00  0.00     0.004 C 
ENDBRANCH  18  19
ENDBRANCH  17  18
ENDBRANCH  16  17
ENDBRANCH  15  16
ENDBRANCH  14  15
ENDBRANCH  13  14
ENDBRANCH  12  13
ENDBRANCH   1  12
TORSDOF 16
ENDMDL
MODEL 4
REMARK VINA RESULT:    -3.528      3.176      6.073
REMARK INTER + INTRA:          -9.612
REMARK INTER:                  -6.892
REMARK INTRA:                  -2.720
REMARK UNBOUND:                -2.785
REMARK SMILES CCCCCCCCCCCCCCCCCC(=O)[O-]
REMARK SMILES IDX 10 1 11 2 12 3 13 4 14 5 15 6 16 7 17 8 18 9 19 10 20 11
REMARK SMILES IDX 9 12 8 13 7 14 6 15 5 16 4 17 3 18 2 19 1 20
REMARK H PARENT
REMARK Flexibility Score: inf
ROOT
ATOM      1  C   UNL     1       3.179  34.870  -7.331  1.00  0.00     0.000 C 
ENDROOT
BRANCH   1   2
ATOM      2  C   UNL     1       2.299  35.942  -6.662  1.00  0.00     0.000 C 
BRANCH   2   3
ATOM      3  C   UNL     1       2.437  36.042  -5.132  1.00  0.00     0.000 C 
BRANCH   3   4
ATOM      4  C   UNL     1       3.070  37.366  -4.673  1.00  0.00     0.000 C 
BRANCH   4   5
ATOM      5  C   UNL     1       4.594  37.268  -4.498  1.00  0.00     0.000 C 
BRANCH   5   6
ATOM      6  C   UNL     1       5.326  38.520  -5.011  1.00  0.00     0.000 C 
BRANCH   6   7
ATOM      7  C   UNL     1       6.190  38.231  -6.250  1.00  0.00     0.006 C 
BRANCH   7   8
ATOM      8  C   UNL     1       6.154  39.374  -7.273  1.00  0.00     0.053 C 
BRANCH   8   9
ATOM      9  C   UNL     1       4.740  39.738  -7.600  1.00  0.00     0.041 C 
ATOM     10  O   UNL     1       3.957  38.875  -8.075  1.00  0.00    -0.550 OA
ATOM     11  O   UNL     1       4.301  41.044  -7.423  1.00  0.00    -0.550 OA
ENDBRANCH   8   9
ENDBRANCH   7   8
ENDBRANCH   6   7
ENDBRANCH   5   6
ENDBRANCH   4   5
ENDBRANCH   3   4
ENDBRANCH   2   3
ENDBRANCH   1   2
BRANCH   1  12
ATOM     12  C   UNL     1       4.552  35.406  -7.770  1.00  0.00     0.000 C 
BRANCH  12  13
ATOM     13  C   UNL     1       5.411  34.346  -8.481  1.00  0.00    -0.000 C 
BRANCH  13  14
ATOM     14  C   UNL     1       6.632  33.844  -7.687  1.00  0.00    -0.000 C 
BRANCH  14  15
ATOM     15  C   UNL     1       6.904  34.672  -6.420  1.00  0.00    -0.000 C 
BRANCH  15  16
ATOM     16  C   UNL     1       6.850  33.824  -5.138  1.00  0.00    -0.000 C 
BRANCH  16  17
ATOM     17  C   UNL     1       5.454  33.819  -4.491  1.00  0.00    -0.000 C 
BRANCH  17  18
ATOM     18  C   UNL     1       4.679  32.514  -4.752  1.00  0.00    -0.000 C 
BRANCH  18  19
ATOM     19  C   UNL     1       5.540  31.335  -5.237  1.00  0.00    -0.003 C 
ATOM     20  C   UNL     1       5.583  30.176  -4.243  1.00  0.00     0.004 C 
ENDBRANCH  18  19
ENDBRANCH  17  18
ENDBRANCH  16  17
ENDBRANCH  15  16
ENDBRANCH  14  15
ENDBRANCH  13  14
ENDBRANCH  12  13
ENDBRANCH   1  12
TORSDOF 16
ENDMDL
MODEL 5
REMARK VINA RESULT:    -3.522     10.698     13.648
REMARK INTER + INTRA:          -9.601
REMARK INTER:                  -7.626
REMARK INTRA:                  -1.975
REMARK UNBOUND:                -2.785
REMARK SMILES CCCCCCCCCCCCCCCCCC(=O)[O-]
REMARK SMILES IDX 10 1 11 2 12 3 13 4 14 5 15 6 16 7 17 8 18 9 19 10 20 11
REMARK SMILES IDX 9 12 8 13 7 14 6 15 5 16 4 17 3 18 2 19 1 20
REMARK H PARENT
REMARK Flexibility Score: inf
ROOT
ATOM      1  C   UNL     1       7.474  33.776   7.530  1.00  0.00     0.000 C 
ENDROOT
BRANCH   1   2
ATOM      2  C   UNL     1       6.420  34.782   8.026  1.00  0.00     0.000 C 
BRANCH   2   3
ATOM      3  C   UNL     1       4.973  34.482   7.595  1.00  0.00     0.000 C 
BRANCH   3   4
ATOM      4  C   UNL     1       4.863  34.049   6.124  1.00  0.00     0.000 C 
BRANCH   4   5
ATOM      5  C   UNL     1       5.023  35.221   5.144  1.00  0.00     0.000 C 
BRANCH   5   6
ATOM      6  C   UNL     1       4.741  34.814   3.688  1.00  0.00     0.000 C 
BRANCH   6   7
ATOM      7  C   UNL     1       4.984  33.316   3.437  1.00  0.00     0.006 C 
BRANCH   7   8
ATOM      8  C   UNL     1       6.308  33.048   2.709  1.00  0.00     0.053 C 
BRANCH   8   9
ATOM      9  C   UNL     1       6.254  33.581   1.312  1.00  0.00     0.041 C 
ATOM     10  O   UNL     1       5.540  33.013   0.444  1.00  0.00    -0.550 OA
ATOM     11  O   UNL     1       7.028  34.678   0.957  1.00  0.00    -0.550 OA
ENDBRANCH   8   9
ENDBRANCH   7   8
ENDBRANCH   6   7
ENDBRANCH   5   6
ENDBRANCH   4   5
ENDBRANCH   3   4
ENDBRANCH   2   3
ENDBRANCH   1   2
BRANCH   1  12
ATOM     12  C   UNL     1       8.550  33.462   8.584  1.00  0.00     0.000 C 
BRANCH  12  13
ATOM     13  C   UNL     1       9.903  34.129   8.277  1.00  0.00    -0.000 C 
BRANCH  13  14
ATOM     14  C   UNL     1      10.841  33.327   7.356  1.00  0.00    -0.000 C 
BRANCH  14  15
ATOM     15  C   UNL     1      10.941  31.843   7.748  1.00  0.00    -0.000 C 
BRANCH  15  16
ATOM     16  C   UNL     1      10.576  30.901   6.589  1.00  0.00    -0.000 C 
BRANCH  16  17
ATOM     17  C   UNL     1       9.961  31.647   5.392  1.00  0.00    -0.000 C 
BRANCH  17  18
ATOM     18  C   UNL     1       9.306  30.699   4.370  1.00  0.00    -0.000 C 
BRANCH  18  19
ATOM     19  C   UNL     1       8.145  29.853   4.922  1.00  0.00    -0.003 C 
ATOM     20  C   UNL     1       7.038  30.695   5.552  1.00  0.00     0.004 C 
ENDBRANCH  18  19
ENDBRANCH  17  18
ENDBRANCH  16  17
ENDBRANCH  15  16
ENDBRANCH  14  15
ENDBRANCH  13  14
ENDBRANCH  12  13
ENDBRANCH   1  12
TORSDOF 16
ENDMDL
MODEL 6
REMARK VINA RESULT:    -3.520      2.196      4.826
REMARK INTER + INTRA:          -9.597
REMARK INTER:                  -6.511
REMARK INTRA:                  -3.086
REMARK UNBOUND:                -2.785
REMARK SMILES CCCCCCCCCCCCCCCCCC(=O)[O-]
REMARK SMILES IDX 10 1 11 2 12 3 13 4 14 5 15 6 16 7 17 8 18 9 19 10 20 11
REMARK SMILES IDX 9 12 8 13 7 14 6 15 5 16 4 17 3 18 2 19 1 20
REMARK H PARENT
REMARK Flexibility Score: inf
ROOT
ATOM      1  C   UNL     1       4.545  39.577  -7.408  1.00  0.00     0.000 C 
ENDROOT
BRANCH   1   2
ATOM      2  C   UNL     1       5.913  38.945  -7.096  1.00  0.00     0.000 C 
BRANCH   2   3
ATOM      3  C   UNL     1       6.015  38.241  -5.730  1.00  0.00     0.000 C 
BRANCH   3   4
ATOM      4  C   UNL     1       4.836  38.568  -4.798  1.00  0.00     0.000 C 
BRANCH   4   5
ATOM      5  C   UNL     1       3.845  37.403  -4.661  1.00  0.00     0.000 C 
BRANCH   5   6
ATOM      6  C   UNL     1       2.383  37.878  -4.597  1.00  0.00     0.000 C 
BRANCH   6   7
ATOM      7  C   UNL     1       1.488  37.171  -5.628  1.00  0.00     0.006 C 
BRANCH   7   8
ATOM      8  C   UNL     1       1.290  35.682  -5.315  1.00  0.00     0.053 C 
BRANCH   8   9
ATOM      9  C   UNL     1       0.740  35.507  -3.935  1.00  0.00     0.041 C 
ATOM     10  O   UNL     1      -0.430  35.889  -3.666  1.00  0.00    -0.550 OA
ATOM     11  O   UNL     1       1.534  34.965  -2.933  1.00  0.00    -0.550 OA
ENDBRANCH   8   9
ENDBRANCH   7   8
ENDBRANCH   6   7
ENDBRANCH   5   6
ENDBRANCH   4   5
ENDBRANCH   3   4
ENDBRANCH   2   3
ENDBRANCH   1   2
BRANCH   1  12
ATOM     12  C   UNL     1       3.683  38.715  -8.346  1.00  0.00     0.000 C 
BRANCH  12  13
ATOM     13  C   UNL     1       4.395  37.428  -8.802  1.00  0.00    -0.000 C 
BRANCH  13  14
ATOM     14  C   UNL     1       3.623  36.120  -8.547  1.00  0.00    -0.000 C 
BRANCH  14  15
ATOM     15  C   UNL     1       4.283  35.231  -7.480  1.00  0.00    -0.000 C 
BRANCH  15  16
ATOM     16  C   UNL     1       5.664  34.713  -7.916  1.00  0.00    -0.000 C 
BRANCH  16  17
ATOM     17  C   UNL     1       6.752  34.968  -6.859  1.00  0.00    -0.000 C 
BRANCH  17  18
ATOM     18  C   UNL     1       6.701  33.961  -5.695  1.00  0.00    -0.000 C 
BRANCH  18  19
ATOM     19  C   UNL     1       6.065  34.497  -4.401  1.00  0.00    -0.003 C 
ATOM     20  C   UNL     1       4.826  33.712  -3.973  1.00  0.00     0.004 C 
ENDBRANCH  18  19
ENDBRANCH  17  18
ENDBRANCH  16  17
ENDBRANCH  15  16
ENDBRANCH  14  15
ENDBRANCH  13  14
ENDBRANCH  12  13
ENDBRANCH   1  12
TORSDOF 16
ENDMDL
MODEL 7
REMARK VINA RESULT:    -3.520      1.188      2.567
REMARK INTER + INTRA:          -9.597
REMARK INTER:                  -6.788
REMARK INTRA:                  -2.808
REMARK UNBOUND:                -2.785
REMARK SMILES CCCCCCCCCCCCCCCCCC(=O)[O-]
REMARK SMILES IDX 10 1 11 2 12 3 13 4 14 5 15 6 16 7 17 8 18 9 19 10 20 11
REMARK SMILES IDX 9 12 8 13 7 14 6 15 5 16 4 17 3 18 2 19 1 20
REMARK H PARENT
REMARK Flexibility Score: inf
ROOT
ATOM      1  C   UNL     1       1.865  36.003  -7.699  1.00  0.00     0.000 C 
ENDROOT
BRANCH   1   2
ATOM      2  C   UNL     1       3.022  35.128  -8.215  1.00  0.00     0.000 C 
BRANCH   2   3
ATOM      3  C   UNL     1       4.432  35.702  -7.985  1.00  0.00     0.000 C 
BRANCH   3   4
ATOM      4  C   UNL     1       5.507  34.612  -7.842  1.00  0.00     0.000 C 
BRANCH   4   5
ATOM      5  C   UNL     1       6.639  35.014  -6.883  1.00  0.00     0.000 C 
BRANCH   5   6
ATOM      6  C   UNL     1       7.134  33.834  -6.030  1.00  0.00     0.000 C 
BRANCH   6   7
ATOM      7  C   UNL     1       5.984  33.079  -5.343  1.00  0.00     0.006 C 
BRANCH   7   8
ATOM      8  C   UNL     1       5.580  33.711  -4.005  1.00  0.00     0.053 C 
BRANCH   8   9
ATOM      9  C   UNL     1       4.447  32.953  -3.390  1.00  0.00     0.041 C 
ATOM     10  O   UNL     1       4.651  31.833  -2.851  1.00  0.00    -0.550 OA
ATOM     11  O   UNL     1       3.156  33.461  -3.452  1.00  0.00    -0.550 OA
ENDBRANCH   8   9
ENDBRANCH   7   8
ENDBRANCH   6   7
ENDBRANCH   5   6
ENDBRANCH   4   5
ENDBRANCH   3   4
ENDBRANCH   2   3
ENDBRANCH   1   2
BRANCH   1  12
ATOM     12  C   UNL     1       2.309  37.426  -7.321  1.00  0.00     0.000 C 
BRANCH  12  13
ATOM     13  C   UNL     1       1.606  37.959  -6.059  1.00  0.00    -0.000 C 
BRANCH  13  14
ATOM     14  C   UNL     1       2.476  38.009  -4.789  1.00  0.00    -0.000 C 
BRANCH  14  15
ATOM     15  C   UNL     1       3.377  36.773  -4.631  1.00  0.00    -0.000 C 
BRANCH  15  16
ATOM     16  C   UNL     1       4.859  37.142  -4.451  1.00  0.00    -0.000 C 
BRANCH  16  17
ATOM     17  C   UNL     1       5.195  38.533  -5.016  1.00  0.00    -0.000 C 
BRANCH  17  18
ATOM     18  C   UNL     1       6.127  38.471  -6.240  1.00  0.00    -0.000 C 
BRANCH  18  19
ATOM     19  C   UNL     1       5.619  39.226  -7.481  1.00  0.00    -0.003 C 
ATOM     20  C   UNL     1       4.529  40.246  -7.156  1.00  0.00     0.004 C 
ENDBRANCH  18  19
ENDBRANCH  17  18
ENDBRANCH  16  17
ENDBRANCH  15  16
ENDBRANCH  14  15
ENDBRANCH  13  14
ENDBRANCH  12  13
ENDBRANCH   1  12
TORSDOF 16
ENDMDL
MODEL 8
REMARK VINA RESULT:    -3.518      4.077      6.798
REMARK INTER + INTRA:          -9.594
REMARK INTER:                  -6.599
REMARK INTRA:                  -2.995
REMARK UNBOUND:                -2.785
REMARK SMILES CCCCCCCCCCCCCCCCCC(=O)[O-]
REMARK SMILES IDX 10 1 11 2 12 3 13 4 14 5 15 6 16 7 17 8 18 9 19 10 20 11
REMARK SMILES IDX 9 12 8 13 7 14 6 15 5 16 4 17 3 18 2 19 1 20
REMARK H PARENT
REMARK Flexibility Score: inf
ROOT
ATOM      1  C   UNL     1       4.808  37.027  -4.575  1.00  0.00     0.000 C 
ENDROOT
BRANCH   1   2
ATOM      2  C   UNL     1       3.284  36.815  -4.533  1.00  0.00     0.000 C 
BRANCH   2   3
ATOM      3  C   UNL     1       2.442  38.104  -4.515  1.00  0.00     0.000 C 
BRANCH   3   4
ATOM      4  C   UNL     1       1.387  38.146  -5.633  1.00  0.00     0.000 C 
BRANCH   4   5
ATOM      5  C   UNL     1       0.683  36.797  -5.838  1.00  0.00     0.000 C 
BRANCH   5   6
ATOM      6  C   UNL     1       0.248  36.575  -7.297  1.00  0.00     0.000 C 
BRANCH   6   7
ATOM      7  C   UNL     1      -0.202  37.876  -7.982  1.00  0.00     0.006 C 
BRANCH   7   8
ATOM      8  C   UNL     1      -1.653  37.810  -8.478  1.00  0.00     0.053 C 
BRANCH   8   9
ATOM      9  C   UNL     1      -2.552  38.582  -7.564  1.00  0.00     0.041 C 
ATOM     10  O   UNL     1      -2.534  39.841  -7.572  1.00  0.00    -0.550 OA
ATOM     11  O   UNL     1      -3.376  37.910  -6.671  1.00  0.00    -0.550 OA
ENDBRANCH   8   9
ENDBRANCH   7   8
ENDBRANCH   6   7
ENDBRANCH   5   6
ENDBRANCH   4   5
ENDBRANCH   3   4
ENDBRANCH   2   3
ENDBRANCH   1   2
BRANCH   1  12
ATOM     12  C   UNL     1       5.206  38.455  -4.984  1.00  0.00     0.000 C 
BRANCH  12  13
ATOM     13  C   UNL     1       6.267  38.486  -6.099  1.00  0.00    -0.000 C 
BRANCH  13  14
ATOM     14  C   UNL     1       5.815  39.128  -7.424  1.00  0.00    -0.000 C 
BRANCH  14  15
ATOM     15  C   UNL     1       4.304  39.411  -7.468  1.00  0.00    -0.000 C 
BRANCH  15  16
ATOM     16  C   UNL     1       3.583  38.600  -8.558  1.00  0.00    -0.000 C 
BRANCH  16  17
ATOM     17  C   UNL     1       4.288  37.267  -8.866  1.00  0.00    -0.000 C 
BRANCH  17  18
ATOM     18  C   UNL     1       3.697  36.083  -8.079  1.00  0.00    -0.000 C 
BRANCH  18  19
ATOM     19  C   UNL     1       4.568  34.814  -8.068  1.00  0.00    -0.003 C 
ATOM     20  C   UNL     1       5.941  35.036  -7.437  1.00  0.00     0.004 C 
ENDBRANCH  18  19
ENDBRANCH  17  18
ENDBRANCH  16  17
ENDBRANCH  15  16
ENDBRANCH  14  15
ENDBRANCH  13  14
ENDBRANCH  12  13
ENDBRANCH   1  12
TORSDOF 16
ENDMDL
MODEL 9
REMARK VINA RESULT:    -3.489     12.753     15.554
REMARK INTER + INTRA:          -9.538
REMARK INTER:                  -6.746
REMARK INTRA:                  -2.792
REMARK UNBOUND:                -2.785
REMARK SMILES CCCCCCCCCCCCCCCCCC(=O)[O-]
REMARK SMILES IDX 10 1 11 2 12 3 13 4 14 5 15 6 16 7 17 8 18 9 19 10 20 11
REMARK SMILES IDX 9 12 8 13 7 14 6 15 5 16 4 17 3 18 2 19 1 20
REMARK H PARENT
REMARK Flexibility Score: inf
ROOT
ATOM      1  C   UNL     1       9.014  30.959  10.264  1.00  0.00     0.000 C 
ENDROOT
BRANCH   1   2
ATOM      2  C   UNL     1       9.637  29.679   9.677  1.00  0.00     0.000 C 
BRANCH   2   3
ATOM      3  C   UNL     1       9.353  29.437   8.183  1.00  0.00     0.000 C 
BRANCH   3   4
ATOM      4  C   UNL     1       8.002  30.012   7.728  1.00  0.00     0.000 C 
BRANCH   4   5
ATOM      5  C   UNL     1       7.987  30.391   6.239  1.00  0.00     0.000 C 
BRANCH   5   6
ATOM      6  C   UNL     1       9.378  30.288   5.592  1.00  0.00     0.000 C 
BRANCH   6   7
ATOM      7  C   UNL     1       9.370  30.688   4.107  1.00  0.00     0.006 C 
BRANCH   7   8
ATOM      8  C   UNL     1       8.224  30.030   3.326  1.00  0.00     0.053 C 
BRANCH   8   9
ATOM      9  C   UNL     1       8.615  28.656   2.884  1.00  0.00     0.041 C 
ATOM     10  O   UNL     1       8.262  27.650   3.555  1.00  0.00    -0.550 OA
ATOM     11  O   UNL     1       9.408  28.488   1.757  1.00  0.00    -0.550 OA
ENDBRANCH   8   9
ENDBRANCH   7   8
ENDBRANCH   6   7
ENDBRANCH   5   6
ENDBRANCH   4   5
ENDBRANCH   3   4
ENDBRANCH   2   3
ENDBRANCH   1   2
BRANCH   1  12
ATOM     12  C   UNL     1      10.051  31.886  10.920  1.00  0.00     0.000 C 
BRANCH  12  13
ATOM     13  C   UNL     1      11.446  31.778  10.277  1.00  0.00    -0.000 C 
BRANCH  13  14
ATOM     14  C   UNL     1      11.790  32.879   9.257  1.00  0.00    -0.000 C 
BRANCH  14  15
ATOM     15  C   UNL     1      11.521  32.455   7.803  1.00  0.00    -0.000 C 
BRANCH  15  16
ATOM     16  C   UNL     1      10.537  33.394   7.086  1.00  0.00    -0.000 C 
BRANCH  16  17
ATOM     17  C   UNL     1       9.542  34.057   8.054  1.00  0.00    -0.000 C 
BRANCH  17  18
ATOM     18  C   UNL     1       8.077  33.693   7.747  1.00  0.00    -0.000 C 
BRANCH  18  19
ATOM     19  C   UNL     1       7.031  34.491   8.544  1.00  0.00    -0.003 C 
ATOM     20  C   UNL     1       6.569  33.773   9.811  1.00  0.00     0.004 C 
ENDBRANCH  18  19
ENDBRANCH  17  18
ENDBRANCH  16  17
ENDBRANCH  15  16
ENDBRANCH  14  15
ENDBRANCH  13  14
ENDBRANCH  12  13
ENDBRANCH   1  12
TORSDOF 16
ENDMDL
