MODEL 1
REMARK VINA RESULT:    34.647      0.000      0.000
REMARK INTER + INTRA:          42.762
REMARK INTER:                  42.748
REMARK INTRA:                   0.014
REMARK UNBOUND:                 0.014
REMARK SMILES O=c1c(O)c(-c2cc(O)c(O)c(O)c2)oc2cc(O)cc(O)c12
REMARK SMILES IDX 5 1 3 2 2 3 1 4 23 5 21 6 20 7 18 8 17 9 16 10 15 11 6 12
REMARK SMILES IDX 7 13 8 14 14 15 10 16 12 17 9 18 11 20 13 22 4 24 22 26
REMARK SMILES IDX 19 28
REMARK H PARENT 9 19 11 21 13 23 4 25 22 27 19 29
REMARK Flexibility Score: inf
ROOT
ATOM      1  C   UNL     1      -2.103  -0.593   2.625  1.00  0.00     0.180 A 
ATOM      2  C   UNL     1      -2.981   0.034   3.530  1.00  0.00     0.208 A 
ATOM      3  C   UNL     1      -4.365  -0.099   3.336  1.00  0.00     0.238 A 
ATOM      4  O   UNL     1      -5.160   0.449   4.146  1.00  0.00    -0.285 OA
ATOM      5  C   UNL     1      -4.847  -0.835   2.234  1.00  0.00     0.111 A 
ATOM      6  C   UNL     1      -6.225  -1.013   1.964  1.00  0.00     0.134 A 
ATOM      7  C   UNL     1      -6.625  -1.753   0.842  1.00  0.00     0.093 A 
ATOM      8  C   UNL     1      -5.676  -2.315  -0.015  1.00  0.00     0.123 A 
ATOM      9  C   UNL     1      -4.313  -2.144   0.246  1.00  0.00     0.094 A 
ATOM     10  C   UNL     1      -3.894  -1.412   1.361  1.00  0.00     0.146 A 
ATOM     11  O   UNL     1      -2.594  -1.267   1.589  1.00  0.00    -0.452 OA
ENDROOT
BRANCH   1  12
ATOM     12  C   UNL     1      -0.633  -0.515   2.774  1.00  0.00     0.029 A 
ATOM     13  C   UNL     1      -0.013  -0.706   4.017  1.00  0.00     0.062 A 
ATOM     14  C   UNL     1       1.379  -0.652   4.136  1.00  0.00     0.162 A 
ATOM     15  C   UNL     1       0.166  -0.303   1.640  1.00  0.00     0.062 A 
ATOM     16  C   UNL     1       2.179  -0.416   3.003  1.00  0.00     0.200 A 
ATOM     17  C   UNL     1       1.560  -0.244   1.741  1.00  0.00     0.162 A 
BRANCH  14  18
ATOM     18  O   UNL     1       1.951  -0.841   5.394  1.00  0.00    -0.504 OA
ATOM     19  H   UNL     1       1.892  -0.143   6.126  1.00  0.00     0.293 HD
ENDBRANCH  14  18
BRANCH  16  20
ATOM     20  O   UNL     1       3.565  -0.360   3.166  1.00  0.00    -0.502 OA
ATOM     21  H   UNL     1       4.073   0.473   3.425  1.00  0.00     0.293 HD
ENDBRANCH  16  20
BRANCH  17  22
ATOM     22  O   UNL     1       2.285  -0.019   0.568  1.00  0.00    -0.504 OA
ATOM     23  H   UNL     1       3.108  -0.540   0.301  1.00  0.00     0.293 HD
ENDBRANCH  17  22
ENDBRANCH   1  12
BRANCH   2  24
ATOM     24  O   UNL     1      -2.478   0.799   4.586  1.00  0.00    -0.502 OA
ATOM     25  H   UNL     1      -2.069   0.381   5.412  1.00  0.00     0.293 HD
ENDBRANCH   2  24
BRANCH   6  26
ATOM     26  O   UNL     1      -7.197  -0.463   2.800  1.00  0.00    -0.507 OA
ATOM     27  H   UNL     1      -7.209   0.525   3.028  1.00  0.00     0.293 HD
ENDBRANCH   6  26
BRANCH   8  28
ATOM     28  O   UNL     1      -6.098  -3.045  -1.125  1.00  0.00    -0.508 OA
ATOM     29  H   UNL     1      -5.509  -3.749  -1.552  1.00  0.00     0.293 HD
ENDBRANCH   8  28
TORSDOF 7
ENDMDL
MODEL 2
REMARK VINA RESULT:    36.269      0.091      1.767
REMARK INTER + INTRA:          44.764
REMARK INTER:                  44.663
REMARK INTRA:                   0.101
REMARK UNBOUND:                 0.014
REMARK SMILES O=c1c(O)c(-c2cc(O)c(O)c(O)c2)oc2cc(O)cc(O)c12
REMARK SMILES IDX 5 1 3 2 2 3 1 4 23 5 21 6 20 7 18 8 17 9 16 10 15 11 6 12
REMARK SMILES IDX 7 13 8 14 14 15 10 16 12 17 9 18 11 20 13 22 4 24 22 26
REMARK SMILES IDX 19 28
REMARK H PARENT 9 19 11 21 13 23 4 25 22 27 19 29
REMARK Flexibility Score: inf
ROOT
ATOM      1  C   UNL     1      -2.057  -0.679   2.583  1.00  0.00     0.180 A 
ATOM      2  C   UNL     1      -2.917  -0.026   3.487  1.00  0.00     0.208 A 
ATOM      3  C   UNL     1      -4.303  -0.133   3.301  1.00  0.00     0.238 A 
ATOM      4  O   UNL     1      -5.083   0.439   4.111  1.00  0.00    -0.285 OA
ATOM      5  C   UNL     1      -4.806  -0.869   2.208  1.00  0.00     0.111 A 
ATOM      6  C   UNL     1      -6.189  -1.021   1.948  1.00  0.00     0.134 A 
ATOM      7  C   UNL     1      -6.610  -1.762   0.834  1.00  0.00     0.093 A 
ATOM      8  C   UNL     1      -5.678  -2.351  -0.023  1.00  0.00     0.123 A 
ATOM      9  C   UNL     1      -4.310  -2.205   0.230  1.00  0.00     0.094 A 
ATOM     10  C   UNL     1      -3.870  -1.472   1.336  1.00  0.00     0.146 A 
ATOM     11  O   UNL     1      -2.566  -1.352   1.556  1.00  0.00    -0.452 OA
ENDROOT
BRANCH   1  12
ATOM     12  C   UNL     1      -0.584  -0.630   2.724  1.00  0.00     0.029 A 
ATOM     13  C   UNL     1       0.248  -0.398   1.619  1.00  0.00     0.062 A 
ATOM     14  C   UNL     1       1.636  -0.331   1.773  1.00  0.00     0.162 A 
ATOM     15  C   UNL     1      -0.007  -0.762   3.996  1.00  0.00     0.062 A 
ATOM     16  C   UNL     1       2.216  -0.487   3.046  1.00  0.00     0.200 A 
ATOM     17  C   UNL     1       1.380  -0.700   4.168  1.00  0.00     0.162 A 
BRANCH  14  18
ATOM     18  O   UNL     1       2.425  -0.105   0.645  1.00  0.00    -0.504 OA
ATOM     19  H   UNL     1       3.437  -0.135   0.677  1.00  0.00     0.293 HD
ENDBRANCH  14  18
BRANCH  16  20
ATOM     20  O   UNL     1       3.607  -0.423   3.155  1.00  0.00    -0.502 OA
ATOM     21  H   UNL     1       4.155  -0.996   3.779  1.00  0.00     0.293 HD
ENDBRANCH  16  20
BRANCH  17  22
ATOM     22  O   UNL     1       1.879  -0.850   5.464  1.00  0.00    -0.504 OA
ATOM     23  H   UNL     1       1.301  -0.972   6.284  1.00  0.00     0.293 HD
ENDBRANCH  17  22
ENDBRANCH   1  12
BRANCH   2  24
ATOM     24  O   UNL     1      -2.393   0.737   4.534  1.00  0.00    -0.502 OA
ATOM     25  H   UNL     1      -1.963   1.642   4.382  1.00  0.00     0.293 HD
ENDBRANCH   2  24
BRANCH   6  26
ATOM     26  O   UNL     1      -7.145  -0.444   2.784  1.00  0.00    -0.507 OA
ATOM     27  H   UNL     1      -6.903  -0.071   3.695  1.00  0.00     0.293 HD
ENDBRANCH   6  26
BRANCH   8  28
ATOM     28  O   UNL     1      -6.121  -3.082  -1.124  1.00  0.00    -0.508 OA
ATOM     29  H   UNL     1      -5.568  -3.831  -1.520  1.00  0.00     0.293 HD
ENDBRANCH   8  28
TORSDOF 7
ENDMDL
