MODEL 1
REMARK VINA RESULT:    -3.628      0.000      0.000
REMARK INTER + INTRA:          -3.734
REMARK INTER:                  -3.734
REMARK INTRA:                   0.000
REMARK UNBOUND:                 0.000
REMARK SMILES CC1(C)[C@@H]2CC[C@@]1(C)[C@@H](O)C2
REMARK SMILES IDX 1 1 2 2 4 3 5 4 6 5 7 6 9 7 11 8 8 9 3 10 10 11
REMARK H PARENT 10 12
REMARK Flexibility Score: inf
ROOT
ATOM      1  C   UNL     1     149.877 152.855 144.206  1.00  0.00     0.012 C 
ATOM      2  C   UNL     1     150.475 151.576 144.869  1.00  0.00    -0.025 C 
ATOM      3  C   UNL     1     151.290 150.699 143.905  1.00  0.00    -0.002 C 
ATOM      4  C   UNL     1     150.238 150.234 142.869  1.00  0.00     0.005 C 
ATOM      5  C   UNL     1     148.967 150.062 143.725  1.00  0.00     0.010 C 
ATOM      6  C   UNL     1     149.466 150.437 145.150  1.00  0.00    -0.001 C 
ATOM      7  C   UNL     1     150.384 149.279 145.646  1.00  0.00     0.121 C 
ATOM      8  C   UNL     1     151.636 149.450 144.755  1.00  0.00     0.036 C 
ATOM      9  C   UNL     1     148.329 150.775 146.122  1.00  0.00     0.015 C 
ATOM     10  C   UNL     1     151.289 152.078 146.102  1.00  0.00     0.012 C 
ENDROOT
BRANCH   7  11
ATOM     11  O   UNL     1     149.789 148.019 145.471  1.00  0.00    -0.393 OA
ATOM     12  H   UNL     1     149.006 147.990 146.081  1.00  0.00     0.210 HD
ENDBRANCH   7  11
TORSDOF 1
ENDMDL
MODEL 2
REMARK VINA RESULT:    -3.485      9.031     10.242
REMARK INTER + INTRA:          -3.587
REMARK INTER:                  -3.587
REMARK INTRA:                   0.000
REMARK UNBOUND:                 0.000
REMARK SMILES CC1(C)[C@@H]2CC[C@@]1(C)[C@@H](O)C2
REMARK SMILES IDX 1 1 2 2 4 3 5 4 6 5 7 6 9 7 11 8 8 9 3 10 10 11
REMARK H PARENT 10 12
REMARK Flexibility Score: inf
ROOT
ATOM      1  C   UNL     1     156.574 152.833 136.779  1.00  0.00     0.012 C 
ATOM      2  C   UNL     1     157.563 153.514 137.775  1.00  0.00    -0.025 C 
ATOM      3  C   UNL     1     158.426 152.521 138.570  1.00  0.00    -0.002 C 
ATOM      4  C   UNL     1     157.387 151.739 139.411  1.00  0.00     0.005 C 
ATOM      5  C   UNL     1     156.337 152.817 139.745  1.00  0.00     0.010 C 
ATOM      6  C   UNL     1     156.924 154.085 139.063  1.00  0.00    -0.001 C 
ATOM      7  C   UNL     1     158.165 154.534 139.892  1.00  0.00     0.121 C 
ATOM      8  C   UNL     1     159.194 153.425 139.568  1.00  0.00     0.036 C 
ATOM      9  C   UNL     1     155.890 155.200 138.859  1.00  0.00     0.015 C 
ATOM     10  C   UNL     1     158.393 154.526 136.925  1.00  0.00     0.012 C 
ENDROOT
BRANCH   7  11
ATOM     11  O   UNL     1     157.889 154.600 141.268  1.00  0.00    -0.393 OA
ATOM     12  H   UNL     1     157.817 153.662 141.585  1.00  0.00     0.210 HD
ENDBRANCH   7  11
TORSDOF 1
ENDMDL
MODEL 3
REMARK VINA RESULT:    -3.480      7.793      9.601
REMARK INTER + INTRA:          -3.582
REMARK INTER:                  -3.582
REMARK INTRA:                   0.000
REMARK UNBOUND:                 0.000
REMARK SMILES CC1(C)[C@@H]2CC[C@@]1(C)[C@@H](O)C2
REMARK SMILES IDX 1 1 2 2 4 3 5 4 6 5 7 6 9 7 11 8 8 9 3 10 10 11
REMARK H PARENT 10 12
REMARK Flexibility Score: inf
ROOT
ATOM      1  C   UNL     1     144.778 148.444 136.767  1.00  0.00     0.012 C 
ATOM      2  C   UNL     1     143.764 147.781 137.750  1.00  0.00    -0.025 C 
ATOM      3  C   UNL     1     142.907 148.790 138.532  1.00  0.00    -0.002 C 
ATOM      4  C   UNL     1     143.947 149.555 139.386  1.00  0.00     0.005 C 
ATOM      5  C   UNL     1     144.975 148.462 139.736  1.00  0.00     0.010 C 
ATOM      6  C   UNL     1     144.376 147.202 139.048  1.00  0.00    -0.001 C 
ATOM      7  C   UNL     1     143.117 146.774 139.861  1.00  0.00     0.121 C 
ATOM      8  C   UNL     1     142.111 147.899 139.521  1.00  0.00     0.036 C 
ATOM      9  C   UNL     1     145.395 146.070 138.860  1.00  0.00     0.015 C 
ATOM     10  C   UNL     1     142.930 146.781 136.891  1.00  0.00     0.012 C 
ENDROOT
BRANCH   7  11
ATOM     11  O   UNL     1     143.374 146.706 141.240  1.00  0.00    -0.393 OA
ATOM     12  H   UNL     1     142.917 145.890 141.572  1.00  0.00     0.210 HD
ENDBRANCH   7  11
TORSDOF 1
ENDMDL
MODEL 4
REMARK VINA RESULT:    -3.468      8.250      9.894
REMARK INTER + INTRA:          -3.569
REMARK INTER:                  -3.569
REMARK INTRA:                   0.000
REMARK UNBOUND:                 0.000
REMARK SMILES CC1(C)[C@@H]2CC[C@@]1(C)[C@@H](O)C2
REMARK SMILES IDX 1 1 2 2 4 3 5 4 6 5 7 6 9 7 11 8 8 9 3 10 10 11
REMARK H PARENT 10 12
REMARK Flexibility Score: inf
ROOT
ATOM      1  C   UNL     1     148.417 156.540 136.701  1.00  0.00     0.012 C 
ATOM      2  C   UNL     1     147.750 157.521 137.715  1.00  0.00    -0.025 C 
ATOM      3  C   UNL     1     148.754 158.379 138.502  1.00  0.00    -0.002 C 
ATOM      4  C   UNL     1     149.549 157.334 139.323  1.00  0.00     0.005 C 
ATOM      5  C   UNL     1     148.477 156.280 139.665  1.00  0.00     0.010 C 
ATOM      6  C   UNL     1     147.199 156.872 139.006  1.00  0.00    -0.001 C 
ATOM      7  C   UNL     1     146.761 158.106 139.851  1.00  0.00     0.121 C 
ATOM      8  C   UNL     1     147.864 159.138 139.519  1.00  0.00     0.036 C 
ATOM      9  C   UNL     1     146.082 155.838 138.810  1.00  0.00     0.015 C 
ATOM     10  C   UNL     1     146.725 158.357 136.886  1.00  0.00     0.012 C 
ENDROOT
BRANCH   7  11
ATOM     11  O   UNL     1     146.715 157.818 141.226  1.00  0.00    -0.393 OA
ATOM     12  H   UNL     1     147.654 157.837 141.548  1.00  0.00     0.210 HD
ENDBRANCH   7  11
TORSDOF 1
ENDMDL
MODEL 5
REMARK VINA RESULT:    -3.411      8.404      9.945
REMARK INTER + INTRA:          -3.511
REMARK INTER:                  -3.511
REMARK INTRA:                   0.000
REMARK UNBOUND:                 0.000
REMARK SMILES CC1(C)[C@@H]2CC[C@@]1(C)[C@@H](O)C2
REMARK SMILES IDX 1 1 2 2 4 3 5 4 6 5 7 6 9 7 11 8 8 9 3 10 10 11
REMARK H PARENT 10 12
REMARK Flexibility Score: inf
ROOT
ATOM      1  C   UNL     1     152.989 144.878 136.473  1.00  0.00     0.012 C 
ATOM      2  C   UNL     1     153.604 143.924 137.544  1.00  0.00    -0.025 C 
ATOM      3  C   UNL     1     152.560 143.090 138.305  1.00  0.00    -0.002 C 
ATOM      4  C   UNL     1     151.729 144.157 139.057  1.00  0.00     0.005 C 
ATOM      5  C   UNL     1     152.785 145.219 139.422  1.00  0.00     0.010 C 
ATOM      6  C   UNL     1     154.093 144.608 138.843  1.00  0.00    -0.001 C 
ATOM      7  C   UNL     1     154.486 143.398 139.742  1.00  0.00     0.121 C 
ATOM      8  C   UNL     1     153.398 142.358 139.385  1.00  0.00     0.036 C 
ATOM      9  C   UNL     1     155.220 145.635 138.673  1.00  0.00     0.015 C 
ATOM     10  C   UNL     1     154.666 143.065 136.790  1.00  0.00     0.012 C 
ENDROOT
BRANCH   7  11
ATOM     11  O   UNL     1     154.465 143.723 141.108  1.00  0.00    -0.393 OA
ATOM     12  H   UNL     1     154.957 142.999 141.577  1.00  0.00     0.210 HD
ENDBRANCH   7  11
TORSDOF 1
ENDMDL
MODEL 6
REMARK VINA RESULT:    -3.256      8.807     10.205
REMARK INTER + INTRA:          -3.351
REMARK INTER:                  -3.351
REMARK INTRA:                   0.000
REMARK UNBOUND:                 0.000
REMARK SMILES CC1(C)[C@@H]2CC[C@@]1(C)[C@@H](O)C2
REMARK SMILES IDX 1 1 2 2 4 3 5 4 6 5 7 6 9 7 11 8 8 9 3 10 10 11
REMARK H PARENT 10 12
REMARK Flexibility Score: inf
ROOT
ATOM      1  C   UNL     1     157.460 154.758 137.072  1.00  0.00     0.012 C 
ATOM      2  C   UNL     1     156.960 153.524 137.885  1.00  0.00    -0.025 C 
ATOM      3  C   UNL     1     156.486 153.867 139.307  1.00  0.00    -0.002 C 
ATOM      4  C   UNL     1     157.772 154.386 139.996  1.00  0.00     0.005 C 
ATOM      5  C   UNL     1     158.873 153.507 139.372  1.00  0.00     0.010 C 
ATOM      6  C   UNL     1     158.068 152.582 138.416  1.00  0.00    -0.001 C 
ATOM      7  C   UNL     1     157.269 151.575 139.296  1.00  0.00     0.121 C 
ATOM      8  C   UNL     1     156.192 152.481 139.936  1.00  0.00     0.036 C 
ATOM      9  C   UNL     1     158.937 151.906 137.348  1.00  0.00     0.015 C 
ATOM     10  C   UNL     1     155.863 152.849 137.004  1.00  0.00     0.012 C 
ENDROOT
BRANCH   7  11
ATOM     11  O   UNL     1     158.078 150.964 140.269  1.00  0.00    -0.393 OA
ATOM     12  H   UNL     1     159.018 151.107 139.983  1.00  0.00     0.210 HD
ENDBRANCH   7  11
TORSDOF 1
ENDMDL
MODEL 7
REMARK VINA RESULT:    -3.253      7.812      9.505
REMARK INTER + INTRA:          -3.348
REMARK INTER:                  -3.348
REMARK INTRA:                   0.000
REMARK UNBOUND:                 0.000
REMARK SMILES CC1(C)[C@@H]2CC[C@@]1(C)[C@@H](O)C2
REMARK SMILES IDX 1 1 2 2 4 3 5 4 6 5 7 6 9 7 11 8 8 9 3 10 10 11
REMARK H PARENT 10 12
REMARK Flexibility Score: inf
ROOT
ATOM      1  C   UNL     1     143.855 146.514 137.082  1.00  0.00     0.012 C 
ATOM      2  C   UNL     1     144.319 147.755 137.906  1.00  0.00    -0.025 C 
ATOM      3  C   UNL     1     144.768 147.418 139.338  1.00  0.00    -0.002 C 
ATOM      4  C   UNL     1     143.475 146.880 139.999  1.00  0.00     0.005 C 
ATOM      5  C   UNL     1     142.374 147.744 139.352  1.00  0.00     0.010 C 
ATOM      6  C   UNL     1     143.187 148.680 138.413  1.00  0.00    -0.001 C 
ATOM      7  C   UNL     1     143.952 149.699 139.310  1.00  0.00     0.121 C 
ATOM      8  C   UNL     1     145.029 148.808 139.973  1.00  0.00     0.036 C 
ATOM      9  C   UNL     1     142.330 149.344 137.328  1.00  0.00     0.015 C 
ATOM     10  C   UNL     1     145.424 148.446 137.048  1.00  0.00     0.012 C 
ENDROOT
BRANCH   7  11
ATOM     11  O   UNL     1     143.114 150.298 140.266  1.00  0.00    -0.393 OA
ATOM     12  H   UNL     1     143.689 150.522 141.043  1.00  0.00     0.210 HD
ENDBRANCH   7  11
TORSDOF 1
ENDMDL
MODEL 8
REMARK VINA RESULT:    -3.242      8.261      9.828
REMARK INTER + INTRA:          -3.337
REMARK INTER:                  -3.337
REMARK INTRA:                   0.000
REMARK UNBOUND:                 0.000
REMARK SMILES CC1(C)[C@@H]2CC[C@@]1(C)[C@@H](O)C2
REMARK SMILES IDX 1 1 2 2 4 3 5 4 6 5 7 6 9 7 11 8 8 9 3 10 10 11
REMARK H PARENT 10 12
REMARK Flexibility Score: inf
ROOT
ATOM      1  C   UNL     1     154.743 143.883 137.102  1.00  0.00     0.012 C 
ATOM      2  C   UNL     1     153.483 144.316 137.914  1.00  0.00    -0.025 C 
ATOM      3  C   UNL     1     153.796 144.780 139.346  1.00  0.00    -0.002 C 
ATOM      4  C   UNL     1     154.364 143.506 140.018  1.00  0.00     0.005 C 
ATOM      5  C   UNL     1     153.537 142.379 139.369  1.00  0.00     0.010 C 
ATOM      6  C   UNL     1     152.586 143.161 138.419  1.00  0.00    -0.001 C 
ATOM      7  C   UNL     1     151.539 143.901 139.304  1.00  0.00     0.121 C 
ATOM      8  C   UNL     1     152.394 145.005 139.969  1.00  0.00     0.036 C 
ATOM      9  C   UNL     1     151.954 142.281 137.332  1.00  0.00     0.015 C 
ATOM     10  C   UNL     1     152.769 145.398 137.045  1.00  0.00     0.012 C 
ENDROOT
BRANCH   7  11
ATOM     11  O   UNL     1     150.956 143.050 140.259  1.00  0.00    -0.393 OA
ATOM     12  H   UNL     1     150.676 143.628 141.016  1.00  0.00     0.210 HD
ENDBRANCH   7  11
TORSDOF 1
ENDMDL
MODEL 9
REMARK VINA RESULT:    -3.235      8.050      9.876
REMARK INTER + INTRA:          -3.330
REMARK INTER:                  -3.330
REMARK INTRA:                   0.000
REMARK UNBOUND:                 0.000
REMARK SMILES CC1(C)[C@@H]2CC[C@@]1(C)[C@@H](O)C2
REMARK SMILES IDX 1 1 2 2 4 3 5 4 6 5 7 6 9 7 11 8 8 9 3 10 10 11
REMARK H PARENT 10 12
REMARK Flexibility Score: inf
ROOT
ATOM      1  C   UNL     1     146.576 157.335 137.048  1.00  0.00     0.012 C 
ATOM      2  C   UNL     1     147.821 156.896 137.881  1.00  0.00    -0.025 C 
ATOM      3  C   UNL     1     147.482 156.441 139.310  1.00  0.00    -0.002 C 
ATOM      4  C   UNL     1     146.913 157.722 139.967  1.00  0.00     0.005 C 
ATOM      5  C   UNL     1     147.759 158.840 139.327  1.00  0.00     0.010 C 
ATOM      6  C   UNL     1     148.718 158.047 138.395  1.00  0.00    -0.001 C 
ATOM      7  C   UNL     1     149.746 157.304 139.299  1.00  0.00     0.121 C 
ATOM      8  C   UNL     1     148.873 156.208 139.955  1.00  0.00     0.036 C 
ATOM      9  C   UNL     1     149.373 158.918 137.314  1.00  0.00     0.015 C 
ATOM     10  C   UNL     1     148.540 155.806 137.028  1.00  0.00     0.012 C 
ENDROOT
BRANCH   7  11
ATOM     11  O   UNL     1     150.321 158.154 140.259  1.00  0.00    -0.393 OA
ATOM     12  H   UNL     1     150.513 157.591 141.054  1.00  0.00     0.210 HD
ENDBRANCH   7  11
TORSDOF 1
ENDMDL
