MODEL 1
REMARK VINA RESULT:    -5.186      0.000      0.000
REMARK INTER + INTRA:         -11.900
REMARK INTER:                 -10.036
REMARK INTRA:                  -1.864
REMARK UNBOUND:                -1.864
REMARK SMILES CCCCCC=CCC=CCCCCCCCCOC(C)=O
REMARK SMILES IDX 12 1 11 2 10 3 9 4 8 5 7 6 6 7 5 8 4 9 3 10 2 11 1 12 13 13
REMARK SMILES IDX 14 14 15 15 16 16 17 17 18 18 19 19 20 20 22 21 21 22
REMARK H PARENT
REMARK Flexibility Score: inf
ROOT
ATOM      1  C   UNL     1      -9.037  -6.536   1.542  1.00  0.00     0.004 C 
ENDROOT
BRANCH   1   2
ATOM      2  C   UNL     1      -9.711  -7.857   1.945  1.00  0.00     0.027 C 
BRANCH   2   3
ATOM      3  C   UNL     1      -8.715  -8.990   2.020  1.00  0.00    -0.031 C 
ATOM      4  C   UNL     1      -8.147  -9.454   3.149  1.00  0.00    -0.027 C 
BRANCH   4   5
ATOM      5  C   UNL     1      -8.369  -8.894   4.533  1.00  0.00     0.054 C 
BRANCH   5   6
ATOM      6  C   UNL     1      -7.603  -7.614   4.711  1.00  0.00    -0.027 C 
ATOM      7  C   UNL     1      -7.450  -7.057   5.925  1.00  0.00    -0.031 C 
BRANCH   7   8
ATOM      8  C   UNL     1      -6.648  -5.798   6.125  1.00  0.00     0.027 C 
BRANCH   8   9
ATOM      9  C   UNL     1      -6.739  -5.308   7.578  1.00  0.00     0.004 C 
BRANCH   9  10
ATOM     10  C   UNL     1      -7.123  -6.440   8.549  1.00  0.00     0.000 C 
BRANCH  10  11
ATOM     11  C   UNL     1      -7.928  -5.930   9.757  1.00  0.00    -0.003 C 
ATOM     12  C   UNL     1      -8.581  -4.572   9.500  1.00  0.00     0.004 C 
ENDBRANCH  10  11
ENDBRANCH   9  10
ENDBRANCH   8   9
ENDBRANCH   7   8
ENDBRANCH   5   6
ENDBRANCH   4   5
ENDBRANCH   2   3
ENDBRANCH   1   2
BRANCH   1  13
ATOM     13  C   UNL     1      -9.807  -5.300   2.060  1.00  0.00     0.000 C 
BRANCH  13  14
ATOM     14  C   UNL     1     -10.079  -5.330   3.575  1.00  0.00     0.000 C 
BRANCH  14  15
ATOM     15  C   UNL     1     -10.207  -3.930   4.185  1.00  0.00     0.000 C 
BRANCH  15  16
ATOM     16  C   UNL     1      -9.292  -3.770   5.404  1.00  0.00     0.003 C 
BRANCH  16  17
ATOM     17  C   UNL     1      -9.830  -2.696   6.360  1.00  0.00     0.042 C 
BRANCH  17  18
ATOM     18  C   UNL     1     -10.542  -1.572   5.607  1.00  0.00     0.233 C 
BRANCH  18  19
ATOM     19  O   UNL     1     -11.115  -0.650   6.531  1.00  0.00    -0.466 OA
BRANCH  19  20
ATOM     20  C   UNL     1     -10.515   0.574   6.843  1.00  0.00     0.302 C 
ATOM     21  O   UNL     1      -9.261   0.703   6.821  1.00  0.00    -0.253 OA
ATOM     22  C   UNL     1     -11.370   1.753   7.161  1.00  0.00     0.139 C 
ENDBRANCH  19  20
ENDBRANCH  18  19
ENDBRANCH  17  18
ENDBRANCH  16  17
ENDBRANCH  15  16
ENDBRANCH  14  15
ENDBRANCH  13  14
ENDBRANCH   1  13
TORSDOF 16
ENDMDL
MODEL 2
REMARK VINA RESULT:    -4.882      2.533      6.336
REMARK INTER + INTRA:         -11.313
REMARK INTER:                  -9.586
REMARK INTRA:                  -1.727
REMARK UNBOUND:                -1.864
REMARK SMILES CCCCCC=CCC=CCCCCCCCCOC(C)=O
REMARK SMILES IDX 12 1 11 2 10 3 9 4 8 5 7 6 6 7 5 8 4 9 3 10 2 11 1 12 13 13
REMARK SMILES IDX 14 14 15 15 16 16 17 17 18 18 19 19 20 20 22 21 21 22
REMARK H PARENT
REMARK Flexibility Score: inf
ROOT
ATOM      1  C   UNL     1      -7.968  -7.407   5.467  1.00  0.00     0.004 C 
ENDROOT
BRANCH   1   2
ATOM      2  C   UNL     1      -8.889  -7.364   4.238  1.00  0.00     0.027 C 
BRANCH   2   3
ATOM      3  C   UNL     1      -8.484  -6.272   3.277  1.00  0.00    -0.031 C 
ATOM      4  C   UNL     1      -8.548  -6.353   1.934  1.00  0.00    -0.027 C 
BRANCH   4   5
ATOM      5  C   UNL     1      -8.992  -7.565   1.153  1.00  0.00     0.054 C 
BRANCH   5   6
ATOM      6  C   UNL     1      -9.944  -7.168   0.061  1.00  0.00    -0.027 C 
ATOM      7  C   UNL     1     -10.823  -6.166   0.234  1.00  0.00    -0.031 C 
BRANCH   7   8
ATOM      8  C   UNL     1     -11.753  -5.728  -0.866  1.00  0.00     0.027 C 
BRANCH   8   9
ATOM      9  C   UNL     1     -11.320  -4.377  -1.454  1.00  0.00     0.004 C 
BRANCH   9  10
ATOM     10  C   UNL     1     -11.047  -4.463  -2.967  1.00  0.00     0.000 C 
BRANCH  10  11
ATOM     11  C   UNL     1      -9.784  -5.279  -3.292  1.00  0.00    -0.003 C 
ATOM     12  C   UNL     1     -10.061  -6.438  -4.250  1.00  0.00     0.004 C 
ENDBRANCH  10  11
ENDBRANCH   9  10
ENDBRANCH   8   9
ENDBRANCH   7   8
ENDBRANCH   5   6
ENDBRANCH   4   5
ENDBRANCH   2   3
ENDBRANCH   1   2
BRANCH   1  13
ATOM     13  C   UNL     1      -6.929  -6.262   5.465  1.00  0.00     0.000 C 
BRANCH  13  14
ATOM     14  C   UNL     1      -7.107  -5.263   6.622  1.00  0.00     0.000 C 
BRANCH  14  15
ATOM     15  C   UNL     1      -8.556  -4.795   6.787  1.00  0.00     0.000 C 
BRANCH  15  16
ATOM     16  C   UNL     1      -8.754  -3.388   6.214  1.00  0.00     0.003 C 
BRANCH  16  17
ATOM     17  C   UNL     1      -9.897  -3.366   5.189  1.00  0.00     0.042 C 
BRANCH  17  18
ATOM     18  C   UNL     1     -10.602  -2.010   5.154  1.00  0.00     0.233 C 
BRANCH  18  19
ATOM     19  O   UNL     1     -10.571  -1.407   6.445  1.00  0.00    -0.466 OA
BRANCH  19  20
ATOM     20  C   UNL     1     -10.242  -0.062   6.641  1.00  0.00     0.302 C 
ATOM     21  O   UNL     1      -9.061   0.346   6.465  1.00  0.00    -0.253 OA
ATOM     22  C   UNL     1     -11.308   0.909   7.017  1.00  0.00     0.139 C 
ENDBRANCH  19  20
ENDBRANCH  18  19
ENDBRANCH  17  18
ENDBRANCH  16  17
ENDBRANCH  15  16
ENDBRANCH  14  15
ENDBRANCH  13  14
ENDBRANCH   1  13
TORSDOF 16
ENDMDL
MODEL 3
REMARK VINA RESULT:    -4.725      5.236      7.620
REMARK INTER + INTRA:         -11.009
REMARK INTER:                  -9.140
REMARK INTRA:                  -1.869
REMARK UNBOUND:                -1.864
REMARK SMILES CCCCCC=CCC=CCCCCCCCCOC(C)=O
REMARK SMILES IDX 12 1 11 2 10 3 9 4 8 5 7 6 6 7 5 8 4 9 3 10 2 11 1 12 13 13
REMARK SMILES IDX 14 14 15 15 16 16 17 17 18 18 19 19 20 20 22 21 21 22
REMARK H PARENT
REMARK Flexibility Score: inf
ROOT
ATOM      1  C   UNL     1      -9.829  -9.295   0.498  1.00  0.00     0.004 C 
ENDROOT
BRANCH   1   2
ATOM      2  C   UNL     1      -9.063  -8.706   1.694  1.00  0.00     0.027 C 
BRANCH   2   3
ATOM      3  C   UNL     1      -8.632  -7.283   1.432  1.00  0.00    -0.031 C 
ATOM      4  C   UNL     1      -8.906  -6.228   2.224  1.00  0.00    -0.027 C 
BRANCH   4   5
ATOM      5  C   UNL     1      -9.730  -6.275   3.487  1.00  0.00     0.054 C 
BRANCH   5   6
ATOM      6  C   UNL     1      -8.916  -5.818   4.663  1.00  0.00    -0.027 C 
ATOM      7  C   UNL     1      -7.941  -6.587   5.176  1.00  0.00    -0.031 C 
BRANCH   7   8
ATOM      8  C   UNL     1      -7.088  -6.124   6.328  1.00  0.00     0.027 C 
BRANCH   8   9
ATOM      9  C   UNL     1      -7.794  -5.023   7.134  1.00  0.00     0.004 C 
BRANCH   9  10
ATOM     10  C   UNL     1      -7.520  -5.144   8.644  1.00  0.00     0.000 C 
BRANCH  10  11
ATOM     11  C   UNL     1      -7.030  -6.547   9.043  1.00  0.00    -0.003 C 
ATOM     12  C   UNL     1      -8.089  -7.347   9.803  1.00  0.00     0.004 C 
ENDBRANCH  10  11
ENDBRANCH   9  10
ENDBRANCH   8   9
ENDBRANCH   7   8
ENDBRANCH   5   6
ENDBRANCH   4   5
ENDBRANCH   2   3
ENDBRANCH   1   2
BRANCH   1  13
ATOM     13  C   UNL     1     -11.336  -8.952   0.537  1.00  0.00     0.000 C 
BRANCH  13  14
ATOM     14  C   UNL     1     -11.799  -8.062  -0.629  1.00  0.00     0.000 C 
BRANCH  14  15
ATOM     15  C   UNL     1     -11.833  -6.573  -0.267  1.00  0.00     0.000 C 
BRANCH  15  16
ATOM     16  C   UNL     1     -10.946  -5.752  -1.209  1.00  0.00     0.003 C 
BRANCH  16  17
ATOM     17  C   UNL     1     -10.466  -6.603  -2.394  1.00  0.00     0.042 C 
BRANCH  17  18
ATOM     18  C   UNL     1     -11.039  -6.104  -3.720  1.00  0.00     0.233 C 
BRANCH  18  19
ATOM     19  O   UNL     1     -10.072  -6.249  -4.757  1.00  0.00    -0.466 OA
BRANCH  19  20
ATOM     20  C   UNL     1     -10.343  -6.929  -5.949  1.00  0.00     0.302 C 
ATOM     21  O   UNL     1     -10.181  -6.365  -7.066  1.00  0.00    -0.253 OA
ATOM     22  C   UNL     1     -10.785  -8.352  -5.901  1.00  0.00     0.139 C 
ENDBRANCH  19  20
ENDBRANCH  18  19
ENDBRANCH  17  18
ENDBRANCH  16  17
ENDBRANCH  15  16
ENDBRANCH  14  15
ENDBRANCH  13  14
ENDBRANCH   1  13
TORSDOF 16
ENDMDL
MODEL 4
REMARK VINA RESULT:    -4.658      3.245      7.367
REMARK INTER + INTRA:         -10.878
REMARK INTER:                  -8.968
REMARK INTRA:                  -1.910
REMARK UNBOUND:                -1.864
REMARK SMILES CCCCCC=CCC=CCCCCCCCCOC(C)=O
REMARK SMILES IDX 12 1 11 2 10 3 9 4 8 5 7 6 6 7 5 8 4 9 3 10 2 11 1 12 13 13
REMARK SMILES IDX 14 14 15 15 16 16 17 17 18 18 19 19 20 20 22 21 21 22
REMARK H PARENT
REMARK Flexibility Score: inf
ROOT
ATOM      1  C   UNL     1      -8.738 -10.031   2.211  1.00  0.00     0.004 C 
ENDROOT
BRANCH   1   2
ATOM      2  C   UNL     1      -9.372  -9.344   0.991  1.00  0.00     0.027 C 
BRANCH   2   3
ATOM      3  C   UNL     1      -9.033  -7.873   0.942  1.00  0.00    -0.031 C 
ATOM      4  C   UNL     1      -9.926  -6.873   0.818  1.00  0.00    -0.027 C 
BRANCH   4   5
ATOM      5  C   UNL     1     -11.416  -7.046   0.661  1.00  0.00     0.054 C 
BRANCH   5   6
ATOM      6  C   UNL     1     -11.960  -6.056  -0.329  1.00  0.00    -0.027 C 
ATOM      7  C   UNL     1     -11.217  -5.022  -0.760  1.00  0.00    -0.031 C 
BRANCH   7   8
ATOM      8  C   UNL     1     -11.733  -4.046  -1.784  1.00  0.00     0.027 C 
BRANCH   8   9
ATOM      9  C   UNL     1     -11.182  -4.366  -3.182  1.00  0.00     0.004 C 
BRANCH   9  10
ATOM     10  C   UNL     1      -9.993  -5.343  -3.127  1.00  0.00     0.000 C 
BRANCH  10  11
ATOM     11  C   UNL     1     -10.165  -6.534  -4.087  1.00  0.00    -0.003 C 
ATOM     12  C   UNL     1     -10.580  -7.816  -3.366  1.00  0.00     0.004 C 
ENDBRANCH  10  11
ENDBRANCH   9  10
ENDBRANCH   8   9
ENDBRANCH   7   8
ENDBRANCH   5   6
ENDBRANCH   4   5
ENDBRANCH   2   3
ENDBRANCH   1   2
BRANCH   1  13
ATOM     13  C   UNL     1      -7.811  -9.082   3.006  1.00  0.00     0.000 C 
BRANCH  13  14
ATOM     14  C   UNL     1      -8.266  -8.844   4.456  1.00  0.00     0.000 C 
BRANCH  14  15
ATOM     15  C   UNL     1      -7.946  -7.431   4.957  1.00  0.00     0.000 C 
BRANCH  15  16
ATOM     16  C   UNL     1      -8.928  -6.404   4.383  1.00  0.00     0.003 C 
BRANCH  16  17
ATOM     17  C   UNL     1      -9.000  -5.155   5.273  1.00  0.00     0.042 C 
BRANCH  17  18
ATOM     18  C   UNL     1      -7.849  -5.107   6.279  1.00  0.00     0.233 C 
BRANCH  18  19
ATOM     19  O   UNL     1      -8.271  -4.457   7.475  1.00  0.00    -0.466 OA
BRANCH  19  20
ATOM     20  C   UNL     1      -7.914  -4.916   8.747  1.00  0.00     0.302 C 
ATOM     21  O   UNL     1      -8.195  -4.245   9.778  1.00  0.00    -0.253 OA
ATOM     22  C   UNL     1      -7.235  -6.235   8.890  1.00  0.00     0.139 C 
ENDBRANCH  19  20
ENDBRANCH  18  19
ENDBRANCH  17  18
ENDBRANCH  16  17
ENDBRANCH  15  16
ENDBRANCH  14  15
ENDBRANCH  13  14
ENDBRANCH   1  13
TORSDOF 16
ENDMDL
MODEL 5
REMARK VINA RESULT:    -4.625      1.960      5.297
REMARK INTER + INTRA:         -10.815
REMARK INTER:                  -9.024
REMARK INTRA:                  -1.792
REMARK UNBOUND:                -1.864
REMARK SMILES CCCCCC=CCC=CCCCCCCCCOC(C)=O
REMARK SMILES IDX 12 1 11 2 10 3 9 4 8 5 7 6 6 7 5 8 4 9 3 10 2 11 1 12 13 13
REMARK SMILES IDX 14 14 15 15 16 16 17 17 18 18 19 19 20 20 22 21 21 22
REMARK H PARENT
REMARK Flexibility Score: inf
ROOT
ATOM      1  C   UNL     1      -8.553  -9.451   1.930  1.00  0.00     0.004 C 
ENDROOT
BRANCH   1   2
ATOM      2  C   UNL     1      -9.321  -8.375   1.147  1.00  0.00     0.027 C 
BRANCH   2   3
ATOM      3  C   UNL     1      -8.577  -7.060   1.130  1.00  0.00    -0.031 C 
ATOM      4  C   UNL     1      -8.820  -6.018   1.948  1.00  0.00    -0.027 C 
BRANCH   4   5
ATOM      5  C   UNL     1      -9.907  -5.962   2.993  1.00  0.00     0.054 C 
BRANCH   5   6
ATOM      6  C   UNL     1     -10.264  -4.537   3.305  1.00  0.00    -0.027 C 
ATOM      7  C   UNL     1     -10.033  -4.011   4.520  1.00  0.00    -0.031 C 
BRANCH   7   8
ATOM      8  C   UNL     1     -10.346  -2.572   4.835  1.00  0.00     0.027 C 
BRANCH   8   9
ATOM      9  C   UNL     1      -9.853  -2.192   6.239  1.00  0.00     0.004 C 
BRANCH   9  10
ATOM     10  C   UNL     1     -10.783  -1.173   6.924  1.00  0.00     0.000 C 
BRANCH  10  11
ATOM     11  C   UNL     1     -10.262   0.270   6.807  1.00  0.00    -0.003 C 
ATOM     12  C   UNL     1     -11.382   1.309   6.873  1.00  0.00     0.004 C 
ENDBRANCH  10  11
ENDBRANCH   9  10
ENDBRANCH   8   9
ENDBRANCH   7   8
ENDBRANCH   5   6
ENDBRANCH   4   5
ENDBRANCH   2   3
ENDBRANCH   1   2
BRANCH   1  13
ATOM     13  C   UNL     1      -9.335  -9.951   3.167  1.00  0.00     0.000 C 
BRANCH  13  14
ATOM     14  C   UNL     1      -8.643  -9.637   4.505  1.00  0.00     0.000 C 
BRANCH  14  15
ATOM     15  C   UNL     1      -7.622  -8.500   4.395  1.00  0.00     0.000 C 
BRANCH  15  16
ATOM     16  C   UNL     1      -7.976  -7.343   5.336  1.00  0.00     0.003 C 
BRANCH  16  17
ATOM     17  C   UNL     1      -6.739  -6.488   5.646  1.00  0.00     0.042 C 
BRANCH  17  18
ATOM     18  C   UNL     1      -7.117  -5.158   6.298  1.00  0.00     0.233 C 
BRANCH  18  19
ATOM     19  O   UNL     1      -6.658  -5.125   7.647  1.00  0.00    -0.466 OA
BRANCH  19  20
ATOM     20  C   UNL     1      -7.514  -5.303   8.739  1.00  0.00     0.302 C 
ATOM     21  O   UNL     1      -8.415  -4.458   8.997  1.00  0.00    -0.253 OA
ATOM     22  C   UNL     1      -7.391  -6.528   9.579  1.00  0.00     0.139 C 
ENDBRANCH  19  20
ENDBRANCH  18  19
ENDBRANCH  17  18
ENDBRANCH  16  17
ENDBRANCH  15  16
ENDBRANCH  14  15
ENDBRANCH  13  14
ENDBRANCH   1  13
TORSDOF 16
ENDMDL
MODEL 6
REMARK VINA RESULT:    -4.481      3.106      7.081
REMARK INTER + INTRA:         -10.535
REMARK INTER:                  -8.675
REMARK INTRA:                  -1.861
REMARK UNBOUND:                -1.864
REMARK SMILES CCCCCC=CCC=CCCCCCCCCOC(C)=O
REMARK SMILES IDX 12 1 11 2 10 3 9 4 8 5 7 6 6 7 5 8 4 9 3 10 2 11 1 12 13 13
REMARK SMILES IDX 14 14 15 15 16 16 17 17 18 18 19 19 20 20 22 21 21 22
REMARK H PARENT
REMARK Flexibility Score: inf
ROOT
ATOM      1  C   UNL     1      -9.801  -5.115   1.922  1.00  0.00     0.004 C 
ENDROOT
BRANCH   1   2
ATOM      2  C   UNL     1      -9.583  -6.422   1.143  1.00  0.00     0.027 C 
BRANCH   2   3
ATOM      3  C   UNL     1      -8.421  -7.212   1.696  1.00  0.00    -0.031 C 
ATOM      4  C   UNL     1      -8.407  -8.545   1.889  1.00  0.00    -0.027 C 
BRANCH   4   5
ATOM      5  C   UNL     1      -9.565  -9.477   1.629  1.00  0.00     0.054 C 
BRANCH   5   6
ATOM      6  C   UNL     1      -9.632  -9.840   0.173  1.00  0.00    -0.027 C 
ATOM      7  C   UNL     1     -10.647  -9.421  -0.603  1.00  0.00    -0.031 C 
BRANCH   7   8
ATOM      8  C   UNL     1     -10.705  -9.741  -2.074  1.00  0.00     0.027 C 
BRANCH   8   9
ATOM      9  C   UNL     1     -11.047  -8.491  -2.899  1.00  0.00     0.004 C 
BRANCH   9  10
ATOM     10  C   UNL     1     -11.301  -7.260  -2.010  1.00  0.00     0.000 C 
BRANCH  10  11
ATOM     11  C   UNL     1     -10.487  -6.033  -2.457  1.00  0.00    -0.003 C 
ATOM     12  C   UNL     1     -10.136  -6.069  -3.944  1.00  0.00     0.004 C 
ENDBRANCH  10  11
ENDBRANCH   9  10
ENDBRANCH   8   9
ENDBRANCH   7   8
ENDBRANCH   5   6
ENDBRANCH   4   5
ENDBRANCH   2   3
ENDBRANCH   1   2
BRANCH   1  13
ATOM     13  C   UNL     1     -10.276  -5.367   3.372  1.00  0.00     0.000 C 
BRANCH  13  14
ATOM     14  C   UNL     1      -9.762  -4.325   4.381  1.00  0.00     0.000 C 
BRANCH  14  15
ATOM     15  C   UNL     1      -8.994  -4.954   5.549  1.00  0.00     0.000 C 
BRANCH  15  16
ATOM     16  C   UNL     1      -8.242  -6.213   5.104  1.00  0.00     0.003 C 
BRANCH  16  17
ATOM     17  C   UNL     1      -6.974  -6.422   5.943  1.00  0.00     0.042 C 
BRANCH  17  18
ATOM     18  C   UNL     1      -6.392  -5.095   6.431  1.00  0.00     0.233 C 
BRANCH  18  19
ATOM     19  O   UNL     1      -6.224  -5.125   7.847  1.00  0.00    -0.466 OA
BRANCH  19  20
ATOM     20  C   UNL     1      -7.292  -5.326   8.727  1.00  0.00     0.302 C 
ATOM     21  O   UNL     1      -8.168  -4.433   8.894  1.00  0.00    -0.253 OA
ATOM     22  C   UNL     1      -7.422  -6.627   9.442  1.00  0.00     0.139 C 
ENDBRANCH  19  20
ENDBRANCH  18  19
ENDBRANCH  17  18
ENDBRANCH  16  17
ENDBRANCH  15  16
ENDBRANCH  14  15
ENDBRANCH  13  14
ENDBRANCH   1  13
TORSDOF 16
ENDMDL
MODEL 7
REMARK VINA RESULT:    -4.481      3.405      7.165
REMARK INTER + INTRA:         -10.535
REMARK INTER:                  -8.550
REMARK INTRA:                  -1.986
REMARK UNBOUND:                -1.864
REMARK SMILES CCCCCC=CCC=CCCCCCCCCOC(C)=O
REMARK SMILES IDX 12 1 11 2 10 3 9 4 8 5 7 6 6 7 5 8 4 9 3 10 2 11 1 12 13 13
REMARK SMILES IDX 14 14 15 15 16 16 17 17 18 18 19 19 20 20 22 21 21 22
REMARK H PARENT
REMARK Flexibility Score: inf
ROOT
ATOM      1  C   UNL     1      -7.995  -8.637   2.279  1.00  0.00     0.004 C 
ENDROOT
BRANCH   1   2
ATOM      2  C   UNL     1      -8.732  -9.796   1.590  1.00  0.00     0.027 C 
BRANCH   2   3
ATOM      3  C   UNL     1     -10.226  -9.703   1.790  1.00  0.00    -0.031 C 
ATOM      4  C   UNL     1     -11.136  -9.560   0.807  1.00  0.00    -0.027 C 
BRANCH   4   5
ATOM      5  C   UNL     1     -10.821  -9.422  -0.662  1.00  0.00     0.054 C 
BRANCH   5   6
ATOM      6  C   UNL     1     -10.623  -7.978  -1.024  1.00  0.00    -0.027 C 
ATOM      7  C   UNL     1     -11.273  -7.000  -0.369  1.00  0.00    -0.031 C 
BRANCH   7   8
ATOM      8  C   UNL     1     -11.052  -5.546  -0.692  1.00  0.00     0.027 C 
BRANCH   8   9
ATOM      9  C   UNL     1     -11.970  -5.087  -1.836  1.00  0.00     0.004 C 
BRANCH   9  10
ATOM     10  C   UNL     1     -11.174  -4.516  -3.024  1.00  0.00     0.000 C 
BRANCH  10  11
ATOM     11  C   UNL     1      -9.847  -5.260  -3.255  1.00  0.00    -0.003 C 
ATOM     12  C   UNL     1      -9.958  -6.343  -4.329  1.00  0.00     0.004 C 
ENDBRANCH  10  11
ENDBRANCH   9  10
ENDBRANCH   8   9
ENDBRANCH   7   8
ENDBRANCH   5   6
ENDBRANCH   4   5
ENDBRANCH   2   3
ENDBRANCH   1   2
BRANCH   1  13
ATOM     13  C   UNL     1      -8.343  -7.264   1.657  1.00  0.00     0.000 C 
BRANCH  13  14
ATOM     14  C   UNL     1      -8.785  -6.211   2.687  1.00  0.00     0.000 C 
BRANCH  14  15
ATOM     15  C   UNL     1      -9.001  -6.800   4.086  1.00  0.00     0.000 C 
BRANCH  15  16
ATOM     16  C   UNL     1      -8.542  -5.825   5.175  1.00  0.00     0.003 C 
BRANCH  16  17
ATOM     17  C   UNL     1      -7.248  -6.313   5.842  1.00  0.00     0.042 C 
BRANCH  17  18
ATOM     18  C   UNL     1      -6.552  -5.194   6.618  1.00  0.00     0.233 C 
BRANCH  18  19
ATOM     19  O   UNL     1      -7.438  -4.650   7.593  1.00  0.00    -0.466 OA
BRANCH  19  20
ATOM     20  C   UNL     1      -7.691  -5.281   8.816  1.00  0.00     0.302 C 
ATOM     21  O   UNL     1      -6.972  -6.241   9.208  1.00  0.00    -0.253 OA
ATOM     22  C   UNL     1      -8.793  -4.784   9.686  1.00  0.00     0.139 C 
ENDBRANCH  19  20
ENDBRANCH  18  19
ENDBRANCH  17  18
ENDBRANCH  16  17
ENDBRANCH  15  16
ENDBRANCH  14  15
ENDBRANCH  13  14
ENDBRANCH   1  13
TORSDOF 16
ENDMDL
MODEL 8
REMARK VINA RESULT:    -4.419      3.773      7.636
REMARK INTER + INTRA:         -10.416
REMARK INTER:                  -8.480
REMARK INTRA:                  -1.936
REMARK UNBOUND:                -1.864
REMARK SMILES CCCCCC=CCC=CCCCCCCCCOC(C)=O
REMARK SMILES IDX 12 1 11 2 10 3 9 4 8 5 7 6 6 7 5 8 4 9 3 10 2 11 1 12 13 13
REMARK SMILES IDX 14 14 15 15 16 16 17 17 18 18 19 19 20 20 22 21 21 22
REMARK H PARENT
REMARK Flexibility Score: inf
ROOT
ATOM      1  C   UNL     1      -8.769  -6.635   1.635  1.00  0.00     0.004 C 
ENDROOT
BRANCH   1   2
ATOM      2  C   UNL     1      -9.597  -6.969   0.384  1.00  0.00     0.027 C 
BRANCH   2   3
ATOM      3  C   UNL     1     -11.077  -6.988   0.685  1.00  0.00    -0.031 C 
ATOM      4  C   UNL     1     -11.955  -7.893   0.213  1.00  0.00    -0.027 C 
BRANCH   4   5
ATOM      5  C   UNL     1     -11.625  -9.020  -0.734  1.00  0.00     0.054 C 
BRANCH   5   6
ATOM      6  C   UNL     1     -11.759  -8.566  -2.159  1.00  0.00    -0.027 C 
ATOM      7  C   UNL     1     -10.681  -8.221  -2.885  1.00  0.00    -0.031 C 
BRANCH   7   8
ATOM      8  C   UNL     1     -10.796  -7.805  -4.328  1.00  0.00     0.027 C 
BRANCH   8   9
ATOM      9  C   UNL     1     -10.771  -6.276  -4.467  1.00  0.00     0.004 C 
BRANCH   9  10
ATOM     10  C   UNL     1     -10.022  -5.599  -3.304  1.00  0.00     0.000 C 
BRANCH  10  11
ATOM     11  C   UNL     1     -10.642  -4.245  -2.915  1.00  0.00    -0.003 C 
ATOM     12  C   UNL     1     -11.466  -4.322  -1.629  1.00  0.00     0.004 C 
ENDBRANCH  10  11
ENDBRANCH   9  10
ENDBRANCH   8   9
ENDBRANCH   7   8
ENDBRANCH   5   6
ENDBRANCH   4   5
ENDBRANCH   2   3
ENDBRANCH   1   2
BRANCH   1  13
ATOM     13  C   UNL     1      -8.417  -7.894   2.462  1.00  0.00     0.000 C 
BRANCH  13  14
ATOM     14  C   UNL     1      -8.661  -7.731   3.972  1.00  0.00     0.000 C 
BRANCH  14  15
ATOM     15  C   UNL     1      -9.445  -6.459   4.315  1.00  0.00     0.000 C 
BRANCH  15  16
ATOM     16  C   UNL     1      -8.706  -5.617   5.360  1.00  0.00     0.003 C 
BRANCH  16  17
ATOM     17  C   UNL     1      -7.233  -6.038   5.465  1.00  0.00     0.042 C 
BRANCH  17  18
ATOM     18  C   UNL     1      -6.560  -5.444   6.703  1.00  0.00     0.233 C 
BRANCH  18  19
ATOM     19  O   UNL     1      -6.887  -6.216   7.856  1.00  0.00    -0.466 OA
BRANCH  19  20
ATOM     20  C   UNL     1      -7.564  -5.677   8.955  1.00  0.00     0.302 C 
ATOM     21  O   UNL     1      -7.900  -4.461   8.974  1.00  0.00    -0.253 OA
ATOM     22  C   UNL     1      -7.932  -6.560  10.098  1.00  0.00     0.139 C 
ENDBRANCH  19  20
ENDBRANCH  18  19
ENDBRANCH  17  18
ENDBRANCH  16  17
ENDBRANCH  15  16
ENDBRANCH  14  15
ENDBRANCH  13  14
ENDBRANCH   1  13
TORSDOF 16
ENDMDL
MODEL 9
REMARK VINA RESULT:    -4.312      3.960      7.241
REMARK INTER + INTRA:         -10.210
REMARK INTER:                  -7.570
REMARK INTRA:                  -2.640
REMARK UNBOUND:                -1.864
REMARK SMILES CCCCCC=CCC=CCCCCCCCCOC(C)=O
REMARK SMILES IDX 12 1 11 2 10 3 9 4 8 5 7 6 6 7 5 8 4 9 3 10 2 11 1 12 13 13
REMARK SMILES IDX 14 14 15 15 16 16 17 17 18 18 19 19 20 20 22 21 21 22
REMARK H PARENT
REMARK Flexibility Score: inf
ROOT
ATOM      1  C   UNL     1      -9.501  -4.126   4.802  1.00  0.00     0.004 C 
ENDROOT
BRANCH   1   2
ATOM      2  C   UNL     1      -8.901  -4.507   6.165  1.00  0.00     0.027 C 
BRANCH   2   3
ATOM      3  C   UNL     1      -7.425  -4.808   6.059  1.00  0.00    -0.031 C 
ATOM      4  C   UNL     1      -6.887  -6.037   5.943  1.00  0.00    -0.027 C 
BRANCH   4   5
ATOM      5  C   UNL     1      -7.661  -7.332   5.943  1.00  0.00     0.054 C 
BRANCH   5   6
ATOM      6  C   UNL     1      -7.666  -7.942   4.570  1.00  0.00    -0.027 C 
ATOM      7  C   UNL     1      -8.075  -9.207   4.371  1.00  0.00    -0.031 C 
BRANCH   7   8
ATOM      8  C   UNL     1      -8.126  -9.818   2.996  1.00  0.00     0.027 C 
BRANCH   8   9
ATOM      9  C   UNL     1      -9.577 -10.027   2.537  1.00  0.00     0.004 C 
BRANCH   9  10
ATOM     10  C   UNL     1     -10.585  -9.301   3.447  1.00  0.00     0.000 C 
BRANCH  10  11
ATOM     11  C   UNL     1     -11.873  -8.908   2.703  1.00  0.00    -0.003 C 
ATOM     12  C   UNL     1     -11.997  -9.589   1.339  1.00  0.00     0.004 C 
ENDBRANCH  10  11
ENDBRANCH   9  10
ENDBRANCH   8   9
ENDBRANCH   7   8
ENDBRANCH   5   6
ENDBRANCH   4   5
ENDBRANCH   2   3
ENDBRANCH   1   2
BRANCH   1  13
ATOM     13  C   UNL     1     -10.021  -5.356   4.023  1.00  0.00     0.000 C 
BRANCH  13  14
ATOM     14  C   UNL     1      -9.852  -5.240   2.498  1.00  0.00     0.000 C 
BRANCH  14  15
ATOM     15  C   UNL     1      -8.902  -6.295   1.922  1.00  0.00     0.000 C 
BRANCH  15  16
ATOM     16  C   UNL     1      -9.455  -6.890   0.623  1.00  0.00     0.003 C 
BRANCH  16  17
ATOM     17  C   UNL     1     -10.770  -6.207   0.221  1.00  0.00     0.042 C 
BRANCH  17  18
ATOM     18  C   UNL     1     -11.251  -6.667  -1.155  1.00  0.00     0.233 C 
BRANCH  18  19
ATOM     19  O   UNL     1     -11.575  -5.538  -1.963  1.00  0.00    -0.466 OA
BRANCH  19  20
ATOM     20  C   UNL     1     -10.980  -5.308  -3.208  1.00  0.00     0.302 C 
ATOM     21  O   UNL     1     -11.666  -4.905  -4.187  1.00  0.00    -0.253 OA
ATOM     22  C   UNL     1      -9.510  -5.497  -3.367  1.00  0.00     0.139 C 
ENDBRANCH  19  20
ENDBRANCH  18  19
ENDBRANCH  17  18
ENDBRANCH  16  17
ENDBRANCH  15  16
ENDBRANCH  14  15
ENDBRANCH  13  14
ENDBRANCH   1  13
TORSDOF 16
ENDMDL
