MODEL 1
REMARK VINA RESULT:    -3.140      0.000      0.000
REMARK INTER + INTRA:          -5.212
REMARK INTER:                  -4.792
REMARK INTRA:                  -0.420
REMARK UNBOUND:                -0.420
REMARK SMILES CC1=CCC[C@@H](C)C(=O)C[C@@H](C(C)C)C(=O)C1
REMARK SMILES IDX 8 1 9 2 6 3 7 4 5 5 4 6 3 7 2 8 1 9 10 11 11 12 15 13 16 14
REMARK SMILES IDX 17 15 12 17 13 18 14 19
REMARK H PARENT
REMARK Flexibility Score: 70.00
ROOT
ATOM      1  C   UNL     1     187.584 179.627 199.540  1.00  0.00     0.136 C 
ATOM      2  O   UNL     1     188.074 180.650 199.085  1.00  0.00    -0.299 OA
ENDROOT
BRANCH   1   3
ATOM      3  C   UNL     1     188.403 178.757 200.478  1.00  0.00     0.053 C 
ATOM      4  C   UNL     1     188.765 179.533 201.753  1.00  0.00     0.016 C 
BRANCH   3   5
ATOM      5  C   UNL     1     189.673 178.250 199.762  1.00  0.00     0.015 C 
BRANCH   5   6
ATOM      6  C   UNL     1     189.484 176.839 199.169  1.00  0.00     0.028 C 
BRANCH   6   7
ATOM      7  C   UNL     1     189.401 176.896 197.665  1.00  0.00    -0.028 C 
ATOM      8  C   UNL     1     188.308 176.565 196.939  1.00  0.00    -0.070 CG0
ATOM      9  C   UNL     1     188.362 176.760 195.445  1.00  0.00     0.039 C 
ATOM     10  G   UNL     1     187.047 175.986 197.563  1.00  0.00     0.000 G0
ENDBRANCH   6   7
ENDBRANCH   5   6
ENDBRANCH   3   5
ENDBRANCH   1   3
BRANCH   1  11
ATOM     11  C   UNL     1     186.172 179.245 199.154  1.00  0.00     0.087 C 
BRANCH  11  12
ATOM     12  C   UNL     1     185.865 177.716 199.182  1.00  0.00     0.066 C 
BRANCH  12  13
ATOM     13  C   UNL     1     185.969 177.036 197.818  1.00  0.00     0.140 C 
ATOM     14  O   UNL     1     185.152 177.284 196.943  1.00  0.00    -0.299 OA
BRANCH  13  15
ATOM     15  C   UNL     1     187.026 175.988 197.559  1.00  0.00     0.106 CG0
ATOM     16  G   UNL     1     188.294 176.580 196.961  1.00  0.00     0.000 G0
ENDBRANCH  13  15
ENDBRANCH  12  13
BRANCH  12  17
ATOM     17  C   UNL     1     184.561 177.357 199.962  1.00  0.00    -0.006 C 
ATOM     18  C   UNL     1     184.776 176.456 201.189  1.00  0.00     0.008 C 
ATOM     19  C   UNL     1     183.777 178.617 200.361  1.00  0.00     0.008 C 
ENDBRANCH  12  17
ENDBRANCH  11  12
ENDBRANCH   1  11
TORSDOF 1
ENDMDL
MODEL 2
REMARK VINA RESULT:    -3.013      9.541     11.095
REMARK INTER + INTRA:          -5.018
REMARK INTER:                  -4.807
REMARK INTRA:                  -0.211
REMARK UNBOUND:                -0.420
REMARK SMILES CC1=CCC[C@@H](C)C(=O)C[C@@H](C(C)C)C(=O)C1
REMARK SMILES IDX 8 1 9 2 6 3 7 4 5 5 4 6 3 7 2 8 1 9 10 11 11 12 15 13 16 14
REMARK SMILES IDX 17 15 12 17 13 18 14 19
REMARK H PARENT
REMARK Flexibility Score: 70.00
ROOT
ATOM      1  C   UNL     1     186.538 185.570 195.480  1.00  0.00     0.136 C 
ATOM      2  O   UNL     1     185.411 185.187 195.205  1.00  0.00    -0.299 OA
ENDROOT
BRANCH   1   3
ATOM      3  C   UNL     1     186.728 186.621 196.561  1.00  0.00     0.053 C 
ATOM      4  C   UNL     1     186.404 186.036 197.943  1.00  0.00     0.016 C 
BRANCH   3   5
ATOM      5  C   UNL     1     185.850 187.856 196.265  1.00  0.00     0.015 C 
BRANCH   5   6
ATOM      6  C   UNL     1     186.440 188.735 195.143  1.00  0.00     0.028 C 
BRANCH   6   7
ATOM      7  C   UNL     1     185.509 188.789 193.959  1.00  0.00    -0.028 C 
ATOM      8  C   UNL     1     185.822 188.366 192.711  1.00  0.00    -0.070 CG0
ATOM      9  C   UNL     1     184.746 188.410 191.657  1.00  0.00     0.039 C 
ATOM     10  G   UNL     1     187.211 187.876 192.331  1.00  0.00     0.000 G0
ENDBRANCH   6   7
ENDBRANCH   5   6
ENDBRANCH   3   5
ENDBRANCH   1   3
BRANCH   1  11
ATOM     11  C   UNL     1     187.721 184.996 194.733  1.00  0.00     0.087 C 
BRANCH  11  12
ATOM     12  C   UNL     1     188.365 185.945 193.675  1.00  0.00     0.066 C 
BRANCH  12  13
ATOM     13  C   UNL     1     187.400 186.410 192.587  1.00  0.00     0.140 C 
ATOM     14  O   UNL     1     186.831 185.592 191.879  1.00  0.00    -0.299 OA
BRANCH  13  15
ATOM     15  C   UNL     1     187.199 187.883 192.316  1.00  0.00     0.106 CG0
ATOM     16  G   UNL     1     185.817 188.365 192.732  1.00  0.00     0.000 G0
ENDBRANCH  13  15
ENDBRANCH  12  13
BRANCH  12  17
ATOM     17  C   UNL     1     189.729 185.424 193.120  1.00  0.00    -0.006 C 
ATOM     18  C   UNL     1     190.961 186.194 193.622  1.00  0.00     0.008 C 
ATOM     19  C   UNL     1     189.904 183.918 193.376  1.00  0.00     0.008 C 
ENDBRANCH  12  17
ENDBRANCH  11  12
ENDBRANCH   1  11
TORSDOF 1
ENDMDL
MODEL 3
REMARK VINA RESULT:    -2.843      8.676      9.711
REMARK INTER + INTRA:          -4.759
REMARK INTER:                  -4.450
REMARK INTRA:                  -0.308
REMARK UNBOUND:                -0.420
REMARK SMILES CC1=CCC[C@@H](C)C(=O)C[C@@H](C(C)C)C(=O)C1
REMARK SMILES IDX 8 1 9 2 6 3 7 4 5 5 4 6 3 7 2 8 1 9 10 11 11 12 15 13 16 14
REMARK SMILES IDX 17 15 12 17 13 18 14 19
REMARK H PARENT
REMARK Flexibility Score: 70.00
ROOT
ATOM      1  C   UNL     1     186.680 186.849 195.335  1.00  0.00     0.136 C 
ATOM      2  O   UNL     1     187.878 186.999 195.143  1.00  0.00    -0.299 OA
ENDROOT
BRANCH   1   3
ATOM      3  C   UNL     1     186.209 185.894 196.419  1.00  0.00     0.053 C 
ATOM      4  C   UNL     1     186.548 186.451 197.809  1.00  0.00     0.016 C 
BRANCH   3   5
ATOM      5  C   UNL     1     186.839 184.500 196.214  1.00  0.00     0.015 C 
BRANCH   5   6
ATOM      6  C   UNL     1     186.154 183.713 195.079  1.00  0.00     0.028 C 
BRANCH   6   7
ATOM      7  C   UNL     1     187.106 183.485 193.932  1.00  0.00    -0.028 C 
ATOM      8  C   UNL     1     186.897 183.899 192.661  1.00  0.00    -0.070 CG0
ATOM      9  C   UNL     1     187.990 183.666 191.650  1.00  0.00     0.039 C 
ATOM     10  G   UNL     1     185.604 184.564 192.212  1.00  0.00     0.000 G0
ENDBRANCH   6   7
ENDBRANCH   5   6
ENDBRANCH   3   5
ENDBRANCH   1   3
BRANCH   1  11
ATOM     11  C   UNL     1     185.689 187.611 194.482  1.00  0.00     0.087 C 
BRANCH  11  12
ATOM     12  C   UNL     1     184.821 186.736 193.526  1.00  0.00     0.066 C 
BRANCH  12  13
ATOM     13  C   UNL     1     185.608 186.085 192.391  1.00  0.00     0.140 C 
ATOM     14  O   UNL     1     186.202 186.779 191.578  1.00  0.00    -0.299 OA
BRANCH  13  15
ATOM     15  C   UNL     1     185.595 184.586 192.207  1.00  0.00     0.106 CG0
ATOM     16  G   UNL     1     186.893 183.935 192.659  1.00  0.00     0.000 G0
ENDBRANCH  13  15
ENDBRANCH  12  13
BRANCH  12  17
ATOM     17  C   UNL     1     183.510 187.443 193.054  1.00  0.00    -0.006 C 
ATOM     18  C   UNL     1     182.264 186.544 193.048  1.00  0.00     0.008 C 
ATOM     19  C   UNL     1     183.237 188.722 193.862  1.00  0.00     0.008 C 
ENDBRANCH  12  17
ENDBRANCH  11  12
ENDBRANCH   1  11
TORSDOF 1
ENDMDL
MODEL 4
REMARK VINA RESULT:    -2.722     11.267     12.967
REMARK INTER + INTRA:          -4.574
REMARK INTER:                  -4.109
REMARK INTRA:                  -0.464
REMARK UNBOUND:                -0.420
REMARK SMILES CC1=CCC[C@@H](C)C(=O)C[C@@H](C(C)C)C(=O)C1
REMARK SMILES IDX 8 1 9 2 6 3 7 4 5 5 4 6 3 7 2 8 1 9 10 11 11 12 15 13 16 14
REMARK SMILES IDX 17 15 12 17 13 18 14 19
REMARK H PARENT
REMARK Flexibility Score: 70.00
ROOT
ATOM      1  C   UNL     1     183.681 186.916 192.549  1.00  0.00     0.136 C 
ATOM      2  O   UNL     1     183.514 186.725 191.353  1.00  0.00    -0.299 OA
ENDROOT
BRANCH   1   3
ATOM      3  C   UNL     1     182.488 187.265 193.424  1.00  0.00     0.053 C 
ATOM      4  C   UNL     1     181.536 186.065 193.538  1.00  0.00     0.016 C 
BRANCH   3   5
ATOM      5  C   UNL     1     181.755 188.500 192.859  1.00  0.00     0.015 C 
BRANCH   5   6
ATOM      6  C   UNL     1     182.113 189.790 193.625  1.00  0.00     0.028 C 
BRANCH   6   7
ATOM      7  C   UNL     1     183.192 190.559 192.906  1.00  0.00    -0.028 C 
ATOM      8  C   UNL     1     184.474 190.666 193.326  1.00  0.00    -0.070 CG0
ATOM      9  C   UNL     1     185.450 191.402 192.445  1.00  0.00     0.039 C 
ATOM     10  G   UNL     1     184.957 190.098 194.652  1.00  0.00     0.000 G0
ENDBRANCH   6   7
ENDBRANCH   5   6
ENDBRANCH   3   5
ENDBRANCH   1   3
BRANCH   1  11
ATOM     11  C   UNL     1     185.072 186.810 193.132  1.00  0.00     0.087 C 
BRANCH  11  12
ATOM     12  C   UNL     1     185.263 187.478 194.528  1.00  0.00     0.066 C 
BRANCH  12  13
ATOM     13  C   UNL     1     185.857 188.883 194.469  1.00  0.00     0.140 C 
ATOM     14  O   UNL     1     187.063 189.036 194.337  1.00  0.00    -0.299 OA
BRANCH  13  15
ATOM     15  C   UNL     1     184.979 190.098 194.657  1.00  0.00     0.106 CG0
ATOM     16  G   UNL     1     184.475 190.659 193.336  1.00  0.00     0.000 G0
ENDBRANCH  13  15
ENDBRANCH  12  13
BRANCH  12  17
ATOM     17  C   UNL     1     185.957 186.548 195.573  1.00  0.00    -0.006 C 
ATOM     18  C   UNL     1     185.755 186.967 197.038  1.00  0.00     0.008 C 
ATOM     19  C   UNL     1     185.548 185.078 195.381  1.00  0.00     0.008 C 
ENDBRANCH  12  17
ENDBRANCH  11  12
ENDBRANCH   1  11
TORSDOF 1
ENDMDL
MODEL 5
REMARK VINA RESULT:    -2.684     10.054     11.632
REMARK INTER + INTRA:          -4.516
REMARK INTER:                  -4.301
REMARK INTRA:                  -0.215
REMARK UNBOUND:                -0.420
REMARK SMILES CC1=CCC[C@@H](C)C(=O)C[C@@H](C(C)C)C(=O)C1
REMARK SMILES IDX 8 1 9 2 6 3 7 4 5 5 4 6 3 7 2 8 1 9 10 11 11 12 15 13 16 14
REMARK SMILES IDX 17 15 12 17 13 18 14 19
REMARK H PARENT
REMARK Flexibility Score: 70.00
ROOT
ATOM      1  C   UNL     1     184.398 185.750 193.653  1.00  0.00     0.136 C 
ATOM      2  O   UNL     1     184.575 185.099 192.633  1.00  0.00    -0.299 OA
ENDROOT
BRANCH   1   3
ATOM      3  C   UNL     1     183.266 186.763 193.707  1.00  0.00     0.053 C 
ATOM      4  C   UNL     1     181.906 186.051 193.681  1.00  0.00     0.016 C 
BRANCH   3   5
ATOM      5  C   UNL     1     183.388 187.763 192.537  1.00  0.00     0.015 C 
BRANCH   5   6
ATOM      6  C   UNL     1     184.297 188.959 192.886  1.00  0.00     0.028 C 
BRANCH   6   7
ATOM      7  C   UNL     1     185.502 188.999 191.981  1.00  0.00    -0.028 C 
ATOM      8  C   UNL     1     186.783 188.856 192.394  1.00  0.00    -0.070 CG0
ATOM      9  C   UNL     1     187.868 188.835 191.348  1.00  0.00     0.039 C 
ATOM     10  G   UNL     1     187.168 188.740 193.861  1.00  0.00     0.000 G0
ENDBRANCH   6   7
ENDBRANCH   5   6
ENDBRANCH   3   5
ENDBRANCH   1   3
BRANCH   1  11
ATOM     11  C   UNL     1     185.315 185.539 194.837  1.00  0.00     0.087 C 
BRANCH  11  12
ATOM     12  C   UNL     1     186.078 186.810 195.324  1.00  0.00     0.066 C 
BRANCH  12  13
ATOM     13  C   UNL     1     187.156 187.296 194.358  1.00  0.00     0.140 C 
ATOM     14  O   UNL     1     188.060 186.548 194.018  1.00  0.00    -0.299 OA
BRANCH  13  15
ATOM     15  C   UNL     1     187.167 188.728 193.876  1.00  0.00     0.106 CG0
ATOM     16  G   UNL     1     186.781 188.849 192.409  1.00  0.00     0.000 G0
ENDBRANCH  13  15
ENDBRANCH  12  13
BRANCH  12  17
ATOM     17  C   UNL     1     186.562 186.715 196.806  1.00  0.00    -0.006 C 
ATOM     18  C   UNL     1     185.511 187.126 197.850  1.00  0.00     0.008 C 
ATOM     19  C   UNL     1     187.115 185.318 197.131  1.00  0.00     0.008 C 
ENDBRANCH  12  17
ENDBRANCH  11  12
ENDBRANCH   1  11
TORSDOF 1
ENDMDL
MODEL 6
REMARK VINA RESULT:    -2.537      1.599      2.160
REMARK INTER + INTRA:          -4.292
REMARK INTER:                  -4.031
REMARK INTRA:                  -0.261
REMARK UNBOUND:                -0.420
REMARK SMILES CC1=CCC[C@@H](C)C(=O)C[C@@H](C(C)C)C(=O)C1
REMARK SMILES IDX 8 1 9 2 6 3 7 4 5 5 4 6 3 7 2 8 1 9 10 11 11 12 15 13 16 14
REMARK SMILES IDX 17 15 12 17 13 18 14 19
REMARK H PARENT
REMARK Flexibility Score: 70.00
ROOT
ATOM      1  C   UNL     1     187.717 179.395 198.577  1.00  0.00     0.136 C 
ATOM      2  O   UNL     1     188.209 180.514 198.580  1.00  0.00    -0.299 OA
ENDROOT
BRANCH   1   3
ATOM      3  C   UNL     1     188.619 178.181 198.430  1.00  0.00     0.053 C 
ATOM      4  C   UNL     1     189.557 178.059 199.640  1.00  0.00     0.016 C 
BRANCH   3   5
ATOM      5  C   UNL     1     189.422 178.269 197.115  1.00  0.00     0.015 C 
BRANCH   5   6
ATOM      6  C   UNL     1     188.557 178.757 195.935  1.00  0.00     0.028 C 
BRANCH   6   7
ATOM      7  C   UNL     1     187.912 177.594 195.226  1.00  0.00    -0.028 C 
ATOM      8  C   UNL     1     186.578 177.370 195.165  1.00  0.00    -0.070 CG0
ATOM      9  C   UNL     1     186.091 176.206 194.341  1.00  0.00     0.039 C 
ATOM     10  G   UNL     1     185.564 178.226 195.909  1.00  0.00     0.000 G0
ENDBRANCH   6   7
ENDBRANCH   5   6
ENDBRANCH   3   5
ENDBRANCH   1   3
BRANCH   1  11
ATOM     11  C   UNL     1     186.218 179.242 198.712  1.00  0.00     0.087 C 
BRANCH  11  12
ATOM     12  C   UNL     1     185.676 177.791 198.526  1.00  0.00     0.066 C 
BRANCH  12  13
ATOM     13  C   UNL     1     185.021 177.540 197.170  1.00  0.00     0.140 C 
ATOM     14  O   UNL     1     184.108 176.734 197.068  1.00  0.00    -0.299 OA
BRANCH  13  15
ATOM     15  C   UNL     1     185.543 178.220 195.926  1.00  0.00     0.106 CG0
ATOM     16  G   UNL     1     186.560 177.366 195.182  1.00  0.00     0.000 G0
ENDBRANCH  13  15
ENDBRANCH  12  13
BRANCH  12  17
ATOM     17  C   UNL     1     184.827 177.284 199.735  1.00  0.00    -0.006 C 
ATOM     18  C   UNL     1     185.627 176.526 200.806  1.00  0.00     0.008 C 
ATOM     19  C   UNL     1     184.027 178.427 200.381  1.00  0.00     0.008 C 
ENDBRANCH  12  17
ENDBRANCH  11  12
ENDBRANCH   1  11
TORSDOF 1
ENDMDL
MODEL 7
REMARK VINA RESULT:    -2.505      8.668      9.883
REMARK INTER + INTRA:          -4.244
REMARK INTER:                  -4.328
REMARK INTRA:                   0.085
REMARK UNBOUND:                -0.420
REMARK SMILES CC1=CCC[C@@H](C)C(=O)C[C@@H](C(C)C)C(=O)C1
REMARK SMILES IDX 8 1 9 2 6 3 7 4 5 5 4 6 3 7 2 8 1 9 10 11 11 12 15 13 16 14
REMARK SMILES IDX 17 15 12 17 13 18 14 19
REMARK H PARENT
REMARK Flexibility Score: 70.00
ROOT
ATOM      1  C   UNL     1     185.318 187.896 194.583  1.00  0.00     0.136 C 
ATOM      2  O   UNL     1     184.373 188.657 194.735  1.00  0.00    -0.299 OA
ENDROOT
BRANCH   1   3
ATOM      3  C   UNL     1     186.530 188.356 193.791  1.00  0.00     0.053 C 
ATOM      4  C   UNL     1     186.515 189.882 193.622  1.00  0.00     0.016 C 
BRANCH   3   5
ATOM      5  C   UNL     1     186.572 187.649 192.420  1.00  0.00     0.015 C 
BRANCH   5   6
ATOM      6  C   UNL     1     187.944 187.005 192.137  1.00  0.00     0.028 C 
BRANCH   6   7
ATOM      7  C   UNL     1     187.818 185.508 192.008  1.00  0.00    -0.028 C 
ATOM      8  C   UNL     1     187.948 184.632 193.032  1.00  0.00    -0.070 CG0
ATOM      9  C   UNL     1     187.707 183.171 192.749  1.00  0.00     0.039 C 
ATOM     10  G   UNL     1     188.346 185.057 194.437  1.00  0.00     0.000 G0
ENDBRANCH   6   7
ENDBRANCH   5   6
ENDBRANCH   3   5
ENDBRANCH   1   3
BRANCH   1  11
ATOM     11  C   UNL     1     185.257 186.507 195.182  1.00  0.00     0.087 C 
BRANCH  11  12
ATOM     12  C   UNL     1     186.508 186.084 196.012  1.00  0.00     0.066 C 
BRANCH  12  13
ATOM     13  C   UNL     1     187.249 184.874 195.448  1.00  0.00     0.140 C 
ATOM     14  O   UNL     1     186.997 183.751 195.861  1.00  0.00    -0.299 OA
BRANCH  13  15
ATOM     15  C   UNL     1     188.358 185.054 194.438  1.00  0.00     0.106 CG0
ATOM     16  G   UNL     1     187.947 184.612 193.041  1.00  0.00     0.000 G0
ENDBRANCH  13  15
ENDBRANCH  12  13
BRANCH  12  17
ATOM     17  C   UNL     1     186.232 185.990 197.547  1.00  0.00    -0.006 C 
ATOM     18  C   UNL     1     187.449 185.580 198.392  1.00  0.00     0.008 C 
ATOM     19  C   UNL     1     185.623 187.292 198.092  1.00  0.00     0.008 C 
ENDBRANCH  12  17
ENDBRANCH  11  12
ENDBRANCH   1  11
TORSDOF 1
ENDMDL
MODEL 8
REMARK VINA RESULT:    -2.483     15.183     17.032
REMARK INTER + INTRA:          -4.210
REMARK INTER:                  -3.924
REMARK INTRA:                  -0.286
REMARK UNBOUND:                -0.420
REMARK SMILES CC1=CCC[C@@H](C)C(=O)C[C@@H](C(C)C)C(=O)C1
REMARK SMILES IDX 8 1 9 2 6 3 7 4 5 5 4 6 3 7 2 8 1 9 10 11 11 12 15 13 16 14
REMARK SMILES IDX 17 15 12 17 13 18 14 19
REMARK H PARENT
REMARK Flexibility Score: 70.00
ROOT
ATOM      1  C   UNL     1     183.873 193.437 198.085  1.00  0.00     0.136 C 
ATOM      2  O   UNL     1     182.682 193.170 198.027  1.00  0.00    -0.299 OA
ENDROOT
BRANCH   1   3
ATOM      3  C   UNL     1     184.664 193.062 199.328  1.00  0.00     0.053 C 
ATOM      4  C   UNL     1     184.344 191.623 199.755  1.00  0.00     0.016 C 
BRANCH   3   5
ATOM      5  C   UNL     1     184.367 194.057 200.470  1.00  0.00     0.015 C 
BRANCH   5   6
ATOM      6  C   UNL     1     185.227 195.333 200.371  1.00  0.00     0.028 C 
BRANCH   6   7
ATOM      7  C   UNL     1     186.692 194.987 200.286  1.00  0.00    -0.028 C 
ATOM      8  C   UNL     1     187.478 195.217 199.208  1.00  0.00    -0.070 CG0
ATOM      9  C   UNL     1     188.946 194.889 199.318  1.00  0.00     0.039 C 
ATOM     10  G   UNL     1     186.940 195.768 197.896  1.00  0.00     0.000 G0
ENDBRANCH   6   7
ENDBRANCH   5   6
ENDBRANCH   3   5
ENDBRANCH   1   3
BRANCH   1  11
ATOM     11  C   UNL     1     184.534 194.143 196.922  1.00  0.00     0.087 C 
BRANCH  11  12
ATOM     12  C   UNL     1     185.985 193.672 196.594  1.00  0.00     0.066 C 
BRANCH  12  13
ATOM     13  C   UNL     1     187.045 194.758 196.763  1.00  0.00     0.140 C 
ATOM     14  O   UNL     1     188.028 194.776 196.036  1.00  0.00    -0.299 OA
BRANCH  13  15
ATOM     15  C   UNL     1     186.938 195.771 197.878  1.00  0.00     0.106 CG0
ATOM     16  G   UNL     1     187.476 195.239 199.198  1.00  0.00     0.000 G0
ENDBRANCH  13  15
ENDBRANCH  12  13
BRANCH  12  17
ATOM     17  C   UNL     1     186.095 192.894 195.244  1.00  0.00    -0.006 C 
ATOM     18  C   UNL     1     185.717 191.406 195.330  1.00  0.00     0.008 C 
ATOM     19  C   UNL     1     185.292 193.582 194.128  1.00  0.00     0.008 C 
ENDBRANCH  12  17
ENDBRANCH  11  12
ENDBRANCH   1  11
TORSDOF 1
ENDMDL
MODEL 9
REMARK VINA RESULT:    -2.396      9.642     10.805
REMARK INTER + INTRA:          -4.077
REMARK INTER:                  -3.747
REMARK INTRA:                  -0.330
REMARK UNBOUND:                -0.420
REMARK SMILES CC1=CCC[C@@H](C)C(=O)C[C@@H](C(C)C)C(=O)C1
REMARK SMILES IDX 8 1 9 2 6 3 7 4 5 5 4 6 3 7 2 8 1 9 10 11 11 12 15 13 16 14
REMARK SMILES IDX 17 15 12 17 13 18 14 19
REMARK H PARENT
REMARK Flexibility Score: 70.00
ROOT
ATOM      1  C   UNL     1     187.250 185.519 195.191  1.00  0.00     0.136 C 
ATOM      2  O   UNL     1     186.945 185.393 196.368  1.00  0.00    -0.299 OA
ENDROOT
BRANCH   1   3
ATOM      3  C   UNL     1     187.392 184.284 194.318  1.00  0.00     0.053 C 
ATOM      4  C   UNL     1     186.961 183.028 195.089  1.00  0.00     0.016 C 
BRANCH   3   5
ATOM      5  C   UNL     1     188.845 184.151 193.814  1.00  0.00     0.015 C 
BRANCH   5   6
ATOM      6  C   UNL     1     188.952 184.339 192.287  1.00  0.00     0.028 C 
BRANCH   6   7
ATOM      7  C   UNL     1     189.879 185.480 191.951  1.00  0.00    -0.028 C 
ATOM      8  C   UNL     1     189.478 186.693 191.505  1.00  0.00    -0.070 CG0
ATOM      9  C   UNL     1     190.528 187.754 191.296  1.00  0.00     0.039 C 
ATOM     10  G   UNL     1     188.026 187.018 191.187  1.00  0.00     0.000 G0
ENDBRANCH   6   7
ENDBRANCH   5   6
ENDBRANCH   3   5
ENDBRANCH   1   3
BRANCH   1  11
ATOM     11  C   UNL     1     187.486 186.904 194.630  1.00  0.00     0.087 C 
BRANCH  11  12
ATOM     12  C   UNL     1     186.601 187.285 193.403  1.00  0.00     0.066 C 
BRANCH  12  13
ATOM     13  C   UNL     1     187.380 187.903 192.243  1.00  0.00     0.140 C 
ATOM     14  O   UNL     1     187.439 189.118 192.120  1.00  0.00    -0.299 OA
BRANCH  13  15
ATOM     15  C   UNL     1     188.013 187.026 191.188  1.00  0.00     0.106 CG0
ATOM     16  G   UNL     1     189.465 186.700 191.502  1.00  0.00     0.000 G0
ENDBRANCH  13  15
ENDBRANCH  12  13
BRANCH  12  17
ATOM     17  C   UNL     1     185.314 188.081 193.787  1.00  0.00    -0.006 C 
ATOM     18  C   UNL     1     184.033 187.234 193.853  1.00  0.00     0.008 C 
ATOM     19  C   UNL     1     185.503 188.861 195.099  1.00  0.00     0.008 C 
ENDBRANCH  12  17
ENDBRANCH  11  12
ENDBRANCH   1  11
TORSDOF 1
ENDMDL
