MODEL 1
REMARK VINA RESULT:    -3.732      0.000      0.000
REMARK INTER + INTRA:          -7.949
REMARK INTER:                  -6.458
REMARK INTRA:                  -1.491
REMARK UNBOUND:                -1.491
REMARK SMILES CCCCCCCCCCCCCCO
REMARK SMILES IDX 8 1 7 2 6 3 5 4 4 5 3 6 2 7 1 8 9 9 10 10 11 11 12 12 13 13
REMARK SMILES IDX 14 14 15 15
REMARK H PARENT 15 16
REMARK Flexibility Score: inf
ROOT
ATOM      1  C   UNL     1       9.480  -0.149  31.516  1.00  0.00     0.000 C 
ENDROOT
BRANCH   1   2
ATOM      2  C   UNL     1      10.410   0.108  30.317  1.00  0.00    -0.000 C 
BRANCH   2   3
ATOM      3  C   UNL     1      11.030   1.516  30.331  1.00  0.00    -0.000 C 
BRANCH   3   4
ATOM      4  C   UNL     1      10.502   2.389  31.484  1.00  0.00    -0.000 C 
BRANCH   4   5
ATOM      5  C   UNL     1      11.586   2.972  32.412  1.00  0.00    -0.000 C 
BRANCH   5   6
ATOM      6  C   UNL     1      12.779   2.022  32.653  1.00  0.00    -0.000 C 
BRANCH   6   7
ATOM      7  C   UNL     1      12.459   0.940  33.694  1.00  0.00    -0.003 C 
ATOM      8  C   UNL     1      13.027  -0.414  33.277  1.00  0.00     0.004 C 
ENDBRANCH   6   7
ENDBRANCH   5   6
ENDBRANCH   4   5
ENDBRANCH   3   4
ENDBRANCH   2   3
ENDBRANCH   1   2
BRANCH   1   9
ATOM      9  C   UNL     1       9.562  -1.565  32.118  1.00  0.00     0.000 C 
BRANCH   9  10
ATOM     10  C   UNL     1       8.797  -1.695  33.446  1.00  0.00     0.000 C 
BRANCH  10  11
ATOM     11  C   UNL     1       9.556  -1.062  34.625  1.00  0.00     0.000 C 
BRANCH  11  12
ATOM     12  C   UNL     1       8.744  -1.095  35.931  1.00  0.00     0.002 C 
BRANCH  12  13
ATOM     13  C   UNL     1       7.468  -1.947  35.822  1.00  0.00     0.028 C 
BRANCH  13  14
ATOM     14  C   UNL     1       6.271  -1.363  36.585  1.00  0.00     0.156 C 
BRANCH  14  15
ATOM     15  O   UNL     1       6.137   0.012  36.344  1.00  0.00    -0.396 OA
ATOM     16  H   UNL     1       5.952   0.440  37.220  1.00  0.00     0.210 HD
ENDBRANCH  14  15
ENDBRANCH  13  14
ENDBRANCH  12  13
ENDBRANCH  11  12
ENDBRANCH  10  11
ENDBRANCH   9  10
ENDBRANCH   1   9
TORSDOF 13
ENDMDL
MODEL 2
REMARK VINA RESULT:    -3.619      2.324      6.068
REMARK INTER + INTRA:          -7.755
REMARK INTER:                  -6.393
REMARK INTRA:                  -1.362
REMARK UNBOUND:                -1.491
REMARK SMILES CCCCCCCCCCCCCCO
REMARK SMILES IDX 8 1 7 2 6 3 5 4 4 5 3 6 2 7 1 8 9 9 10 10 11 11 12 12 13 13
REMARK SMILES IDX 14 14 15 15
REMARK H PARENT 15 16
REMARK Flexibility Score: inf
ROOT
ATOM      1  C   UNL     1       9.070  -2.532  32.868  1.00  0.00     0.000 C 
ENDROOT
BRANCH   1   2
ATOM      2  C   UNL     1       9.882  -3.544  33.697  1.00  0.00    -0.000 C 
BRANCH   2   3
ATOM      3  C   UNL     1       9.161  -3.975  34.986  1.00  0.00    -0.000 C 
BRANCH   3   4
ATOM      4  C   UNL     1       9.630  -3.189  36.224  1.00  0.00    -0.000 C 
BRANCH   4   5
ATOM      5  C   UNL     1       8.531  -2.377  36.937  1.00  0.00    -0.000 C 
BRANCH   5   6
ATOM      6  C   UNL     1       8.444  -0.906  36.477  1.00  0.00    -0.000 C 
BRANCH   6   7
ATOM      7  C   UNL     1       6.999  -0.471  36.191  1.00  0.00    -0.003 C 
ATOM      8  C   UNL     1       6.349  -1.371  35.144  1.00  0.00     0.004 C 
ENDBRANCH   6   7
ENDBRANCH   5   6
ENDBRANCH   4   5
ENDBRANCH   3   4
ENDBRANCH   2   3
ENDBRANCH   1   2
BRANCH   1   9
ATOM      9  C   UNL     1       9.553  -1.072  32.959  1.00  0.00     0.000 C 
BRANCH   9  10
ATOM     10  C   UNL     1       9.181  -0.240  31.720  1.00  0.00     0.000 C 
BRANCH  10  11
ATOM     11  C   UNL     1      10.253  -0.314  30.620  1.00  0.00     0.000 C 
BRANCH  11  12
ATOM     12  C   UNL     1      11.006   1.016  30.443  1.00  0.00     0.002 C 
BRANCH  12  13
ATOM     13  C   UNL     1      10.452   2.140  31.336  1.00  0.00     0.028 C 
BRANCH  13  14
ATOM     14  C   UNL     1      11.519   2.807  32.216  1.00  0.00     0.156 C 
BRANCH  14  15
ATOM     15  O   UNL     1      12.114   1.879  33.083  1.00  0.00    -0.396 OA
ATOM     16  H   UNL     1      12.999   2.251  33.336  1.00  0.00     0.210 HD
ENDBRANCH  14  15
ENDBRANCH  13  14
ENDBRANCH  12  13
ENDBRANCH  11  12
ENDBRANCH  10  11
ENDBRANCH   9  10
ENDBRANCH   1   9
TORSDOF 13
ENDMDL
MODEL 3
REMARK VINA RESULT:    -3.587      0.876      2.202
REMARK INTER + INTRA:          -7.700
REMARK INTER:                  -5.946
REMARK INTRA:                  -1.754
REMARK UNBOUND:                -1.491
REMARK SMILES CCCCCCCCCCCCCCO
REMARK SMILES IDX 8 1 7 2 6 3 5 4 4 5 3 6 2 7 1 8 9 9 10 10 11 11 12 12 13 13
REMARK SMILES IDX 14 14 15 15
REMARK H PARENT 15 16
REMARK Flexibility Score: inf
ROOT
ATOM      1  C   UNL     1      11.003   1.278  30.498  1.00  0.00     0.000 C 
ENDROOT
BRANCH   1   2
ATOM      2  C   UNL     1      10.605   2.308  31.570  1.00  0.00    -0.000 C 
BRANCH   2   3
ATOM      3  C   UNL     1      11.815   3.050  32.165  1.00  0.00    -0.000 C 
BRANCH   3   4
ATOM      4  C   UNL     1      12.895   2.095  32.705  1.00  0.00    -0.000 C 
BRANCH   4   5
ATOM      5  C   UNL     1      12.472   1.254  33.926  1.00  0.00    -0.000 C 
BRANCH   5   6
ATOM      6  C   UNL     1      12.350  -0.256  33.630  1.00  0.00    -0.000 C 
BRANCH   6   7
ATOM      7  C   UNL     1      13.340  -0.720  32.552  1.00  0.00    -0.003 C 
ATOM      8  C   UNL     1      12.907  -2.048  31.939  1.00  0.00     0.004 C 
ENDBRANCH   6   7
ENDBRANCH   5   6
ENDBRANCH   4   5
ENDBRANCH   3   4
ENDBRANCH   2   3
ENDBRANCH   1   2
BRANCH   1   9
ATOM      9  C   UNL     1      10.214  -0.044  30.534  1.00  0.00     0.000 C 
BRANCH   9  10
ATOM     10  C   UNL     1       9.109  -0.052  31.605  1.00  0.00     0.000 C 
BRANCH  10  11
ATOM     11  C   UNL     1       9.123  -1.335  32.452  1.00  0.00     0.000 C 
BRANCH  11  12
ATOM     12  C   UNL     1       8.827  -1.062  33.937  1.00  0.00     0.002 C 
BRANCH  12  13
ATOM     13  C   UNL     1       7.958  -2.154  34.585  1.00  0.00     0.028 C 
BRANCH  13  14
ATOM     14  C   UNL     1       7.016  -1.623  35.675  1.00  0.00     0.156 C 
BRANCH  14  15
ATOM     15  O   UNL     1       6.112  -0.686  35.153  1.00  0.00    -0.396 OA
ATOM     16  H   UNL     1       5.218  -0.919  35.516  1.00  0.00     0.210 HD
ENDBRANCH  14  15
ENDBRANCH  13  14
ENDBRANCH  12  13
ENDBRANCH  11  12
ENDBRANCH  10  11
ENDBRANCH   9  10
ENDBRANCH   1   9
TORSDOF 13
ENDMDL
MODEL 4
REMARK VINA RESULT:    -3.579      2.601      5.886
REMARK INTER + INTRA:          -7.685
REMARK INTER:                  -6.470
REMARK INTRA:                  -1.216
REMARK UNBOUND:                -1.491
REMARK SMILES CCCCCCCCCCCCCCO
REMARK SMILES IDX 8 1 7 2 6 3 5 4 4 5 3 6 2 7 1 8 9 9 10 10 11 11 12 12 13 13
REMARK SMILES IDX 14 14 15 15
REMARK H PARENT 15 16
REMARK Flexibility Score: inf
ROOT
ATOM      1  C   UNL     1      10.517   0.274  30.560  1.00  0.00     0.000 C 
ENDROOT
BRANCH   1   2
ATOM      2  C   UNL     1       9.918  -0.906  31.347  1.00  0.00    -0.000 C 
BRANCH   2   3
ATOM      3  C   UNL     1       9.248  -0.469  32.662  1.00  0.00    -0.000 C 
BRANCH   3   4
ATOM      4  C   UNL     1       9.869  -1.139  33.900  1.00  0.00    -0.000 C 
BRANCH   4   5
ATOM      5  C   UNL     1       8.876  -1.475  35.030  1.00  0.00    -0.000 C 
BRANCH   5   6
ATOM      6  C   UNL     1       7.509  -1.986  34.527  1.00  0.00    -0.000 C 
BRANCH   6   7
ATOM      7  C   UNL     1       6.334  -1.335  35.272  1.00  0.00    -0.003 C 
ATOM      8  C   UNL     1       6.827  -0.309  36.289  1.00  0.00     0.004 C 
ENDBRANCH   6   7
ENDBRANCH   5   6
ENDBRANCH   4   5
ENDBRANCH   3   4
ENDBRANCH   2   3
ENDBRANCH   1   2
BRANCH   1   9
ATOM      9  C   UNL     1      10.388   1.649  31.242  1.00  0.00     0.000 C 
BRANCH   9  10
ATOM     10  C   UNL     1      11.562   2.589  30.919  1.00  0.00     0.000 C 
BRANCH  10  11
ATOM     11  C   UNL     1      12.766   2.366  31.850  1.00  0.00     0.000 C 
BRANCH  11  12
ATOM     12  C   UNL     1      12.342   2.078  33.300  1.00  0.00     0.002 C 
BRANCH  12  13
ATOM     13  C   UNL     1      12.935   0.768  33.848  1.00  0.00     0.028 C 
BRANCH  13  14
ATOM     14  C   UNL     1      14.467   0.702  33.758  1.00  0.00     0.156 C 
BRANCH  14  15
ATOM     15  O   UNL     1      15.067   1.649  34.600  1.00  0.00    -0.396 OA
ATOM     16  H   UNL     1      16.011   1.736  34.306  1.00  0.00     0.210 HD
ENDBRANCH  14  15
ENDBRANCH  13  14
ENDBRANCH  12  13
ENDBRANCH  11  12
ENDBRANCH  10  11
ENDBRANCH   9  10
ENDBRANCH   1   9
TORSDOF 13
ENDMDL
MODEL 5
REMARK VINA RESULT:    -3.545      2.565      5.677
REMARK INTER + INTRA:          -7.626
REMARK INTER:                  -6.250
REMARK INTRA:                  -1.377
REMARK UNBOUND:                -1.491
REMARK SMILES CCCCCCCCCCCCCCO
REMARK SMILES IDX 8 1 7 2 6 3 5 4 4 5 3 6 2 7 1 8 9 9 10 10 11 11 12 12 13 13
REMARK SMILES IDX 14 14 15 15
REMARK H PARENT 15 16
REMARK Flexibility Score: inf
ROOT
ATOM      1  C   UNL     1      10.993   1.251  30.427  1.00  0.00     0.000 C 
ENDROOT
BRANCH   1   2
ATOM      2  C   UNL     1      10.343  -0.140  30.542  1.00  0.00    -0.000 C 
BRANCH   2   3
ATOM      3  C   UNL     1       9.249  -0.201  31.622  1.00  0.00    -0.000 C 
BRANCH   3   4
ATOM      4  C   UNL     1       9.474  -1.335  32.638  1.00  0.00    -0.000 C 
BRANCH   4   5
ATOM      5  C   UNL     1       8.457  -1.389  33.795  1.00  0.00    -0.000 C 
BRANCH   5   6
ATOM      6  C   UNL     1       9.043  -0.969  35.161  1.00  0.00    -0.000 C 
BRANCH   6   7
ATOM      7  C   UNL     1       7.950  -0.722  36.211  1.00  0.00    -0.003 C 
ATOM      8  C   UNL     1       6.558  -0.882  35.606  1.00  0.00     0.004 C 
ENDBRANCH   6   7
ENDBRANCH   5   6
ENDBRANCH   4   5
ENDBRANCH   3   4
ENDBRANCH   2   3
ENDBRANCH   1   2
BRANCH   1   9
ATOM      9  C   UNL     1      10.804   2.166  31.651  1.00  0.00     0.000 C 
BRANCH   9  10
ATOM     10  C   UNL     1      12.054   2.235  32.545  1.00  0.00     0.000 C 
BRANCH  10  11
ATOM     11  C   UNL     1      11.995   1.238  33.715  1.00  0.00     0.000 C 
BRANCH  11  12
ATOM     12  C   UNL     1      12.789  -0.048  33.432  1.00  0.00     0.002 C 
BRANCH  12  13
ATOM     13  C   UNL     1      14.092   0.212  32.656  1.00  0.00     0.028 C 
BRANCH  13  14
ATOM     14  C   UNL     1      15.338   0.279  33.552  1.00  0.00     0.156 C 
BRANCH  14  15
ATOM     15  O   UNL     1      15.167   1.206  34.590  1.00  0.00    -0.396 OA
ATOM     16  H   UNL     1      14.461   0.842  35.186  1.00  0.00     0.210 HD
ENDBRANCH  14  15
ENDBRANCH  13  14
ENDBRANCH  12  13
ENDBRANCH  11  12
ENDBRANCH  10  11
ENDBRANCH   9  10
ENDBRANCH   1   9
TORSDOF 13
ENDMDL
MODEL 6
REMARK VINA RESULT:    -3.532      2.996      5.761
REMARK INTER + INTRA:          -7.604
REMARK INTER:                  -5.771
REMARK INTRA:                  -1.833
REMARK UNBOUND:                -1.491
REMARK SMILES CCCCCCCCCCCCCCO
REMARK SMILES IDX 8 1 7 2 6 3 5 4 4 5 3 6 2 7 1 8 9 9 10 10 11 11 12 12 13 13
REMARK SMILES IDX 14 14 15 15
REMARK H PARENT 15 16
REMARK Flexibility Score: inf
ROOT
ATOM      1  C   UNL     1      10.640   0.279  30.319  1.00  0.00     0.000 C 
ENDROOT
BRANCH   1   2
ATOM      2  C   UNL     1      11.340  -0.965  30.894  1.00  0.00    -0.000 C 
BRANCH   2   3
ATOM      3  C   UNL     1      12.586  -0.618  31.726  1.00  0.00    -0.000 C 
BRANCH   3   4
ATOM      4  C   UNL     1      12.332  -0.693  33.242  1.00  0.00    -0.000 C 
BRANCH   4   5
ATOM      5  C   UNL     1      11.235  -1.687  33.673  1.00  0.00    -0.000 C 
BRANCH   5   6
ATOM      6  C   UNL     1      10.030  -1.021  34.371  1.00  0.00    -0.000 C 
BRANCH   6   7
ATOM      7  C   UNL     1       8.689  -1.470  33.770  1.00  0.00    -0.003 C 
ATOM      8  C   UNL     1       8.845  -2.767  32.981  1.00  0.00     0.004 C 
ENDBRANCH   6   7
ENDBRANCH   5   6
ENDBRANCH   4   5
ENDBRANCH   3   4
ENDBRANCH   2   3
ENDBRANCH   1   2
BRANCH   1   9
ATOM      9  C   UNL     1       9.811   1.092  31.332  1.00  0.00     0.000 C 
BRANCH   9  10
ATOM     10  C   UNL     1      10.463   2.437  31.696  1.00  0.00     0.000 C 
BRANCH  10  11
ATOM     11  C   UNL     1      11.564   2.844  30.701  1.00  0.00     0.000 C 
BRANCH  11  12
ATOM     12  C   UNL     1      12.922   3.067  31.387  1.00  0.00     0.002 C 
BRANCH  12  13
ATOM     13  C   UNL     1      12.788   3.418  32.880  1.00  0.00     0.028 C 
BRANCH  13  14
ATOM     14  C   UNL     1      13.188   4.863  33.210  1.00  0.00     0.156 C 
BRANCH  14  15
ATOM     15  O   UNL     1      14.351   4.901  33.992  1.00  0.00    -0.396 OA
ATOM     16  H   UNL     1      14.070   5.151  34.911  1.00  0.00     0.210 HD
ENDBRANCH  14  15
ENDBRANCH  13  14
ENDBRANCH  12  13
ENDBRANCH  11  12
ENDBRANCH  10  11
ENDBRANCH   9  10
ENDBRANCH   1   9
TORSDOF 13
ENDMDL
MODEL 7
REMARK VINA RESULT:    -3.504      1.789      3.568
REMARK INTER + INTRA:          -7.555
REMARK INTER:                  -6.412
REMARK INTRA:                  -1.143
REMARK UNBOUND:                -1.491
REMARK SMILES CCCCCCCCCCCCCCO
REMARK SMILES IDX 8 1 7 2 6 3 5 4 4 5 3 6 2 7 1 8 9 9 10 10 11 11 12 12 13 13
REMARK SMILES IDX 14 14 15 15
REMARK H PARENT 15 16
REMARK Flexibility Score: inf
ROOT
ATOM      1  C   UNL     1       8.670  -1.130  33.809  1.00  0.00     0.000 C 
ENDROOT
BRANCH   1   2
ATOM      2  C   UNL     1      10.139  -1.139  34.269  1.00  0.00    -0.000 C 
BRANCH   2   3
ATOM      3  C   UNL     1      11.043  -1.997  33.367  1.00  0.00    -0.000 C 
BRANCH   3   4
ATOM      4  C   UNL     1      12.245  -1.215  32.809  1.00  0.00    -0.000 C 
BRANCH   4   5
ATOM      5  C   UNL     1      12.263  -1.050  31.276  1.00  0.00    -0.000 C 
BRANCH   5   6
ATOM      6  C   UNL     1      10.897  -0.658  30.674  1.00  0.00    -0.000 C 
BRANCH   6   7
ATOM      7  C   UNL     1      10.788   0.853  30.416  1.00  0.00    -0.003 C 
ATOM      8  C   UNL     1      10.098   1.563  31.577  1.00  0.00     0.004 C 
ENDBRANCH   6   7
ENDBRANCH   5   6
ENDBRANCH   4   5
ENDBRANCH   3   4
ENDBRANCH   2   3
ENDBRANCH   1   2
BRANCH   1   9
ATOM      9  C   UNL     1       7.723  -2.033  34.622  1.00  0.00     0.000 C 
BRANCH   9  10
ATOM     10  C   UNL     1       6.477  -1.287  35.131  1.00  0.00     0.000 C 
BRANCH  10  11
ATOM     11  C   UNL     1       6.417  -1.224  36.666  1.00  0.00     0.000 C 
BRANCH  11  12
ATOM     12  C   UNL     1       7.773  -1.539  37.320  1.00  0.00     0.002 C 
BRANCH  12  13
ATOM     13  C   UNL     1       8.336  -0.357  38.130  1.00  0.00     0.028 C 
BRANCH  13  14
ATOM     14  C   UNL     1       7.617   0.972  37.857  1.00  0.00     0.156 C 
BRANCH  14  15
ATOM     15  O   UNL     1       8.343   2.056  38.371  1.00  0.00    -0.396 OA
ATOM     16  H   UNL     1       7.757   2.854  38.295  1.00  0.00     0.210 HD
ENDBRANCH  14  15
ENDBRANCH  13  14
ENDBRANCH  12  13
ENDBRANCH  11  12
ENDBRANCH  10  11
ENDBRANCH   9  10
ENDBRANCH   1   9
TORSDOF 13
ENDMDL
MODEL 8
REMARK VINA RESULT:    -3.379      1.783      3.444
REMARK INTER + INTRA:          -7.340
REMARK INTER:                  -5.992
REMARK INTRA:                  -1.347
REMARK UNBOUND:                -1.491
REMARK SMILES CCCCCCCCCCCCCCO
REMARK SMILES IDX 8 1 7 2 6 3 5 4 4 5 3 6 2 7 1 8 9 9 10 10 11 11 12 12 13 13
REMARK SMILES IDX 14 14 15 15
REMARK H PARENT 15 16
REMARK Flexibility Score: inf
ROOT
ATOM      1  C   UNL     1      10.452  -3.637  34.712  1.00  0.00     0.000 C 
ENDROOT
BRANCH   1   2
ATOM      2  C   UNL     1      11.750  -3.503  33.895  1.00  0.00    -0.000 C 
BRANCH   2   3
ATOM      3  C   UNL     1      11.706  -2.340  32.889  1.00  0.00    -0.000 C 
BRANCH   3   4
ATOM      4  C   UNL     1      11.419  -0.983  33.557  1.00  0.00    -0.000 C 
BRANCH   4   5
ATOM      5  C   UNL     1      10.387  -0.101  32.827  1.00  0.00    -0.000 C 
BRANCH   5   6
ATOM      6  C   UNL     1       9.881  -0.701  31.498  1.00  0.00    -0.000 C 
BRANCH   6   7
ATOM      7  C   UNL     1      10.451   0.031  30.274  1.00  0.00    -0.003 C 
ATOM      8  C   UNL     1      10.935   1.430  30.645  1.00  0.00     0.004 C 
ENDBRANCH   6   7
ENDBRANCH   5   6
ENDBRANCH   4   5
ENDBRANCH   3   4
ENDBRANCH   2   3
ENDBRANCH   1   2
BRANCH   1   9
ATOM      9  C   UNL     1       9.203  -4.026  33.899  1.00  0.00     0.000 C 
BRANCH   9  10
ATOM     10  C   UNL     1       8.143  -2.911  33.861  1.00  0.00     0.000 C 
BRANCH  10  11
ATOM     11  C   UNL     1       8.130  -2.070  35.149  1.00  0.00     0.000 C 
BRANCH  11  12
ATOM     12  C   UNL     1       6.717  -1.593  35.524  1.00  0.00     0.002 C 
BRANCH  12  13
ATOM     13  C   UNL     1       6.726  -0.363  36.449  1.00  0.00     0.028 C 
BRANCH  13  14
ATOM     14  C   UNL     1       5.968  -0.579  37.766  1.00  0.00     0.156 C 
BRANCH  14  15
ATOM     15  O   UNL     1       5.264   0.574  38.142  1.00  0.00    -0.396 OA
ATOM     16  H   UNL     1       4.754   0.870  37.343  1.00  0.00     0.210 HD
ENDBRANCH  14  15
ENDBRANCH  13  14
ENDBRANCH  12  13
ENDBRANCH  11  12
ENDBRANCH  10  11
ENDBRANCH   9  10
ENDBRANCH   1   9
TORSDOF 13
ENDMDL
MODEL 9
REMARK VINA RESULT:    -3.349      1.082      2.797
REMARK INTER + INTRA:          -7.286
REMARK INTER:                  -5.794
REMARK INTRA:                  -1.493
REMARK UNBOUND:                -1.491
REMARK SMILES CCCCCCCCCCCCCCO
REMARK SMILES IDX 8 1 7 2 6 3 5 4 4 5 3 6 2 7 1 8 9 9 10 10 11 11 12 12 13 13
REMARK SMILES IDX 14 14 15 15
REMARK H PARENT 15 16
REMARK Flexibility Score: inf
ROOT
ATOM      1  C   UNL     1      13.162  -0.329  32.798  1.00  0.00     0.000 C 
ENDROOT
BRANCH   1   2
ATOM      2  C   UNL     1      13.784   1.058  33.040  1.00  0.00    -0.000 C 
BRANCH   2   3
ATOM      3  C   UNL     1      12.790   2.209  32.799  1.00  0.00    -0.000 C 
BRANCH   3   4
ATOM      4  C   UNL     1      12.705   2.624  31.320  1.00  0.00    -0.000 C 
BRANCH   4   5
ATOM      5  C   UNL     1      11.475   2.088  30.560  1.00  0.00    -0.000 C 
BRANCH   5   6
ATOM      6  C   UNL     1      10.218   1.926  31.442  1.00  0.00    -0.000 C 
BRANCH   6   7
ATOM      7  C   UNL     1       9.594   0.529  31.312  1.00  0.00    -0.003 C 
ATOM      8  C   UNL     1      10.374  -0.335  30.326  1.00  0.00     0.004 C 
ENDBRANCH   6   7
ENDBRANCH   5   6
ENDBRANCH   4   5
ENDBRANCH   3   4
ENDBRANCH   2   3
ENDBRANCH   1   2
BRANCH   1   9
ATOM      9  C   UNL     1      11.923  -0.651  33.654  1.00  0.00     0.000 C 
BRANCH   9  10
ATOM     10  C   UNL     1      11.409  -2.086  33.446  1.00  0.00     0.000 C 
BRANCH  10  11
ATOM     11  C   UNL     1      10.259  -2.441  34.404  1.00  0.00     0.000 C 
BRANCH  11  12
ATOM     12  C   UNL     1       8.956  -1.703  34.057  1.00  0.00     0.002 C 
BRANCH  12  13
ATOM     13  C   UNL     1       8.323  -1.003  35.273  1.00  0.00     0.028 C 
BRANCH  13  14
ATOM     14  C   UNL     1       6.826  -1.299  35.443  1.00  0.00     0.156 C 
BRANCH  14  15
ATOM     15  O   UNL     1       6.162  -0.225  36.053  1.00  0.00    -0.396 OA
ATOM     16  H   UNL     1       6.863   0.398  36.377  1.00  0.00     0.210 HD
ENDBRANCH  14  15
ENDBRANCH  13  14
ENDBRANCH  12  13
ENDBRANCH  11  12
ENDBRANCH  10  11
ENDBRANCH   9  10
ENDBRANCH   1   9
TORSDOF 13
ENDMDL
