MODEL 1
REMARK VINA RESULT:    -3.791      0.000      0.000
REMARK INTER + INTRA:          -6.102
REMARK INTER:                  -5.563
REMARK INTRA:                  -0.538
REMARK UNBOUND:                -0.538
REMARK SMILES C=C1C=C[C@@H](C(C)C)CCC(C)=CCC1
REMARK SMILES IDX 3 1 4 2 5 3 9 4 10 5 11 6 12 7 13 8 6 10 7 11 8 12 2 13 1 14
REMARK SMILES IDX 15 15 14 16
REMARK H PARENT
REMARK Flexibility Score: 70.00
ROOT
ATOM      1  C   UNL     1     168.270 169.647 198.462  1.00  0.00    -0.001 C 
ATOM      2  C   UNL     1     167.714 169.587 199.689  1.00  0.00    -0.023 C 
ENDROOT
BRANCH   2   3
ATOM      3  C   UNL     1     166.955 168.440 200.355  1.00  0.00     0.014 C 
BRANCH   3   4
ATOM      4  C   UNL     1     165.491 168.741 200.757  1.00  0.00     0.012 C 
BRANCH   4   5
ATOM      5  C   UNL     1     164.843 169.763 199.809  1.00  0.00     0.031 C 
BRANCH   5   6
ATOM      6  C   UNL     1     164.020 169.138 198.697  1.00  0.00    -0.077 C 
ATOM      7  C   UNL     1     162.592 168.745 198.997  1.00  0.00     0.039 C 
ATOM      8  C   UNL     1     164.516 168.795 197.480  1.00  0.00    -0.028 CG0
ATOM      9  G   UNL     1     165.840 169.206 196.871  1.00  0.00     0.000 G0
ENDBRANCH   5   6
ENDBRANCH   4   5
ENDBRANCH   3   4
BRANCH   3  10
ATOM     10  C   UNL     1     167.759 167.753 201.499  1.00  0.00    -0.010 C 
ATOM     11  C   UNL     1     167.858 168.597 202.774  1.00  0.00     0.008 C 
ATOM     12  C   UNL     1     169.166 167.348 201.031  1.00  0.00     0.008 C 
ENDBRANCH   3  10
ENDBRANCH   2   3
BRANCH   1  13
ATOM     13  C   UNL     1     168.252 168.596 197.428  1.00  0.00    -0.055 C 
ATOM     14  C   UNL     1     169.358 167.874 197.223  1.00  0.00     0.012 C 
BRANCH  13  15
ATOM     15  C   UNL     1     166.931 168.096 196.876  1.00  0.00     0.039 C 
BRANCH  15  16
ATOM     16  C   UNL     1     165.844 169.194 196.859  1.00  0.00     0.032 CG0
ATOM     17  G   UNL     1     164.514 168.820 197.478  1.00  0.00     0.000 G0
ENDBRANCH  15  16
ENDBRANCH  13  15
ENDBRANCH   1  13
TORSDOF 1
ENDMDL
MODEL 2
REMARK VINA RESULT:    -3.787      5.422      6.831
REMARK INTER + INTRA:          -6.096
REMARK INTER:                  -5.419
REMARK INTRA:                  -0.677
REMARK UNBOUND:                -0.538
REMARK SMILES C=C1C=C[C@@H](C(C)C)CCC(C)=CCC1
REMARK SMILES IDX 3 1 4 2 5 3 9 4 10 5 11 6 12 7 13 8 6 10 7 11 8 12 2 13 1 14
REMARK SMILES IDX 15 15 14 16
REMARK H PARENT
REMARK Flexibility Score: 70.00
ROOT
ATOM      1  C   UNL     1     163.749 162.364 199.049  1.00  0.00    -0.001 C 
ATOM      2  C   UNL     1     164.321 162.520 200.260  1.00  0.00    -0.023 C 
ENDROOT
BRANCH   2   3
ATOM      3  C   UNL     1     165.007 163.747 200.859  1.00  0.00     0.014 C 
BRANCH   3   4
ATOM      4  C   UNL     1     166.549 163.676 200.967  1.00  0.00     0.012 C 
BRANCH   4   5
ATOM      5  C   UNL     1     167.115 162.473 200.194  1.00  0.00     0.031 C 
BRANCH   5   6
ATOM      6  C   UNL     1     167.904 162.853 198.954  1.00  0.00    -0.077 C 
ATOM      7  C   UNL     1     169.365 163.199 199.114  1.00  0.00     0.039 C 
ATOM      8  C   UNL     1     167.357 163.019 197.722  1.00  0.00    -0.028 CG0
ATOM      9  G   UNL     1     165.979 162.596 197.256  1.00  0.00     0.000 G0
ENDBRANCH   5   6
ENDBRANCH   4   5
ENDBRANCH   3   4
BRANCH   3  10
ATOM     10  C   UNL     1     164.338 164.243 202.175  1.00  0.00    -0.010 C 
ATOM     11  C   UNL     1     164.449 163.247 203.335  1.00  0.00     0.008 C 
ATOM     12  C   UNL     1     162.865 164.619 201.950  1.00  0.00     0.008 C 
ENDBRANCH   3  10
ENDBRANCH   2   3
BRANCH   1  13
ATOM     13  C   UNL     1     163.672 163.366 197.969  1.00  0.00    -0.055 C 
ATOM     14  C   UNL     1     162.619 164.187 197.926  1.00  0.00     0.012 C 
BRANCH  13  15
ATOM     15  C   UNL     1     164.908 163.705 197.159  1.00  0.00     0.039 C 
BRANCH  15  16
ATOM     16  C   UNL     1     165.985 162.601 197.232  1.00  0.00     0.032 CG0
ATOM     17  G   UNL     1     167.348 163.036 197.729  1.00  0.00     0.000 G0
ENDBRANCH  15  16
ENDBRANCH  13  15
ENDBRANCH   1  13
TORSDOF 1
ENDMDL
MODEL 3
REMARK VINA RESULT:    -3.750      5.281      6.658
REMARK INTER + INTRA:          -6.042
REMARK INTER:                  -5.436
REMARK INTRA:                  -0.606
REMARK UNBOUND:                -0.538
REMARK SMILES C=C1C=C[C@@H](C(C)C)CCC(C)=CCC1
REMARK SMILES IDX 3 1 4 2 5 3 9 4 10 5 11 6 12 7 13 8 6 10 7 11 8 12 2 13 1 14
REMARK SMILES IDX 15 15 14 16
REMARK H PARENT
REMARK Flexibility Score: 70.00
ROOT
ATOM      1  C   UNL     1     167.145 162.027 201.366  1.00  0.00    -0.001 C 
ATOM      2  C   UNL     1     167.154 161.927 200.021  1.00  0.00    -0.023 C 
ENDROOT
BRANCH   2   3
ATOM      3  C   UNL     1     167.121 163.032 198.966  1.00  0.00     0.014 C 
BRANCH   3   4
ATOM      4  C   UNL     1     165.850 163.091 198.086  1.00  0.00     0.012 C 
BRANCH   4   5
ATOM      5  C   UNL     1     164.660 162.395 198.765  1.00  0.00     0.031 C 
BRANCH   5   6
ATOM      6  C   UNL     1     163.652 163.352 199.376  1.00  0.00    -0.077 C 
ATOM      7  C   UNL     1     162.593 163.946 198.477  1.00  0.00     0.039 C 
ATOM      8  C   UNL     1     163.709 163.806 200.654  1.00  0.00    -0.028 CG0
ATOM      9  G   UNL     1     164.551 163.268 201.792  1.00  0.00     0.000 G0
ENDBRANCH   5   6
ENDBRANCH   4   5
ENDBRANCH   3   4
BRANCH   3  10
ATOM     10  C   UNL     1     168.432 163.121 198.129  1.00  0.00    -0.010 C 
ATOM     11  C   UNL     1     169.681 163.410 198.969  1.00  0.00     0.008 C 
ATOM     12  C   UNL     1     168.310 164.159 197.002  1.00  0.00     0.008 C 
ENDBRANCH   3  10
ENDBRANCH   2   3
BRANCH   1  13
ATOM     13  C   UNL     1     167.072 163.266 202.163  1.00  0.00    -0.055 C 
ATOM     14  C   UNL     1     168.206 163.809 202.615  1.00  0.00     0.012 C 
BRANCH  13  15
ATOM     15  C   UNL     1     165.804 164.097 202.158  1.00  0.00     0.039 C 
BRANCH  15  16
ATOM     16  C   UNL     1     164.552 163.264 201.809  1.00  0.00     0.032 CG0
ATOM     17  G   UNL     1     163.707 163.785 200.664  1.00  0.00     0.000 G0
ENDBRANCH  15  16
ENDBRANCH  13  15
ENDBRANCH   1  13
TORSDOF 1
ENDMDL
MODEL 4
REMARK VINA RESULT:    -3.600      1.651      2.515
REMARK INTER + INTRA:          -5.822
REMARK INTER:                  -5.330
REMARK INTRA:                  -0.492
REMARK UNBOUND:                -0.538
REMARK SMILES C=C1C=C[C@@H](C(C)C)CCC(C)=CCC1
REMARK SMILES IDX 3 1 4 2 5 3 9 4 10 5 11 6 12 7 13 8 6 10 7 11 8 12 2 13 1 14
REMARK SMILES IDX 15 15 14 16
REMARK H PARENT
REMARK Flexibility Score: 70.00
ROOT
ATOM      1  C   UNL     1     167.983 168.815 200.956  1.00  0.00    -0.001 C 
ATOM      2  C   UNL     1     167.062 168.634 201.924  1.00  0.00    -0.023 C 
ENDROOT
BRANCH   2   3
ATOM      3  C   UNL     1     165.550 168.450 201.803  1.00  0.00     0.014 C 
BRANCH   3   4
ATOM      4  C   UNL     1     164.728 169.739 201.566  1.00  0.00     0.012 C 
BRANCH   4   5
ATOM      5  C   UNL     1     164.546 170.025 200.066  1.00  0.00     0.031 C 
BRANCH   5   6
ATOM      6  C   UNL     1     163.878 168.898 199.300  1.00  0.00    -0.077 C 
ATOM      7  C   UNL     1     162.426 168.597 199.591  1.00  0.00     0.039 C 
ATOM      8  C   UNL     1     164.528 168.059 198.453  1.00  0.00    -0.028 CG0
ATOM      9  G   UNL     1     165.917 168.225 197.871  1.00  0.00     0.000 G0
ENDBRANCH   5   6
ENDBRANCH   4   5
ENDBRANCH   3   4
BRANCH   3  10
ATOM     10  C   UNL     1     164.948 167.557 202.929  1.00  0.00    -0.010 C 
ATOM     11  C   UNL     1     164.395 166.219 202.424  1.00  0.00     0.008 C 
ATOM     12  C   UNL     1     163.861 168.304 203.718  1.00  0.00     0.008 C 
ENDBRANCH   3  10
ENDBRANCH   2   3
BRANCH   1  13
ATOM     13  C   UNL     1     167.736 168.909 199.504  1.00  0.00    -0.055 C 
ATOM     14  C   UNL     1     168.370 169.855 198.804  1.00  0.00     0.012 C 
BRANCH  13  15
ATOM     15  C   UNL     1     167.085 167.755 198.768  1.00  0.00     0.039 C 
BRANCH  15  16
ATOM     16  C   UNL     1     165.916 168.211 197.868  1.00  0.00     0.032 CG0
ATOM     17  G   UNL     1     164.527 168.039 198.447  1.00  0.00     0.000 G0
ENDBRANCH  15  16
ENDBRANCH  13  15
ENDBRANCH   1  13
TORSDOF 1
ENDMDL
MODEL 5
REMARK VINA RESULT:    -3.595      5.074      6.390
REMARK INTER + INTRA:          -5.815
REMARK INTER:                  -5.289
REMARK INTRA:                  -0.526
REMARK UNBOUND:                -0.538
REMARK SMILES C=C1C=C[C@@H](C(C)C)CCC(C)=CCC1
REMARK SMILES IDX 3 1 4 2 5 3 9 4 10 5 11 6 12 7 13 8 6 10 7 11 8 12 2 13 1 14
REMARK SMILES IDX 15 15 14 16
REMARK H PARENT
REMARK Flexibility Score: 70.00
ROOT
ATOM      1  C   UNL     1     164.352 162.305 198.802  1.00  0.00    -0.001 C 
ATOM      2  C   UNL     1     164.902 162.227 200.030  1.00  0.00    -0.023 C 
ENDROOT
BRANCH   2   3
ATOM      3  C   UNL     1     166.239 162.772 200.531  1.00  0.00     0.014 C 
BRANCH   3   4
ATOM      4  C   UNL     1     167.491 161.944 200.158  1.00  0.00     0.012 C 
BRANCH   4   5
ATOM      5  C   UNL     1     168.280 162.597 199.012  1.00  0.00     0.031 C 
BRANCH   5   6
ATOM      6  C   UNL     1     168.405 164.105 199.130  1.00  0.00    -0.077 C 
ATOM      7  C   UNL     1     169.362 164.666 200.156  1.00  0.00     0.039 C 
ATOM      8  C   UNL     1     167.625 164.992 198.459  1.00  0.00    -0.028 CG0
ATOM      9  G   UNL     1     166.715 164.716 197.280  1.00  0.00     0.000 G0
ENDBRANCH   5   6
ENDBRANCH   4   5
ENDBRANCH   3   4
BRANCH   3  10
ATOM     10  C   UNL     1     166.214 163.170 202.037  1.00  0.00    -0.010 C 
ATOM     11  C   UNL     1     167.236 162.411 202.891  1.00  0.00     0.008 C 
ATOM     12  C   UNL     1     164.809 163.007 202.638  1.00  0.00     0.008 C 
ENDBRANCH   3  10
ENDBRANCH   2   3
BRANCH   1  13
ATOM     13  C   UNL     1     164.941 162.932 197.604  1.00  0.00    -0.055 C 
ATOM     14  C   UNL     1     164.905 162.268 196.445  1.00  0.00     0.012 C 
BRANCH  13  15
ATOM     15  C   UNL     1     165.242 164.418 197.596  1.00  0.00     0.039 C 
BRANCH  15  16
ATOM     16  C   UNL     1     166.720 164.720 197.265  1.00  0.00     0.032 CG0
ATOM     17  G   UNL     1     167.622 164.996 198.450  1.00  0.00     0.000 G0
ENDBRANCH  15  16
ENDBRANCH  13  15
ENDBRANCH   1  13
TORSDOF 1
ENDMDL
MODEL 6
REMARK VINA RESULT:    -3.588      1.967      4.023
REMARK INTER + INTRA:          -5.805
REMARK INTER:                  -5.109
REMARK INTRA:                  -0.696
REMARK UNBOUND:                -0.538
REMARK SMILES C=C1C=C[C@@H](C(C)C)CCC(C)=CCC1
REMARK SMILES IDX 3 1 4 2 5 3 9 4 10 5 11 6 12 7 13 8 6 10 7 11 8 12 2 13 1 14
REMARK SMILES IDX 15 15 14 16
REMARK H PARENT
REMARK Flexibility Score: 70.00
ROOT
ATOM      1  C   UNL     1     166.508 170.027 198.988  1.00  0.00    -0.001 C 
ATOM      2  C   UNL     1     167.703 169.635 199.473  1.00  0.00    -0.023 C 
ENDROOT
BRANCH   2   3
ATOM      3  C   UNL     1     168.111 168.293 200.081  1.00  0.00     0.014 C 
BRANCH   3   4
ATOM      4  C   UNL     1     168.339 168.285 201.611  1.00  0.00     0.012 C 
BRANCH   4   5
ATOM      5  C   UNL     1     167.159 167.640 202.355  1.00  0.00     0.031 C 
BRANCH   5   6
ATOM      6  C   UNL     1     166.180 168.639 202.943  1.00  0.00    -0.077 C 
ATOM      7  C   UNL     1     166.569 169.361 204.213  1.00  0.00     0.039 C 
ATOM      8  C   UNL     1     164.923 168.845 202.472  1.00  0.00    -0.028 CG0
ATOM      9  G   UNL     1     164.342 168.384 201.152  1.00  0.00     0.000 G0
ENDBRANCH   5   6
ENDBRANCH   4   5
ENDBRANCH   3   4
BRANCH   3  10
ATOM     10  C   UNL     1     169.261 167.590 199.301  1.00  0.00    -0.010 C 
ATOM     11  C   UNL     1     168.899 167.240 197.853  1.00  0.00     0.008 C 
ATOM     12  C   UNL     1     169.749 166.331 200.035  1.00  0.00     0.008 C 
ENDBRANCH   3  10
ENDBRANCH   2   3
BRANCH   1  13
ATOM     13  C   UNL     1     165.262 169.237 198.952  1.00  0.00    -0.055 C 
ATOM     14  C   UNL     1     165.208 168.155 198.171  1.00  0.00     0.012 C 
BRANCH  13  15
ATOM     15  C   UNL     1     164.216 169.423 200.033  1.00  0.00     0.039 C 
BRANCH  15  16
ATOM     16  C   UNL     1     164.336 168.373 201.160  1.00  0.00     0.032 CG0
ATOM     17  G   UNL     1     164.925 168.866 202.466  1.00  0.00     0.000 G0
ENDBRANCH  15  16
ENDBRANCH  13  15
ENDBRANCH   1  13
TORSDOF 1
ENDMDL
MODEL 7
REMARK VINA RESULT:    -3.555      5.434      7.022
REMARK INTER + INTRA:          -5.756
REMARK INTER:                  -5.017
REMARK INTRA:                  -0.739
REMARK UNBOUND:                -0.538
REMARK SMILES C=C1C=C[C@@H](C(C)C)CCC(C)=CCC1
REMARK SMILES IDX 3 1 4 2 5 3 9 4 10 5 11 6 12 7 13 8 6 10 7 11 8 12 2 13 1 14
REMARK SMILES IDX 15 15 14 16
REMARK H PARENT
REMARK Flexibility Score: 70.00
ROOT
ATOM      1  C   UNL     1     165.589 161.999 198.802  1.00  0.00    -0.001 C 
ATOM      2  C   UNL     1     164.527 162.248 199.596  1.00  0.00    -0.023 C 
ENDROOT
BRANCH   2   3
ATOM      3  C   UNL     1     164.159 163.524 200.352  1.00  0.00     0.014 C 
BRANCH   3   4
ATOM      4  C   UNL     1     164.141 163.414 201.896  1.00  0.00     0.012 C 
BRANCH   4   5
ATOM      5  C   UNL     1     165.403 164.032 202.521  1.00  0.00     0.031 C 
BRANCH   5   6
ATOM      6  C   UNL     1     166.556 163.057 202.674  1.00  0.00    -0.077 C 
ATOM      7  C   UNL     1     166.536 162.103 203.846  1.00  0.00     0.039 C 
ATOM      8  C   UNL     1     167.668 163.061 201.896  1.00  0.00    -0.028 CG0
ATOM      9  G   UNL     1     167.877 163.788 200.584  1.00  0.00     0.000 G0
ENDBRANCH   5   6
ENDBRANCH   4   5
ENDBRANCH   3   4
BRANCH   3  10
ATOM     10  C   UNL     1     162.889 164.228 199.789  1.00  0.00    -0.010 C 
ATOM     11  C   UNL     1     162.775 164.160 198.262  1.00  0.00     0.008 C 
ATOM     12  C   UNL     1     162.805 165.690 200.253  1.00  0.00     0.008 C 
ENDBRANCH   3  10
ENDBRANCH   2   3
BRANCH   1  13
ATOM     13  C   UNL     1     166.696 162.921 198.488  1.00  0.00    -0.055 C 
ATOM     14  C   UNL     1     166.453 163.978 197.707  1.00  0.00     0.012 C 
BRANCH  13  15
ATOM     15  C   UNL     1     167.968 162.888 199.312  1.00  0.00     0.039 C 
BRANCH  15  16
ATOM     16  C   UNL     1     167.883 163.783 200.567  1.00  0.00     0.032 CG0
ATOM     17  G   UNL     1     167.684 163.062 201.884  1.00  0.00     0.000 G0
ENDBRANCH  15  16
ENDBRANCH  13  15
ENDBRANCH   1  13
TORSDOF 1
ENDMDL
MODEL 8
REMARK VINA RESULT:    -3.533      5.203      6.710
REMARK INTER + INTRA:          -5.725
REMARK INTER:                  -5.317
REMARK INTRA:                  -0.407
REMARK UNBOUND:                -0.538
REMARK SMILES C=C1C=C[C@@H](C(C)C)CCC(C)=CCC1
REMARK SMILES IDX 3 1 4 2 5 3 9 4 10 5 11 6 12 7 13 8 6 10 7 11 8 12 2 13 1 14
REMARK SMILES IDX 15 15 14 16
REMARK H PARENT
REMARK Flexibility Score: 70.00
ROOT
ATOM      1  C   UNL     1     167.472 162.068 200.615  1.00  0.00    -0.001 C 
ATOM      2  C   UNL     1     166.596 162.098 199.591  1.00  0.00    -0.023 C 
ENDROOT
BRANCH   2   3
ATOM      3  C   UNL     1     165.348 162.961 199.406  1.00  0.00     0.014 C 
BRANCH   3   4
ATOM      4  C   UNL     1     164.122 162.573 200.266  1.00  0.00     0.012 C 
BRANCH   4   5
ATOM      5  C   UNL     1     164.102 163.338 201.599  1.00  0.00     0.031 C 
BRANCH   5   6
ATOM      6  C   UNL     1     164.199 164.845 201.448  1.00  0.00    -0.077 C 
ATOM      7  C   UNL     1     163.051 165.574 200.790  1.00  0.00     0.039 C 
ATOM      8  C   UNL     1     165.302 165.574 201.755  1.00  0.00    -0.028 CG0
ATOM      9  G   UNL     1     166.509 165.133 202.557  1.00  0.00     0.000 G0
ENDBRANCH   5   6
ENDBRANCH   4   5
ENDBRANCH   3   4
BRANCH   3  10
ATOM     10  C   UNL     1     164.979 163.194 197.911  1.00  0.00    -0.010 C 
ATOM     11  C   UNL     1     163.677 163.978 197.713  1.00  0.00     0.008 C 
ATOM     12  C   UNL     1     164.913 161.869 197.135  1.00  0.00     0.008 C 
ENDBRANCH   3  10
ENDBRANCH   2   3
BRANCH   1  13
ATOM     13  C   UNL     1     167.418 162.870 201.853  1.00  0.00    -0.055 C 
ATOM     14  C   UNL     1     167.526 162.246 203.029  1.00  0.00     0.012 C 
BRANCH  13  15
ATOM     15  C   UNL     1     167.608 164.373 201.792  1.00  0.00     0.039 C 
BRANCH  15  16
ATOM     16  C   UNL     1     166.516 165.139 202.570  1.00  0.00     0.032 CG0
ATOM     17  G   UNL     1     165.307 165.569 201.765  1.00  0.00     0.000 G0
ENDBRANCH  15  16
ENDBRANCH  13  15
ENDBRANCH   1  13
TORSDOF 1
ENDMDL
MODEL 9
REMARK VINA RESULT:    -3.460      3.851      5.908
REMARK INTER + INTRA:          -5.617
REMARK INTER:                  -4.986
REMARK INTRA:                  -0.631
REMARK UNBOUND:                -0.538
REMARK SMILES C=C1C=C[C@@H](C(C)C)CCC(C)=CCC1
REMARK SMILES IDX 3 1 4 2 5 3 9 4 10 5 11 6 12 7 13 8 6 10 7 11 8 12 2 13 1 14
REMARK SMILES IDX 15 15 14 16
REMARK H PARENT
REMARK Flexibility Score: 70.00
ROOT
ATOM      1  C   UNL     1     162.275 165.357 200.013  1.00  0.00    -0.001 C 
ATOM      2  C   UNL     1     162.824 166.579 200.166  1.00  0.00    -0.023 C 
ENDROOT
BRANCH   2   3
ATOM      3  C   UNL     1     164.153 167.119 199.638  1.00  0.00     0.014 C 
BRANCH   3   4
ATOM      4  C   UNL     1     165.411 166.738 200.454  1.00  0.00     0.012 C 
BRANCH   4   5
ATOM      5  C   UNL     1     166.497 166.116 199.561  1.00  0.00     0.031 C 
BRANCH   5   6
ATOM      6  C   UNL     1     167.039 164.796 200.079  1.00  0.00    -0.077 C 
ATOM      7  C   UNL     1     168.301 164.817 200.910  1.00  0.00     0.039 C 
ATOM      8  C   UNL     1     166.535 163.580 199.746  1.00  0.00    -0.028 CG0
ATOM      9  G   UNL     1     165.212 163.279 199.073  1.00  0.00     0.000 G0
ENDBRANCH   5   6
ENDBRANCH   4   5
ENDBRANCH   3   4
BRANCH   3  10
ATOM     10  C   UNL     1     164.104 168.636 199.289  1.00  0.00    -0.010 C 
ATOM     11  C   UNL     1     164.602 169.544 200.420  1.00  0.00     0.008 C 
ATOM     12  C   UNL     1     162.693 169.068 198.857  1.00  0.00     0.008 C 
ENDBRANCH   3  10
ENDBRANCH   2   3
BRANCH   1  13
ATOM     13  C   UNL     1     162.858 164.206 199.299  1.00  0.00    -0.055 C 
ATOM     14  C   UNL     1     162.658 164.095 197.983  1.00  0.00     0.012 C 
BRANCH  13  15
ATOM     15  C   UNL     1     163.950 163.382 199.952  1.00  0.00     0.039 C 
BRANCH  15  16
ATOM     16  C   UNL     1     165.213 163.267 199.070  1.00  0.00     0.032 CG0
ATOM     17  G   UNL     1     166.528 163.589 199.749  1.00  0.00     0.000 G0
ENDBRANCH  15  16
ENDBRANCH  13  15
ENDBRANCH   1  13
TORSDOF 1
ENDMDL
