MODEL 1
REMARK VINA RESULT:    -5.885      0.000      0.000
REMARK INTER + INTRA:         -12.851
REMARK INTER:                 -10.185
REMARK INTRA:                  -2.666
REMARK UNBOUND:                -2.666
REMARK SMILES OC[C@@H]1O[C@@H](O)[C@@H](O)[C@H](O)[C@H]1O[C@@H]1O[C@@H](CO)[C@@H](O[C@@H]2O[C@H](CO)[C@@H](O)[C@@H](O)[C@H]2O)[C@@H](O)[C@H]1O
REMARK SMILES IDX 18 1 15 2 14 3 13 4 33 5 31 6 19 7 20 8 22 9 25 10 21 11
REMARK SMILES IDX 27 12 29 13 23 14 24 15 26 17 28 19 30 21 16 23 17 24 32 26
REMARK SMILES IDX 34 28 12 30 11 31 3 32 9 33 4 34 7 35 5 36 2 37 1 38 10 40
REMARK SMILES IDX 8 42 6 44
REMARK H PARENT 24 16 26 18 28 20 30 22 17 25 32 27 34 29 1 39 10 41 8 43 6 45
REMARK Flexibility Score: inf
ROOT
ATOM      1  C   UNL     1     238.139 235.398 239.103  1.00  0.00     0.184 C 
ATOM      2  C   UNL     1     237.671 236.486 240.100  1.00  0.00     0.178 C 
ATOM      3  O   UNL     1     236.327 236.891 239.880  1.00  0.00    -0.341 OA
ATOM      4  C   UNL     1     235.950 236.996 238.507  1.00  0.00     0.282 C 
ATOM      5  C   UNL     1     237.138 237.176 237.534  1.00  0.00     0.202 C 
ATOM      6  C   UNL     1     238.136 235.995 237.667  1.00  0.00     0.180 C 
ENDROOT
BRANCH   1   7
ATOM      7  O   UNL     1     237.269 234.277 239.193  1.00  0.00    -0.341 OA
BRANCH   7   8
ATOM      8  C   UNL     1     237.938 233.047 238.942  1.00  0.00     0.282 C 
ATOM      9  C   UNL     1     236.061 231.917 237.973  1.00  0.00     0.178 C 
ATOM     10  C   UNL     1     235.919 230.971 239.188  1.00  0.00     0.177 C 
ATOM     11  O   UNL     1     237.387 232.405 237.798  1.00  0.00    -0.341 OA
ATOM     12  C   UNL     1     236.497 231.620 240.453  1.00  0.00     0.179 C 
ATOM     13  C   UNL     1     237.920 232.142 240.187  1.00  0.00     0.202 C 
BRANCH   9  14
ATOM     14  C   UNL     1     235.004 233.043 237.924  1.00  0.00     0.191 C 
BRANCH  14  15
ATOM     15  O   UNL     1     235.289 233.917 236.864  1.00  0.00    -0.394 OA
ATOM     16  H   UNL     1     236.087 233.548 236.405  1.00  0.00     0.210 HD
ENDBRANCH  14  15
ENDBRANCH   9  14
BRANCH  10  17
ATOM     17  O   UNL     1     236.586 229.766 238.905  1.00  0.00    -0.387 OA
ATOM     18  H   UNL     1     236.629 229.679 237.919  1.00  0.00     0.211 HD
ENDBRANCH  10  17
BRANCH  12  19
ATOM     19  O   UNL     1     236.496 230.695 241.508  1.00  0.00    -0.387 OA
ATOM     20  H   UNL     1     235.562 230.374 241.606  1.00  0.00     0.211 HD
ENDBRANCH  12  19
BRANCH  13  21
ATOM     21  O   UNL     1     238.810 231.073 239.991  1.00  0.00    -0.385 OA
ATOM     22  H   UNL     1     238.429 230.288 240.465  1.00  0.00     0.211 HD
ENDBRANCH  13  21
ENDBRANCH   7   8
ENDBRANCH   1   7
BRANCH   2  23
ATOM     23  C   UNL     1     237.835 236.047 241.564  1.00  0.00     0.191 C 
BRANCH  23  24
ATOM     24  O   UNL     1     236.928 235.031 241.896  1.00  0.00    -0.394 OA
ATOM     25  H   UNL     1     236.018 235.432 241.860  1.00  0.00     0.210 HD
ENDBRANCH  23  24
ENDBRANCH   2  23
BRANCH   6  26
ATOM     26  O   UNL     1     237.850 234.991 236.724  1.00  0.00    -0.387 OA
ATOM     27  H   UNL     1     238.496 234.252 236.878  1.00  0.00     0.211 HD
ENDBRANCH   6  26
BRANCH   5  28
ATOM     28  O   UNL     1     236.664 237.264 236.211  1.00  0.00    -0.385 OA
ATOM     29  H   UNL     1     237.109 236.545 235.690  1.00  0.00     0.211 HD
ENDBRANCH   5  28
BRANCH   4  30
ATOM     30  O   UNL     1     235.087 238.110 238.364  1.00  0.00    -0.341 OA
BRANCH  30  31
ATOM     31  C   UNL     1     234.717 238.656 239.623  1.00  0.00     0.184 C 
ATOM     32  C   UNL     1     234.827 240.196 239.559  1.00  0.00     0.178 C 
ATOM     33  C   UNL     1     233.262 238.260 239.919  1.00  0.00     0.180 C 
ATOM     34  O   UNL     1     234.380 240.784 240.773  1.00  0.00    -0.342 OA
ATOM     35  C   UNL     1     232.741 239.014 241.152  1.00  0.00     0.201 C 
ATOM     36  C   UNL     1     233.004 240.523 241.005  1.00  0.00     0.279 C 
BRANCH  32  37
ATOM     37  C   UNL     1     236.282 240.629 239.319  1.00  0.00     0.191 C 
BRANCH  37  38
ATOM     38  O   UNL     1     237.150 239.931 240.171  1.00  0.00    -0.394 OA
ATOM     39  H   UNL     1     236.578 239.387 240.775  1.00  0.00     0.210 HD
ENDBRANCH  37  38
ENDBRANCH  32  37
BRANCH  33  40
ATOM     40  O   UNL     1     233.195 236.876 240.160  1.00  0.00    -0.387 OA
ATOM     41  H   UNL     1     232.510 236.498 239.551  1.00  0.00     0.211 HD
ENDBRANCH  33  40
BRANCH  35  42
ATOM     42  O   UNL     1     231.361 238.792 241.309  1.00  0.00    -0.385 OA
ATOM     43  H   UNL     1     231.201 237.833 241.115  1.00  0.00     0.211 HD
ENDBRANCH  35  42
BRANCH  36  44
ATOM     44  O   UNL     1     232.202 241.077 239.990  1.00  0.00    -0.366 OA
ATOM     45  H   UNL     1     232.504 242.014 239.875  1.00  0.00     0.213 HD
ENDBRANCH  36  44
ENDBRANCH  30  31
ENDBRANCH   4  30
TORSDOF 18
ENDMDL
MODEL 2
REMARK VINA RESULT:    -5.852      1.911      7.602
REMARK INTER + INTRA:         -12.795
REMARK INTER:                 -11.372
REMARK INTRA:                  -1.422
REMARK UNBOUND:                -2.666
REMARK SMILES OC[C@@H]1O[C@@H](O)[C@@H](O)[C@H](O)[C@H]1O[C@@H]1O[C@@H](CO)[C@@H](O[C@@H]2O[C@H](CO)[C@@H](O)[C@@H](O)[C@H]2O)[C@@H](O)[C@H]1O
REMARK SMILES IDX 18 1 15 2 14 3 13 4 33 5 31 6 19 7 20 8 22 9 25 10 21 11
REMARK SMILES IDX 27 12 29 13 23 14 24 15 26 17 28 19 30 21 16 23 17 24 32 26
REMARK SMILES IDX 34 28 12 30 11 31 3 32 9 33 4 34 7 35 5 36 2 37 1 38 10 40
REMARK SMILES IDX 8 42 6 44
REMARK H PARENT 24 16 26 18 28 20 30 22 17 25 32 27 34 29 1 39 10 41 8 43 6 45
REMARK Flexibility Score: inf
ROOT
ATOM      1  C   UNL     1     236.806 238.403 238.710  1.00  0.00     0.184 C 
ATOM      2  C   UNL     1     237.049 236.912 238.370  1.00  0.00     0.178 C 
ATOM      3  O   UNL     1     237.038 236.077 239.519  1.00  0.00    -0.341 OA
ATOM      4  C   UNL     1     237.663 236.638 240.673  1.00  0.00     0.282 C 
ATOM      5  C   UNL     1     238.674 237.766 240.363  1.00  0.00     0.202 C 
ATOM      6  C   UNL     1     237.984 238.918 239.585  1.00  0.00     0.180 C 
ENDROOT
BRANCH   1   7
ATOM      7  O   UNL     1     235.566 238.529 239.396  1.00  0.00    -0.341 OA
BRANCH   7   8
ATOM      8  C   UNL     1     234.624 239.315 238.676  1.00  0.00     0.282 C 
ATOM      9  C   UNL     1     233.939 240.670 240.528  1.00  0.00     0.178 C 
ATOM     10  C   UNL     1     232.541 240.013 240.579  1.00  0.00     0.177 C 
ATOM     11  O   UNL     1     234.533 240.620 239.235  1.00  0.00    -0.341 OA
ATOM     12  C   UNL     1     232.585 238.597 239.989  1.00  0.00     0.179 C 
ATOM     13  C   UNL     1     233.256 238.612 238.604  1.00  0.00     0.202 C 
BRANCH   9  14
ATOM     14  C   UNL     1     234.901 240.196 241.640  1.00  0.00     0.191 C 
BRANCH  14  15
ATOM     15  O   UNL     1     234.973 241.165 242.652  1.00  0.00    -0.394 OA
ATOM     16  H   UNL     1     234.219 241.789 242.495  1.00  0.00     0.210 HD
ENDBRANCH  14  15
ENDBRANCH   9  14
BRANCH  10  17
ATOM     17  O   UNL     1     231.635 240.815 239.864  1.00  0.00    -0.387 OA
ATOM     18  H   UNL     1     230.729 240.615 240.212  1.00  0.00     0.211 HD
ENDBRANCH  10  17
BRANCH  12  19
ATOM     19  O   UNL     1     231.286 238.073 239.906  1.00  0.00    -0.387 OA
ATOM     20  H   UNL     1     231.379 237.088 239.825  1.00  0.00     0.211 HD
ENDBRANCH  12  19
BRANCH  13  21
ATOM     21  O   UNL     1     232.446 239.278 237.670  1.00  0.00    -0.385 OA
ATOM     22  H   UNL     1     232.490 238.757 236.826  1.00  0.00     0.211 HD
ENDBRANCH  13  21
ENDBRANCH   7   8
ENDBRANCH   1   7
BRANCH   2  23
ATOM     23  C   UNL     1     236.038 236.375 237.343  1.00  0.00     0.191 C 
BRANCH  23  24
ATOM     24  O   UNL     1     235.778 235.012 237.548  1.00  0.00    -0.394 OA
ATOM     25  H   UNL     1     234.789 234.902 237.538  1.00  0.00     0.210 HD
ENDBRANCH  23  24
ENDBRANCH   2  23
BRANCH   6  26
ATOM     26  O   UNL     1     237.533 239.917 240.468  1.00  0.00    -0.387 OA
ATOM     27  H   UNL     1     236.759 239.541 240.965  1.00  0.00     0.211 HD
ENDBRANCH   6  26
BRANCH   5  28
ATOM     28  O   UNL     1     239.229 238.254 241.562  1.00  0.00    -0.385 OA
ATOM     29  H   UNL     1     238.750 239.096 241.787  1.00  0.00     0.211 HD
ENDBRANCH   5  28
BRANCH   4  30
ATOM     30  O   UNL     1     238.348 235.605 241.358  1.00  0.00    -0.341 OA
BRANCH  30  31
ATOM     31  C   UNL     1     238.794 234.589 240.470  1.00  0.00     0.184 C 
ATOM     32  C   UNL     1     240.254 234.217 240.817  1.00  0.00     0.178 C 
ATOM     33  C   UNL     1     237.897 233.354 240.649  1.00  0.00     0.180 C 
ATOM     34  O   UNL     1     240.706 233.142 240.007  1.00  0.00    -0.342 OA
ATOM     35  C   UNL     1     238.477 232.155 239.884  1.00  0.00     0.201 C 
ATOM     36  C   UNL     1     239.960 231.959 240.244  1.00  0.00     0.279 C 
BRANCH  32  37
ATOM     37  C   UNL     1     241.189 235.417 240.596  1.00  0.00     0.191 C 
BRANCH  37  38
ATOM     38  O   UNL     1     241.361 236.134 241.789  1.00  0.00    -0.394 OA
ATOM     39  H   UNL     1     242.162 235.753 242.236  1.00  0.00     0.210 HD
ENDBRANCH  37  38
ENDBRANCH  32  37
BRANCH  33  40
ATOM     40  O   UNL     1     236.610 233.638 240.159  1.00  0.00    -0.387 OA
ATOM     41  H   UNL     1     236.345 232.891 239.563  1.00  0.00     0.211 HD
ENDBRANCH  33  40
BRANCH  35  42
ATOM     42  O   UNL     1     237.760 230.986 240.199  1.00  0.00    -0.385 OA
ATOM     43  H   UNL     1     236.846 231.102 239.830  1.00  0.00     0.211 HD
ENDBRANCH  35  42
BRANCH  36  44
ATOM     44  O   UNL     1     240.101 231.524 241.575  1.00  0.00    -0.366 OA
ATOM     45  H   UNL     1     239.335 231.907 242.076  1.00  0.00     0.213 HD
ENDBRANCH  36  44
ENDBRANCH  30  31
ENDBRANCH   4  30
TORSDOF 18
ENDMDL
MODEL 3
REMARK VINA RESULT:    -5.702      2.343      3.731
REMARK INTER + INTRA:         -12.534
REMARK INTER:                 -10.098
REMARK INTRA:                  -2.436
REMARK UNBOUND:                -2.666
REMARK SMILES OC[C@@H]1O[C@@H](O)[C@@H](O)[C@H](O)[C@H]1O[C@@H]1O[C@@H](CO)[C@@H](O[C@@H]2O[C@H](CO)[C@@H](O)[C@@H](O)[C@H]2O)[C@@H](O)[C@H]1O
REMARK SMILES IDX 18 1 15 2 14 3 13 4 33 5 31 6 19 7 20 8 22 9 25 10 21 11
REMARK SMILES IDX 27 12 29 13 23 14 24 15 26 17 28 19 30 21 16 23 17 24 32 26
REMARK SMILES IDX 34 28 12 30 11 31 3 32 9 33 4 34 7 35 5 36 2 37 1 38 10 40
REMARK SMILES IDX 8 42 6 44
REMARK H PARENT 24 16 26 18 28 20 30 22 17 25 32 27 34 29 1 39 10 41 8 43 6 45
REMARK Flexibility Score: inf
ROOT
ATOM      1  C   UNL     1     239.797 232.854 240.674  1.00  0.00     0.184 C 
ATOM      2  C   UNL     1     238.825 233.794 241.429  1.00  0.00     0.178 C 
ATOM      3  O   UNL     1     238.320 234.837 240.607  1.00  0.00    -0.341 OA
ATOM      4  C   UNL     1     239.269 235.398 239.700  1.00  0.00     0.282 C 
ATOM      5  C   UNL     1     240.744 235.180 240.109  1.00  0.00     0.202 C 
ATOM      6  C   UNL     1     241.053 233.665 240.246  1.00  0.00     0.180 C 
ENDROOT
BRANCH   1   7
ATOM      7  O   UNL     1     239.132 232.306 239.542  1.00  0.00    -0.341 OA
BRANCH   7   8
ATOM      8  C   UNL     1     239.293 230.896 239.446  1.00  0.00     0.282 C 
ATOM      9  C   UNL     1     239.002 230.758 237.072  1.00  0.00     0.178 C 
ATOM     10  C   UNL     1     237.635 230.050 237.214  1.00  0.00     0.177 C 
ATOM     11  O   UNL     1     239.859 230.544 238.189  1.00  0.00    -0.341 OA
ATOM     12  C   UNL     1     236.978 230.400 238.556  1.00  0.00     0.179 C 
ATOM     13  C   UNL     1     237.964 230.167 239.714  1.00  0.00     0.202 C 
BRANCH   9  14
ATOM     14  C   UNL     1     238.903 232.248 236.678  1.00  0.00     0.191 C 
BRANCH  14  15
ATOM     15  O   UNL     1     240.175 232.839 236.726  1.00  0.00    -0.394 OA
ATOM     16  H   UNL     1     240.099 233.615 237.338  1.00  0.00     0.210 HD
ENDBRANCH  14  15
ENDBRANCH   9  14
BRANCH  10  17
ATOM     17  O   UNL     1     237.829 228.662 237.109  1.00  0.00    -0.387 OA
ATOM     18  H   UNL     1     237.265 228.343 236.359  1.00  0.00     0.211 HD
ENDBRANCH  10  17
BRANCH  12  19
ATOM     19  O   UNL     1     235.814 229.637 238.732  1.00  0.00    -0.387 OA
ATOM     20  H   UNL     1     235.702 229.093 237.910  1.00  0.00     0.211 HD
ENDBRANCH  12  19
BRANCH  13  21
ATOM     21  O   UNL     1     238.218 228.795 239.878  1.00  0.00    -0.385 OA
ATOM     22  H   UNL     1     237.699 228.497 240.670  1.00  0.00     0.211 HD
ENDBRANCH  13  21
ENDBRANCH   7   8
ENDBRANCH   1   7
BRANCH   2  23
ATOM     23  C   UNL     1     237.650 233.032 242.063  1.00  0.00     0.191 C 
BRANCH  23  24
ATOM     24  O   UNL     1     237.234 233.638 243.257  1.00  0.00    -0.394 OA
ATOM     25  H   UNL     1     236.357 233.234 243.496  1.00  0.00     0.210 HD
ENDBRANCH  23  24
ENDBRANCH   2  23
BRANCH   6  26
ATOM     26  O   UNL     1     241.578 233.152 239.046  1.00  0.00    -0.387 OA
ATOM     27  H   UNL     1     240.953 232.447 238.731  1.00  0.00     0.211 HD
ENDBRANCH   6  26
BRANCH   5  28
ATOM     28  O   UNL     1     241.596 235.764 239.152  1.00  0.00    -0.385 OA
ATOM     29  H   UNL     1     242.406 235.191 239.090  1.00  0.00     0.211 HD
ENDBRANCH   5  28
BRANCH   4  30
ATOM     30  O   UNL     1     239.034 236.792 239.615  1.00  0.00    -0.341 OA
BRANCH  30  31
ATOM     31  C   UNL     1     237.715 237.131 240.018  1.00  0.00     0.184 C 
ATOM     32  C   UNL     1     237.784 238.156 241.173  1.00  0.00     0.178 C 
ATOM     33  C   UNL     1     236.984 237.761 238.821  1.00  0.00     0.180 C 
ATOM     34  O   UNL     1     236.483 238.586 241.544  1.00  0.00    -0.342 OA
ATOM     35  C   UNL     1     235.638 238.353 239.265  1.00  0.00     0.201 C 
ATOM     36  C   UNL     1     235.836 239.272 240.484  1.00  0.00     0.279 C 
BRANCH  32  37
ATOM     37  C   UNL     1     238.461 237.539 242.408  1.00  0.00     0.191 C 
BRANCH  37  38
ATOM     38  O   UNL     1     237.616 236.596 243.012  1.00  0.00    -0.394 OA
ATOM     39  H   UNL     1     236.741 236.659 242.545  1.00  0.00     0.210 HD
ENDBRANCH  37  38
ENDBRANCH  32  37
BRANCH  33  40
ATOM     40  O   UNL     1     236.757 236.777 237.843  1.00  0.00    -0.387 OA
ATOM     41  H   UNL     1     236.255 236.037 238.273  1.00  0.00     0.211 HD
ENDBRANCH  33  40
BRANCH  35  42
ATOM     42  O   UNL     1     235.061 239.087 238.214  1.00  0.00    -0.385 OA
ATOM     43  H   UNL     1     235.803 239.546 237.742  1.00  0.00     0.211 HD
ENDBRANCH  35  42
BRANCH  36  44
ATOM     44  O   UNL     1     236.539 240.437 240.126  1.00  0.00    -0.366 OA
ATOM     45  H   UNL     1     236.504 241.038 240.914  1.00  0.00     0.213 HD
ENDBRANCH  36  44
ENDBRANCH  30  31
ENDBRANCH   4  30
TORSDOF 18
ENDMDL
MODEL 4
REMARK VINA RESULT:    -5.585      2.775      7.388
REMARK INTER + INTRA:         -12.333
REMARK INTER:                  -9.307
REMARK INTRA:                  -3.026
REMARK UNBOUND:                -2.666
REMARK SMILES OC[C@@H]1O[C@@H](O)[C@@H](O)[C@H](O)[C@H]1O[C@@H]1O[C@@H](CO)[C@@H](O[C@@H]2O[C@H](CO)[C@@H](O)[C@@H](O)[C@H]2O)[C@@H](O)[C@H]1O
REMARK SMILES IDX 18 1 15 2 14 3 13 4 33 5 31 6 19 7 20 8 22 9 25 10 21 11
REMARK SMILES IDX 27 12 29 13 23 14 24 15 26 17 28 19 30 21 16 23 17 24 32 26
REMARK SMILES IDX 34 28 12 30 11 31 3 32 9 33 4 34 7 35 5 36 2 37 1 38 10 40
REMARK SMILES IDX 8 42 6 44
REMARK H PARENT 24 16 26 18 28 20 30 22 17 25 32 27 34 29 1 39 10 41 8 43 6 45
REMARK Flexibility Score: inf
ROOT
ATOM      1  C   UNL     1     239.468 234.171 240.955  1.00  0.00     0.184 C 
ATOM      2  C   UNL     1     240.639 233.924 239.972  1.00  0.00     0.178 C 
ATOM      3  O   UNL     1     240.201 233.733 238.633  1.00  0.00    -0.341 OA
ATOM      4  C   UNL     1     239.005 232.967 238.498  1.00  0.00     0.282 C 
ATOM      5  C   UNL     1     238.693 232.056 239.708  1.00  0.00     0.202 C 
ATOM      6  C   UNL     1     238.577 232.897 241.007  1.00  0.00     0.180 C 
ENDROOT
BRANCH   1   7
ATOM      7  O   UNL     1     238.722 235.300 240.518  1.00  0.00    -0.341 OA
BRANCH   7   8
ATOM      8  C   UNL     1     238.269 236.104 241.600  1.00  0.00     0.282 C 
ATOM      9  C   UNL     1     236.229 236.816 240.565  1.00  0.00     0.178 C 
ATOM     10  C   UNL     1     236.739 238.267 240.406  1.00  0.00     0.177 C 
ATOM     11  O   UNL     1     236.847 236.123 241.645  1.00  0.00    -0.341 OA
ATOM     12  C   UNL     1     238.272 238.302 240.348  1.00  0.00     0.179 C 
ATOM     13  C   UNL     1     238.871 237.519 241.530  1.00  0.00     0.202 C 
BRANCH   9  14
ATOM     14  C   UNL     1     236.236 235.997 239.255  1.00  0.00     0.191 C 
BRANCH  14  15
ATOM     15  O   UNL     1     235.778 234.696 239.505  1.00  0.00    -0.394 OA
ATOM     16  H   UNL     1     234.838 234.784 239.810  1.00  0.00     0.210 HD
ENDBRANCH  14  15
ENDBRANCH   9  14
BRANCH  10  17
ATOM     17  O   UNL     1     236.270 239.034 241.487  1.00  0.00    -0.387 OA
ATOM     18  H   UNL     1     236.699 238.680 242.307  1.00  0.00     0.211 HD
ENDBRANCH  10  17
BRANCH  12  19
ATOM     19  O   UNL     1     238.721 239.631 240.354  1.00  0.00    -0.387 OA
ATOM     20  H   UNL     1     238.952 239.851 241.294  1.00  0.00     0.211 HD
ENDBRANCH  12  19
BRANCH  13  21
ATOM     21  O   UNL     1     238.623 238.185 242.741  1.00  0.00    -0.385 OA
ATOM     22  H   UNL     1     238.126 237.552 243.323  1.00  0.00     0.211 HD
ENDBRANCH  13  21
ENDBRANCH   7   8
ENDBRANCH   1   7
BRANCH   2  23
ATOM     23  C   UNL     1     241.681 235.054 240.008  1.00  0.00     0.191 C 
BRANCH  23  24
ATOM     24  O   UNL     1     241.263 236.158 239.253  1.00  0.00    -0.394 OA
ATOM     25  H   UNL     1     240.277 236.231 239.367  1.00  0.00     0.210 HD
ENDBRANCH  23  24
ENDBRANCH   2  23
BRANCH   6  26
ATOM     26  O   UNL     1     237.238 233.250 241.257  1.00  0.00    -0.387 OA
ATOM     27  H   UNL     1     236.875 232.585 241.899  1.00  0.00     0.211 HD
ENDBRANCH   6  26
BRANCH   5  28
ATOM     28  O   UNL     1     237.496 231.350 239.480  1.00  0.00    -0.385 OA
ATOM     29  H   UNL     1     237.640 230.417 239.792  1.00  0.00     0.211 HD
ENDBRANCH   5  28
BRANCH   4  30
ATOM     30  O   UNL     1     239.125 232.149 237.348  1.00  0.00    -0.341 OA
BRANCH  30  31
ATOM     31  C   UNL     1     238.624 232.796 236.186  1.00  0.00     0.184 C 
ATOM     32  C   UNL     1     239.453 232.350 234.960  1.00  0.00     0.178 C 
ATOM     33  C   UNL     1     237.158 232.379 235.989  1.00  0.00     0.180 C 
ATOM     34  O   UNL     1     238.925 232.908 233.765  1.00  0.00    -0.342 OA
ATOM     35  C   UNL     1     236.641 232.864 234.626  1.00  0.00     0.201 C 
ATOM     36  C   UNL     1     237.610 232.442 233.507  1.00  0.00     0.279 C 
BRANCH  32  37
ATOM     37  C   UNL     1     240.916 232.801 235.100  1.00  0.00     0.191 C 
BRANCH  37  38
ATOM     38  O   UNL     1     240.996 233.991 235.837  1.00  0.00    -0.394 OA
ATOM     39  H   UNL     1     241.893 234.378 235.655  1.00  0.00     0.210 HD
ENDBRANCH  37  38
ENDBRANCH  32  37
BRANCH  33  40
ATOM     40  O   UNL     1     236.371 232.942 237.009  1.00  0.00    -0.387 OA
ATOM     41  H   UNL     1     236.719 233.853 237.188  1.00  0.00     0.211 HD
ENDBRANCH  33  40
BRANCH  35  42
ATOM     42  O   UNL     1     235.367 232.325 234.370  1.00  0.00    -0.385 OA
ATOM     43  H   UNL     1     235.502 231.372 234.130  1.00  0.00     0.211 HD
ENDBRANCH  35  42
BRANCH  36  44
ATOM     44  O   UNL     1     237.589 231.047 233.324  1.00  0.00    -0.366 OA
ATOM     45  H   UNL     1     236.826 230.706 233.858  1.00  0.00     0.213 HD
ENDBRANCH  36  44
ENDBRANCH  30  31
ENDBRANCH   4  30
TORSDOF 18
ENDMDL
MODEL 5
REMARK VINA RESULT:    -5.548      2.547      7.011
REMARK INTER + INTRA:         -12.269
REMARK INTER:                  -9.329
REMARK INTRA:                  -2.940
REMARK UNBOUND:                -2.666
REMARK SMILES OC[C@@H]1O[C@@H](O)[C@@H](O)[C@H](O)[C@H]1O[C@@H]1O[C@@H](CO)[C@@H](O[C@@H]2O[C@H](CO)[C@@H](O)[C@@H](O)[C@H]2O)[C@@H](O)[C@H]1O
REMARK SMILES IDX 18 1 15 2 14 3 13 4 33 5 31 6 19 7 20 8 22 9 25 10 21 11
REMARK SMILES IDX 27 12 29 13 23 14 24 15 26 17 28 19 30 21 16 23 17 24 32 26
REMARK SMILES IDX 34 28 12 30 11 31 3 32 9 33 4 34 7 35 5 36 2 37 1 38 10 40
REMARK SMILES IDX 8 42 6 44
REMARK H PARENT 24 16 26 18 28 20 30 22 17 25 32 27 34 29 1 39 10 41 8 43 6 45
REMARK Flexibility Score: inf
ROOT
ATOM      1  C   UNL     1     239.413 234.167 240.936  1.00  0.00     0.184 C 
ATOM      2  C   UNL     1     240.620 234.017 239.977  1.00  0.00     0.178 C 
ATOM      3  O   UNL     1     240.226 233.818 238.626  1.00  0.00    -0.341 OA
ATOM      4  C   UNL     1     239.088 232.974 238.451  1.00  0.00     0.282 C 
ATOM      5  C   UNL     1     238.813 232.025 239.641  1.00  0.00     0.202 C 
ATOM      6  C   UNL     1     238.611 232.834 240.949  1.00  0.00     0.180 C 
ENDROOT
BRANCH   1   7
ATOM      7  O   UNL     1     238.601 235.249 240.498  1.00  0.00    -0.341 OA
BRANCH   7   8
ATOM      8  C   UNL     1     238.155 236.065 241.575  1.00  0.00     0.282 C 
ATOM      9  C   UNL     1     236.131 236.803 240.528  1.00  0.00     0.178 C 
ATOM     10  C   UNL     1     236.663 238.245 240.365  1.00  0.00     0.177 C 
ATOM     11  O   UNL     1     236.734 236.106 241.614  1.00  0.00    -0.341 OA
ATOM     12  C   UNL     1     238.196 238.257 240.313  1.00  0.00     0.179 C 
ATOM     13  C   UNL     1     238.779 237.470 241.500  1.00  0.00     0.202 C 
BRANCH   9  14
ATOM     14  C   UNL     1     236.131 235.978 239.222  1.00  0.00     0.191 C 
BRANCH  14  15
ATOM     15  O   UNL     1     235.739 234.659 239.492  1.00  0.00    -0.394 OA
ATOM     16  H   UNL     1     235.355 234.304 238.650  1.00  0.00     0.210 HD
ENDBRANCH  14  15
ENDBRANCH   9  14
BRANCH  10  17
ATOM     17  O   UNL     1     236.201 239.025 241.440  1.00  0.00    -0.387 OA
ATOM     18  H   UNL     1     236.046 239.940 241.092  1.00  0.00     0.211 HD
ENDBRANCH  10  17
BRANCH  12  19
ATOM     19  O   UNL     1     238.665 239.579 240.314  1.00  0.00    -0.387 OA
ATOM     20  H   UNL     1     237.865 240.166 240.317  1.00  0.00     0.211 HD
ENDBRANCH  12  19
BRANCH  13  21
ATOM     21  O   UNL     1     238.537 238.146 242.707  1.00  0.00    -0.385 OA
ATOM     22  H   UNL     1     237.671 237.808 243.059  1.00  0.00     0.211 HD
ENDBRANCH  13  21
ENDBRANCH   7   8
ENDBRANCH   1   7
BRANCH   2  23
ATOM     23  C   UNL     1     241.580 235.214 240.054  1.00  0.00     0.191 C 
BRANCH  23  24
ATOM     24  O   UNL     1     241.146 236.270 239.240  1.00  0.00    -0.394 OA
ATOM     25  H   UNL     1     240.902 235.875 238.360  1.00  0.00     0.210 HD
ENDBRANCH  23  24
ENDBRANCH   2  23
BRANCH   6  26
ATOM     26  O   UNL     1     237.246 233.091 241.172  1.00  0.00    -0.387 OA
ATOM     27  H   UNL     1     236.732 232.426 240.641  1.00  0.00     0.211 HD
ENDBRANCH   6  26
BRANCH   5  28
ATOM     28  O   UNL     1     237.673 231.242 239.374  1.00  0.00    -0.385 OA
ATOM     29  H   UNL     1     237.623 230.544 240.080  1.00  0.00     0.211 HD
ENDBRANCH   5  28
BRANCH   4  30
ATOM     30  O   UNL     1     239.291 232.185 237.293  1.00  0.00    -0.341 OA
BRANCH  30  31
ATOM     31  C   UNL     1     238.423 232.569 236.235  1.00  0.00     0.184 C 
ATOM     32  C   UNL     1     237.174 231.658 236.248  1.00  0.00     0.178 C 
ATOM     33  C   UNL     1     237.992 234.027 236.461  1.00  0.00     0.180 C 
ATOM     34  O   UNL     1     236.241 232.068 235.259  1.00  0.00    -0.342 OA
ATOM     35  C   UNL     1     236.877 234.416 235.477  1.00  0.00     0.201 C 
ATOM     36  C   UNL     1     235.745 233.373 235.516  1.00  0.00     0.279 C 
BRANCH  32  37
ATOM     37  C   UNL     1     237.563 230.197 235.970  1.00  0.00     0.191 C 
BRANCH  37  38
ATOM     38  O   UNL     1     237.926 229.550 237.160  1.00  0.00    -0.394 OA
ATOM     39  H   UNL     1     237.079 229.296 237.614  1.00  0.00     0.210 HD
ENDBRANCH  37  38
ENDBRANCH  32  37
BRANCH  33  40
ATOM     40  O   UNL     1     239.097 234.875 236.265  1.00  0.00    -0.387 OA
ATOM     41  H   UNL     1     239.023 235.259 235.355  1.00  0.00     0.211 HD
ENDBRANCH  33  40
BRANCH  35  42
ATOM     42  O   UNL     1     236.359 235.681 235.807  1.00  0.00    -0.385 OA
ATOM     43  H   UNL     1     237.119 236.223 236.143  1.00  0.00     0.211 HD
ENDBRANCH  35  42
BRANCH  36  44
ATOM     44  O   UNL     1     235.056 233.425 236.741  1.00  0.00    -0.366 OA
ATOM     45  H   UNL     1     235.740 233.316 237.452  1.00  0.00     0.213 HD
ENDBRANCH  36  44
ENDBRANCH  30  31
ENDBRANCH   4  30
TORSDOF 18
ENDMDL
MODEL 6
REMARK VINA RESULT:    -5.525      2.564      4.878
REMARK INTER + INTRA:         -12.228
REMARK INTER:                  -9.483
REMARK INTRA:                  -2.744
REMARK UNBOUND:                -2.666
REMARK SMILES OC[C@@H]1O[C@@H](O)[C@@H](O)[C@H](O)[C@H]1O[C@@H]1O[C@@H](CO)[C@@H](O[C@@H]2O[C@H](CO)[C@@H](O)[C@@H](O)[C@H]2O)[C@@H](O)[C@H]1O
REMARK SMILES IDX 18 1 15 2 14 3 13 4 33 5 31 6 19 7 20 8 22 9 25 10 21 11
REMARK SMILES IDX 27 12 29 13 23 14 24 15 26 17 28 19 30 21 16 23 17 24 32 26
REMARK SMILES IDX 34 28 12 30 11 31 3 32 9 33 4 34 7 35 5 36 2 37 1 38 10 40
REMARK SMILES IDX 8 42 6 44
REMARK H PARENT 24 16 26 18 28 20 30 22 17 25 32 27 34 29 1 39 10 41 8 43 6 45
REMARK Flexibility Score: inf
ROOT
ATOM      1  C   UNL     1     236.836 236.295 240.702  1.00  0.00     0.184 C 
ATOM      2  C   UNL     1     235.769 236.191 239.583  1.00  0.00     0.178 C 
ATOM      3  O   UNL     1     236.168 236.838 238.382  1.00  0.00    -0.341 OA
ATOM      4  C   UNL     1     236.864 238.070 238.569  1.00  0.00     0.282 C 
ATOM      5  C   UNL     1     236.610 238.742 239.938  1.00  0.00     0.202 C 
ATOM      6  C   UNL     1     237.008 237.789 241.095  1.00  0.00     0.180 C 
ENDROOT
BRANCH   1   7
ATOM      7  O   UNL     1     238.060 235.745 240.231  1.00  0.00    -0.341 OA
BRANCH   7   8
ATOM      8  C   UNL     1     238.646 234.845 241.165  1.00  0.00     0.282 C 
ATOM      9  C   UNL     1     240.906 235.130 240.425  1.00  0.00     0.178 C 
ATOM     10  C   UNL     1     240.963 233.703 239.833  1.00  0.00     0.177 C 
ATOM     11  O   UNL     1     239.969 235.255 241.490  1.00  0.00    -0.341 OA
ATOM     12  C   UNL     1     239.557 233.213 239.461  1.00  0.00     0.179 C 
ATOM     13  C   UNL     1     238.594 233.396 240.647  1.00  0.00     0.202 C 
BRANCH   9  14
ATOM     14  C   UNL     1     240.755 236.247 239.368  1.00  0.00     0.191 C 
BRANCH  14  15
ATOM     15  O   UNL     1     240.516 237.474 240.003  1.00  0.00    -0.394 OA
ATOM     16  H   UNL     1     239.768 237.901 239.512  1.00  0.00     0.210 HD
ENDBRANCH  14  15
ENDBRANCH   9  14
BRANCH  10  17
ATOM     17  O   UNL     1     241.550 232.842 240.776  1.00  0.00    -0.387 OA
ATOM     18  H   UNL     1     242.533 232.920 240.671  1.00  0.00     0.211 HD
ENDBRANCH  10  17
BRANCH  12  19
ATOM     19  O   UNL     1     239.608 231.867 239.066  1.00  0.00    -0.387 OA
ATOM     20  H   UNL     1     238.924 231.386 239.600  1.00  0.00     0.211 HD
ENDBRANCH  12  19
BRANCH  13  21
ATOM     21  O   UNL     1     238.926 232.521 241.694  1.00  0.00    -0.385 OA
ATOM     22  H   UNL     1     239.854 232.212 241.529  1.00  0.00     0.211 HD
ENDBRANCH  13  21
ENDBRANCH   7   8
ENDBRANCH   1   7
BRANCH   2  23
ATOM     23  C   UNL     1     235.389 234.734 239.272  1.00  0.00     0.191 C 
BRANCH  23  24
ATOM     24  O   UNL     1     236.207 234.196 238.269  1.00  0.00    -0.394 OA
ATOM     25  H   UNL     1     236.933 234.856 238.102  1.00  0.00     0.210 HD
ENDBRANCH  23  24
ENDBRANCH   2  23
BRANCH   6  26
ATOM     26  O   UNL     1     238.330 238.033 241.511  1.00  0.00    -0.387 OA
ATOM     27  H   UNL     1     238.580 238.936 241.179  1.00  0.00     0.211 HD
ENDBRANCH   6  26
BRANCH   5  28
ATOM     28  O   UNL     1     237.342 239.943 240.024  1.00  0.00    -0.385 OA
ATOM     29  H   UNL     1     236.879 240.612 239.453  1.00  0.00     0.211 HD
ENDBRANCH   5  28
BRANCH   4  30
ATOM     30  O   UNL     1     236.461 238.969 237.552  1.00  0.00    -0.341 OA
BRANCH  30  31
ATOM     31  C   UNL     1     235.555 238.363 236.640  1.00  0.00     0.184 C 
ATOM     32  C   UNL     1     234.400 239.347 236.343  1.00  0.00     0.178 C 
ATOM     33  C   UNL     1     236.308 238.052 235.337  1.00  0.00     0.180 C 
ATOM     34  O   UNL     1     233.519 238.810 235.367  1.00  0.00    -0.342 OA
ATOM     35  C   UNL     1     235.324 237.610 234.242  1.00  0.00     0.201 C 
ATOM     36  C   UNL     1     234.172 238.623 234.120  1.00  0.00     0.279 C 
BRANCH  32  37
ATOM     37  C   UNL     1     233.591 239.638 237.617  1.00  0.00     0.191 C 
BRANCH  37  38
ATOM     38  O   UNL     1     233.466 238.477 238.395  1.00  0.00    -0.394 OA
ATOM     39  H   UNL     1     233.309 237.727 237.763  1.00  0.00     0.210 HD
ENDBRANCH  37  38
ENDBRANCH  32  37
BRANCH  33  40
ATOM     40  O   UNL     1     237.235 237.021 235.569  1.00  0.00    -0.387 OA
ATOM     41  H   UNL     1     237.723 237.238 236.404  1.00  0.00     0.211 HD
ENDBRANCH  33  40
BRANCH  35  42
ATOM     42  O   UNL     1     235.988 237.506 233.007  1.00  0.00    -0.385 OA
ATOM     43  H   UNL     1     236.951 237.671 233.183  1.00  0.00     0.211 HD
ENDBRANCH  35  42
BRANCH  36  44
ATOM     44  O   UNL     1     234.630 239.845 233.595  1.00  0.00    -0.366 OA
ATOM     45  H   UNL     1     234.367 240.546 234.247  1.00  0.00     0.213 HD
ENDBRANCH  36  44
ENDBRANCH  30  31
ENDBRANCH   4  30
TORSDOF 18
ENDMDL
MODEL 7
REMARK VINA RESULT:    -5.502      2.109      4.276
REMARK INTER + INTRA:         -12.189
REMARK INTER:                  -9.549
REMARK INTRA:                  -2.639
REMARK UNBOUND:                -2.666
REMARK SMILES OC[C@@H]1O[C@@H](O)[C@@H](O)[C@H](O)[C@H]1O[C@@H]1O[C@@H](CO)[C@@H](O[C@@H]2O[C@H](CO)[C@@H](O)[C@@H](O)[C@H]2O)[C@@H](O)[C@H]1O
REMARK SMILES IDX 18 1 15 2 14 3 13 4 33 5 31 6 19 7 20 8 22 9 25 10 21 11
REMARK SMILES IDX 27 12 29 13 23 14 24 15 26 17 28 19 30 21 16 23 17 24 32 26
REMARK SMILES IDX 34 28 12 30 11 31 3 32 9 33 4 34 7 35 5 36 2 37 1 38 10 40
REMARK SMILES IDX 8 42 6 44
REMARK H PARENT 24 16 26 18 28 20 30 22 17 25 32 27 34 29 1 39 10 41 8 43 6 45
REMARK Flexibility Score: inf
ROOT
ATOM      1  C   UNL     1     237.673 232.176 237.495  1.00  0.00     0.184 C 
ATOM      2  C   UNL     1     237.878 233.693 237.264  1.00  0.00     0.178 C 
ATOM      3  O   UNL     1     237.453 234.479 238.370  1.00  0.00    -0.341 OA
ATOM      4  C   UNL     1     236.256 234.026 239.002  1.00  0.00     0.282 C 
ATOM      5  C   UNL     1     235.364 233.133 238.108  1.00  0.00     0.202 C 
ATOM      6  C   UNL     1     236.151 231.887 237.625  1.00  0.00     0.180 C 
ENDROOT
BRANCH   1   7
ATOM      7  O   UNL     1     238.371 231.785 238.672  1.00  0.00    -0.341 OA
BRANCH   7   8
ATOM      8  C   UNL     1     239.037 230.537 238.519  1.00  0.00     0.282 C 
ATOM      9  C   UNL     1     238.727 229.794 240.775  1.00  0.00     0.178 C 
ATOM     10  C   UNL     1     240.230 229.945 241.102  1.00  0.00     0.177 C 
ATOM     11  O   UNL     1     238.477 229.563 239.392  1.00  0.00    -0.341 OA
ATOM     12  C   UNL     1     240.883 230.990 240.188  1.00  0.00     0.179 C 
ATOM     13  C   UNL     1     240.556 230.693 238.714  1.00  0.00     0.202 C 
BRANCH   9  14
ATOM     14  C   UNL     1     237.838 230.915 241.359  1.00  0.00     0.191 C 
BRANCH  14  15
ATOM     15  O   UNL     1     236.487 230.620 241.127  1.00  0.00    -0.394 OA
ATOM     16  H   UNL     1     235.965 231.333 241.577  1.00  0.00     0.210 HD
ENDBRANCH  14  15
ENDBRANCH   9  14
BRANCH  10  17
ATOM     17  O   UNL     1     240.857 228.696 240.947  1.00  0.00    -0.387 OA
ATOM     18  H   UNL     1     241.735 228.750 241.403  1.00  0.00     0.211 HD
ENDBRANCH  10  17
BRANCH  12  19
ATOM     19  O   UNL     1     242.271 231.007 240.396  1.00  0.00    -0.387 OA
ATOM     20  H   UNL     1     242.418 231.344 241.317  1.00  0.00     0.211 HD
ENDBRANCH  12  19
BRANCH  13  21
ATOM     21  O   UNL     1     241.197 229.516 238.293  1.00  0.00    -0.385 OA
ATOM     22  H   UNL     1     240.555 229.028 237.713  1.00  0.00     0.211 HD
ENDBRANCH  13  21
ENDBRANCH   7   8
ENDBRANCH   1   7
BRANCH   2  23
ATOM     23  C   UNL     1     239.337 234.041 236.926  1.00  0.00     0.191 C 
BRANCH  23  24
ATOM     24  O   UNL     1     240.111 234.180 238.086  1.00  0.00    -0.394 OA
ATOM     25  H   UNL     1     239.532 234.611 238.771  1.00  0.00     0.210 HD
ENDBRANCH  23  24
ENDBRANCH   2  23
BRANCH   6  26
ATOM     26  O   UNL     1     235.935 230.795 238.486  1.00  0.00    -0.387 OA
ATOM     27  H   UNL     1     235.739 230.006 237.914  1.00  0.00     0.211 HD
ENDBRANCH   6  26
BRANCH   5  28
ATOM     28  O   UNL     1     234.217 232.737 238.822  1.00  0.00    -0.385 OA
ATOM     29  H   UNL     1     234.359 232.988 239.773  1.00  0.00     0.211 HD
ENDBRANCH   5  28
BRANCH   4  30
ATOM     30  O   UNL     1     235.501 235.158 239.392  1.00  0.00    -0.341 OA
BRANCH  30  31
ATOM     31  C   UNL     1     236.308 236.323 239.490  1.00  0.00     0.184 C 
ATOM     32  C   UNL     1     235.550 237.519 238.869  1.00  0.00     0.178 C 
ATOM     33  C   UNL     1     236.579 236.607 240.976  1.00  0.00     0.180 C 
ATOM     34  O   UNL     1     236.289 238.721 239.027  1.00  0.00    -0.342 OA
ATOM     35  C   UNL     1     237.250 237.979 241.146  1.00  0.00     0.201 C 
ATOM     36  C   UNL     1     236.451 239.060 240.396  1.00  0.00     0.279 C 
BRANCH  32  37
ATOM     37  C   UNL     1     235.310 237.292 237.368  1.00  0.00     0.191 C 
BRANCH  37  38
ATOM     38  O   UNL     1     236.454 236.749 236.764  1.00  0.00    -0.394 OA
ATOM     39  H   UNL     1     237.174 236.772 237.448  1.00  0.00     0.210 HD
ENDBRANCH  37  38
ENDBRANCH  32  37
BRANCH  33  40
ATOM     40  O   UNL     1     237.425 235.611 241.494  1.00  0.00    -0.387 OA
ATOM     41  H   UNL     1     237.427 235.702 242.481  1.00  0.00     0.211 HD
ENDBRANCH  33  40
BRANCH  35  42
ATOM     42  O   UNL     1     237.327 238.315 242.510  1.00  0.00    -0.385 OA
ATOM     43  H   UNL     1     237.958 237.674 242.928  1.00  0.00     0.211 HD
ENDBRANCH  35  42
BRANCH  36  44
ATOM     44  O   UNL     1     235.208 239.287 241.016  1.00  0.00    -0.366 OA
ATOM     45  H   UNL     1     235.332 239.073 241.977  1.00  0.00     0.213 HD
ENDBRANCH  36  44
ENDBRANCH  30  31
ENDBRANCH   4  30
TORSDOF 18
ENDMDL
MODEL 8
REMARK VINA RESULT:    -5.387      2.597      4.433
REMARK INTER + INTRA:         -11.989
REMARK INTER:                 -10.277
REMARK INTRA:                  -1.712
REMARK UNBOUND:                -2.666
REMARK SMILES OC[C@@H]1O[C@@H](O)[C@@H](O)[C@H](O)[C@H]1O[C@@H]1O[C@@H](CO)[C@@H](O[C@@H]2O[C@H](CO)[C@@H](O)[C@@H](O)[C@H]2O)[C@@H](O)[C@H]1O
REMARK SMILES IDX 18 1 15 2 14 3 13 4 33 5 31 6 19 7 20 8 22 9 25 10 21 11
REMARK SMILES IDX 27 12 29 13 23 14 24 15 26 17 28 19 30 21 16 23 17 24 32 26
REMARK SMILES IDX 34 28 12 30 11 31 3 32 9 33 4 34 7 35 5 36 2 37 1 38 10 40
REMARK SMILES IDX 8 42 6 44
REMARK H PARENT 24 16 26 18 28 20 30 22 17 25 32 27 34 29 1 39 10 41 8 43 6 45
REMARK Flexibility Score: inf
ROOT
ATOM      1  C   UNL     1     235.589 238.041 234.839  1.00  0.00     0.184 C 
ATOM      2  C   UNL     1     235.987 239.506 235.146  1.00  0.00     0.178 C 
ATOM      3  O   UNL     1     235.781 239.857 236.507  1.00  0.00    -0.341 OA
ATOM      4  C   UNL     1     234.595 239.320 237.092  1.00  0.00     0.282 C 
ATOM      5  C   UNL     1     233.507 238.922 236.068  1.00  0.00     0.202 C 
ATOM      6  C   UNL     1     234.059 237.877 235.064  1.00  0.00     0.180 C 
ENDROOT
BRANCH   1   7
ATOM      7  O   UNL     1     236.328 237.170 235.686  1.00  0.00    -0.341 OA
BRANCH   7   8
ATOM      8  C   UNL     1     236.612 235.920 235.067  1.00  0.00     0.282 C 
ATOM      9  C   UNL     1     236.325 234.580 237.032  1.00  0.00     0.178 C 
ATOM     10  C   UNL     1     237.836 234.268 237.121  1.00  0.00     0.177 C 
ATOM     11  O   UNL     1     235.893 234.873 235.707  1.00  0.00    -0.341 OA
ATOM     12  C   UNL     1     238.660 235.374 236.447  1.00  0.00     0.179 C 
ATOM     13  C   UNL     1     238.127 235.652 235.031  1.00  0.00     0.202 C 
BRANCH   9  14
ATOM     14  C   UNL     1     235.834 235.624 238.059  1.00  0.00     0.191 C 
BRANCH  14  15
ATOM     15  O   UNL     1     235.471 234.984 239.253  1.00  0.00    -0.394 OA
ATOM     16  H   UNL     1     234.495 235.124 239.359  1.00  0.00     0.210 HD
ENDBRANCH  14  15
ENDBRANCH   9  14
BRANCH  10  17
ATOM     17  O   UNL     1     238.082 233.028 236.506  1.00  0.00    -0.387 OA
ATOM     18  H   UNL     1     238.911 232.662 236.906  1.00  0.00     0.211 HD
ENDBRANCH  10  17
BRANCH  12  19
ATOM     19  O   UNL     1     240.013 235.004 236.405  1.00  0.00    -0.387 OA
ATOM     20  H   UNL     1     240.492 235.602 237.037  1.00  0.00     0.211 HD
ENDBRANCH  12  19
BRANCH  13  21
ATOM     21  O   UNL     1     238.381 234.561 234.183  1.00  0.00    -0.385 OA
ATOM     22  H   UNL     1     238.874 233.887 234.720  1.00  0.00     0.211 HD
ENDBRANCH  13  21
ENDBRANCH   7   8
ENDBRANCH   1   7
BRANCH   2  23
ATOM     23  C   UNL     1     237.443 239.809 234.758  1.00  0.00     0.191 C 
BRANCH  23  24
ATOM     24  O   UNL     1     237.692 241.189 234.750  1.00  0.00    -0.394 OA
ATOM     25  H   UNL     1     238.522 241.330 234.220  1.00  0.00     0.210 HD
ENDBRANCH  23  24
ENDBRANCH   2  23
BRANCH   6  26
ATOM     26  O   UNL     1     233.769 236.569 235.493  1.00  0.00    -0.387 OA
ATOM     27  H   UNL     1     233.223 236.647 236.320  1.00  0.00     0.211 HD
ENDBRANCH   6  26
BRANCH   5  28
ATOM     28  O   UNL     1     232.384 238.402 236.741  1.00  0.00    -0.385 OA
ATOM     29  H   UNL     1     232.710 237.995 237.587  1.00  0.00     0.211 HD
ENDBRANCH   5  28
BRANCH   4  30
ATOM     30  O   UNL     1     234.048 240.292 237.965  1.00  0.00    -0.341 OA
BRANCH  30  31
ATOM     31  C   UNL     1     233.993 239.825 239.305  1.00  0.00     0.184 C 
ATOM     32  C   UNL     1     235.034 240.592 240.153  1.00  0.00     0.178 C 
ATOM     33  C   UNL     1     232.585 240.095 239.860  1.00  0.00     0.180 C 
ATOM     34  O   UNL     1     234.948 240.215 241.519  1.00  0.00    -0.342 OA
ATOM     35  C   UNL     1     232.542 239.822 241.372  1.00  0.00     0.201 C 
ATOM     36  C   UNL     1     233.691 240.562 242.080  1.00  0.00     0.279 C 
BRANCH  32  37
ATOM     37  C   UNL     1     236.460 240.300 239.659  1.00  0.00     0.191 C 
BRANCH  37  38
ATOM     38  O   UNL     1     236.885 241.296 238.767  1.00  0.00    -0.394 OA
ATOM     39  H   UNL     1     236.373 241.161 237.926  1.00  0.00     0.210 HD
ENDBRANCH  37  38
ENDBRANCH  32  37
BRANCH  33  40
ATOM     40  O   UNL     1     231.660 239.258 239.212  1.00  0.00    -0.387 OA
ATOM     41  H   UNL     1     231.660 239.498 238.250  1.00  0.00     0.211 HD
ENDBRANCH  33  40
BRANCH  35  42
ATOM     42  O   UNL     1     231.312 240.246 241.906  1.00  0.00    -0.385 OA
ATOM     43  H   UNL     1     230.788 239.427 242.103  1.00  0.00     0.211 HD
ENDBRANCH  35  42
BRANCH  36  44
ATOM     44  O   UNL     1     233.486 241.954 242.050  1.00  0.00    -0.366 OA
ATOM     45  H   UNL     1     234.012 242.298 241.283  1.00  0.00     0.213 HD
ENDBRANCH  36  44
ENDBRANCH  30  31
ENDBRANCH   4  30
TORSDOF 18
ENDMDL
MODEL 9
REMARK VINA RESULT:    -5.361      2.001      7.156
REMARK INTER + INTRA:         -11.945
REMARK INTER:                  -9.397
REMARK INTRA:                  -2.548
REMARK UNBOUND:                -2.666
REMARK SMILES OC[C@@H]1O[C@@H](O)[C@@H](O)[C@H](O)[C@H]1O[C@@H]1O[C@@H](CO)[C@@H](O[C@@H]2O[C@H](CO)[C@@H](O)[C@@H](O)[C@H]2O)[C@@H](O)[C@H]1O
REMARK SMILES IDX 18 1 15 2 14 3 13 4 33 5 31 6 19 7 20 8 22 9 25 10 21 11
REMARK SMILES IDX 27 12 29 13 23 14 24 15 26 17 28 19 30 21 16 23 17 24 32 26
REMARK SMILES IDX 34 28 12 30 11 31 3 32 9 33 4 34 7 35 5 36 2 37 1 38 10 40
REMARK SMILES IDX 8 42 6 44
REMARK H PARENT 24 16 26 18 28 20 30 22 17 25 32 27 34 29 1 39 10 41 8 43 6 45
REMARK Flexibility Score: inf
ROOT
ATOM      1  C   UNL     1     238.505 236.686 241.132  1.00  0.00     0.184 C 
ATOM      2  C   UNL     1     239.878 236.304 240.527  1.00  0.00     0.178 C 
ATOM      3  O   UNL     1     239.773 235.336 239.493  1.00  0.00    -0.341 OA
ATOM      4  C   UNL     1     238.806 234.312 239.727  1.00  0.00     0.282 C 
ATOM      5  C   UNL     1     238.438 234.115 241.215  1.00  0.00     0.202 C 
ATOM      6  C   UNL     1     237.892 235.434 241.822  1.00  0.00     0.180 C 
ENDROOT
BRANCH   1   7
ATOM      7  O   UNL     1     237.656 237.166 240.096  1.00  0.00    -0.341 OA
BRANCH   7   8
ATOM      8  C   UNL     1     236.802 238.216 240.535  1.00  0.00     0.282 C 
ATOM      9  C   UNL     1     234.996 237.730 239.039  1.00  0.00     0.178 C 
ATOM     10  C   UNL     1     235.249 239.011 238.211  1.00  0.00     0.177 C 
ATOM     11  O   UNL     1     235.438 237.842 240.388  1.00  0.00    -0.341 OA
ATOM     12  C   UNL     1     236.713 239.456 238.332  1.00  0.00     0.179 C 
ATOM     13  C   UNL     1     237.128 239.535 239.812  1.00  0.00     0.202 C 
BRANCH   9  14
ATOM     14  C   UNL     1     235.486 236.432 238.360  1.00  0.00     0.191 C 
BRANCH  14  15
ATOM     15  O   UNL     1     235.415 235.365 239.267  1.00  0.00    -0.394 OA
ATOM     16  H   UNL     1     234.642 235.552 239.859  1.00  0.00     0.210 HD
ENDBRANCH  14  15
ENDBRANCH   9  14
BRANCH  10  17
ATOM     17  O   UNL     1     234.388 240.024 238.665  1.00  0.00    -0.387 OA
ATOM     18  H   UNL     1     234.357 240.721 237.961  1.00  0.00     0.211 HD
ENDBRANCH  10  17
BRANCH  12  19
ATOM     19  O   UNL     1     236.890 240.696 237.699  1.00  0.00    -0.387 OA
ATOM     20  H   UNL     1     237.837 240.954 237.838  1.00  0.00     0.211 HD
ENDBRANCH  12  19
BRANCH  13  21
ATOM     21  O   UNL     1     236.462 240.590 240.457  1.00  0.00    -0.385 OA
ATOM     22  H   UNL     1     237.156 241.245 240.732  1.00  0.00     0.211 HD
ENDBRANCH  13  21
ENDBRANCH   7   8
ENDBRANCH   1   7
BRANCH   2  23
ATOM     23  C   UNL     1     240.645 237.528 240.001  1.00  0.00     0.191 C 
BRANCH  23  24
ATOM     24  O   UNL     1     240.309 238.687 240.714  1.00  0.00    -0.394 OA
ATOM     25  H   UNL     1     239.330 238.823 240.600  1.00  0.00     0.210 HD
ENDBRANCH  23  24
ENDBRANCH   2  23
BRANCH   6  26
ATOM     26  O   UNL     1     236.488 235.476 241.747  1.00  0.00    -0.387 OA
ATOM     27  H   UNL     1     236.200 234.695 241.203  1.00  0.00     0.211 HD
ENDBRANCH   6  26
BRANCH   5  28
ATOM     28  O   UNL     1     237.478 233.091 241.339  1.00  0.00    -0.385 OA
ATOM     29  H   UNL     1     236.922 233.108 240.515  1.00  0.00     0.211 HD
ENDBRANCH   5  28
BRANCH   4  30
ATOM     30  O   UNL     1     239.321 233.090 239.231  1.00  0.00    -0.341 OA
BRANCH  30  31
ATOM     31  C   UNL     1     238.601 232.636 238.093  1.00  0.00     0.184 C 
ATOM     32  C   UNL     1     237.453 231.710 238.555  1.00  0.00     0.178 C 
ATOM     33  C   UNL     1     238.011 233.857 237.370  1.00  0.00     0.180 C 
ATOM     34  O   UNL     1     236.656 231.306 237.451  1.00  0.00    -0.342 OA
ATOM     35  C   UNL     1     237.036 233.410 236.270  1.00  0.00     0.201 C 
ATOM     36  C   UNL     1     236.011 232.413 236.840  1.00  0.00     0.279 C 
BRANCH  32  37
ATOM     37  C   UNL     1     238.011 230.449 239.236  1.00  0.00     0.191 C 
BRANCH  37  38
ATOM     38  O   UNL     1     237.374 230.232 240.466  1.00  0.00    -0.394 OA
ATOM     39  H   UNL     1     237.507 229.273 240.689  1.00  0.00     0.210 HD
ENDBRANCH  37  38
ENDBRANCH  32  37
BRANCH  33  40
ATOM     40  O   UNL     1     239.052 234.603 236.789  1.00  0.00    -0.387 OA
ATOM     41  H   UNL     1     239.659 234.889 237.519  1.00  0.00     0.211 HD
ENDBRANCH  33  40
BRANCH  35  42
ATOM     42  O   UNL     1     236.361 234.523 235.738  1.00  0.00    -0.385 OA
ATOM     43  H   UNL     1     235.390 234.349 235.846  1.00  0.00     0.211 HD
ENDBRANCH  35  42
BRANCH  36  44
ATOM     44  O   UNL     1     235.134 233.052 237.736  1.00  0.00    -0.366 OA
ATOM     45  H   UNL     1     235.600 233.080 238.611  1.00  0.00     0.213 HD
ENDBRANCH  36  44
ENDBRANCH  30  31
ENDBRANCH   4  30
TORSDOF 18
ENDMDL
