MODEL 1
REMARK VINA RESULT:    -3.986      0.000      0.000
REMARK INTER + INTRA:          -5.547
REMARK INTER:                  -5.151
REMARK INTRA:                  -0.396
REMARK UNBOUND:                -0.396
REMARK SMILES CCCCCCC(=O)[O-]
REMARK SMILES IDX 5 1 6 2 7 3 8 4 9 5 4 6 3 7 2 8 1 9
REMARK H PARENT
REMARK Flexibility Score: inf
ROOT
ATOM      1  C   UNL     1       0.509  57.677  23.448  1.00  0.00     0.006 C 
ENDROOT
BRANCH   1   2
ATOM      2  C   UNL     1       1.775  56.872  23.139  1.00  0.00     0.053 C 
BRANCH   2   3
ATOM      3  C   UNL     1       2.965  57.776  23.062  1.00  0.00     0.041 C 
ATOM      4  O   UNL     1       3.170  58.466  22.029  1.00  0.00    -0.550 OA
ATOM      5  O   UNL     1       3.872  57.823  24.113  1.00  0.00    -0.550 OA
ENDBRANCH   2   3
ENDBRANCH   1   2
BRANCH   1   6
ATOM      6  C   UNL     1       0.473  58.096  24.925  1.00  0.00     0.000 C 
BRANCH   6   7
ATOM      7  C   UNL     1       0.117  59.581  25.111  1.00  0.00    -0.000 C 
BRANCH   7   8
ATOM      8  C   UNL     1       0.183  60.373  23.797  1.00  0.00    -0.003 C 
ATOM      9  C   UNL     1       1.482  61.168  23.700  1.00  0.00     0.004 C 
ENDBRANCH   7   8
ENDBRANCH   6   7
ENDBRANCH   1   6
TORSDOF 5
ENDMDL
MODEL 2
REMARK VINA RESULT:    -3.951      2.067      3.678
REMARK INTER + INTRA:          -5.502
REMARK INTER:                  -5.091
REMARK INTRA:                  -0.411
REMARK UNBOUND:                -0.396
REMARK SMILES CCCCCCC(=O)[O-]
REMARK SMILES IDX 5 1 6 2 7 3 8 4 9 5 4 6 3 7 2 8 1 9
REMARK H PARENT
REMARK Flexibility Score: inf
ROOT
ATOM      1  C   UNL     1       0.894  58.274  24.717  1.00  0.00     0.006 C 
ENDROOT
BRANCH   1   2
ATOM      2  C   UNL     1       0.102  59.555  25.002  1.00  0.00     0.053 C 
BRANCH   2   3
ATOM      3  C   UNL     1       0.343  60.569  23.928  1.00  0.00     0.041 C 
ATOM      4  O   UNL     1       1.499  61.029  23.739  1.00  0.00    -0.550 OA
ATOM      5  O   UNL     1      -0.719  61.041  23.167  1.00  0.00    -0.550 OA
ENDBRANCH   2   3
ENDBRANCH   1   2
BRANCH   1   6
ATOM      6  C   UNL     1       0.467  57.653  23.379  1.00  0.00     0.000 C 
BRANCH   6   7
ATOM      7  C   UNL     1       1.657  57.108  22.573  1.00  0.00    -0.000 C 
BRANCH   7   8
ATOM      8  C   UNL     1       2.997  57.717  23.013  1.00  0.00    -0.003 C 
ATOM      9  C   UNL     1       3.508  58.720  21.983  1.00  0.00     0.004 C 
ENDBRANCH   7   8
ENDBRANCH   6   7
ENDBRANCH   1   6
TORSDOF 5
ENDMDL
MODEL 3
REMARK VINA RESULT:    -3.914      2.669      3.946
REMARK INTER + INTRA:          -5.454
REMARK INTER:                  -5.082
REMARK INTRA:                  -0.373
REMARK UNBOUND:                -0.396
REMARK SMILES CCCCCCC(=O)[O-]
REMARK SMILES IDX 5 1 6 2 7 3 8 4 9 5 4 6 3 7 2 8 1 9
REMARK H PARENT
REMARK Flexibility Score: inf
ROOT
ATOM      1  C   UNL     1       2.908  58.629  23.535  1.00  0.00     0.006 C 
ENDROOT
BRANCH   1   2
ATOM      2  C   UNL     1       3.021  58.147  22.085  1.00  0.00     0.053 C 
BRANCH   2   3
ATOM      3  C   UNL     1       1.973  57.120  21.792  1.00  0.00     0.041 C 
ATOM      4  O   UNL     1       0.864  57.159  22.386  1.00  0.00    -0.550 OA
ATOM      5  O   UNL     1       2.238  56.092  20.897  1.00  0.00    -0.550 OA
ENDBRANCH   2   3
ENDBRANCH   1   2
BRANCH   1   6
ATOM      6  C   UNL     1       3.609  57.654  24.493  1.00  0.00     0.000 C 
BRANCH   6   7
ATOM      7  C   UNL     1       2.633  56.986  25.475  1.00  0.00    -0.000 C 
BRANCH   7   8
ATOM      8  C   UNL     1       2.965  55.508  25.724  1.00  0.00    -0.003 C 
ATOM      9  C   UNL     1       3.315  54.797  24.420  1.00  0.00     0.004 C 
ENDBRANCH   7   8
ENDBRANCH   6   7
ENDBRANCH   1   6
TORSDOF 5
ENDMDL
MODEL 4
REMARK VINA RESULT:    -3.888     11.060     11.557
REMARK INTER + INTRA:          -5.421
REMARK INTER:                  -5.208
REMARK INTRA:                  -0.214
REMARK UNBOUND:                -0.396
REMARK SMILES CCCCCCC(=O)[O-]
REMARK SMILES IDX 5 1 6 2 7 3 8 4 9 5 4 6 3 7 2 8 1 9
REMARK H PARENT
REMARK Flexibility Score: inf
ROOT
ATOM      1  C   UNL     1       1.481  47.809  24.020  1.00  0.00     0.006 C 
ENDROOT
BRANCH   1   2
ATOM      2  C   UNL     1       1.649  48.004  22.510  1.00  0.00     0.053 C 
BRANCH   2   3
ATOM      3  C   UNL     1       0.472  47.445  21.775  1.00  0.00     0.041 C 
ATOM      4  O   UNL     1      -0.593  47.181  22.392  1.00  0.00    -0.550 OA
ATOM      5  O   UNL     1       0.566  47.170  20.417  1.00  0.00    -0.550 OA
ENDBRANCH   2   3
ENDBRANCH   1   2
BRANCH   1   6
ATOM      6  C   UNL     1       2.649  47.000  24.601  1.00  0.00     0.000 C 
BRANCH   6   7
ATOM      7  C   UNL     1       3.192  47.600  25.908  1.00  0.00    -0.000 C 
BRANCH   7   8
ATOM      8  C   UNL     1       4.716  47.787  25.885  1.00  0.00    -0.003 C 
ATOM      9  C   UNL     1       5.117  48.900  24.921  1.00  0.00     0.004 C 
ENDBRANCH   7   8
ENDBRANCH   6   7
ENDBRANCH   1   6
TORSDOF 5
ENDMDL
MODEL 5
REMARK VINA RESULT:    -3.872     10.292     11.064
REMARK INTER + INTRA:          -5.400
REMARK INTER:                  -5.166
REMARK INTRA:                  -0.234
REMARK UNBOUND:                -0.396
REMARK SMILES CCCCCCC(=O)[O-]
REMARK SMILES IDX 5 1 6 2 7 3 8 4 9 5 4 6 3 7 2 8 1 9
REMARK H PARENT
REMARK Flexibility Score: inf
ROOT
ATOM      1  C   UNL     1       4.818  47.802  25.867  1.00  0.00     0.006 C 
ENDROOT
BRANCH   1   2
ATOM      2  C   UNL     1       5.224  48.983  24.979  1.00  0.00     0.053 C 
BRANCH   2   3
ATOM      3  C   UNL     1       6.709  49.017  24.799  1.00  0.00     0.041 C 
ATOM      4  O   UNL     1       7.232  48.545  23.756  1.00  0.00    -0.550 OA
ATOM      5  O   UNL     1       7.520  49.527  25.805  1.00  0.00    -0.550 OA
ENDBRANCH   2   3
ENDBRANCH   1   2
BRANCH   1   6
ATOM      6  C   UNL     1       3.291  47.651  25.912  1.00  0.00     0.000 C 
BRANCH   6   7
ATOM      7  C   UNL     1       2.730  46.939  24.670  1.00  0.00    -0.000 C 
BRANCH   7   8
ATOM      8  C   UNL     1       1.506  47.655  24.081  1.00  0.00    -0.003 C 
ATOM      9  C   UNL     1       1.920  48.658  23.007  1.00  0.00     0.004 C 
ENDBRANCH   7   8
ENDBRANCH   6   7
ENDBRANCH   1   6
TORSDOF 5
ENDMDL
MODEL 6
REMARK VINA RESULT:    -3.827     10.516     11.345
REMARK INTER + INTRA:          -5.342
REMARK INTER:                  -5.042
REMARK INTRA:                  -0.300
REMARK UNBOUND:                -0.396
REMARK SMILES CCCCCCC(=O)[O-]
REMARK SMILES IDX 5 1 6 2 7 3 8 4 9 5 4 6 3 7 2 8 1 9
REMARK H PARENT
REMARK Flexibility Score: inf
ROOT
ATOM      1  C   UNL     1       3.082  47.954  25.351  1.00  0.00     0.006 C 
ENDROOT
BRANCH   1   2
ATOM      2  C   UNL     1       2.106  47.310  24.361  1.00  0.00     0.053 C 
BRANCH   2   3
ATOM      3  C   UNL     1       1.987  48.147  23.126  1.00  0.00     0.041 C 
ATOM      4  O   UNL     1       2.800  49.085  22.915  1.00  0.00    -0.550 OA
ATOM      5  O   UNL     1       0.950  47.922  22.230  1.00  0.00    -0.550 OA
ENDBRANCH   2   3
ENDBRANCH   1   2
BRANCH   1   6
ATOM      6  C   UNL     1       4.206  46.976  25.726  1.00  0.00     0.000 C 
BRANCH   6   7
ATOM      7  C   UNL     1       5.537  47.687  26.017  1.00  0.00    -0.000 C 
BRANCH   7   8
ATOM      8  C   UNL     1       5.830  48.822  25.024  1.00  0.00    -0.003 C 
ATOM      9  C   UNL     1       6.507  48.288  23.765  1.00  0.00     0.004 C 
ENDBRANCH   7   8
ENDBRANCH   6   7
ENDBRANCH   1   6
TORSDOF 5
ENDMDL
MODEL 7
REMARK VINA RESULT:    -3.812      1.938      2.705
REMARK INTER + INTRA:          -5.322
REMARK INTER:                  -5.086
REMARK INTRA:                  -0.235
REMARK UNBOUND:                -0.396
REMARK SMILES CCCCCCC(=O)[O-]
REMARK SMILES IDX 5 1 6 2 7 3 8 4 9 5 4 6 3 7 2 8 1 9
REMARK H PARENT
REMARK Flexibility Score: inf
ROOT
ATOM      1  C   UNL     1       3.597  58.103  24.011  1.00  0.00     0.006 C 
ENDROOT
BRANCH   1   2
ATOM      2  C   UNL     1       2.744  57.086  24.776  1.00  0.00     0.053 C 
BRANCH   2   3
ATOM      3  C   UNL     1       2.796  55.750  24.104  1.00  0.00     0.041 C 
ATOM      4  O   UNL     1       3.488  54.820  24.596  1.00  0.00    -0.550 OA
ATOM      5  O   UNL     1       2.118  55.545  22.909  1.00  0.00    -0.550 OA
ENDBRANCH   2   3
ENDBRANCH   1   2
BRANCH   1   6
ATOM      6  C   UNL     1       2.714  59.023  23.154  1.00  0.00     0.000 C 
BRANCH   6   7
ATOM      7  C   UNL     1       1.300  59.194  23.734  1.00  0.00    -0.000 C 
BRANCH   7   8
ATOM      8  C   UNL     1       0.883  60.667  23.851  1.00  0.00    -0.003 C 
ATOM      9  C   UNL     1      -0.022  60.886  25.060  1.00  0.00     0.004 C 
ENDBRANCH   7   8
ENDBRANCH   6   7
ENDBRANCH   1   6
TORSDOF 5
ENDMDL
MODEL 8
REMARK VINA RESULT:    -3.783     10.545     11.612
REMARK INTER + INTRA:          -5.284
REMARK INTER:                  -5.069
REMARK INTRA:                  -0.215
REMARK UNBOUND:                -0.396
REMARK SMILES CCCCCCC(=O)[O-]
REMARK SMILES IDX 5 1 6 2 7 3 8 4 9 5 4 6 3 7 2 8 1 9
REMARK H PARENT
REMARK Flexibility Score: inf
ROOT
ATOM      1  C   UNL     1       6.928  48.395  23.453  1.00  0.00     0.006 C 
ENDROOT
BRANCH   1   2
ATOM      2  C   UNL     1       6.562  49.058  24.784  1.00  0.00     0.053 C 
BRANCH   2   3
ATOM      3  C   UNL     1       7.760  49.133  25.678  1.00  0.00     0.041 C 
ATOM      4  O   UNL     1       7.632  48.987  26.922  1.00  0.00    -0.550 OA
ATOM      5  O   UNL     1       9.011  49.412  25.143  1.00  0.00    -0.550 OA
ENDBRANCH   2   3
ENDBRANCH   1   2
BRANCH   1   6
ATOM      6  C   UNL     1       5.884  47.338  23.062  1.00  0.00     0.000 C 
BRANCH   6   7
ATOM      7  C   UNL     1       5.077  47.736  21.816  1.00  0.00    -0.000 C 
BRANCH   7   8
ATOM      8  C   UNL     1       3.566  47.530  21.999  1.00  0.00    -0.003 C 
ATOM      9  C   UNL     1       2.952  48.664  22.816  1.00  0.00     0.004 C 
ENDBRANCH   7   8
ENDBRANCH   6   7
ENDBRANCH   1   6
TORSDOF 5
ENDMDL
MODEL 9
REMARK VINA RESULT:    -3.559     10.646     11.384
REMARK INTER + INTRA:          -4.995
REMARK INTER:                  -4.651
REMARK INTRA:                  -0.344
REMARK UNBOUND:                -0.396
REMARK SMILES CCCCCCC(=O)[O-]
REMARK SMILES IDX 5 1 6 2 7 3 8 4 9 5 4 6 3 7 2 8 1 9
REMARK H PARENT
REMARK Flexibility Score: inf
ROOT
ATOM      1  C   UNL     1       4.232  47.997  21.745  1.00  0.00     0.006 C 
ENDROOT
BRANCH   1   2
ATOM      2  C   UNL     1       5.149  47.038  22.511  1.00  0.00     0.053 C 
BRANCH   2   3
ATOM      3  C   UNL     1       6.101  47.803  23.375  1.00  0.00     0.041 C 
ATOM      4  O   UNL     1       7.105  48.367  22.866  1.00  0.00    -0.550 OA
ATOM      5  O   UNL     1       5.907  47.853  24.750  1.00  0.00    -0.550 OA
ENDBRANCH   2   3
ENDBRANCH   1   2
BRANCH   1   6
ATOM      6  C   UNL     1       3.129  48.548  22.660  1.00  0.00     0.000 C 
BRANCH   6   7
ATOM      7  C   UNL     1       1.834  47.722  22.589  1.00  0.00    -0.000 C 
BRANCH   7   8
ATOM      8  C   UNL     1       1.324  47.300  23.975  1.00  0.00    -0.003 C 
ATOM      9  C   UNL     1       2.410  47.469  25.033  1.00  0.00     0.004 C 
ENDBRANCH   7   8
ENDBRANCH   6   7
ENDBRANCH   1   6
TORSDOF 5
ENDMDL
