MODEL 1
REMARK VINA RESULT:    -3.121      0.000      0.000
REMARK INTER + INTRA:          -3.320
REMARK INTER:                  -3.304
REMARK INTRA:                  -0.016
REMARK UNBOUND:                -0.016
REMARK SMILES O=Cc1ccco1
REMARK SMILES IDX 5 1 6 2 7 3 3 4 4 5 2 6 1 7
REMARK H PARENT
REMARK Flexibility Score: inf
ROOT
ATOM      1  C   UNL     1     176.780 178.117 181.836  1.00  0.00     0.043 A 
ATOM      2  C   UNL     1     177.389 177.261 180.941  1.00  0.00     0.196 A 
ATOM      3  O   UNL     1     177.609 177.889 179.809  1.00  0.00    -0.462 OA
ATOM      4  C   UNL     1     177.168 179.121 179.923  1.00  0.00     0.166 A 
ATOM      5  C   UNL     1     176.636 179.321 181.180  1.00  0.00     0.054 A 
ENDROOT
BRANCH   4   6
ATOM      6  C   UNL     1     177.241 180.125 178.860  1.00  0.00     0.298 C 
ATOM      7  O   UNL     1     177.626 179.800 177.707  1.00  0.00    -0.294 OA
ENDBRANCH   4   6
TORSDOF 1
ENDMDL
MODEL 2
REMARK VINA RESULT:    -3.117      1.195      2.850
REMARK INTER + INTRA:          -3.316
REMARK INTER:                  -3.305
REMARK INTRA:                  -0.011
REMARK UNBOUND:                -0.016
REMARK SMILES O=Cc1ccco1
REMARK SMILES IDX 5 1 6 2 7 3 3 4 4 5 2 6 1 7
REMARK H PARENT
REMARK Flexibility Score: inf
ROOT
ATOM      1  C   UNL     1     176.552 179.414 181.509  1.00  0.00     0.043 A 
ATOM      2  C   UNL     1     177.048 179.733 180.261  1.00  0.00     0.196 A 
ATOM      3  O   UNL     1     177.573 178.664 179.707  1.00  0.00    -0.462 OA
ATOM      4  C   UNL     1     177.442 177.656 180.540  1.00  0.00     0.166 A 
ATOM      5  C   UNL     1     176.806 178.070 181.691  1.00  0.00     0.054 A 
ENDROOT
BRANCH   4   6
ATOM      6  C   UNL     1     177.910 176.296 180.267  1.00  0.00     0.298 C 
ATOM      7  O   UNL     1     179.018 175.905 180.717  1.00  0.00    -0.294 OA
ENDBRANCH   4   6
TORSDOF 1
ENDMDL
MODEL 3
REMARK VINA RESULT:    -3.002      4.141      4.486
REMARK INTER + INTRA:          -3.194
REMARK INTER:                  -3.178
REMARK INTRA:                  -0.016
REMARK UNBOUND:                -0.016
REMARK SMILES O=Cc1ccco1
REMARK SMILES IDX 5 1 6 2 7 3 3 4 4 5 2 6 1 7
REMARK H PARENT
REMARK Flexibility Score: inf
ROOT
ATOM      1  C   UNL     1     175.052 179.018 180.729  1.00  0.00     0.043 A 
ATOM      2  C   UNL     1     175.047 179.377 179.396  1.00  0.00     0.196 A 
ATOM      3  O   UNL     1     173.811 179.575 178.996  1.00  0.00    -0.462 OA
ATOM      4  C   UNL     1     173.005 179.360 180.011  1.00  0.00     0.166 A 
ATOM      5  C   UNL     1     173.732 179.005 181.129  1.00  0.00     0.054 A 
ENDROOT
BRANCH   4   6
ATOM      6  C   UNL     1     171.548 179.483 179.947  1.00  0.00     0.298 C 
ATOM      7  O   UNL     1     171.006 180.119 179.005  1.00  0.00    -0.294 OA
ENDBRANCH   4   6
TORSDOF 1
ENDMDL
MODEL 4
REMARK VINA RESULT:    -2.988     14.348     14.611
REMARK INTER + INTRA:          -3.179
REMARK INTER:                  -3.163
REMARK INTRA:                  -0.016
REMARK UNBOUND:                -0.016
REMARK SMILES O=Cc1ccco1
REMARK SMILES IDX 5 1 6 2 7 3 3 4 4 5 2 6 1 7
REMARK H PARENT
REMARK Flexibility Score: inf
ROOT
ATOM      1  C   UNL     1     162.704 179.406 181.851  1.00  0.00     0.043 A 
ATOM      2  C   UNL     1     163.891 179.318 181.151  1.00  0.00     0.196 A 
ATOM      3  O   UNL     1     163.671 179.554 179.878  1.00  0.00    -0.462 OA
ATOM      4  C   UNL     1     162.390 179.792 179.712  1.00  0.00     0.166 A 
ATOM      5  C   UNL     1     161.732 179.712 180.922  1.00  0.00     0.054 A 
ENDROOT
BRANCH   4   6
ATOM      6  C   UNL     1     161.768 180.097 178.423  1.00  0.00     0.298 C 
ATOM      7  O   UNL     1     162.461 180.114 177.372  1.00  0.00    -0.294 OA
ENDBRANCH   4   6
TORSDOF 1
ENDMDL
MODEL 5
REMARK VINA RESULT:    -2.970     15.863     16.274
REMARK INTER + INTRA:          -3.160
REMARK INTER:                  -3.144
REMARK INTRA:                  -0.015
REMARK UNBOUND:                -0.016
REMARK SMILES O=Cc1ccco1
REMARK SMILES IDX 5 1 6 2 7 3 3 4 4 5 2 6 1 7
REMARK H PARENT
REMARK Flexibility Score: inf
ROOT
ATOM      1  C   UNL     1     162.238 178.217 180.474  1.00  0.00     0.043 A 
ATOM      2  C   UNL     1     161.813 178.090 179.167  1.00  0.00     0.196 A 
ATOM      3  O   UNL     1     161.277 176.904 178.990  1.00  0.00    -0.462 OA
ATOM      4  C   UNL     1     161.333 176.247 180.126  1.00  0.00     0.166 A 
ATOM      5  C   UNL     1     161.929 177.026 181.096  1.00  0.00     0.054 A 
ENDROOT
BRANCH   4   6
ATOM      6  C   UNL     1     160.830 174.886 180.316  1.00  0.00     0.298 C 
ATOM      7  O   UNL     1     159.904 174.444 179.588  1.00  0.00    -0.294 OA
ENDBRANCH   4   6
TORSDOF 1
ENDMDL
MODEL 6
REMARK VINA RESULT:    -2.953     15.117     15.378
REMARK INTER + INTRA:          -3.142
REMARK INTER:                  -3.126
REMARK INTRA:                  -0.016
REMARK UNBOUND:                -0.016
REMARK SMILES O=Cc1ccco1
REMARK SMILES IDX 5 1 6 2 7 3 3 4 4 5 2 6 1 7
REMARK H PARENT
REMARK Flexibility Score: inf
ROOT
ATOM      1  C   UNL     1     162.464 179.695 181.422  1.00  0.00     0.043 A 
ATOM      2  C   UNL     1     162.476 178.318 181.508  1.00  0.00     0.196 A 
ATOM      3  O   UNL     1     162.107 177.800 180.358  1.00  0.00    -0.462 OA
ATOM      4  C   UNL     1     161.853 178.780 179.522  1.00  0.00     0.166 A 
ATOM      5  C   UNL     1     162.061 179.997 180.138  1.00  0.00     0.054 A 
ENDROOT
BRANCH   4   6
ATOM      6  C   UNL     1     161.414 178.590 178.139  1.00  0.00     0.298 C 
ATOM      7  O   UNL     1     161.024 177.459 177.747  1.00  0.00    -0.294 OA
ENDBRANCH   4   6
TORSDOF 1
ENDMDL
MODEL 7
REMARK VINA RESULT:    -2.953      2.038      2.429
REMARK INTER + INTRA:          -3.142
REMARK INTER:                  -3.128
REMARK INTRA:                  -0.014
REMARK UNBOUND:                -0.016
REMARK SMILES O=Cc1ccco1
REMARK SMILES IDX 5 1 6 2 7 3 3 4 4 5 2 6 1 7
REMARK H PARENT
REMARK Flexibility Score: inf
ROOT
ATOM      1  C   UNL     1     174.332 178.982 181.046  1.00  0.00     0.043 A 
ATOM      2  C   UNL     1     173.766 179.242 179.815  1.00  0.00     0.196 A 
ATOM      3  O   UNL     1     174.692 179.655 178.980  1.00  0.00    -0.462 OA
ATOM      4  C   UNL     1     175.843 179.677 179.613  1.00  0.00     0.166 A 
ATOM      5  C   UNL     1     175.676 179.263 180.918  1.00  0.00     0.054 A 
ENDROOT
BRANCH   4   6
ATOM      6  C   UNL     1     177.110 180.085 179.004  1.00  0.00     0.298 C 
ATOM      7  O   UNL     1     177.464 179.607 177.895  1.00  0.00    -0.294 OA
ENDBRANCH   4   6
TORSDOF 1
ENDMDL
MODEL 8
REMARK VINA RESULT:    -2.944     15.135     15.541
REMARK INTER + INTRA:          -3.133
REMARK INTER:                  -3.121
REMARK INTRA:                  -0.012
REMARK UNBOUND:                -0.016
REMARK SMILES O=Cc1ccco1
REMARK SMILES IDX 5 1 6 2 7 3 3 4 4 5 2 6 1 7
REMARK H PARENT
REMARK Flexibility Score: inf
ROOT
ATOM      1  C   UNL     1     162.311 179.786 181.417  1.00  0.00     0.043 A 
ATOM      2  C   UNL     1     161.862 180.124 180.157  1.00  0.00     0.196 A 
ATOM      3  O   UNL     1     161.714 179.037 179.434  1.00  0.00    -0.462 OA
ATOM      4  C   UNL     1     162.048 178.001 180.168  1.00  0.00     0.166 A 
ATOM      5  C   UNL     1     162.433 178.413 181.426  1.00  0.00     0.054 A 
ENDROOT
BRANCH   4   6
ATOM      6  C   UNL     1     162.011 176.614 179.700  1.00  0.00     0.298 C 
ATOM      7  O   UNL     1     160.908 176.041 179.501  1.00  0.00    -0.294 OA
ENDBRANCH   4   6
TORSDOF 1
ENDMDL
MODEL 9
REMARK VINA RESULT:    -2.923      2.560      3.099
REMARK INTER + INTRA:          -3.110
REMARK INTER:                  -3.099
REMARK INTRA:                  -0.011
REMARK UNBOUND:                -0.016
REMARK SMILES O=Cc1ccco1
REMARK SMILES IDX 5 1 6 2 7 3 3 4 4 5 2 6 1 7
REMARK H PARENT
REMARK Flexibility Score: inf
ROOT
ATOM      1  C   UNL     1     177.127 179.801 180.967  1.00  0.00     0.043 A 
ATOM      2  C   UNL     1     177.159 180.123 179.625  1.00  0.00     0.196 A 
ATOM      3  O   UNL     1     175.993 179.863 179.080  1.00  0.00    -0.462 OA
ATOM      4  C   UNL     1     175.197 179.382 180.007  1.00  0.00     0.166 A 
ATOM      5  C   UNL     1     175.858 179.321 181.216  1.00  0.00     0.054 A 
ENDROOT
BRANCH   4   6
ATOM      6  C   UNL     1     173.810 178.976 179.774  1.00  0.00     0.298 C 
ATOM      7  O   UNL     1     172.866 179.772 180.018  1.00  0.00    -0.294 OA
ENDBRANCH   4   6
TORSDOF 1
ENDMDL
