MODEL 1
REMARK VINA RESULT:    -4.301      0.000      0.000
REMARK INTER + INTRA:          -5.963
REMARK INTER:                  -5.810
REMARK INTRA:                  -0.153
REMARK UNBOUND:                -0.153
REMARK SMILES CCCCCCCC(=O)[O-]
REMARK SMILES IDX 5 1 6 2 7 3 8 4 9 5 10 6 4 7 3 8 2 9 1 10
REMARK H PARENT
REMARK Flexibility Score: inf
ROOT
ATOM      1  C   UNL     1      58.053 144.062 -29.923  1.00  0.00     0.000 C 
ENDROOT
BRANCH   1   2
ATOM      2  C   UNL     1      56.616 143.786 -29.461  1.00  0.00     0.006 C 
BRANCH   2   3
ATOM      3  C   UNL     1      56.460 144.057 -27.961  1.00  0.00     0.053 C 
BRANCH   3   4
ATOM      4  C   UNL     1      55.022 143.966 -27.559  1.00  0.00     0.041 C 
ATOM      5  O   UNL     1      54.345 142.946 -27.856  1.00  0.00    -0.550 OA
ATOM      6  O   UNL     1      54.443 144.983 -26.812  1.00  0.00    -0.550 OA
ENDBRANCH   3   4
ENDBRANCH   2   3
ENDBRANCH   1   2
BRANCH   1   7
ATOM      7  C   UNL     1      58.193 144.101 -31.454  1.00  0.00     0.000 C 
BRANCH   7   8
ATOM      8  C   UNL     1      59.520 143.503 -31.970  1.00  0.00    -0.000 C 
BRANCH   8   9
ATOM      9  C   UNL     1      60.049 144.246 -33.205  1.00  0.00    -0.003 C 
ATOM     10  C   UNL     1      59.297 145.555 -33.425  1.00  0.00     0.004 C 
ENDBRANCH   8   9
ENDBRANCH   7   8
ENDBRANCH   1   7
TORSDOF 6
ENDMDL
MODEL 2
REMARK VINA RESULT:    -4.026      1.724      2.890
REMARK INTER + INTRA:          -5.591
REMARK INTER:                  -5.380
REMARK INTRA:                  -0.211
REMARK UNBOUND:                -0.153
REMARK SMILES CCCCCCCC(=O)[O-]
REMARK SMILES IDX 5 1 6 2 7 3 8 4 9 5 10 6 4 7 3 8 2 9 1 10
REMARK H PARENT
REMARK Flexibility Score: inf
ROOT
ATOM      1  C   UNL     1      59.544 143.646 -32.220  1.00  0.00     0.000 C 
ENDROOT
BRANCH   1   2
ATOM      2  C   UNL     1      58.240 144.104 -31.554  1.00  0.00     0.006 C 
BRANCH   2   3
ATOM      3  C   UNL     1      58.270 143.836 -30.046  1.00  0.00     0.053 C 
BRANCH   3   4
ATOM      4  C   UNL     1      56.889 143.897 -29.475  1.00  0.00     0.041 C 
ATOM      5  O   UNL     1      56.721 144.094 -28.243  1.00  0.00    -0.550 OA
ATOM      6  O   UNL     1      55.785 143.788 -30.311  1.00  0.00    -0.550 OA
ENDBRANCH   3   4
ENDBRANCH   2   3
ENDBRANCH   1   2
BRANCH   1   7
ATOM      7  C   UNL     1      60.029 144.611 -33.314  1.00  0.00     0.000 C 
BRANCH   7   8
ATOM      8  C   UNL     1      59.705 146.092 -33.021  1.00  0.00    -0.000 C 
BRANCH   8   9
ATOM      9  C   UNL     1      60.917 147.007 -33.251  1.00  0.00    -0.003 C 
ATOM     10  C   UNL     1      61.203 147.179 -34.740  1.00  0.00     0.004 C 
ENDBRANCH   8   9
ENDBRANCH   7   8
ENDBRANCH   1   7
TORSDOF 6
ENDMDL
MODEL 3
REMARK VINA RESULT:    -4.017     12.766     15.982
REMARK INTER + INTRA:          -5.579
REMARK INTER:                  -5.422
REMARK INTRA:                  -0.156
REMARK UNBOUND:                -0.153
REMARK SMILES CCCCCCCC(=O)[O-]
REMARK SMILES IDX 5 1 6 2 7 3 8 4 9 5 10 6 4 7 3 8 2 9 1 10
REMARK H PARENT
REMARK Flexibility Score: inf
ROOT
ATOM      1  C   UNL     1      49.035 153.019 -20.138  1.00  0.00     0.000 C 
ENDROOT
BRANCH   1   2
ATOM      2  C   UNL     1      49.106 153.058 -21.671  1.00  0.00     0.006 C 
BRANCH   2   3
ATOM      3  C   UNL     1      50.512 152.703 -22.165  1.00  0.00     0.053 C 
BRANCH   3   4
ATOM      4  C   UNL     1      50.513 152.508 -23.647  1.00  0.00     0.041 C 
ATOM      5  O   UNL     1      50.819 151.390 -24.139  1.00  0.00    -0.550 OA
ATOM      6  O   UNL     1      50.126 153.545 -24.486  1.00  0.00    -0.550 OA
ENDBRANCH   3   4
ENDBRANCH   2   3
ENDBRANCH   1   2
BRANCH   1   7
ATOM      7  C   UNL     1      50.126 153.869 -19.466  1.00  0.00     0.000 C 
BRANCH   7   8
ATOM      8  C   UNL     1      49.726 154.401 -18.073  1.00  0.00    -0.000 C 
BRANCH   8   9
ATOM      9  C   UNL     1      49.470 153.264 -17.071  1.00  0.00    -0.003 C 
ATOM     10  C   UNL     1      49.459 153.787 -15.637  1.00  0.00     0.004 C 
ENDBRANCH   8   9
ENDBRANCH   7   8
ENDBRANCH   1   7
TORSDOF 6
ENDMDL
MODEL 4
REMARK VINA RESULT:    -3.927      4.387      6.458
REMARK INTER + INTRA:          -5.457
REMARK INTER:                  -5.327
REMARK INTRA:                  -0.130
REMARK UNBOUND:                -0.153
REMARK SMILES CCCCCCCC(=O)[O-]
REMARK SMILES IDX 5 1 6 2 7 3 8 4 9 5 10 6 4 7 3 8 2 9 1 10
REMARK H PARENT
REMARK Flexibility Score: inf
ROOT
ATOM      1  C   UNL     1      59.120 143.695 -31.625  1.00  0.00     0.000 C 
ENDROOT
BRANCH   1   2
ATOM      2  C   UNL     1      59.040 144.883 -32.593  1.00  0.00     0.006 C 
BRANCH   2   3
ATOM      3  C   UNL     1      60.294 144.963 -33.470  1.00  0.00     0.053 C 
BRANCH   3   4
ATOM      4  C   UNL     1      60.789 146.371 -33.548  1.00  0.00     0.041 C 
ATOM      5  O   UNL     1      61.591 146.711 -34.459  1.00  0.00    -0.550 OA
ATOM      6  O   UNL     1      60.328 147.323 -32.648  1.00  0.00    -0.550 OA
ENDBRANCH   3   4
ENDBRANCH   2   3
ENDBRANCH   1   2
BRANCH   1   7
ATOM      7  C   UNL     1      58.515 144.005 -30.245  1.00  0.00     0.000 C 
BRANCH   7   8
ATOM      8  C   UNL     1      56.996 143.744 -30.163  1.00  0.00    -0.000 C 
BRANCH   8   9
ATOM      9  C   UNL     1      56.425 144.073 -28.775  1.00  0.00    -0.003 C 
ATOM     10  C   UNL     1      55.184 143.238 -28.478  1.00  0.00     0.004 C 
ENDBRANCH   8   9
ENDBRANCH   7   8
ENDBRANCH   1   7
TORSDOF 6
ENDMDL
MODEL 5
REMARK VINA RESULT:    -3.873     10.920     13.524
REMARK INTER + INTRA:          -5.384
REMARK INTER:                  -5.115
REMARK INTRA:                  -0.269
REMARK UNBOUND:                -0.153
REMARK SMILES CCCCCCCC(=O)[O-]
REMARK SMILES IDX 5 1 6 2 7 3 8 4 9 5 10 6 4 7 3 8 2 9 1 10
REMARK H PARENT
REMARK Flexibility Score: inf
ROOT
ATOM      1  C   UNL     1      50.490 154.584 -24.392  1.00  0.00     0.000 C 
ENDROOT
BRANCH   1   2
ATOM      2  C   UNL     1      51.452 155.012 -25.508  1.00  0.00     0.006 C 
BRANCH   2   3
ATOM      3  C   UNL     1      52.629 154.038 -25.622  1.00  0.00     0.053 C 
BRANCH   3   4
ATOM      4  C   UNL     1      52.220 152.807 -26.368  1.00  0.00     0.041 C 
ATOM      5  O   UNL     1      52.535 151.669 -25.931  1.00  0.00    -0.550 OA
ATOM      6  O   UNL     1      51.448 152.914 -27.516  1.00  0.00    -0.550 OA
ENDBRANCH   3   4
ENDBRANCH   2   3
ENDBRANCH   1   2
BRANCH   1   7
ATOM      7  C   UNL     1      51.194 153.834 -23.249  1.00  0.00     0.000 C 
BRANCH   7   8
ATOM      8  C   UNL     1      50.445 152.564 -22.789  1.00  0.00    -0.000 C 
BRANCH   8   9
ATOM      9  C   UNL     1      49.116 152.895 -22.093  1.00  0.00    -0.003 C 
ATOM     10  C   UNL     1      49.329 153.188 -20.611  1.00  0.00     0.004 C 
ENDBRANCH   8   9
ENDBRANCH   7   8
ENDBRANCH   1   7
TORSDOF 6
ENDMDL
MODEL 6
REMARK VINA RESULT:    -3.844     11.326     14.091
REMARK INTER + INTRA:          -5.345
REMARK INTER:                  -5.101
REMARK INTRA:                  -0.244
REMARK UNBOUND:                -0.153
REMARK SMILES CCCCCCCC(=O)[O-]
REMARK SMILES IDX 5 1 6 2 7 3 8 4 9 5 10 6 4 7 3 8 2 9 1 10
REMARK H PARENT
REMARK Flexibility Score: inf
ROOT
ATOM      1  C   UNL     1      50.280 153.814 -23.565  1.00  0.00     0.000 C 
ENDROOT
BRANCH   1   2
ATOM      2  C   UNL     1      51.808 153.790 -23.709  1.00  0.00     0.006 C 
BRANCH   2   3
ATOM      3  C   UNL     1      52.235 154.235 -25.111  1.00  0.00     0.053 C 
BRANCH   3   4
ATOM      4  C   UNL     1      52.018 153.133 -26.099  1.00  0.00     0.041 C 
ATOM      5  O   UNL     1      51.448 153.369 -27.196  1.00  0.00    -0.550 OA
ATOM      6  O   UNL     1      52.491 151.855 -25.830  1.00  0.00    -0.550 OA
ENDBRANCH   3   4
ENDBRANCH   2   3
ENDBRANCH   1   2
BRANCH   1   7
ATOM      7  C   UNL     1      49.734 152.614 -22.774  1.00  0.00     0.000 C 
BRANCH   7   8
ATOM      8  C   UNL     1      49.182 152.989 -21.382  1.00  0.00    -0.000 C 
BRANCH   8   9
ATOM      9  C   UNL     1      50.278 153.531 -20.451  1.00  0.00    -0.003 C 
ATOM     10  C   UNL     1      49.725 153.817 -19.058  1.00  0.00     0.004 C 
ENDBRANCH   8   9
ENDBRANCH   7   8
ENDBRANCH   1   7
TORSDOF 6
ENDMDL
MODEL 7
REMARK VINA RESULT:    -3.673     11.501     13.709
REMARK INTER + INTRA:          -5.114
REMARK INTER:                  -4.888
REMARK INTRA:                  -0.226
REMARK UNBOUND:                -0.153
REMARK SMILES CCCCCCCC(=O)[O-]
REMARK SMILES IDX 5 1 6 2 7 3 8 4 9 5 10 6 4 7 3 8 2 9 1 10
REMARK H PARENT
REMARK Flexibility Score: inf
ROOT
ATOM      1  C   UNL     1      61.978 146.942 -17.789  1.00  0.00     0.000 C 
ENDROOT
BRANCH   1   2
ATOM      2  C   UNL     1      61.553 147.591 -19.113  1.00  0.00     0.006 C 
BRANCH   2   3
ATOM      3  C   UNL     1      62.773 147.926 -19.977  1.00  0.00     0.053 C 
BRANCH   3   4
ATOM      4  C   UNL     1      62.345 148.527 -21.278  1.00  0.00     0.041 C 
ATOM      5  O   UNL     1      61.476 147.952 -21.985  1.00  0.00    -0.550 OA
ATOM      6  O   UNL     1      62.867 149.747 -21.687  1.00  0.00    -0.550 OA
ENDBRANCH   3   4
ENDBRANCH   2   3
ENDBRANCH   1   2
BRANCH   1   7
ATOM      7  C   UNL     1      61.022 147.265 -16.629  1.00  0.00     0.000 C 
BRANCH   7   8
ATOM      8  C   UNL     1      59.736 147.996 -17.073  1.00  0.00    -0.000 C 
BRANCH   8   9
ATOM      9  C   UNL     1      59.527 149.314 -16.313  1.00  0.00    -0.003 C 
ATOM     10  C   UNL     1      58.080 149.788 -16.421  1.00  0.00     0.004 C 
ENDBRANCH   8   9
ENDBRANCH   7   8
ENDBRANCH   1   7
TORSDOF 6
ENDMDL
