MODEL 1
REMARK VINA RESULT:    -4.506      0.000      0.000
REMARK INTER + INTRA:          -6.178
REMARK INTER:                  -6.086
REMARK INTRA:                  -0.092
REMARK UNBOUND:                -0.092
REMARK SMILES [NH3+]CCCC[C@H]([NH3+])C(=O)[O-]
REMARK SMILES IDX 4 1 3 2 2 3 1 4 5 8 6 9 7 10 8 14 9 15 10 16
REMARK H PARENT 1 5 1 6 1 7 7 11 7 12 7 13
REMARK Flexibility Score: inf
ROOT
ATOM      1  C   UNL     1     -20.355  -2.876 -13.073  1.00  0.00     0.012 C 
ENDROOT
BRANCH   1   2
ATOM      2  C   UNL     1     -18.854  -3.070 -12.815  1.00  0.00     0.061 C 
BRANCH   2   3
ATOM      3  C   UNL     1     -18.339  -4.429 -13.318  1.00  0.00     0.258 C 
BRANCH   3   4
ATOM      4  N   UNL     1     -18.006  -4.400 -14.745  1.00  0.00    -0.358 N 
ATOM      5  H   UNL     1     -17.459  -5.259 -14.983  1.00  0.00     0.344 HD
ATOM      6  H   UNL     1     -17.424  -3.559 -14.967  1.00  0.00     0.344 HD
ATOM      7  H   UNL     1     -18.878  -4.395 -15.321  1.00  0.00     0.344 HD
ENDBRANCH   3   4
ENDBRANCH   2   3
ENDBRANCH   1   2
BRANCH   1   8
ATOM      8  C   UNL     1     -20.839  -1.528 -12.514  1.00  0.00     0.072 C 
BRANCH   8   9
ATOM      9  C   UNL     1     -22.325  -1.262 -12.834  1.00  0.00     0.227 C 
BRANCH   9  10
ATOM     10  N   UNL     1     -22.518   0.130 -13.256  1.00  0.00    -0.350 N 
ATOM     11  H   UNL     1     -21.599   0.584 -13.466  1.00  0.00     0.345 HD
ATOM     12  H   UNL     1     -23.003   0.668 -12.500  1.00  0.00     0.345 HD
ATOM     13  H   UNL     1     -23.118   0.161 -14.112  1.00  0.00     0.345 HD
ENDBRANCH   9  10
BRANCH   9  14
ATOM     14  C   UNL     1     -23.202  -1.571 -11.648  1.00  0.00     0.099 C 
ATOM     15  O   UNL     1     -24.385  -1.973 -11.815  1.00  0.00    -0.544 OA
ATOM     16  O   UNL     1     -22.711  -1.404 -10.359  1.00  0.00    -0.544 OA
ENDBRANCH   9  14
ENDBRANCH   8   9
ENDBRANCH   1   8
TORSDOF 7
ENDMDL
MODEL 2
REMARK VINA RESULT:    -4.271      2.297      2.586
REMARK INTER + INTRA:          -5.862
REMARK INTER:                  -5.637
REMARK INTRA:                  -0.225
REMARK UNBOUND:                -0.092
REMARK SMILES [NH3+]CCCC[C@H]([NH3+])C(=O)[O-]
REMARK SMILES IDX 4 1 3 2 2 3 1 4 5 8 6 9 7 10 8 14 9 15 10 16
REMARK H PARENT 1 5 1 6 1 7 7 11 7 12 7 13
REMARK Flexibility Score: inf
ROOT
ATOM      1  C   UNL     1     -18.930  -2.944 -13.236  1.00  0.00     0.012 C 
ENDROOT
BRANCH   1   2
ATOM      2  C   UNL     1     -18.109  -3.723 -12.198  1.00  0.00     0.061 C 
BRANCH   2   3
ATOM      3  C   UNL     1     -17.295  -2.801 -11.276  1.00  0.00     0.258 C 
BRANCH   3   4
ATOM      4  N   UNL     1     -17.084  -1.476 -11.867  1.00  0.00    -0.358 N 
ATOM      5  H   UNL     1     -16.611  -0.863 -11.164  1.00  0.00     0.344 HD
ATOM      6  H   UNL     1     -17.999  -1.043 -12.129  1.00  0.00     0.344 HD
ATOM      7  H   UNL     1     -16.467  -1.548 -12.708  1.00  0.00     0.344 HD
ENDBRANCH   3   4
ENDBRANCH   2   3
ENDBRANCH   1   2
BRANCH   1   8
ATOM      8  C   UNL     1     -20.430  -2.998 -12.904  1.00  0.00     0.072 C 
BRANCH   8   9
ATOM      9  C   UNL     1     -20.904  -1.744 -12.138  1.00  0.00     0.227 C 
BRANCH   9  10
ATOM     10  N   UNL     1     -21.321  -2.101 -10.776  1.00  0.00    -0.350 N 
ATOM     11  H   UNL     1     -21.297  -3.139 -10.643  1.00  0.00     0.345 HD
ATOM     12  H   UNL     1     -22.291  -1.753 -10.598  1.00  0.00     0.345 HD
ATOM     13  H   UNL     1     -20.682  -1.653 -10.081  1.00  0.00     0.345 HD
ENDBRANCH   9  10
BRANCH   9  14
ATOM     14  C   UNL     1     -22.032  -1.056 -12.862  1.00  0.00     0.099 C 
ATOM     15  O   UNL     1     -21.887  -0.674 -14.054  1.00  0.00    -0.544 OA
ATOM     16  O   UNL     1     -23.239  -0.832 -12.213  1.00  0.00    -0.544 OA
ENDBRANCH   9  14
ENDBRANCH   8   9
ENDBRANCH   1   8
TORSDOF 7
ENDMDL
MODEL 3
REMARK VINA RESULT:    -4.266      2.413      4.962
REMARK INTER + INTRA:          -5.854
REMARK INTER:                  -5.693
REMARK INTRA:                  -0.161
REMARK UNBOUND:                -0.092
REMARK SMILES [NH3+]CCCC[C@H]([NH3+])C(=O)[O-]
REMARK SMILES IDX 4 1 3 2 2 3 1 4 5 8 6 9 7 10 8 14 9 15 10 16
REMARK H PARENT 1 5 1 6 1 7 7 11 7 12 7 13
REMARK Flexibility Score: inf
ROOT
ATOM      1  C   UNL     1     -20.897  -1.949 -13.039  1.00  0.00     0.012 C 
ENDROOT
BRANCH   1   2
ATOM      2  C   UNL     1     -22.091  -2.037 -12.078  1.00  0.00     0.061 C 
BRANCH   2   3
ATOM      3  C   UNL     1     -23.101  -0.896 -12.284  1.00  0.00     0.258 C 
BRANCH   3   4
ATOM      4  N   UNL     1     -22.583   0.146 -13.174  1.00  0.00    -0.358 N 
ATOM      5  H   UNL     1     -21.539   0.167 -13.101  1.00  0.00     0.344 HD
ATOM      6  H   UNL     1     -22.957   1.083 -12.897  1.00  0.00     0.344 HD
ATOM      7  H   UNL     1     -22.838  -0.064 -14.166  1.00  0.00     0.344 HD
ENDBRANCH   3   4
ENDBRANCH   2   3
ENDBRANCH   1   2
BRANCH   1   8
ATOM      8  C   UNL     1     -20.162  -3.296 -13.127  1.00  0.00     0.072 C 
BRANCH   8   9
ATOM      9  C   UNL     1     -18.650  -3.157 -12.845  1.00  0.00     0.227 C 
BRANCH   9  10
ATOM     10  N   UNL     1     -17.890  -4.142 -13.623  1.00  0.00    -0.350 N 
ATOM     11  H   UNL     1     -17.750  -3.809 -14.605  1.00  0.00     0.345 HD
ATOM     12  H   UNL     1     -18.401  -5.055 -13.639  1.00  0.00     0.345 HD
ATOM     13  H   UNL     1     -16.956  -4.300 -13.179  1.00  0.00     0.345 HD
ENDBRANCH   9  10
BRANCH   9  14
ATOM     14  C   UNL     1     -18.353  -3.315 -11.376  1.00  0.00     0.099 C 
ATOM     15  O   UNL     1     -19.181  -3.883 -10.614  1.00  0.00    -0.544 OA
ATOM     16  O   UNL     1     -17.165  -2.824 -10.851  1.00  0.00    -0.544 OA
ENDBRANCH   9  14
ENDBRANCH   8   9
ENDBRANCH   1   8
TORSDOF 7
ENDMDL
MODEL 4
REMARK VINA RESULT:    -4.262      3.282      5.301
REMARK INTER + INTRA:          -5.850
REMARK INTER:                  -5.754
REMARK INTRA:                  -0.096
REMARK UNBOUND:                -0.092
REMARK SMILES [NH3+]CCCC[C@H]([NH3+])C(=O)[O-]
REMARK SMILES IDX 4 1 3 2 2 3 1 4 5 8 6 9 7 10 8 14 9 15 10 16
REMARK H PARENT 1 5 1 6 1 7 7 11 7 12 7 13
REMARK Flexibility Score: inf
ROOT
ATOM      1  C   UNL     1     -21.132  -2.000 -11.949  1.00  0.00     0.012 C 
ENDROOT
BRANCH   1   2
ATOM      2  C   UNL     1     -22.640  -2.114 -12.213  1.00  0.00     0.061 C 
BRANCH   2   3
ATOM      3  C   UNL     1     -23.326  -0.741 -12.318  1.00  0.00     0.258 C 
BRANCH   3   4
ATOM      4  N   UNL     1     -22.580   0.186 -13.173  1.00  0.00    -0.358 N 
ATOM      5  H   UNL     1     -22.952   1.153 -13.031  1.00  0.00     0.344 HD
ATOM      6  H   UNL     1     -22.694  -0.074 -14.180  1.00  0.00     0.344 HD
ATOM      7  H   UNL     1     -21.567   0.183 -12.914  1.00  0.00     0.344 HD
ENDBRANCH   3   4
ENDBRANCH   2   3
ENDBRANCH   1   2
BRANCH   1   8
ATOM      8  C   UNL     1     -20.327  -2.715 -13.047  1.00  0.00     0.072 C 
BRANCH   8   9
ATOM      9  C   UNL     1     -18.980  -3.259 -12.525  1.00  0.00     0.227 C 
BRANCH   9  10
ATOM     10  N   UNL     1     -18.057  -2.155 -12.239  1.00  0.00    -0.350 N 
ATOM     11  H   UNL     1     -17.682  -2.229 -11.265  1.00  0.00     0.345 HD
ATOM     12  H   UNL     1     -18.551  -1.239 -12.349  1.00  0.00     0.345 HD
ATOM     13  H   UNL     1     -17.259  -2.177 -12.915  1.00  0.00     0.345 HD
ENDBRANCH   9  10
BRANCH   9  14
ATOM     14  C   UNL     1     -18.359  -4.214 -13.512  1.00  0.00     0.099 C 
ATOM     15  O   UNL     1     -17.730  -5.230 -13.109  1.00  0.00    -0.544 OA
ATOM     16  O   UNL     1     -18.468  -3.973 -14.875  1.00  0.00    -0.544 OA
ENDBRANCH   9  14
ENDBRANCH   8   9
ENDBRANCH   1   8
TORSDOF 7
ENDMDL
MODEL 5
REMARK VINA RESULT:    -4.217      3.432      5.364
REMARK INTER + INTRA:          -5.789
REMARK INTER:                  -5.685
REMARK INTRA:                  -0.104
REMARK UNBOUND:                -0.092
REMARK SMILES [NH3+]CCCC[C@H]([NH3+])C(=O)[O-]
REMARK SMILES IDX 4 1 3 2 2 3 1 4 5 8 6 9 7 10 8 14 9 15 10 16
REMARK H PARENT 1 5 1 6 1 7 7 11 7 12 7 13
REMARK Flexibility Score: inf
ROOT
ATOM      1  C   UNL     1     -20.988  -1.972 -13.106  1.00  0.00     0.012 C 
ENDROOT
BRANCH   1   2
ATOM      2  C   UNL     1     -21.981  -1.869 -11.939  1.00  0.00     0.061 C 
BRANCH   2   3
ATOM      3  C   UNL     1     -23.068  -0.809 -12.181  1.00  0.00     0.258 C 
BRANCH   3   4
ATOM      4  N   UNL     1     -22.647   0.203 -13.153  1.00  0.00    -0.358 N 
ATOM      5  H   UNL     1     -21.711  -0.063 -13.536  1.00  0.00     0.344 HD
ATOM      6  H   UNL     1     -22.568   1.140 -12.695  1.00  0.00     0.344 HD
ATOM      7  H   UNL     1     -23.326   0.248 -13.948  1.00  0.00     0.344 HD
ENDBRANCH   3   4
ENDBRANCH   2   3
ENDBRANCH   1   2
BRANCH   1   8
ATOM      8  C   UNL     1     -19.608  -2.438 -12.614  1.00  0.00     0.072 C 
BRANCH   8   9
ATOM      9  C   UNL     1     -19.544  -3.968 -12.418  1.00  0.00     0.227 C 
BRANCH   9  10
ATOM     10  N   UNL     1     -19.560  -4.305 -10.990  1.00  0.00    -0.350 N 
ATOM     11  H   UNL     1     -18.802  -4.989 -10.762  1.00  0.00     0.345 HD
ATOM     12  H   UNL     1     -20.486  -4.718 -10.732  1.00  0.00     0.345 HD
ATOM     13  H   UNL     1     -19.420  -3.439 -10.420  1.00  0.00     0.345 HD
ENDBRANCH   9  10
BRANCH   9  14
ATOM     14  C   UNL     1     -18.319  -4.550 -13.075  1.00  0.00     0.099 C 
ATOM     15  O   UNL     1     -17.208  -4.538 -12.481  1.00  0.00    -0.544 OA
ATOM     16  O   UNL     1     -18.407  -5.097 -14.349  1.00  0.00    -0.544 OA
ENDBRANCH   9  14
ENDBRANCH   8   9
ENDBRANCH   1   8
TORSDOF 7
ENDMDL
MODEL 6
REMARK VINA RESULT:    -4.200      1.737      1.961
REMARK INTER + INTRA:          -5.766
REMARK INTER:                  -5.644
REMARK INTRA:                  -0.122
REMARK UNBOUND:                -0.092
REMARK SMILES [NH3+]CCCC[C@H]([NH3+])C(=O)[O-]
REMARK SMILES IDX 4 1 3 2 2 3 1 4 5 8 6 9 7 10 8 14 9 15 10 16
REMARK H PARENT 1 5 1 6 1 7 7 11 7 12 7 13
REMARK Flexibility Score: inf
ROOT
ATOM      1  C   UNL     1     -19.131  -2.667 -12.746  1.00  0.00     0.012 C 
ENDROOT
BRANCH   1   2
ATOM      2  C   UNL     1     -18.511  -4.056 -12.534  1.00  0.00     0.061 C 
BRANCH   2   3
ATOM      3  C   UNL     1     -18.393  -4.855 -13.842  1.00  0.00     0.258 C 
BRANCH   3   4
ATOM      4  N   UNL     1     -18.033  -4.004 -14.979  1.00  0.00    -0.358 N 
ATOM      5  H   UNL     1     -17.626  -4.602 -15.735  1.00  0.00     0.344 HD
ATOM      6  H   UNL     1     -17.320  -3.294 -14.693  1.00  0.00     0.344 HD
ATOM      7  H   UNL     1     -18.882  -3.528 -15.360  1.00  0.00     0.344 HD
ENDBRANCH   3   4
ENDBRANCH   2   3
ENDBRANCH   1   2
BRANCH   1   8
ATOM      8  C   UNL     1     -20.657  -2.765 -12.902  1.00  0.00     0.072 C 
BRANCH   8   9
ATOM      9  C   UNL     1     -21.409  -2.009 -11.785  1.00  0.00     0.227 C 
BRANCH   9  10
ATOM     10  N   UNL     1     -22.087  -2.955 -10.891  1.00  0.00    -0.350 N 
ATOM     11  H   UNL     1     -21.416  -3.348 -10.191  1.00  0.00     0.345 HD
ATOM     12  H   UNL     1     -22.501  -3.737 -11.448  1.00  0.00     0.345 HD
ATOM     13  H   UNL     1     -22.863  -2.470 -10.385  1.00  0.00     0.345 HD
ENDBRANCH   9  10
BRANCH   9  14
ATOM     14  C   UNL     1     -22.404  -1.035 -12.361  1.00  0.00     0.099 C 
ATOM     15  O   UNL     1     -22.060  -0.231 -13.269  1.00  0.00    -0.544 OA
ATOM     16  O   UNL     1     -23.708  -1.011 -11.884  1.00  0.00    -0.544 OA
ENDBRANCH   9  14
ENDBRANCH   8   9
ENDBRANCH   1   8
TORSDOF 7
ENDMDL
MODEL 7
REMARK VINA RESULT:    -3.962      3.291      4.900
REMARK INTER + INTRA:          -5.444
REMARK INTER:                  -5.294
REMARK INTRA:                  -0.150
REMARK UNBOUND:                -0.092
REMARK SMILES [NH3+]CCCC[C@H]([NH3+])C(=O)[O-]
REMARK SMILES IDX 4 1 3 2 2 3 1 4 5 8 6 9 7 10 8 14 9 15 10 16
REMARK H PARENT 1 5 1 6 1 7 7 11 7 12 7 13
REMARK Flexibility Score: inf
ROOT
ATOM      1  C   UNL     1     -22.379  -0.973 -12.081  1.00  0.00     0.012 C 
ENDROOT
BRANCH   1   2
ATOM      2  C   UNL     1     -23.710  -1.703 -12.311  1.00  0.00     0.061 C 
BRANCH   2   3
ATOM      3  C   UNL     1     -24.373  -2.150 -10.997  1.00  0.00     0.258 C 
BRANCH   3   4
ATOM      4  N   UNL     1     -24.034  -3.532 -10.649  1.00  0.00    -0.358 N 
ATOM      5  H   UNL     1     -23.063  -3.737 -10.979  1.00  0.00     0.344 HD
ATOM      6  H   UNL     1     -24.694  -4.198 -11.114  1.00  0.00     0.344 HD
ATOM      7  H   UNL     1     -24.063  -3.664  -9.613  1.00  0.00     0.344 HD
ENDBRANCH   3   4
ENDBRANCH   2   3
ENDBRANCH   1   2
BRANCH   1   8
ATOM      8  C   UNL     1     -21.298  -1.485 -13.047  1.00  0.00     0.072 C 
BRANCH   8   9
ATOM      9  C   UNL     1     -20.613  -2.769 -12.532  1.00  0.00     0.227 C 
BRANCH   9  10
ATOM     10  N   UNL     1     -20.673  -2.830 -11.066  1.00  0.00    -0.350 N 
ATOM     11  H   UNL     1     -21.035  -3.760 -10.750  1.00  0.00     0.345 HD
ATOM     12  H   UNL     1     -21.301  -2.075 -10.704  1.00  0.00     0.345 HD
ATOM     13  H   UNL     1     -19.719  -2.680 -10.666  1.00  0.00     0.345 HD
ENDBRANCH   9  10
BRANCH   9  14
ATOM     14  C   UNL     1     -19.181  -2.847 -12.996  1.00  0.00     0.099 C 
ATOM     15  O   UNL     1     -18.864  -3.580 -13.970  1.00  0.00    -0.544 OA
ATOM     16  O   UNL     1     -18.198  -2.115 -12.342  1.00  0.00    -0.544 OA
ENDBRANCH   9  14
ENDBRANCH   8   9
ENDBRANCH   1   8
TORSDOF 7
ENDMDL
MODEL 8
REMARK VINA RESULT:    -3.709      2.701      4.971
REMARK INTER + INTRA:          -5.103
REMARK INTER:                  -4.717
REMARK INTRA:                  -0.386
REMARK UNBOUND:                -0.092
REMARK SMILES [NH3+]CCCC[C@H]([NH3+])C(=O)[O-]
REMARK SMILES IDX 4 1 3 2 2 3 1 4 5 8 6 9 7 10 8 14 9 15 10 16
REMARK H PARENT 1 5 1 6 1 7 7 11 7 12 7 13
REMARK Flexibility Score: inf
ROOT
ATOM      1  C   UNL     1     -23.741  -2.292 -10.856  1.00  0.00     0.012 C 
ENDROOT
BRANCH   1   2
ATOM      2  C   UNL     1     -24.347  -1.726 -12.148  1.00  0.00     0.061 C 
BRANCH   2   3
ATOM      3  C   UNL     1     -24.526  -0.200 -12.097  1.00  0.00     0.258 C 
BRANCH   3   4
ATOM      4  N   UNL     1     -23.544   0.500 -12.929  1.00  0.00    -0.358 N 
ATOM      5  H   UNL     1     -24.035   0.924 -13.750  1.00  0.00     0.344 HD
ATOM      6  H   UNL     1     -22.820  -0.168 -13.280  1.00  0.00     0.344 HD
ATOM      7  H   UNL     1     -23.090   1.269 -12.386  1.00  0.00     0.344 HD
ENDBRANCH   3   4
ENDBRANCH   2   3
ENDBRANCH   1   2
BRANCH   1   8
ATOM      8  C   UNL     1     -22.283  -1.836 -10.686  1.00  0.00     0.072 C 
BRANCH   8   9
ATOM      9  C   UNL     1     -21.286  -2.798 -11.367  1.00  0.00     0.227 C 
BRANCH   9  10
ATOM     10  N   UNL     1     -20.332  -3.327 -10.385  1.00  0.00    -0.350 N 
ATOM     11  H   UNL     1     -20.548  -4.326 -10.160  1.00  0.00     0.345 HD
ATOM     12  H   UNL     1     -20.373  -2.760  -9.507  1.00  0.00     0.345 HD
ATOM     13  H   UNL     1     -19.360  -3.266 -10.767  1.00  0.00     0.345 HD
ENDBRANCH   9  10
BRANCH   9  14
ATOM     14  C   UNL     1     -20.549  -2.115 -12.491  1.00  0.00     0.099 C 
ATOM     15  O   UNL     1     -19.293  -2.178 -12.563  1.00  0.00    -0.544 OA
ATOM     16  O   UNL     1     -21.255  -1.402 -13.451  1.00  0.00    -0.544 OA
ENDBRANCH   9  14
ENDBRANCH   8   9
ENDBRANCH   1   8
TORSDOF 7
ENDMDL
MODEL 9
REMARK VINA RESULT:    -3.653      9.380     10.179
REMARK INTER + INTRA:          -5.027
REMARK INTER:                  -4.918
REMARK INTRA:                  -0.109
REMARK UNBOUND:                -0.092
REMARK SMILES [NH3+]CCCC[C@H]([NH3+])C(=O)[O-]
REMARK SMILES IDX 4 1 3 2 2 3 1 4 5 8 6 9 7 10 8 14 9 15 10 16
REMARK H PARENT 1 5 1 6 1 7 7 11 7 12 7 13
REMARK Flexibility Score: inf
ROOT
ATOM      1  C   UNL     1     -28.967   2.805 -10.340  1.00  0.00     0.012 C 
ENDROOT
BRANCH   1   2
ATOM      2  C   UNL     1     -28.949   1.316 -10.714  1.00  0.00     0.061 C 
BRANCH   2   3
ATOM      3  C   UNL     1     -30.300   0.627 -10.458  1.00  0.00     0.258 C 
BRANCH   3   4
ATOM      4  N   UNL     1     -31.186   0.699 -11.623  1.00  0.00    -0.358 N 
ATOM      5  H   UNL     1     -30.686   0.309 -12.455  1.00  0.00     0.344 HD
ATOM      6  H   UNL     1     -31.447   1.692 -11.824  1.00  0.00     0.344 HD
ATOM      7  H   UNL     1     -32.047   0.128 -11.461  1.00  0.00     0.344 HD
ENDBRANCH   3   4
ENDBRANCH   2   3
ENDBRANCH   1   2
BRANCH   1   8
ATOM      8  C   UNL     1     -27.823   3.560 -11.037  1.00  0.00     0.072 C 
BRANCH   8   9
ATOM      9  C   UNL     1     -28.186   3.968 -12.481  1.00  0.00     0.227 C 
BRANCH   9  10
ATOM     10  N   UNL     1     -27.367   3.226 -13.446  1.00  0.00    -0.350 N 
ATOM     11  H   UNL     1     -26.410   3.643 -13.517  1.00  0.00     0.345 HD
ATOM     12  H   UNL     1     -27.822   3.245 -14.389  1.00  0.00     0.345 HD
ATOM     13  H   UNL     1     -27.283   2.228 -13.146  1.00  0.00     0.345 HD
ENDBRANCH   9  10
BRANCH   9  14
ATOM     14  C   UNL     1     -28.015   5.452 -12.687  1.00  0.00     0.099 C 
ATOM     15  O   UNL     1     -28.801   6.086 -13.441  1.00  0.00    -0.544 OA
ATOM     16  O   UNL     1     -26.981   6.126 -12.052  1.00  0.00    -0.544 OA
ENDBRANCH   9  14
ENDBRANCH   8   9
ENDBRANCH   1   8
TORSDOF 7
ENDMDL
