MODEL 1
REMARK VINA RESULT:    -3.586      0.000      0.000
REMARK INTER + INTRA:          -4.594
REMARK INTER:                  -4.425
REMARK INTRA:                  -0.169
REMARK UNBOUND:                -0.169
REMARK SMILES CCCCC=CC(C)=O
REMARK SMILES IDX 4 1 3 2 2 3 1 4 5 5 6 6 7 7 9 8 8 9
REMARK H PARENT
REMARK Flexibility Score: inf
ROOT
ATOM      1  C   UNL     1      66.148 -16.092  15.236  1.00  0.00     0.027 C 
ENDROOT
BRANCH   1   2
ATOM      2  C   UNL     1      67.286 -17.063  15.599  1.00  0.00     0.004 C 
BRANCH   2   3
ATOM      3  C   UNL     1      68.439 -16.407  16.380  1.00  0.00    -0.003 C 
ATOM      4  C   UNL     1      69.791 -16.532  15.679  1.00  0.00     0.004 C 
ENDBRANCH   2   3
ENDBRANCH   1   2
BRANCH   1   5
ATOM      5  C   UNL     1      66.454 -15.255  14.026  1.00  0.00    -0.023 C 
ATOM      6  C   UNL     1      65.570 -15.107  13.034  1.00  0.00     0.042 C 
BRANCH   6   7
ATOM      7  C   UNL     1      65.856 -14.292  11.838  1.00  0.00     0.152 C 
ATOM      8  O   UNL     1      65.328 -13.157  11.690  1.00  0.00    -0.295 OA
ATOM      9  C   UNL     1      66.774 -14.822  10.784  1.00  0.00     0.093 C 
ENDBRANCH   6   7
ENDBRANCH   1   5
TORSDOF 4
ENDMDL
MODEL 2
REMARK VINA RESULT:    -3.527      2.340      4.825
REMARK INTER + INTRA:          -4.522
REMARK INTER:                  -4.265
REMARK INTRA:                  -0.257
REMARK UNBOUND:                -0.169
REMARK SMILES CCCCC=CC(C)=O
REMARK SMILES IDX 4 1 3 2 2 3 1 4 5 5 6 6 7 7 9 8 8 9
REMARK H PARENT
REMARK Flexibility Score: inf
ROOT
ATOM      1  C   UNL     1      65.375 -15.545  13.450  1.00  0.00     0.027 C 
ENDROOT
BRANCH   1   2
ATOM      2  C   UNL     1      65.959 -14.401  12.601  1.00  0.00     0.004 C 
BRANCH   2   3
ATOM      3  C   UNL     1      65.994 -14.703  11.091  1.00  0.00    -0.003 C 
ATOM      4  C   UNL     1      67.381 -15.102  10.588  1.00  0.00     0.004 C 
ENDBRANCH   2   3
ENDBRANCH   1   2
BRANCH   1   5
ATOM      5  C   UNL     1      66.387 -16.169  14.369  1.00  0.00    -0.023 C 
ATOM      6  C   UNL     1      67.454 -15.489  14.803  1.00  0.00     0.042 C 
BRANCH   6   7
ATOM      7  C   UNL     1      68.458 -16.088  15.702  1.00  0.00     0.152 C 
ATOM      8  O   UNL     1      69.690 -15.973  15.460  1.00  0.00    -0.295 OA
ATOM      9  C   UNL     1      68.011 -16.847  16.909  1.00  0.00     0.093 C 
ENDBRANCH   6   7
ENDBRANCH   1   5
TORSDOF 4
ENDMDL
MODEL 3
REMARK VINA RESULT:    -3.464      2.107      4.649
REMARK INTER + INTRA:          -4.444
REMARK INTER:                  -4.219
REMARK INTRA:                  -0.225
REMARK UNBOUND:                -0.169
REMARK SMILES CCCCC=CC(C)=O
REMARK SMILES IDX 4 1 3 2 2 3 1 4 5 5 6 6 7 7 9 8 8 9
REMARK H PARENT
REMARK Flexibility Score: inf
ROOT
ATOM      1  C   UNL     1      65.689 -14.089  12.394  1.00  0.00     0.027 C 
ENDROOT
BRANCH   1   2
ATOM      2  C   UNL     1      65.924 -14.450  10.917  1.00  0.00     0.004 C 
BRANCH   2   3
ATOM      3  C   UNL     1      66.836 -15.673  10.712  1.00  0.00    -0.003 C 
ATOM      4  C   UNL     1      68.188 -15.321  10.093  1.00  0.00     0.004 C 
ENDBRANCH   2   3
ENDBRANCH   1   2
BRANCH   1   5
ATOM      5  C   UNL     1      66.191 -15.141  13.343  1.00  0.00    -0.023 C 
ATOM      6  C   UNL     1      67.105 -14.863  14.278  1.00  0.00     0.042 C 
BRANCH   6   7
ATOM      7  C   UNL     1      67.611 -15.884  15.214  1.00  0.00     0.152 C 
ATOM      8  O   UNL     1      66.815 -16.587  15.894  1.00  0.00    -0.295 OA
ATOM      9  C   UNL     1      69.084 -16.082  15.367  1.00  0.00     0.093 C 
ENDBRANCH   6   7
ENDBRANCH   1   5
TORSDOF 4
ENDMDL
MODEL 4
REMARK VINA RESULT:    -3.409      2.148      2.659
REMARK INTER + INTRA:          -4.376
REMARK INTER:                  -4.248
REMARK INTRA:                  -0.128
REMARK UNBOUND:                -0.169
REMARK SMILES CCCCC=CC(C)=O
REMARK SMILES IDX 4 1 3 2 2 3 1 4 5 5 6 6 7 7 9 8 8 9
REMARK H PARENT
REMARK Flexibility Score: inf
ROOT
ATOM      1  C   UNL     1      67.255 -14.486  13.829  1.00  0.00     0.027 C 
ENDROOT
BRANCH   1   2
ATOM      2  C   UNL     1      67.195 -15.775  14.669  1.00  0.00     0.004 C 
BRANCH   2   3
ATOM      3  C   UNL     1      68.391 -15.953  15.622  1.00  0.00    -0.003 C 
ATOM      4  C   UNL     1      68.066 -16.811  16.844  1.00  0.00     0.004 C 
ENDBRANCH   2   3
ENDBRANCH   1   2
BRANCH   1   5
ATOM      5  C   UNL     1      68.118 -14.621  12.607  1.00  0.00    -0.023 C 
ATOM      6  C   UNL     1      67.637 -15.114  11.460  1.00  0.00     0.042 C 
BRANCH   6   7
ATOM      7  C   UNL     1      68.471 -15.257  10.252  1.00  0.00     0.152 C 
ATOM      8  O   UNL     1      69.447 -14.486  10.047  1.00  0.00    -0.295 OA
ATOM      9  C   UNL     1      68.151 -16.322   9.254  1.00  0.00     0.093 C 
ENDBRANCH   6   7
ENDBRANCH   1   5
TORSDOF 4
ENDMDL
MODEL 5
REMARK VINA RESULT:    -3.280     19.542     20.110
REMARK INTER + INTRA:          -4.217
REMARK INTER:                  -4.059
REMARK INTRA:                  -0.158
REMARK UNBOUND:                -0.169
REMARK SMILES CCCCC=CC(C)=O
REMARK SMILES IDX 4 1 3 2 2 3 1 4 5 5 6 6 7 7 9 8 8 9
REMARK H PARENT
REMARK Flexibility Score: inf
ROOT
ATOM      1  C   UNL     1      58.100  -1.412  22.099  1.00  0.00     0.027 C 
ENDROOT
BRANCH   1   2
ATOM      2  C   UNL     1      58.679  -2.453  23.074  1.00  0.00     0.004 C 
BRANCH   2   3
ATOM      3  C   UNL     1      58.734  -1.974  24.536  1.00  0.00    -0.003 C 
ATOM      4  C   UNL     1      60.159  -1.824  25.068  1.00  0.00     0.004 C 
ENDBRANCH   2   3
ENDBRANCH   1   2
BRANCH   1   5
ATOM      5  C   UNL     1      56.746  -0.909  22.512  1.00  0.00    -0.023 C 
ATOM      6  C   UNL     1      56.182   0.151  21.924  1.00  0.00     0.042 C 
BRANCH   6   7
ATOM      7  C   UNL     1      54.856   0.660  22.320  1.00  0.00     0.152 C 
ATOM      8  O   UNL     1      54.688   1.224  23.436  1.00  0.00    -0.295 OA
ATOM      9  C   UNL     1      53.694   0.498  21.394  1.00  0.00     0.093 C 
ENDBRANCH   6   7
ENDBRANCH   1   5
TORSDOF 4
ENDMDL
MODEL 6
REMARK VINA RESULT:    -3.209     20.092     20.728
REMARK INTER + INTRA:          -4.128
REMARK INTER:                  -3.985
REMARK INTRA:                  -0.143
REMARK UNBOUND:                -0.169
REMARK SMILES CCCCC=CC(C)=O
REMARK SMILES IDX 4 1 3 2 2 3 1 4 5 5 6 6 7 7 9 8 8 9
REMARK H PARENT
REMARK Flexibility Score: inf
ROOT
ATOM      1  C   UNL     1      56.714  -0.286  22.720  1.00  0.00     0.027 C 
ENDROOT
BRANCH   1   2
ATOM      2  C   UNL     1      57.706  -1.045  21.819  1.00  0.00     0.004 C 
BRANCH   2   3
ATOM      3  C   UNL     1      58.525  -2.117  22.560  1.00  0.00    -0.003 C 
ATOM      4  C   UNL     1      58.476  -1.970  24.081  1.00  0.00     0.004 C 
ENDBRANCH   2   3
ENDBRANCH   1   2
BRANCH   1   5
ATOM      5  C   UNL     1      55.637   0.418  21.943  1.00  0.00    -0.023 C 
ATOM      6  C   UNL     1      54.347   0.096  22.084  1.00  0.00     0.042 C 
BRANCH   6   7
ATOM      7  C   UNL     1      53.278   0.775  21.328  1.00  0.00     0.152 C 
ATOM      8  O   UNL     1      53.108   2.020  21.427  1.00  0.00    -0.295 OA
ATOM      9  C   UNL     1      52.379  -0.024  20.441  1.00  0.00     0.093 C 
ENDBRANCH   6   7
ENDBRANCH   1   5
TORSDOF 4
ENDMDL
MODEL 7
REMARK VINA RESULT:    -3.182      8.597     10.775
REMARK INTER + INTRA:          -4.095
REMARK INTER:                  -3.833
REMARK INTRA:                  -0.262
REMARK UNBOUND:                -0.169
REMARK SMILES CCCCC=CC(C)=O
REMARK SMILES IDX 4 1 3 2 2 3 1 4 5 5 6 6 7 7 9 8 8 9
REMARK H PARENT
REMARK Flexibility Score: inf
ROOT
ATOM      1  C   UNL     1      56.375 -16.801  10.187  1.00  0.00     0.027 C 
ENDROOT
BRANCH   1   2
ATOM      2  C   UNL     1      55.900 -15.446   9.631  1.00  0.00     0.004 C 
BRANCH   2   3
ATOM      3  C   UNL     1      56.753 -14.919   8.463  1.00  0.00    -0.003 C 
ATOM      4  C   UNL     1      57.760 -13.849   8.886  1.00  0.00     0.004 C 
ENDBRANCH   2   3
ENDBRANCH   1   2
BRANCH   1   5
ATOM      5  C   UNL     1      56.900 -16.707  11.591  1.00  0.00    -0.023 C 
ATOM      6  C   UNL     1      58.212 -16.723  11.852  1.00  0.00     0.042 C 
BRANCH   6   7
ATOM      7  C   UNL     1      58.744 -16.635  13.224  1.00  0.00     0.152 C 
ATOM      8  O   UNL     1      59.976 -16.780  13.449  1.00  0.00    -0.295 OA
ATOM      9  C   UNL     1      57.813 -16.379  14.364  1.00  0.00     0.093 C 
ENDBRANCH   6   7
ENDBRANCH   1   5
TORSDOF 4
ENDMDL
MODEL 8
REMARK VINA RESULT:    -3.153      9.414     10.543
REMARK INTER + INTRA:          -4.059
REMARK INTER:                  -3.889
REMARK INTRA:                  -0.170
REMARK UNBOUND:                -0.169
REMARK SMILES CCCCC=CC(C)=O
REMARK SMILES IDX 4 1 3 2 2 3 1 4 5 5 6 6 7 7 9 8 8 9
REMARK H PARENT
REMARK Flexibility Score: inf
ROOT
ATOM      1  C   UNL     1      55.459 -16.542  11.408  1.00  0.00     0.027 C 
ENDROOT
BRANCH   1   2
ATOM      2  C   UNL     1      55.854 -16.468  12.894  1.00  0.00     0.004 C 
BRANCH   2   3
ATOM      3  C   UNL     1      57.318 -16.855  13.168  1.00  0.00    -0.003 C 
ATOM      4  C   UNL     1      57.800 -16.445  14.560  1.00  0.00     0.004 C 
ENDBRANCH   2   3
ENDBRANCH   1   2
BRANCH   1   5
ATOM      5  C   UNL     1      56.526 -16.016  10.490  1.00  0.00    -0.023 C 
ATOM      6  C   UNL     1      56.256 -15.102   9.552  1.00  0.00     0.042 C 
BRANCH   6   7
ATOM      7  C   UNL     1      57.291 -14.577   8.641  1.00  0.00     0.152 C 
ATOM      8  O   UNL     1      57.981 -13.571   8.960  1.00  0.00    -0.295 OA
ATOM      9  C   UNL     1      57.520 -15.240   7.321  1.00  0.00     0.093 C 
ENDBRANCH   6   7
ENDBRANCH   1   5
TORSDOF 4
ENDMDL
MODEL 9
REMARK VINA RESULT:    -3.137     20.154     21.205
REMARK INTER + INTRA:          -4.040
REMARK INTER:                  -3.928
REMARK INTRA:                  -0.112
REMARK UNBOUND:                -0.169
REMARK SMILES CCCCC=CC(C)=O
REMARK SMILES IDX 4 1 3 2 2 3 1 4 5 5 6 6 7 7 9 8 8 9
REMARK H PARENT
REMARK Flexibility Score: inf
ROOT
ATOM      1  C   UNL     1      54.908   0.654  22.184  1.00  0.00     0.027 C 
ENDROOT
BRANCH   1   2
ATOM      2  C   UNL     1      53.625  -0.097  21.785  1.00  0.00     0.004 C 
BRANCH   2   3
ATOM      3  C   UNL     1      52.747   0.664  20.775  1.00  0.00    -0.003 C 
ATOM      4  C   UNL     1      51.723  -0.228  20.073  1.00  0.00     0.004 C 
ENDBRANCH   2   3
ENDBRANCH   1   2
BRANCH   1   5
ATOM      5  C   UNL     1      56.092  -0.256  22.355  1.00  0.00    -0.023 C 
ATOM      6  C   UNL     1      56.642  -0.473  23.554  1.00  0.00     0.042 C 
BRANCH   6   7
ATOM      7  C   UNL     1      57.806  -1.360  23.739  1.00  0.00     0.152 C 
ATOM      8  O   UNL     1      58.226  -1.641  24.895  1.00  0.00    -0.295 OA
ATOM      9  C   UNL     1      58.501  -1.927  22.544  1.00  0.00     0.093 C 
ENDBRANCH   6   7
ENDBRANCH   1   5
TORSDOF 4
ENDMDL
