MODEL 1
REMARK VINA RESULT:    -7.723      0.000      0.000
REMARK INTER + INTRA:          -9.371
REMARK INTER:                  -9.078
REMARK INTRA:                  -0.293
REMARK UNBOUND:                -0.293
REMARK SMILES O=c1cc(-c2ccc(O)c(O)c2)oc2cc(O)cc(O)c12
REMARK SMILES IDX 4 1 3 2 2 3 1 4 21 5 19 6 18 7 16 8 15 9 14 10 13 11 5 12
REMARK SMILES IDX 6 13 7 14 8 15 12 16 10 17 9 18 11 20 20 22 17 24
REMARK H PARENT 9 19 11 21 20 23 17 25
REMARK Flexibility Score: inf
ROOT
ATOM      1  C   UNL     1       9.662  13.124  23.206  1.00  0.00     0.138 A 
ATOM      2  C   UNL     1       9.123  13.792  24.314  1.00  0.00     0.100 A 
ATOM      3  C   UNL     1       8.736  13.061  25.439  1.00  0.00     0.197 A 
ATOM      4  O   UNL     1       8.204  13.683  26.394  1.00  0.00    -0.289 OA
ATOM      5  C   UNL     1       8.923  11.658  25.465  1.00  0.00     0.107 A 
ATOM      6  C   UNL     1       8.599  10.814  26.570  1.00  0.00     0.134 A 
ATOM      7  C   UNL     1       8.738   9.427  26.443  1.00  0.00     0.093 A 
ATOM      8  C   UNL     1       9.244   8.857  25.275  1.00  0.00     0.123 A 
ATOM      9  C   UNL     1       9.613   9.676  24.207  1.00  0.00     0.094 A 
ATOM     10  C   UNL     1       9.453  11.061  24.290  1.00  0.00     0.146 A 
ATOM     11  O   UNL     1       9.799  11.803  23.244  1.00  0.00    -0.456 OA
ENDROOT
BRANCH   1  12
ATOM     12  C   UNL     1      10.094  13.852  21.985  1.00  0.00     0.021 A 
ATOM     13  C   UNL     1      10.217  13.153  20.774  1.00  0.00     0.016 A 
ATOM     14  C   UNL     1      10.615  13.816  19.611  1.00  0.00     0.051 A 
ATOM     15  C   UNL     1      10.889  15.187  19.627  1.00  0.00     0.157 A 
ATOM     16  C   UNL     1      10.354  15.235  21.999  1.00  0.00     0.062 A 
ATOM     17  C   UNL     1      10.751  15.907  20.836  1.00  0.00     0.158 A 
BRANCH  15  18
ATOM     18  O   UNL     1      11.288  15.787  18.431  1.00  0.00    -0.504 OA
ATOM     19  H   UNL     1      11.656  16.725  18.365  1.00  0.00     0.293 HD
ENDBRANCH  15  18
BRANCH  17  20
ATOM     20  O   UNL     1      10.990  17.281  20.926  1.00  0.00    -0.504 OA
ATOM     21  H   UNL     1      11.315  17.849  20.157  1.00  0.00     0.293 HD
ENDBRANCH  17  20
ENDBRANCH   1  12
BRANCH   6  22
ATOM     22  O   UNL     1       8.160  11.283  27.812  1.00  0.00    -0.507 OA
ATOM     23  H   UNL     1       7.198  11.452  28.062  1.00  0.00     0.293 HD
ENDBRANCH   6  22
BRANCH   8  24
ATOM     24  O   UNL     1       9.384   7.473  25.190  1.00  0.00    -0.508 OA
ATOM     25  H   UNL     1      10.039   7.045  24.546  1.00  0.00     0.293 HD
ENDBRANCH   8  24
TORSDOF 5
ENDMDL
MODEL 2
REMARK VINA RESULT:    -7.077      1.490      6.940
REMARK INTER + INTRA:          -8.611
REMARK INTER:                  -8.295
REMARK INTRA:                  -0.315
REMARK UNBOUND:                -0.293
REMARK SMILES O=c1cc(-c2ccc(O)c(O)c2)oc2cc(O)cc(O)c12
REMARK SMILES IDX 4 1 3 2 2 3 1 4 21 5 19 6 18 7 16 8 15 9 14 10 13 11 5 12
REMARK SMILES IDX 6 13 7 14 8 15 12 16 10 17 9 18 11 20 20 22 17 24
REMARK H PARENT 9 19 11 21 20 23 17 25
REMARK Flexibility Score: inf
ROOT
ATOM      1  C   UNL     1       9.859  13.232  24.042  1.00  0.00     0.138 A 
ATOM      2  C   UNL     1      10.083  14.382  24.811  1.00  0.00     0.100 A 
ATOM      3  C   UNL     1      10.458  15.571  24.183  1.00  0.00     0.197 A 
ATOM      4  O   UNL     1      10.705  16.570  24.906  1.00  0.00    -0.289 OA
ATOM      5  C   UNL     1      10.577  15.615  22.773  1.00  0.00     0.107 A 
ATOM      6  C   UNL     1      10.919  16.779  22.020  1.00  0.00     0.134 A 
ATOM      7  C   UNL     1      11.101  16.676  20.637  1.00  0.00     0.093 A 
ATOM      8  C   UNL     1      10.897  15.469  19.969  1.00  0.00     0.123 A 
ATOM      9  C   UNL     1      10.513  14.336  20.688  1.00  0.00     0.094 A 
ATOM     10  C   UNL     1      10.357  14.397  22.074  1.00  0.00     0.146 A 
ATOM     11  O   UNL     1      10.007  13.291  22.723  1.00  0.00    -0.456 OA
ENDROOT
BRANCH   1  12
ATOM     12  C   UNL     1       9.455  11.942  24.657  1.00  0.00     0.021 A 
ATOM     13  C   UNL     1       8.993  11.925  25.982  1.00  0.00     0.016 A 
ATOM     14  C   UNL     1       8.601  10.726  26.581  1.00  0.00     0.051 A 
ATOM     15  C   UNL     1       8.651   9.522  25.872  1.00  0.00     0.157 A 
ATOM     16  C   UNL     1       9.491  10.733  23.937  1.00  0.00     0.062 A 
ATOM     17  C   UNL     1       9.096   9.527  24.529  1.00  0.00     0.158 A 
BRANCH  15  18
ATOM     18  O   UNL     1       8.251   8.359  26.531  1.00  0.00    -0.504 OA
ATOM     19  H   UNL     1       7.671   7.645  26.114  1.00  0.00     0.293 HD
ENDBRANCH  15  18
BRANCH  17  20
ATOM     20  O   UNL     1       9.158   8.368  23.752  1.00  0.00    -0.504 OA
ATOM     21  H   UNL     1       9.180   8.365  22.742  1.00  0.00     0.293 HD
ENDBRANCH  17  20
ENDBRANCH   1  12
BRANCH   6  22
ATOM     22  O   UNL     1      11.069  18.053  22.575  1.00  0.00    -0.507 OA
ATOM     23  H   UNL     1      11.943  18.457  22.873  1.00  0.00     0.293 HD
ENDBRANCH   6  22
BRANCH   8  24
ATOM     24  O   UNL     1      11.073  15.408  18.588  1.00  0.00    -0.508 OA
ATOM     25  H   UNL     1      11.932  15.718  18.149  1.00  0.00     0.293 HD
ENDBRANCH   8  24
TORSDOF 5
ENDMDL
MODEL 3
REMARK VINA RESULT:    -6.720      1.587      7.359
REMARK INTER + INTRA:          -8.191
REMARK INTER:                  -7.899
REMARK INTRA:                  -0.292
REMARK UNBOUND:                -0.293
REMARK SMILES O=c1cc(-c2ccc(O)c(O)c2)oc2cc(O)cc(O)c12
REMARK SMILES IDX 4 1 3 2 2 3 1 4 21 5 19 6 18 7 16 8 15 9 14 10 13 11 5 12
REMARK SMILES IDX 6 13 7 14 8 15 12 16 10 17 9 18 11 20 20 22 17 24
REMARK H PARENT 9 19 11 21 20 23 17 25
REMARK Flexibility Score: inf
ROOT
ATOM      1  C   UNL     1       9.819  12.745  23.616  1.00  0.00     0.138 A 
ATOM      2  C   UNL     1       9.860  12.509  22.236  1.00  0.00     0.100 A 
ATOM      3  C   UNL     1      10.193  13.550  21.367  1.00  0.00     0.197 A 
ATOM      4  O   UNL     1      10.166  13.321  20.130  1.00  0.00    -0.289 OA
ATOM      5  C   UNL     1      10.521  14.825  21.889  1.00  0.00     0.107 A 
ATOM      6  C   UNL     1      10.909  15.951  21.103  1.00  0.00     0.134 A 
ATOM      7  C   UNL     1      11.115  17.188  21.725  1.00  0.00     0.093 A 
ATOM      8  C   UNL     1      11.005  17.327  23.108  1.00  0.00     0.123 A 
ATOM      9  C   UNL     1      10.676  16.221  23.892  1.00  0.00     0.094 A 
ATOM     10  C   UNL     1      10.429  14.981  23.298  1.00  0.00     0.146 A 
ATOM     11  O   UNL     1      10.101  13.958  24.079  1.00  0.00    -0.456 OA
ENDROOT
BRANCH   1  12
ATOM     12  C   UNL     1       9.475  11.674  24.586  1.00  0.00     0.021 A 
ATOM     13  C   UNL     1       8.987  12.023  25.855  1.00  0.00     0.016 A 
ATOM     14  C   UNL     1       8.650  11.034  26.781  1.00  0.00     0.051 A 
ATOM     15  C   UNL     1       8.782   9.679  26.462  1.00  0.00     0.157 A 
ATOM     16  C   UNL     1       9.593  10.310  24.257  1.00  0.00     0.062 A 
ATOM     17  C   UNL     1       9.255   9.312  25.180  1.00  0.00     0.158 A 
BRANCH  15  18
ATOM     18  O   UNL     1       8.434   8.742  27.436  1.00  0.00    -0.504 OA
ATOM     19  H   UNL     1       8.336   7.753  27.258  1.00  0.00     0.293 HD
ENDBRANCH  15  18
BRANCH  17  20
ATOM     20  O   UNL     1       9.397   7.981  24.783  1.00  0.00    -0.504 OA
ATOM     21  H   UNL     1       9.379   7.673  23.821  1.00  0.00     0.293 HD
ENDBRANCH  17  20
ENDBRANCH   1  12
BRANCH   6  22
ATOM     22  O   UNL     1      11.126  15.906  19.722  1.00  0.00    -0.507 OA
ATOM     23  H   UNL     1      11.557  15.141  19.227  1.00  0.00     0.293 HD
ENDBRANCH   6  22
BRANCH   8  24
ATOM     24  O   UNL     1      11.233  18.571  23.694  1.00  0.00    -0.508 OA
ATOM     25  H   UNL     1      10.674  18.900  24.472  1.00  0.00     0.293 HD
ENDBRANCH   8  24
TORSDOF 5
ENDMDL
MODEL 4
REMARK VINA RESULT:    -6.555      1.222      2.814
REMARK INTER + INTRA:          -7.998
REMARK INTER:                  -7.685
REMARK INTRA:                  -0.313
REMARK UNBOUND:                -0.293
REMARK SMILES O=c1cc(-c2ccc(O)c(O)c2)oc2cc(O)cc(O)c12
REMARK SMILES IDX 4 1 3 2 2 3 1 4 21 5 19 6 18 7 16 8 15 9 14 10 13 11 5 12
REMARK SMILES IDX 6 13 7 14 8 15 12 16 10 17 9 18 11 20 20 22 17 24
REMARK H PARENT 9 19 11 21 20 23 17 25
REMARK Flexibility Score: inf
ROOT
ATOM      1  C   UNL     1       9.781  13.039  23.116  1.00  0.00     0.138 A 
ATOM      2  C   UNL     1       9.806  11.638  23.151  1.00  0.00     0.100 A 
ATOM      3  C   UNL     1       9.414  10.969  24.312  1.00  0.00     0.197 A 
ATOM      4  O   UNL     1       9.501   9.715  24.331  1.00  0.00    -0.289 OA
ATOM      5  C   UNL     1       8.962  11.709  25.432  1.00  0.00     0.107 A 
ATOM      6  C   UNL     1       8.505  11.135  26.656  1.00  0.00     0.134 A 
ATOM      7  C   UNL     1       8.174  11.971  27.729  1.00  0.00     0.093 A 
ATOM      8  C   UNL     1       8.227  13.359  27.604  1.00  0.00     0.123 A 
ATOM      9  C   UNL     1       8.623  13.932  26.395  1.00  0.00     0.094 A 
ATOM     10  C   UNL     1       8.994  13.125  25.318  1.00  0.00     0.146 A 
ATOM     11  O   UNL     1       9.382  13.711  24.190  1.00  0.00    -0.456 OA
ENDROOT
BRANCH   1  12
ATOM     12  C   UNL     1      10.184  13.801  21.906  1.00  0.00     0.021 A 
ATOM     13  C   UNL     1      10.199  13.158  20.659  1.00  0.00     0.016 A 
ATOM     14  C   UNL     1      10.567  13.854  19.507  1.00  0.00     0.051 A 
ATOM     15  C   UNL     1      10.919  15.206  19.569  1.00  0.00     0.157 A 
ATOM     16  C   UNL     1      10.523  15.166  21.969  1.00  0.00     0.062 A 
ATOM     17  C   UNL     1      10.890  15.873  20.817  1.00  0.00     0.158 A 
BRANCH  15  18
ATOM     18  O   UNL     1      11.284  15.841  18.381  1.00  0.00    -0.504 OA
ATOM     19  H   UNL     1      12.007  16.544  18.315  1.00  0.00     0.293 HD
ENDBRANCH  15  18
BRANCH  17  20
ATOM     20  O   UNL     1      11.212  17.225  20.956  1.00  0.00    -0.504 OA
ATOM     21  H   UNL     1      11.437  17.834  20.183  1.00  0.00     0.293 HD
ENDBRANCH  17  20
ENDBRANCH   1  12
BRANCH   6  22
ATOM     22  O   UNL     1       8.338   9.762  26.863  1.00  0.00    -0.507 OA
ATOM     23  H   UNL     1       8.316   9.064  26.137  1.00  0.00     0.293 HD
ENDBRANCH   6  22
BRANCH   8  24
ATOM     24  O   UNL     1       7.875  14.160  28.689  1.00  0.00    -0.508 OA
ATOM     25  H   UNL     1       8.543  14.392  29.415  1.00  0.00     0.293 HD
ENDBRANCH   8  24
TORSDOF 5
ENDMDL
MODEL 5
REMARK VINA RESULT:    -6.436      4.382      9.910
REMARK INTER + INTRA:          -7.857
REMARK INTER:                  -7.566
REMARK INTRA:                  -0.291
REMARK UNBOUND:                -0.293
REMARK SMILES O=c1cc(-c2ccc(O)c(O)c2)oc2cc(O)cc(O)c12
REMARK SMILES IDX 4 1 3 2 2 3 1 4 21 5 19 6 18 7 16 8 15 9 14 10 13 11 5 12
REMARK SMILES IDX 6 13 7 14 8 15 12 16 10 17 9 18 11 20 20 22 17 24
REMARK H PARENT 9 19 11 21 20 23 17 25
REMARK Flexibility Score: inf
ROOT
ATOM      1  C   UNL     1       8.288   7.230  28.754  1.00  0.00     0.138 A 
ATOM      2  C   UNL     1       7.987   8.359  29.527  1.00  0.00     0.100 A 
ATOM      3  C   UNL     1       8.103   9.632  28.964  1.00  0.00     0.197 A 
ATOM      4  O   UNL     1       7.879  10.627  29.700  1.00  0.00    -0.289 OA
ATOM      5  C   UNL     1       8.489   9.770  27.609  1.00  0.00     0.107 A 
ATOM      6  C   UNL     1       8.606  11.014  26.918  1.00  0.00     0.134 A 
ATOM      7  C   UNL     1       9.092  11.030  25.606  1.00  0.00     0.093 A 
ATOM      8  C   UNL     1       9.407   9.847  24.938  1.00  0.00     0.123 A 
ATOM      9  C   UNL     1       9.248   8.622  25.586  1.00  0.00     0.094 A 
ATOM     10  C   UNL     1       8.799   8.573  26.908  1.00  0.00     0.146 A 
ATOM     11  O   UNL     1       8.678   7.387  27.494  1.00  0.00    -0.456 OA
ENDROOT
BRANCH   1  12
ATOM     12  C   UNL     1       8.179   5.853  29.300  1.00  0.00     0.021 A 
ATOM     13  C   UNL     1       8.004   4.774  28.420  1.00  0.00     0.016 A 
ATOM     14  C   UNL     1       7.906   3.469  28.909  1.00  0.00     0.051 A 
ATOM     15  C   UNL     1       7.988   3.211  30.280  1.00  0.00     0.157 A 
ATOM     16  C   UNL     1       8.277   5.593  30.680  1.00  0.00     0.062 A 
ATOM     17  C   UNL     1       8.182   4.287  31.178  1.00  0.00     0.158 A 
BRANCH  15  18
ATOM     18  O   UNL     1       7.875   1.886  30.703  1.00  0.00    -0.504 OA
ATOM     19  H   UNL     1       7.173   1.557  31.351  1.00  0.00     0.293 HD
ENDBRANCH  15  18
BRANCH  17  20
ATOM     20  O   UNL     1       8.291   4.106  32.559  1.00  0.00    -0.504 OA
ATOM     21  H   UNL     1       7.844   3.356  33.067  1.00  0.00     0.293 HD
ENDBRANCH  17  20
ENDBRANCH   1  12
BRANCH   6  22
ATOM     22  O   UNL     1       8.244  12.249  27.463  1.00  0.00    -0.507 OA
ATOM     23  H   UNL     1       7.781  12.380  28.349  1.00  0.00     0.293 HD
ENDBRANCH   6  22
BRANCH   8  24
ATOM     24  O   UNL     1       9.873   9.901  23.626  1.00  0.00    -0.508 OA
ATOM     25  H   UNL     1      10.522  10.618  23.323  1.00  0.00     0.293 HD
ENDBRANCH   8  24
TORSDOF 5
ENDMDL
MODEL 6
REMARK VINA RESULT:    -6.415      1.512      3.304
REMARK INTER + INTRA:          -7.833
REMARK INTER:                  -7.535
REMARK INTRA:                  -0.297
REMARK UNBOUND:                -0.293
REMARK SMILES O=c1cc(-c2ccc(O)c(O)c2)oc2cc(O)cc(O)c12
REMARK SMILES IDX 4 1 3 2 2 3 1 4 21 5 19 6 18 7 16 8 15 9 14 10 13 11 5 12
REMARK SMILES IDX 6 13 7 14 8 15 12 16 10 17 9 18 11 20 20 22 17 24
REMARK H PARENT 9 19 11 21 20 23 17 25
REMARK Flexibility Score: inf
ROOT
ATOM      1  C   UNL     1       9.747  12.231  24.361  1.00  0.00     0.138 A 
ATOM      2  C   UNL     1       9.719  11.005  23.681  1.00  0.00     0.100 A 
ATOM      3  C   UNL     1       9.324   9.849  24.357  1.00  0.00     0.197 A 
ATOM      4  O   UNL     1       9.363   8.757  23.735  1.00  0.00    -0.289 OA
ATOM      5  C   UNL     1       8.920   9.930  25.712  1.00  0.00     0.107 A 
ATOM      6  C   UNL     1       8.464   8.825  26.492  1.00  0.00     0.134 A 
ATOM      7  C   UNL     1       8.185   9.009  27.851  1.00  0.00     0.093 A 
ATOM      8  C   UNL     1       8.288  10.267  28.445  1.00  0.00     0.123 A 
ATOM      9  C   UNL     1       8.683  11.364  27.679  1.00  0.00     0.094 A 
ATOM     10  C   UNL     1       9.003  11.207  26.329  1.00  0.00     0.146 A 
ATOM     11  O   UNL     1       9.393  12.274  25.641  1.00  0.00    -0.456 OA
ENDROOT
BRANCH   1  12
ATOM     12  C   UNL     1      10.156  13.491  23.691  1.00  0.00     0.021 A 
ATOM     13  C   UNL     1      10.172  14.688  24.423  1.00  0.00     0.016 A 
ATOM     14  C   UNL     1      10.559  15.885  23.818  1.00  0.00     0.051 A 
ATOM     15  C   UNL     1      10.947  15.914  22.475  1.00  0.00     0.157 A 
ATOM     16  C   UNL     1      10.561  13.517  22.342  1.00  0.00     0.062 A 
ATOM     17  C   UNL     1      10.953  14.713  21.728  1.00  0.00     0.158 A 
BRANCH  15  18
ATOM     18  O   UNL     1      11.316  17.145  21.929  1.00  0.00    -0.504 OA
ATOM     19  H   UNL     1      10.661  17.875  21.687  1.00  0.00     0.293 HD
ENDBRANCH  15  18
BRANCH  17  20
ATOM     20  O   UNL     1      11.343  14.660  20.388  1.00  0.00    -0.504 OA
ATOM     21  H   UNL     1      12.159  15.127  20.019  1.00  0.00     0.293 HD
ENDBRANCH  17  20
ENDBRANCH   1  12
BRANCH   6  22
ATOM     22  O   UNL     1       8.249   7.541  25.982  1.00  0.00    -0.507 OA
ATOM     23  H   UNL     1       7.367   7.053  25.989  1.00  0.00     0.293 HD
ENDBRANCH   6  22
BRANCH   8  24
ATOM     24  O   UNL     1       7.986  10.415  29.797  1.00  0.00    -0.508 OA
ATOM     25  H   UNL     1       7.892   9.614  30.410  1.00  0.00     0.293 HD
ENDBRANCH   8  24
TORSDOF 5
ENDMDL
MODEL 7
REMARK VINA RESULT:    -6.003      3.662      6.756
REMARK INTER + INTRA:          -7.349
REMARK INTER:                  -7.032
REMARK INTRA:                  -0.317
REMARK UNBOUND:                -0.293
REMARK SMILES O=c1cc(-c2ccc(O)c(O)c2)oc2cc(O)cc(O)c12
REMARK SMILES IDX 4 1 3 2 2 3 1 4 21 5 19 6 18 7 16 8 15 9 14 10 13 11 5 12
REMARK SMILES IDX 6 13 7 14 8 15 12 16 10 17 9 18 11 20 20 22 17 24
REMARK H PARENT 9 19 11 21 20 23 17 25
REMARK Flexibility Score: inf
ROOT
ATOM      1  C   UNL     1       9.865  16.413  24.403  1.00  0.00     0.138 A 
ATOM      2  C   UNL     1       9.394  15.123  24.681  1.00  0.00     0.100 A 
ATOM      3  C   UNL     1       9.393  14.156  23.674  1.00  0.00     0.197 A 
ATOM      4  O   UNL     1       8.912  13.025  23.940  1.00  0.00    -0.289 OA
ATOM      5  C   UNL     1       9.900  14.475  22.391  1.00  0.00     0.107 A 
ATOM      6  C   UNL     1       9.982  13.561  21.297  1.00  0.00     0.134 A 
ATOM      7  C   UNL     1      10.412  14.019  20.047  1.00  0.00     0.093 A 
ATOM      8  C   UNL     1      10.819  15.341  19.863  1.00  0.00     0.123 A 
ATOM      9  C   UNL     1      10.792  16.230  20.938  1.00  0.00     0.094 A 
ATOM     10  C   UNL     1      10.335  15.813  22.190  1.00  0.00     0.146 A 
ATOM     11  O   UNL     1      10.308  16.696  23.182  1.00  0.00    -0.456 OA
ENDROOT
BRANCH   1  12
ATOM     12  C   UNL     1       9.892  17.479  25.436  1.00  0.00     0.021 A 
ATOM     13  C   UNL     1       9.649  17.145  26.778  1.00  0.00     0.016 A 
ATOM     14  C   UNL     1       9.675  18.128  27.769  1.00  0.00     0.051 A 
ATOM     15  C   UNL     1       9.953  19.460  27.448  1.00  0.00     0.157 A 
ATOM     16  C   UNL     1      10.188  18.817  25.114  1.00  0.00     0.062 A 
ATOM     17  C   UNL     1      10.219  19.809  26.103  1.00  0.00     0.158 A 
BRANCH  15  18
ATOM     18  O   UNL     1       9.957  20.394  28.486  1.00  0.00    -0.504 OA
ATOM     19  H   UNL     1       9.122  20.770  28.911  1.00  0.00     0.293 HD
ENDBRANCH  15  18
BRANCH  17  20
ATOM     20  O   UNL     1      10.521  21.114  25.709  1.00  0.00    -0.504 OA
ATOM     21  H   UNL     1      10.857  21.830  26.336  1.00  0.00     0.293 HD
ENDBRANCH  17  20
ENDBRANCH   1  12
BRANCH   6  22
ATOM     22  O   UNL     1       9.676  12.200  21.389  1.00  0.00    -0.507 OA
ATOM     23  H   UNL     1       9.514  11.698  22.248  1.00  0.00     0.293 HD
ENDBRANCH   6  22
BRANCH   8  24
ATOM     24  O   UNL     1      11.257  15.757  18.608  1.00  0.00    -0.508 OA
ATOM     25  H   UNL     1      11.372  16.739  18.385  1.00  0.00     0.293 HD
ENDBRANCH   8  24
TORSDOF 5
ENDMDL
MODEL 8
REMARK VINA RESULT:    -5.873      3.943      6.332
REMARK INTER + INTRA:          -7.196
REMARK INTER:                  -6.900
REMARK INTRA:                  -0.296
REMARK UNBOUND:                -0.293
REMARK SMILES O=c1cc(-c2ccc(O)c(O)c2)oc2cc(O)cc(O)c12
REMARK SMILES IDX 4 1 3 2 2 3 1 4 21 5 19 6 18 7 16 8 15 9 14 10 13 11 5 12
REMARK SMILES IDX 6 13 7 14 8 15 12 16 10 17 9 18 11 20 20 22 17 24
REMARK H PARENT 9 19 11 21 20 23 17 25
REMARK Flexibility Score: inf
ROOT
ATOM      1  C   UNL     1      10.220  16.880  23.171  1.00  0.00     0.138 A 
ATOM      2  C   UNL     1      10.233  18.235  22.813  1.00  0.00     0.100 A 
ATOM      3  C   UNL     1      10.125  19.212  23.804  1.00  0.00     0.197 A 
ATOM      4  O   UNL     1      10.084  20.417  23.446  1.00  0.00    -0.289 OA
ATOM      5  C   UNL     1      10.039  18.829  25.164  1.00  0.00     0.107 A 
ATOM      6  C   UNL     1       9.961  19.737  26.263  1.00  0.00     0.134 A 
ATOM      7  C   UNL     1       9.781  19.238  27.559  1.00  0.00     0.093 A 
ATOM      8  C   UNL     1       9.736  17.866  27.803  1.00  0.00     0.123 A 
ATOM      9  C   UNL     1       9.862  16.968  26.743  1.00  0.00     0.094 A 
ATOM     10  C   UNL     1      10.008  17.434  25.435  1.00  0.00     0.146 A 
ATOM     11  O   UNL     1      10.107  16.546  24.452  1.00  0.00    -0.456 OA
ENDROOT
BRANCH   1  12
ATOM     12  C   UNL     1      10.334  15.800  22.159  1.00  0.00     0.021 A 
ATOM     13  C   UNL     1      10.090  14.471  22.538  1.00  0.00     0.016 A 
ATOM     14  C   UNL     1      10.184  13.438  21.603  1.00  0.00     0.051 A 
ATOM     15  C   UNL     1      10.515  13.706  20.272  1.00  0.00     0.157 A 
ATOM     16  C   UNL     1      10.652  16.073  20.815  1.00  0.00     0.062 A 
ATOM     17  C   UNL     1      10.746  15.043  19.870  1.00  0.00     0.158 A 
BRANCH  15  18
ATOM     18  O   UNL     1      10.599  12.627  19.390  1.00  0.00    -0.504 OA
ATOM     19  H   UNL     1      10.830  11.685  19.670  1.00  0.00     0.293 HD
ENDBRANCH  15  18
BRANCH  17  20
ATOM     20  O   UNL     1      11.064  15.391  18.556  1.00  0.00    -0.504 OA
ATOM     21  H   UNL     1      11.345  14.727  17.848  1.00  0.00     0.293 HD
ENDBRANCH  17  20
ENDBRANCH   1  12
BRANCH   6  22
ATOM     22  O   UNL     1      10.075  21.125  26.142  1.00  0.00    -0.507 OA
ATOM     23  H   UNL     1       9.494  21.799  26.616  1.00  0.00     0.293 HD
ENDBRANCH   6  22
BRANCH   8  24
ATOM     24  O   UNL     1       9.571  17.406  29.108  1.00  0.00    -0.508 OA
ATOM     25  H   UNL     1       8.751  16.878  29.385  1.00  0.00     0.293 HD
ENDBRANCH   8  24
TORSDOF 5
ENDMDL
MODEL 9
REMARK VINA RESULT:    -5.858      1.644      7.073
REMARK INTER + INTRA:          -7.178
REMARK INTER:                  -6.866
REMARK INTRA:                  -0.313
REMARK UNBOUND:                -0.293
REMARK SMILES O=c1cc(-c2ccc(O)c(O)c2)oc2cc(O)cc(O)c12
REMARK SMILES IDX 4 1 3 2 2 3 1 4 21 5 19 6 18 7 16 8 15 9 14 10 13 11 5 12
REMARK SMILES IDX 6 13 7 14 8 15 12 16 10 17 9 18 11 20 20 22 17 24
REMARK H PARENT 9 19 11 21 20 23 17 25
REMARK Flexibility Score: inf
ROOT
ATOM      1  C   UNL     1       8.889  12.172  25.356  1.00  0.00     0.138 A 
ATOM      2  C   UNL     1       8.427  13.420  25.796  1.00  0.00     0.100 A 
ATOM      3  C   UNL     1       8.523  14.528  24.952  1.00  0.00     0.197 A 
ATOM      4  O   UNL     1       8.151  15.645  25.396  1.00  0.00    -0.289 OA
ATOM      5  C   UNL     1       9.053  14.376  23.648  1.00  0.00     0.107 A 
ATOM      6  C   UNL     1       9.167  15.427  22.688  1.00  0.00     0.134 A 
ATOM      7  C   UNL     1       9.799  15.176  21.464  1.00  0.00     0.093 A 
ATOM      8  C   UNL     1      10.266  13.903  21.140  1.00  0.00     0.123 A 
ATOM      9  C   UNL     1      10.113  12.856  22.051  1.00  0.00     0.094 A 
ATOM     10  C   UNL     1       9.520  13.082  23.295  1.00  0.00     0.146 A 
ATOM     11  O   UNL     1       9.410  12.062  24.139  1.00  0.00    -0.456 OA
ENDROOT
BRANCH   1  12
ATOM     12  C   UNL     1       8.808  10.960  26.211  1.00  0.00     0.021 A 
ATOM     13  C   UNL     1       8.625  11.103  27.595  1.00  0.00     0.016 A 
ATOM     14  C   UNL     1       8.539   9.979  28.418  1.00  0.00     0.051 A 
ATOM     15  C   UNL     1       8.625   8.691  27.882  1.00  0.00     0.157 A 
ATOM     16  C   UNL     1       8.879   9.663  25.667  1.00  0.00     0.062 A 
ATOM     17  C   UNL     1       8.791   8.531  26.486  1.00  0.00     0.158 A 
BRANCH  15  18
ATOM     18  O   UNL     1       8.538   7.610  28.761  1.00  0.00    -0.504 OA
ATOM     19  H   UNL     1       8.364   7.700  29.751  1.00  0.00     0.293 HD
ENDBRANCH  15  18
BRANCH  17  20
ATOM     20  O   UNL     1       8.867   7.277  25.875  1.00  0.00    -0.504 OA
ATOM     21  H   UNL     1       8.136   6.582  25.917  1.00  0.00     0.293 HD
ENDBRANCH  17  20
ENDBRANCH   1  12
BRANCH   6  22
ATOM     22  O   UNL     1       8.664  16.717  22.875  1.00  0.00    -0.507 OA
ATOM     23  H   UNL     1       8.688  17.455  22.189  1.00  0.00     0.293 HD
ENDBRANCH   6  22
BRANCH   8  24
ATOM     24  O   UNL     1      10.875  13.687  19.906  1.00  0.00    -0.508 OA
ATOM     25  H   UNL     1      10.433  13.125  19.188  1.00  0.00     0.293 HD
ENDBRANCH   8  24
TORSDOF 5
ENDMDL
