MODEL 1
REMARK VINA RESULT:    -5.294      0.000      0.000
REMARK INTER + INTRA:          -7.985
REMARK INTER:                  -8.079
REMARK INTRA:                   0.093
REMARK UNBOUND:                 0.093
REMARK SMILES CC1=CCC[C@@H](C)C(=O)C[C@@H](C(C)C)C(=O)C1
REMARK SMILES IDX 8 1 9 2 6 3 7 4 5 5 4 6 3 7 2 8 1 9 10 11 11 12 15 13 16 14
REMARK SMILES IDX 17 15 12 17 13 18 14 19
REMARK H PARENT
REMARK Flexibility Score: 70.00
ROOT
ATOM      1  C   UNL     1     -13.286 -14.789  30.133  1.00  0.00     0.136 C 
ATOM      2  O   UNL     1     -14.107 -13.882  30.105  1.00  0.00    -0.299 OA
ENDROOT
BRANCH   1   3
ATOM      3  C   UNL     1     -13.250 -15.665  31.380  1.00  0.00     0.053 C 
ATOM      4  C   UNL     1     -14.423 -15.276  32.295  1.00  0.00     0.016 C 
BRANCH   3   5
ATOM      5  C   UNL     1     -11.942 -15.649  32.206  1.00  0.00     0.015 C 
BRANCH   5   6
ATOM      6  C   UNL     1     -11.080 -16.923  32.170  1.00  0.00     0.028 C 
BRANCH   6   7
ATOM      7  C   UNL     1     -11.793 -18.162  31.677  1.00  0.00    -0.028 C 
ATOM      8  C   UNL     1     -11.583 -18.847  30.519  1.00  0.00    -0.070 CG0
ATOM      9  C   UNL     1     -12.399 -20.102  30.323  1.00  0.00     0.039 C 
ATOM     10  G   UNL     1     -10.703 -18.404  29.349  1.00  0.00     0.000 G0
ENDBRANCH   6   7
ENDBRANCH   5   6
ENDBRANCH   3   5
ENDBRANCH   1   3
BRANCH   1  11
ATOM     11  C   UNL     1     -12.396 -14.949  28.918  1.00  0.00     0.087 C 
BRANCH  11  12
ATOM     12  C   UNL     1     -12.253 -16.442  28.499  1.00  0.00     0.066 C 
BRANCH  12  13
ATOM     13  C   UNL     1     -10.868 -16.974  28.876  1.00  0.00     0.140 C 
ATOM     14  O   UNL     1      -9.880 -16.260  28.765  1.00  0.00    -0.299 OA
BRANCH  13  15
ATOM     15  C   UNL     1     -10.686 -18.392  29.348  1.00  0.00     0.106 CG0
ATOM     16  G   UNL     1     -11.578 -18.836  30.508  1.00  0.00     0.000 G0
ENDBRANCH  13  15
ENDBRANCH  12  13
BRANCH  12  17
ATOM     17  C   UNL     1     -12.573 -16.692  26.985  1.00  0.00    -0.006 C 
ATOM     18  C   UNL     1     -13.410 -15.534  26.402  1.00  0.00     0.008 C 
ATOM     19  C   UNL     1     -11.309 -16.859  26.120  1.00  0.00     0.008 C 
ENDBRANCH  12  17
ENDBRANCH  11  12
ENDBRANCH   1  11
TORSDOF 1
ENDMDL
MODEL 2
REMARK VINA RESULT:    -5.246      1.860      4.672
REMARK INTER + INTRA:          -7.912
REMARK INTER:                  -7.483
REMARK INTRA:                  -0.429
REMARK UNBOUND:                 0.093
REMARK SMILES CC1=CCC[C@@H](C)C(=O)C[C@@H](C(C)C)C(=O)C1
REMARK SMILES IDX 8 1 9 2 6 3 7 4 5 5 4 6 3 7 2 8 1 9 10 11 11 12 15 13 16 14
REMARK SMILES IDX 17 15 12 17 13 18 14 19
REMARK H PARENT
REMARK Flexibility Score: 70.00
ROOT
ATOM      1  C   UNL     1     -10.947 -16.844  28.423  1.00  0.00     0.136 C 
ATOM      2  O   UNL     1      -9.936 -16.183  28.233  1.00  0.00    -0.299 OA
ENDROOT
BRANCH   1   3
ATOM      3  C   UNL     1     -12.083 -16.694  27.417  1.00  0.00     0.053 C 
ATOM      4  C   UNL     1     -11.517 -16.874  25.999  1.00  0.00     0.016 C 
BRANCH   3   5
ATOM      5  C   UNL     1     -12.894 -15.377  27.471  1.00  0.00     0.015 C 
BRANCH   5   6
ATOM      6  C   UNL     1     -12.586 -14.419  28.635  1.00  0.00     0.028 C 
BRANCH   6   7
ATOM      7  C   UNL     1     -13.632 -14.381  29.725  1.00  0.00    -0.028 C 
ATOM      8  C   UNL     1     -13.552 -14.894  30.984  1.00  0.00    -0.070 CG0
ATOM      9  C   UNL     1     -14.733 -14.639  31.890  1.00  0.00     0.039 C 
ATOM     10  G   UNL     1     -12.451 -15.807  31.524  1.00  0.00     0.000 G0
ENDBRANCH   6   7
ENDBRANCH   5   6
ENDBRANCH   3   5
ENDBRANCH   1   3
BRANCH   1  11
ATOM     11  C   UNL     1     -10.960 -17.749  29.638  1.00  0.00     0.087 C 
BRANCH  11  12
ATOM     12  C   UNL     1     -12.411 -18.050  30.118  1.00  0.00     0.066 C 
BRANCH  12  13
ATOM     13  C   UNL     1     -12.709 -17.306  31.422  1.00  0.00     0.140 C 
ATOM     14  O   UNL     1     -13.189 -17.899  32.379  1.00  0.00    -0.299 OA
BRANCH  13  15
ATOM     15  C   UNL     1     -12.457 -15.826  31.542  1.00  0.00     0.106 CG0
ATOM     16  G   UNL     1     -13.548 -14.910  30.984  1.00  0.00     0.000 G0
ENDBRANCH  13  15
ENDBRANCH  12  13
BRANCH  12  17
ATOM     17  C   UNL     1     -12.712 -19.583  30.249  1.00  0.00    -0.006 C 
ATOM     18  C   UNL     1     -12.960 -20.215  28.864  1.00  0.00     0.008 C 
ATOM     19  C   UNL     1     -11.579 -20.364  30.942  1.00  0.00     0.008 C 
ENDBRANCH  12  17
ENDBRANCH  11  12
ENDBRANCH   1  11
TORSDOF 1
ENDMDL
MODEL 3
REMARK VINA RESULT:    -5.055      1.847      4.144
REMARK INTER + INTRA:          -7.622
REMARK INTER:                  -7.317
REMARK INTRA:                  -0.304
REMARK UNBOUND:                 0.093
REMARK SMILES CC1=CCC[C@@H](C)C(=O)C[C@@H](C(C)C)C(=O)C1
REMARK SMILES IDX 8 1 9 2 6 3 7 4 5 5 4 6 3 7 2 8 1 9 10 11 11 12 15 13 16 14
REMARK SMILES IDX 17 15 12 17 13 18 14 19
REMARK H PARENT
REMARK Flexibility Score: 70.00
ROOT
ATOM      1  C   UNL     1     -12.172 -17.915  31.597  1.00  0.00     0.136 C 
ATOM      2  O   UNL     1     -13.126 -18.074  32.346  1.00  0.00    -0.299 OA
ENDROOT
BRANCH   1   3
ATOM      3  C   UNL     1     -11.477 -19.165  31.071  1.00  0.00     0.053 C 
ATOM      4  C   UNL     1     -10.080 -18.778  30.558  1.00  0.00     0.016 C 
BRANCH   3   5
ATOM      5  C   UNL     1     -12.214 -19.962  29.968  1.00  0.00     0.015 C 
BRANCH   5   6
ATOM      6  C   UNL     1     -12.872 -19.146  28.843  1.00  0.00     0.028 C 
BRANCH   6   7
ATOM      7  C   UNL     1     -11.930 -18.678  27.758  1.00  0.00    -0.028 C 
ATOM      8  C   UNL     1     -11.714 -17.406  27.324  1.00  0.00    -0.070 CG0
ATOM      9  C   UNL     1     -10.650 -17.227  26.267  1.00  0.00     0.039 C 
ATOM     10  G   UNL     1     -12.527 -16.167  27.703  1.00  0.00     0.000 G0
ENDBRANCH   6   7
ENDBRANCH   5   6
ENDBRANCH   3   5
ENDBRANCH   1   3
BRANCH   1  11
ATOM     11  C   UNL     1     -11.788 -16.488  31.267  1.00  0.00     0.087 C 
BRANCH  11  12
ATOM     12  C   UNL     1     -12.810 -15.824  30.297  1.00  0.00     0.066 C 
BRANCH  12  13
ATOM     13  C   UNL     1     -12.134 -15.461  28.972  1.00  0.00     0.140 C 
ATOM     14  O   UNL     1     -11.287 -14.578  28.931  1.00  0.00    -0.299 OA
BRANCH  13  15
ATOM     15  C   UNL     1     -12.523 -16.150  27.691  1.00  0.00     0.106 CG0
ATOM     16  G   UNL     1     -11.723 -17.401  27.327  1.00  0.00     0.000 G0
ENDBRANCH  13  15
ENDBRANCH  12  13
BRANCH  12  17
ATOM     17  C   UNL     1     -13.545 -14.590  30.925  1.00  0.00    -0.006 C 
ATOM     18  C   UNL     1     -14.402 -13.864  29.867  1.00  0.00     0.008 C 
ATOM     19  C   UNL     1     -14.456 -14.967  32.109  1.00  0.00     0.008 C 
ENDBRANCH  12  17
ENDBRANCH  11  12
ENDBRANCH   1  11
TORSDOF 1
ENDMDL
MODEL 4
REMARK VINA RESULT:    -4.963      1.991      4.071
REMARK INTER + INTRA:          -7.482
REMARK INTER:                  -7.850
REMARK INTRA:                   0.368
REMARK UNBOUND:                 0.093
REMARK SMILES CC1=CCC[C@@H](C)C(=O)C[C@@H](C(C)C)C(=O)C1
REMARK SMILES IDX 8 1 9 2 6 3 7 4 5 5 4 6 3 7 2 8 1 9 10 11 11 12 15 13 16 14
REMARK SMILES IDX 17 15 12 17 13 18 14 19
REMARK H PARENT
REMARK Flexibility Score: 70.00
ROOT
ATOM      1  C   UNL     1     -11.507 -16.898  27.382  1.00  0.00     0.136 C 
ATOM      2  O   UNL     1     -11.158 -16.894  26.210  1.00  0.00    -0.299 OA
ENDROOT
BRANCH   1   3
ATOM      3  C   UNL     1     -12.629 -15.947  27.784  1.00  0.00     0.053 C 
ATOM      4  C   UNL     1     -13.305 -15.411  26.511  1.00  0.00     0.016 C 
BRANCH   3   5
ATOM      5  C   UNL     1     -12.240 -14.751  28.687  1.00  0.00     0.015 C 
BRANCH   5   6
ATOM      6  C   UNL     1     -13.326 -14.216  29.637  1.00  0.00     0.028 C 
BRANCH   6   7
ATOM      7  C   UNL     1     -13.652 -15.116  30.807  1.00  0.00    -0.028 C 
ATOM      8  C   UNL     1     -12.793 -15.851  31.565  1.00  0.00    -0.070 CG0
ATOM      9  C   UNL     1     -13.398 -16.604  32.726  1.00  0.00     0.039 C 
ATOM     10  G   UNL     1     -11.310 -16.091  31.283  1.00  0.00     0.000 G0
ENDBRANCH   6   7
ENDBRANCH   5   6
ENDBRANCH   3   5
ENDBRANCH   1   3
BRANCH   1  11
ATOM     11  C   UNL     1     -10.789 -17.855  28.311  1.00  0.00     0.087 C 
BRANCH  11  12
ATOM     12  C   UNL     1     -11.609 -18.125  29.608  1.00  0.00     0.066 C 
BRANCH  12  13
ATOM     13  C   UNL     1     -10.919 -17.491  30.819  1.00  0.00     0.140 C 
ATOM     14  O   UNL     1     -10.072 -18.114  31.446  1.00  0.00    -0.299 OA
BRANCH  13  15
ATOM     15  C   UNL     1     -11.296 -16.111  31.289  1.00  0.00     0.106 CG0
ATOM     16  G   UNL     1     -12.781 -15.878  31.572  1.00  0.00     0.000 G0
ENDBRANCH  13  15
ENDBRANCH  12  13
BRANCH  12  17
ATOM     17  C   UNL     1     -11.905 -19.646  29.846  1.00  0.00    -0.006 C 
ATOM     18  C   UNL     1     -12.490 -19.879  31.254  1.00  0.00     0.008 C 
ATOM     19  C   UNL     1     -12.881 -20.240  28.812  1.00  0.00     0.008 C 
ENDBRANCH  12  17
ENDBRANCH  11  12
ENDBRANCH   1  11
TORSDOF 1
ENDMDL
MODEL 5
REMARK VINA RESULT:    -4.789      1.558      2.328
REMARK INTER + INTRA:          -7.216
REMARK INTER:                  -7.835
REMARK INTRA:                   0.620
REMARK UNBOUND:                 0.093
REMARK SMILES CC1=CCC[C@@H](C)C(=O)C[C@@H](C(C)C)C(=O)C1
REMARK SMILES IDX 8 1 9 2 6 3 7 4 5 5 4 6 3 7 2 8 1 9 10 11 11 12 15 13 16 14
REMARK SMILES IDX 17 15 12 17 13 18 14 19
REMARK H PARENT
REMARK Flexibility Score: 70.00
ROOT
ATOM      1  C   UNL     1     -11.885 -16.187  31.176  1.00  0.00     0.136 C 
ATOM      2  O   UNL     1     -13.002 -15.782  31.466  1.00  0.00    -0.299 OA
ENDROOT
BRANCH   1   3
ATOM      3  C   UNL     1     -11.177 -17.079  32.189  1.00  0.00     0.053 C 
ATOM      4  C   UNL     1     -10.203 -16.220  33.012  1.00  0.00     0.016 C 
BRANCH   3   5
ATOM      5  C   UNL     1     -10.416 -18.304  31.628  1.00  0.00     0.015 C 
BRANCH   5   6
ATOM      6  C   UNL     1     -11.151 -19.656  31.665  1.00  0.00     0.028 C 
BRANCH   6   7
ATOM      7  C   UNL     1     -12.199 -19.842  30.591  1.00  0.00    -0.028 C 
ATOM      8  C   UNL     1     -12.131 -19.482  29.280  1.00  0.00    -0.070 CG0
ATOM      9  C   UNL     1     -13.310 -19.864  28.417  1.00  0.00     0.039 C 
ATOM     10  G   UNL     1     -11.047 -18.622  28.630  1.00  0.00     0.000 G0
ENDBRANCH   6   7
ENDBRANCH   5   6
ENDBRANCH   3   5
ENDBRANCH   1   3
BRANCH   1  11
ATOM     11  C   UNL     1     -11.326 -15.763  29.833  1.00  0.00     0.087 C 
BRANCH  11  12
ATOM     12  C   UNL     1     -12.217 -16.256  28.655  1.00  0.00     0.066 C 
BRANCH  12  13
ATOM     13  C   UNL     1     -11.520 -17.385  27.892  1.00  0.00     0.140 C 
ATOM     14  O   UNL     1     -11.366 -17.311  26.680  1.00  0.00    -0.299 OA
BRANCH  13  15
ATOM     15  C   UNL     1     -11.048 -18.624  28.607  1.00  0.00     0.106 CG0
ATOM     16  G   UNL     1     -12.133 -19.477  29.265  1.00  0.00     0.000 G0
ENDBRANCH  13  15
ENDBRANCH  12  13
BRANCH  12  17
ATOM     17  C   UNL     1     -12.663 -15.101  27.692  1.00  0.00    -0.006 C 
ATOM     18  C   UNL     1     -13.571 -15.641  26.569  1.00  0.00     0.008 C 
ATOM     19  C   UNL     1     -13.412 -13.966  28.417  1.00  0.00     0.008 C 
ENDBRANCH  12  17
ENDBRANCH  11  12
ENDBRANCH   1  11
TORSDOF 1
ENDMDL
MODEL 6
REMARK VINA RESULT:    -4.752      1.944      4.041
REMARK INTER + INTRA:          -7.158
REMARK INTER:                  -6.713
REMARK INTRA:                  -0.445
REMARK UNBOUND:                 0.093
REMARK SMILES CC1=CCC[C@@H](C)C(=O)C[C@@H](C(C)C)C(=O)C1
REMARK SMILES IDX 8 1 9 2 6 3 7 4 5 5 4 6 3 7 2 8 1 9 10 11 11 12 15 13 16 14
REMARK SMILES IDX 17 15 12 17 13 18 14 19
REMARK H PARENT
REMARK Flexibility Score: 70.00
ROOT
ATOM      1  C   UNL     1     -13.240 -16.519  31.840  1.00  0.00     0.136 C 
ATOM      2  O   UNL     1     -13.720 -17.094  32.807  1.00  0.00    -0.299 OA
ENDROOT
BRANCH   1   3
ATOM      3  C   UNL     1     -13.594 -15.048  31.650  1.00  0.00     0.053 C 
ATOM      4  C   UNL     1     -14.561 -14.622  32.766  1.00  0.00     0.016 C 
BRANCH   3   5
ATOM      5  C   UNL     1     -14.196 -14.646  30.283  1.00  0.00     0.015 C 
BRANCH   5   6
ATOM      6  C   UNL     1     -13.217 -14.113  29.222  1.00  0.00     0.028 C 
BRANCH   6   7
ATOM      7  C   UNL     1     -13.107 -14.957  27.973  1.00  0.00    -0.028 C 
ATOM      8  C   UNL     1     -12.071 -15.750  27.585  1.00  0.00    -0.070 CG0
ATOM      9  C   UNL     1     -12.270 -16.543  26.315  1.00  0.00     0.039 C 
ATOM     10  G   UNL     1     -10.687 -15.818  28.233  1.00  0.00     0.000 G0
ENDBRANCH   6   7
ENDBRANCH   5   6
ENDBRANCH   3   5
ENDBRANCH   1   3
BRANCH   1  11
ATOM     11  C   UNL     1     -12.337 -17.331  30.935  1.00  0.00     0.087 C 
BRANCH  11  12
ATOM     12  C   UNL     1     -10.963 -16.632  30.711  1.00  0.00     0.066 C 
BRANCH  12  13
ATOM     13  C   UNL     1     -10.472 -16.864  29.280  1.00  0.00     0.140 C 
ATOM     14  O   UNL     1      -9.876 -17.893  28.988  1.00  0.00    -0.299 OA
BRANCH  13  15
ATOM     15  C   UNL     1     -10.672 -15.818  28.215  1.00  0.00     0.106 CG0
ATOM     16  G   UNL     1     -12.065 -15.755  27.585  1.00  0.00     0.000 G0
ENDBRANCH  13  15
ENDBRANCH  12  13
BRANCH  12  17
ATOM     17  C   UNL     1      -9.880 -17.047  31.766  1.00  0.00    -0.006 C 
ATOM     18  C   UNL     1      -9.934 -16.124  33.001  1.00  0.00     0.008 C 
ATOM     19  C   UNL     1     -10.030 -18.504  32.244  1.00  0.00     0.008 C 
ENDBRANCH  12  17
ENDBRANCH  11  12
ENDBRANCH   1  11
TORSDOF 1
ENDMDL
MODEL 7
REMARK VINA RESULT:    -4.735      1.606      4.073
REMARK INTER + INTRA:          -7.133
REMARK INTER:                  -6.897
REMARK INTRA:                  -0.236
REMARK UNBOUND:                 0.093
REMARK SMILES CC1=CCC[C@@H](C)C(=O)C[C@@H](C(C)C)C(=O)C1
REMARK SMILES IDX 8 1 9 2 6 3 7 4 5 5 4 6 3 7 2 8 1 9 10 11 11 12 15 13 16 14
REMARK SMILES IDX 17 15 12 17 13 18 14 19
REMARK H PARENT
REMARK Flexibility Score: 70.00
ROOT
ATOM      1  C   UNL     1     -11.934 -15.141  29.154  1.00  0.00     0.136 C 
ATOM      2  O   UNL     1     -10.727 -14.943  29.149  1.00  0.00    -0.299 OA
ENDROOT
BRANCH   1   3
ATOM      3  C   UNL     1     -12.736 -14.617  27.969  1.00  0.00     0.053 C 
ATOM      4  C   UNL     1     -14.009 -13.932  28.493  1.00  0.00     0.016 C 
BRANCH   3   5
ATOM      5  C   UNL     1     -13.131 -15.647  26.883  1.00  0.00     0.015 C 
BRANCH   5   6
ATOM      6  C   UNL     1     -12.245 -16.899  26.757  1.00  0.00     0.028 C 
BRANCH   6   7
ATOM      7  C   UNL     1     -12.829 -18.158  27.355  1.00  0.00    -0.028 C 
ATOM      8  C   UNL     1     -12.439 -18.811  28.484  1.00  0.00    -0.070 CG0
ATOM      9  C   UNL     1     -13.262 -20.013  28.883  1.00  0.00     0.039 C 
ATOM     10  G   UNL     1     -11.183 -18.527  29.309  1.00  0.00     0.000 G0
ENDBRANCH   6   7
ENDBRANCH   5   6
ENDBRANCH   3   5
ENDBRANCH   1   3
BRANCH   1  11
ATOM     11  C   UNL     1     -12.503 -15.894  30.339  1.00  0.00     0.087 C 
BRANCH  11  12
ATOM     12  C   UNL     1     -11.392 -16.643  31.134  1.00  0.00     0.066 C 
BRANCH  12  13
ATOM     13  C   UNL     1     -11.362 -18.124  30.745  1.00  0.00     0.140 C 
ATOM     14  O   UNL     1     -11.456 -18.992  31.602  1.00  0.00    -0.299 OA
BRANCH  13  15
ATOM     15  C   UNL     1     -11.173 -18.541  29.311  1.00  0.00     0.106 CG0
ATOM     16  G   UNL     1     -12.450 -18.794  28.508  1.00  0.00     0.000 G0
ENDBRANCH  13  15
ENDBRANCH  12  13
BRANCH  12  17
ATOM     17  C   UNL     1     -11.514 -16.459  32.687  1.00  0.00    -0.006 C 
ATOM     18  C   UNL     1     -10.293 -15.701  33.247  1.00  0.00     0.008 C 
ATOM     19  C   UNL     1     -12.789 -15.702  33.107  1.00  0.00     0.008 C 
ENDBRANCH  12  17
ENDBRANCH  11  12
ENDBRANCH   1  11
TORSDOF 1
ENDMDL
MODEL 8
REMARK VINA RESULT:    -4.722      1.900      3.815
REMARK INTER + INTRA:          -7.113
REMARK INTER:                  -7.222
REMARK INTRA:                   0.108
REMARK UNBOUND:                 0.093
REMARK SMILES CC1=CCC[C@@H](C)C(=O)C[C@@H](C(C)C)C(=O)C1
REMARK SMILES IDX 8 1 9 2 6 3 7 4 5 5 4 6 3 7 2 8 1 9 10 11 11 12 15 13 16 14
REMARK SMILES IDX 17 15 12 17 13 18 14 19
REMARK H PARENT
REMARK Flexibility Score: 70.00
ROOT
ATOM      1  C   UNL     1     -12.443 -16.035  31.259  1.00  0.00     0.136 C 
ATOM      2  O   UNL     1     -11.313 -16.008  31.727  1.00  0.00    -0.299 OA
ENDROOT
BRANCH   1   3
ATOM      3  C   UNL     1     -13.394 -14.912  31.656  1.00  0.00     0.053 C 
ATOM      4  C   UNL     1     -14.288 -15.400  32.807  1.00  0.00     0.016 C 
BRANCH   3   5
ATOM      5  C   UNL     1     -14.290 -14.329  30.536  1.00  0.00     0.015 C 
BRANCH   5   6
ATOM      6  C   UNL     1     -13.574 -13.700  29.328  1.00  0.00     0.028 C 
BRANCH   6   7
ATOM      7  C   UNL     1     -13.690 -14.481  28.039  1.00  0.00    -0.028 C 
ATOM      8  C   UNL     1     -12.833 -15.415  27.543  1.00  0.00    -0.070 CG0
ATOM      9  C   UNL     1     -13.247 -16.091  26.257  1.00  0.00     0.039 C 
ATOM     10  G   UNL     1     -11.444 -15.752  28.086  1.00  0.00     0.000 G0
ENDBRANCH   6   7
ENDBRANCH   5   6
ENDBRANCH   3   5
ENDBRANCH   1   3
BRANCH   1  11
ATOM     11  C   UNL     1     -12.775 -17.183  30.328  1.00  0.00     0.087 C 
BRANCH  11  12
ATOM     12  C   UNL     1     -11.491 -17.831  29.730  1.00  0.00     0.066 C 
BRANCH  12  13
ATOM     13  C   UNL     1     -11.159 -17.206  28.372  1.00  0.00     0.140 C 
ATOM     14  O   UNL     1     -10.631 -17.875  27.495  1.00  0.00    -0.299 OA
BRANCH  13  15
ATOM     15  C   UNL     1     -11.435 -15.750  28.104  1.00  0.00     0.106 CG0
ATOM     16  G   UNL     1     -12.818 -15.419  27.540  1.00  0.00     0.000 G0
ENDBRANCH  13  15
ENDBRANCH  12  13
BRANCH  12  17
ATOM     17  C   UNL     1     -11.574 -19.394  29.639  1.00  0.00    -0.006 C 
ATOM     18  C   UNL     1     -11.547 -20.029  31.045  1.00  0.00     0.008 C 
ATOM     19  C   UNL     1     -12.836 -19.891  28.908  1.00  0.00     0.008 C 
ENDBRANCH  12  17
ENDBRANCH  11  12
ENDBRANCH   1  11
TORSDOF 1
ENDMDL
MODEL 9
REMARK VINA RESULT:    -4.490      1.542      3.997
REMARK INTER + INTRA:          -6.759
REMARK INTER:                  -7.151
REMARK INTRA:                   0.391
REMARK UNBOUND:                 0.093
REMARK SMILES CC1=CCC[C@@H](C)C(=O)C[C@@H](C(C)C)C(=O)C1
REMARK SMILES IDX 8 1 9 2 6 3 7 4 5 5 4 6 3 7 2 8 1 9 10 11 11 12 15 13 16 14
REMARK SMILES IDX 17 15 12 17 13 18 14 19
REMARK H PARENT
REMARK Flexibility Score: 70.00
ROOT
ATOM      1  C   UNL     1     -13.570 -14.802  30.046  1.00  0.00     0.136 C 
ATOM      2  O   UNL     1     -14.348 -14.480  30.934  1.00  0.00    -0.299 OA
ENDROOT
BRANCH   1   3
ATOM      3  C   UNL     1     -13.483 -13.892  28.826  1.00  0.00     0.053 C 
ATOM      4  C   UNL     1     -14.468 -12.725  29.005  1.00  0.00     0.016 C 
BRANCH   3   5
ATOM      5  C   UNL     1     -13.729 -14.550  27.447  1.00  0.00     0.015 C 
BRANCH   5   6
ATOM      6  C   UNL     1     -13.545 -16.075  27.361  1.00  0.00     0.028 C 
BRANCH   6   7
ATOM      7  C   UNL     1     -12.416 -16.534  26.467  1.00  0.00    -0.028 C 
ATOM      8  C   UNL     1     -11.230 -17.093  26.833  1.00  0.00    -0.070 CG0
ATOM      9  C   UNL     1     -10.315 -17.524  25.711  1.00  0.00     0.039 C 
ATOM     10  G   UNL     1     -10.681 -17.208  28.256  1.00  0.00     0.000 G0
ENDBRANCH   6   7
ENDBRANCH   5   6
ENDBRANCH   3   5
ENDBRANCH   1   3
BRANCH   1  11
ATOM     11  C   UNL     1     -12.770 -16.070  30.259  1.00  0.00     0.087 C 
BRANCH  11  12
ATOM     12  C   UNL     1     -11.246 -15.775  30.397  1.00  0.00     0.066 C 
BRANCH  12  13
ATOM     13  C   UNL     1     -10.545 -15.937  29.046  1.00  0.00     0.140 C 
ATOM     14  O   UNL     1      -9.889 -15.019  28.575  1.00  0.00    -0.299 OA
BRANCH  13  15
ATOM     15  C   UNL     1     -10.683 -17.210  28.252  1.00  0.00     0.106 CG0
ATOM     16  G   UNL     1     -11.226 -17.062  26.830  1.00  0.00     0.000 G0
ENDBRANCH  13  15
ENDBRANCH  12  13
BRANCH  12  17
ATOM     17  C   UNL     1     -10.551 -16.630  31.512  1.00  0.00    -0.006 C 
ATOM     18  C   UNL     1     -10.678 -15.945  32.889  1.00  0.00     0.008 C 
ATOM     19  C   UNL     1     -11.125 -18.055  31.627  1.00  0.00     0.008 C 
ENDBRANCH  12  17
ENDBRANCH  11  12
ENDBRANCH   1  11
TORSDOF 1
ENDMDL
