MODEL 1
REMARK VINA RESULT:    41.892      0.000      0.000
REMARK INTER + INTRA:          46.279
REMARK INTER:                  45.566
REMARK INTRA:                   0.713
REMARK UNBOUND:                 0.713
REMARK SMILES CC(=O)[C@H]1CC[C@H]2[C@H]3CC=C4C[C@@H](O)CC[C@@]4(C)[C@H]3CC[C@]12C
REMARK SMILES IDX 4 1 5 2 6 3 7 4 22 5 21 6 20 7 19 8 8 9 9 10 10 11 11 12
REMARK SMILES IDX 17 13 16 14 15 15 13 16 12 17 18 18 23 19 2 20 1 21 3 22
REMARK SMILES IDX 14 23
REMARK H PARENT 14 24
REMARK Flexibility Score: inf
ROOT
ATOM      1  C   UNL     1      31.916   9.220  40.791  1.00  0.00     0.062 C 
ATOM      2  C   UNL     1      32.141   9.233  39.256  1.00  0.00     0.012 C 
ATOM      3  C   UNL     1      33.298  10.215  38.989  1.00  0.00     0.005 C 
ATOM      4  C   UNL     1      33.755  10.639  40.379  1.00  0.00    -0.001 C 
ATOM      5  C   UNL     1      32.510  10.568  41.272  1.00  0.00    -0.020 C 
ATOM      6  C   UNL     1      32.995  10.574  42.733  1.00  0.00     0.008 C 
ATOM      7  C   UNL     1      33.856  11.820  43.044  1.00  0.00     0.005 C 
ATOM      8  C   UNL     1      35.054  12.059  42.059  1.00  0.00     0.003 C 
ATOM      9  C   UNL     1      34.640  11.895  40.554  1.00  0.00     0.000 C 
ATOM     10  C   UNL     1      34.108  13.187  39.873  1.00  0.00     0.031 C 
ATOM     11  C   UNL     1      34.142  14.432  40.723  1.00  0.00    -0.027 C 
ATOM     12  C   UNL     1      34.932  14.582  41.806  1.00  0.00    -0.065 C 
ATOM     13  C   UNL     1      35.811  13.427  42.288  1.00  0.00    -0.008 C 
ATOM     14  C   UNL     1      36.197  13.609  43.795  1.00  0.00     0.014 C 
ATOM     15  C   UNL     1      36.622  15.036  44.163  1.00  0.00     0.033 C 
ATOM     16  C   UNL     1      35.529  16.051  43.808  1.00  0.00     0.118 C 
ATOM     17  C   UNL     1      35.166  15.994  42.316  1.00  0.00     0.063 C 
ATOM     18  C   UNL     1      37.124  13.443  41.458  1.00  0.00     0.016 C 
ATOM     19  C   UNL     1      31.476  11.713  41.047  1.00  0.00     0.012 C 
ENDROOT
BRANCH   1  20
ATOM     20  C   UNL     1      30.496   8.939  41.260  1.00  0.00     0.133 C 
ATOM     21  C   UNL     1      29.796   7.633  41.006  1.00  0.00     0.088 C 
ATOM     22  O   UNL     1      29.901   9.808  41.878  1.00  0.00    -0.300 OA
ENDBRANCH   1  20
BRANCH  16  23
ATOM     23  O   UNL     1      34.397  15.893  44.632  1.00  0.00    -0.393 OA
ATOM     24  H   UNL     1      34.693  15.524  45.505  1.00  0.00     0.210 HD
ENDBRANCH  16  23
TORSDOF 2
ENDMDL
