MODEL 1
REMARK VINA RESULT:    -3.773      0.000      0.000
REMARK INTER + INTRA:          -6.263
REMARK INTER:                  -5.758
REMARK INTRA:                  -0.505
REMARK UNBOUND:                -0.505
REMARK SMILES CCCCCCCCCCC(=O)[O-]
REMARK SMILES IDX 7 1 8 2 9 3 10 4 11 5 12 6 13 7 6 8 5 9 4 10 3 11 2 12 1 13
REMARK H PARENT
REMARK Flexibility Score: inf
ROOT
ATOM      1  C   UNL     1       7.156   5.998  35.739  1.00  0.00     0.000 C 
ENDROOT
BRANCH   1   2
ATOM      2  C   UNL     1       6.683   4.540  35.630  1.00  0.00     0.000 C 
BRANCH   2   3
ATOM      3  C   UNL     1       7.780   3.532  36.015  1.00  0.00     0.006 C 
BRANCH   3   4
ATOM      4  C   UNL     1       8.949   4.201  36.751  1.00  0.00     0.053 C 
BRANCH   4   5
ATOM      5  C   UNL     1      10.267   3.855  36.131  1.00  0.00     0.041 C 
ATOM      6  O   UNL     1      10.988   2.953  36.637  1.00  0.00    -0.550 OA
ATOM      7  O   UNL     1      10.684   4.501  34.975  1.00  0.00    -0.550 OA
ENDBRANCH   4   5
ENDBRANCH   3   4
ENDBRANCH   2   3
ENDBRANCH   1   2
BRANCH   1   8
ATOM      8  C   UNL     1       7.712   6.539  34.414  1.00  0.00     0.000 C 
BRANCH   8   9
ATOM      9  C   UNL     1       6.657   7.371  33.674  1.00  0.00    -0.000 C 
BRANCH   9  10
ATOM     10  C   UNL     1       7.297   8.582  32.980  1.00  0.00    -0.000 C 
BRANCH  10  11
ATOM     11  C   UNL     1       6.582   9.901  33.310  1.00  0.00    -0.000 C 
BRANCH  11  12
ATOM     12  C   UNL     1       6.034   9.934  34.745  1.00  0.00    -0.003 C 
ATOM     13  C   UNL     1       6.037  11.354  35.301  1.00  0.00     0.004 C 
ENDBRANCH  11  12
ENDBRANCH  10  11
ENDBRANCH   9  10
ENDBRANCH   8   9
ENDBRANCH   1   8
TORSDOF 9
ENDMDL
MODEL 2
REMARK VINA RESULT:    -3.652      4.020      6.792
REMARK INTER + INTRA:          -6.078
REMARK INTER:                  -5.427
REMARK INTRA:                  -0.651
REMARK UNBOUND:                -0.505
REMARK SMILES CCCCCCCCCCC(=O)[O-]
REMARK SMILES IDX 7 1 8 2 9 3 10 4 11 5 12 6 13 7 6 8 5 9 4 10 3 11 2 12 1 13
REMARK H PARENT
REMARK Flexibility Score: inf
ROOT
ATOM      1  C   UNL     1       7.339   8.646  33.744  1.00  0.00     0.000 C 
ENDROOT
BRANCH   1   2
ATOM      2  C   UNL     1       7.091   9.736  32.689  1.00  0.00     0.000 C 
BRANCH   2   3
ATOM      3  C   UNL     1       6.074  10.792  33.157  1.00  0.00     0.006 C 
BRANCH   3   4
ATOM      4  C   UNL     1       5.876  10.769  34.679  1.00  0.00     0.053 C 
BRANCH   4   5
ATOM      5  C   UNL     1       5.959  12.142  35.271  1.00  0.00     0.041 C 
ATOM      6  O   UNL     1       5.875  13.158  34.530  1.00  0.00    -0.550 OA
ATOM      7  O   UNL     1       6.092  12.301  36.644  1.00  0.00    -0.550 OA
ENDBRANCH   4   5
ENDBRANCH   3   4
ENDBRANCH   2   3
ENDBRANCH   1   2
BRANCH   1   8
ATOM      8  C   UNL     1       6.683   7.308  33.375  1.00  0.00     0.000 C 
BRANCH   8   9
ATOM      9  C   UNL     1       6.006   6.673  34.597  1.00  0.00    -0.000 C 
BRANCH   9  10
ATOM     10  C   UNL     1       6.083   5.141  34.535  1.00  0.00    -0.000 C 
BRANCH  10  11
ATOM     11  C   UNL     1       6.991   4.548  35.625  1.00  0.00    -0.000 C 
BRANCH  11  12
ATOM     12  C   UNL     1       7.830   5.618  36.341  1.00  0.00    -0.003 C 
ATOM     13  C   UNL     1       9.313   5.455  36.023  1.00  0.00     0.004 C 
ENDBRANCH  11  12
ENDBRANCH  10  11
ENDBRANCH   9  10
ENDBRANCH   8   9
ENDBRANCH   1   8
TORSDOF 9
ENDMDL
MODEL 3
REMARK VINA RESULT:    -3.481      3.242      6.356
REMARK INTER + INTRA:          -5.817
REMARK INTER:                  -5.390
REMARK INTRA:                  -0.427
REMARK UNBOUND:                -0.505
REMARK SMILES CCCCCCCCCCC(=O)[O-]
REMARK SMILES IDX 7 1 8 2 9 3 10 4 11 5 12 6 13 7 6 8 5 9 4 10 3 11 2 12 1 13
REMARK H PARENT
REMARK Flexibility Score: inf
ROOT
ATOM      1  C   UNL     1       7.390   6.834  34.180  1.00  0.00     0.000 C 
ENDROOT
BRANCH   1   2
ATOM      2  C   UNL     1       6.721   7.742  33.137  1.00  0.00     0.000 C 
BRANCH   2   3
ATOM      3  C   UNL     1       7.349   9.146  33.085  1.00  0.00     0.006 C 
BRANCH   3   4
ATOM      4  C   UNL     1       6.300  10.255  33.239  1.00  0.00     0.053 C 
BRANCH   4   5
ATOM      5  C   UNL     1       6.129  10.664  34.669  1.00  0.00     0.041 C 
ATOM      6  O   UNL     1       6.153   9.797  35.583  1.00  0.00    -0.550 OA
ATOM      7  O   UNL     1       5.980  12.005  34.997  1.00  0.00    -0.550 OA
ENDBRANCH   4   5
ENDBRANCH   3   4
ENDBRANCH   2   3
ENDBRANCH   1   2
BRANCH   1   8
ATOM      8  C   UNL     1       6.474   5.690  34.640  1.00  0.00     0.000 C 
BRANCH   8   9
ATOM      9  C   UNL     1       6.113   5.838  36.124  1.00  0.00    -0.000 C 
BRANCH   9  10
ATOM     10  C   UNL     1       6.912   4.850  36.986  1.00  0.00    -0.000 C 
BRANCH  10  11
ATOM     11  C   UNL     1       8.419   5.150  36.989  1.00  0.00    -0.000 C 
BRANCH  11  12
ATOM     12  C   UNL     1       9.252   3.997  36.408  1.00  0.00    -0.003 C 
ATOM     13  C   UNL     1      10.291   4.515  35.419  1.00  0.00     0.004 C 
ENDBRANCH  11  12
ENDBRANCH  10  11
ENDBRANCH   9  10
ENDBRANCH   8   9
ENDBRANCH   1   8
TORSDOF 9
ENDMDL
MODEL 4
REMARK VINA RESULT:    -3.397      3.082      6.061
REMARK INTER + INTRA:          -5.690
REMARK INTER:                  -4.824
REMARK INTRA:                  -0.866
REMARK UNBOUND:                -0.505
REMARK SMILES CCCCCCCCCCC(=O)[O-]
REMARK SMILES IDX 7 1 8 2 9 3 10 4 11 5 12 6 13 7 6 8 5 9 4 10 3 11 2 12 1 13
REMARK H PARENT
REMARK Flexibility Score: inf
ROOT
ATOM      1  C   UNL     1       6.079   5.241  36.167  1.00  0.00     0.000 C 
ENDROOT
BRANCH   1   2
ATOM      2  C   UNL     1       6.753   6.563  35.767  1.00  0.00     0.000 C 
BRANCH   2   3
ATOM      3  C   UNL     1       7.242   6.560  34.308  1.00  0.00     0.006 C 
BRANCH   3   4
ATOM      4  C   UNL     1       6.352   7.419  33.399  1.00  0.00     0.053 C 
BRANCH   4   5
ATOM      5  C   UNL     1       6.725   8.867  33.463  1.00  0.00     0.041 C 
ATOM      6  O   UNL     1       6.115   9.645  34.244  1.00  0.00    -0.550 OA
ATOM      7  O   UNL     1       7.771   9.352  32.689  1.00  0.00    -0.550 OA
ENDBRANCH   4   5
ENDBRANCH   3   4
ENDBRANCH   2   3
ENDBRANCH   1   2
BRANCH   1   8
ATOM      8  C   UNL     1       6.233   4.152  35.096  1.00  0.00     0.000 C 
BRANCH   8   9
ATOM      9  C   UNL     1       6.845   2.878  35.692  1.00  0.00    -0.000 C 
BRANCH   9  10
ATOM     10  C   UNL     1       8.023   3.214  36.618  1.00  0.00    -0.000 C 
BRANCH  10  11
ATOM     11  C   UNL     1       9.280   2.388  36.302  1.00  0.00    -0.000 C 
BRANCH  11  12
ATOM     12  C   UNL     1      10.497   3.267  35.973  1.00  0.00    -0.003 C 
ATOM     13  C   UNL     1      10.070   4.693  35.639  1.00  0.00     0.004 C 
ENDBRANCH  11  12
ENDBRANCH  10  11
ENDBRANCH   9  10
ENDBRANCH   8   9
ENDBRANCH   1   8
TORSDOF 9
ENDMDL
MODEL 5
REMARK VINA RESULT:    -3.053      4.381      7.233
REMARK INTER + INTRA:          -5.163
REMARK INTER:                  -4.684
REMARK INTRA:                  -0.479
REMARK UNBOUND:                -0.505
REMARK SMILES CCCCCCCCCCC(=O)[O-]
REMARK SMILES IDX 7 1 8 2 9 3 10 4 11 5 12 6 13 7 6 8 5 9 4 10 3 11 2 12 1 13
REMARK H PARENT
REMARK Flexibility Score: inf
ROOT
ATOM      1  C   UNL     1       6.929   8.015  33.907  1.00  0.00     0.000 C 
ENDROOT
BRANCH   1   2
ATOM      2  C   UNL     1       6.105   8.949  34.807  1.00  0.00     0.000 C 
BRANCH   2   3
ATOM      3  C   UNL     1       5.968  10.366  34.222  1.00  0.00     0.006 C 
BRANCH   3   4
ATOM      4  C   UNL     1       5.875  11.437  35.318  1.00  0.00     0.053 C 
BRANCH   4   5
ATOM      5  C   UNL     1       5.988  12.819  34.754  1.00  0.00     0.041 C 
ATOM      6  O   UNL     1       6.201  13.799  35.517  1.00  0.00    -0.550 OA
ATOM      7  O   UNL     1       5.896  13.022  33.383  1.00  0.00    -0.550 OA
ENDBRANCH   4   5
ENDBRANCH   3   4
ENDBRANCH   2   3
ENDBRANCH   1   2
BRANCH   1   8
ATOM      8  C   UNL     1       7.431   6.769  34.651  1.00  0.00     0.000 C 
BRANCH   8   9
ATOM      9  C   UNL     1       7.150   6.877  36.155  1.00  0.00    -0.000 C 
BRANCH   9  10
ATOM     10  C   UNL     1       8.002   5.876  36.948  1.00  0.00    -0.000 C 
BRANCH  10  11
ATOM     11  C   UNL     1       8.449   4.675  36.100  1.00  0.00    -0.000 C 
BRANCH  11  12
ATOM     12  C   UNL     1       8.019   3.331  36.707  1.00  0.00    -0.003 C 
ATOM     13  C   UNL     1       6.770   2.792  36.017  1.00  0.00     0.004 C 
ENDBRANCH  11  12
ENDBRANCH  10  11
ENDBRANCH   9  10
ENDBRANCH   8   9
ENDBRANCH   1   8
TORSDOF 9
ENDMDL
MODEL 6
REMARK VINA RESULT:    -2.985     22.773     24.471
REMARK INTER + INTRA:          -5.060
REMARK INTER:                  -4.130
REMARK INTRA:                  -0.930
REMARK UNBOUND:                -0.505
REMARK SMILES CCCCCCCCCCC(=O)[O-]
REMARK SMILES IDX 7 1 8 2 9 3 10 4 11 5 12 6 13 7 6 8 5 9 4 10 3 11 2 12 1 13
REMARK H PARENT
REMARK Flexibility Score: inf
ROOT
ATOM      1  C   UNL     1      18.046  21.259  18.793  1.00  0.00     0.000 C 
ENDROOT
BRANCH   1   2
ATOM      2  C   UNL     1      19.333  21.731  18.099  1.00  0.00     0.000 C 
BRANCH   2   3
ATOM      3  C   UNL     1      20.453  20.676  18.149  1.00  0.00     0.006 C 
BRANCH   3   4
ATOM      4  C   UNL     1      21.798  21.281  18.576  1.00  0.00     0.053 C 
BRANCH   4   5
ATOM      5  C   UNL     1      22.136  20.936  19.994  1.00  0.00     0.041 C 
ATOM      6  O   UNL     1      23.112  20.181  20.247  1.00  0.00    -0.550 OA
ATOM      7  O   UNL     1      21.397  21.478  21.038  1.00  0.00    -0.550 OA
ENDBRANCH   4   5
ENDBRANCH   3   4
ENDBRANCH   2   3
ENDBRANCH   1   2
BRANCH   1   8
ATOM      8  C   UNL     1      18.298  20.123  19.795  1.00  0.00     0.000 C 
BRANCH   8   9
ATOM      9  C   UNL     1      17.433  18.899  19.467  1.00  0.00    -0.000 C 
BRANCH   9  10
ATOM     10  C   UNL     1      16.965  18.932  18.005  1.00  0.00    -0.000 C 
BRANCH  10  11
ATOM     11  C   UNL     1      17.741  17.950  17.112  1.00  0.00    -0.000 C 
BRANCH  11  12
ATOM     12  C   UNL     1      18.476  16.870  17.920  1.00  0.00    -0.003 C 
ATOM     13  C   UNL     1      18.384  15.512  17.233  1.00  0.00     0.004 C 
ENDBRANCH  11  12
ENDBRANCH  10  11
ENDBRANCH   9  10
ENDBRANCH   8   9
ENDBRANCH   1   8
TORSDOF 9
ENDMDL
MODEL 7
REMARK VINA RESULT:    -2.930     20.517     21.696
REMARK INTER + INTRA:          -4.976
REMARK INTER:                  -3.792
REMARK INTRA:                  -1.184
REMARK UNBOUND:                -0.505
REMARK SMILES CCCCCCCCCCC(=O)[O-]
REMARK SMILES IDX 7 1 8 2 9 3 10 4 11 5 12 6 13 7 6 8 5 9 4 10 3 11 2 12 1 13
REMARK H PARENT
REMARK Flexibility Score: inf
ROOT
ATOM      1  C   UNL     1      20.745   3.536  20.649  1.00  0.00     0.000 C 
ENDROOT
BRANCH   1   2
ATOM      2  C   UNL     1      22.246   3.253  20.480  1.00  0.00     0.000 C 
BRANCH   2   3
ATOM      3  C   UNL     1      23.122   4.467  20.836  1.00  0.00     0.006 C 
BRANCH   3   4
ATOM      4  C   UNL     1      24.597   4.242  20.475  1.00  0.00     0.053 C 
BRANCH   4   5
ATOM      5  C   UNL     1      25.420   3.910  21.681  1.00  0.00     0.041 C 
ATOM      6  O   UNL     1      26.119   4.799  22.235  1.00  0.00    -0.550 OA
ATOM      7  O   UNL     1      25.387   2.628  22.215  1.00  0.00    -0.550 OA
ENDBRANCH   4   5
ENDBRANCH   3   4
ENDBRANCH   2   3
ENDBRANCH   1   2
BRANCH   1   8
ATOM      8  C   UNL     1      20.042   3.810  19.312  1.00  0.00     0.000 C 
BRANCH   8   9
ATOM      9  C   UNL     1      20.859   3.255  18.138  1.00  0.00    -0.000 C 
BRANCH   9  10
ATOM     10  C   UNL     1      21.175   4.358  17.118  1.00  0.00    -0.000 C 
BRANCH  10  11
ATOM     11  C   UNL     1      20.884   5.767  17.659  1.00  0.00    -0.000 C 
BRANCH  11  12
ATOM     12  C   UNL     1      22.149   6.632  17.766  1.00  0.00    -0.003 C 
ATOM     13  C   UNL     1      23.378   5.868  17.284  1.00  0.00     0.004 C 
ENDBRANCH  11  12
ENDBRANCH  10  11
ENDBRANCH   9  10
ENDBRANCH   8   9
ENDBRANCH   1   8
TORSDOF 9
ENDMDL
MODEL 8
REMARK VINA RESULT:    -2.811     22.794     24.984
REMARK INTER + INTRA:          -4.795
REMARK INTER:                  -4.071
REMARK INTRA:                  -0.723
REMARK UNBOUND:                -0.505
REMARK SMILES CCCCCCCCCCC(=O)[O-]
REMARK SMILES IDX 7 1 8 2 9 3 10 4 11 5 12 6 13 7 6 8 5 9 4 10 3 11 2 12 1 13
REMARK H PARENT
REMARK Flexibility Score: inf
ROOT
ATOM      1  C   UNL     1      21.139  20.723  20.653  1.00  0.00     0.000 C 
ENDROOT
BRANCH   1   2
ATOM      2  C   UNL     1      19.703  21.087  21.062  1.00  0.00     0.000 C 
BRANCH   2   3
ATOM      3  C   UNL     1      18.728  21.078  19.871  1.00  0.00     0.006 C 
BRANCH   3   4
ATOM      4  C   UNL     1      18.996  19.911  18.913  1.00  0.00     0.053 C 
BRANCH   4   5
ATOM      5  C   UNL     1      18.026  18.789  19.117  1.00  0.00     0.041 C 
ATOM      6  O   UNL     1      17.038  18.938  19.884  1.00  0.00    -0.550 OA
ATOM      7  O   UNL     1      18.191  17.591  18.433  1.00  0.00    -0.550 OA
ENDBRANCH   4   5
ENDBRANCH   3   4
ENDBRANCH   2   3
ENDBRANCH   1   2
BRANCH   1   8
ATOM      8  C   UNL     1      22.059  21.949  20.573  1.00  0.00     0.000 C 
BRANCH   8   9
ATOM      9  C   UNL     1      23.140  21.756  19.501  1.00  0.00    -0.000 C 
BRANCH   9  10
ATOM     10  C   UNL     1      23.020  20.375  18.841  1.00  0.00    -0.000 C 
BRANCH  10  11
ATOM     11  C   UNL     1      24.336  19.583  18.880  1.00  0.00    -0.000 C 
BRANCH  11  12
ATOM     12  C   UNL     1      24.630  18.992  20.267  1.00  0.00    -0.003 C 
ATOM     13  C   UNL     1      25.808  18.023  20.212  1.00  0.00     0.004 C 
ENDBRANCH  11  12
ENDBRANCH  10  11
ENDBRANCH   9  10
ENDBRANCH   8   9
ENDBRANCH   1   8
TORSDOF 9
ENDMDL
