MODEL 1
REMARK VINA RESULT:    -2.243      0.000      0.000
REMARK INTER + INTRA:          -3.564
REMARK INTER:                  -3.423
REMARK INTRA:                  -0.141
REMARK UNBOUND:                -0.141
REMARK SMILES CC1=CCC[C@@H](C)C(=O)C[C@@H](C(C)C)C(=O)C1
REMARK SMILES IDX 8 1 9 2 6 3 7 4 5 5 4 6 3 7 2 8 1 9 10 11 11 12 15 13 16 14
REMARK SMILES IDX 17 15 12 17 13 18 14 19
REMARK H PARENT
REMARK Flexibility Score: 70.00
ROOT
ATOM      1  C   UNL     1      25.392  27.635  28.762  1.00  0.00     0.136 C 
ATOM      2  O   UNL     1      24.407  28.189  28.294  1.00  0.00    -0.299 OA
ENDROOT
BRANCH   1   3
ATOM      3  C   UNL     1      26.253  28.367  29.772  1.00  0.00     0.053 C 
ATOM      4  C   UNL     1      25.360  28.953  30.870  1.00  0.00     0.016 C 
BRANCH   3   5
ATOM      5  C   UNL     1      27.099  29.488  29.119  1.00  0.00     0.015 C 
BRANCH   5   6
ATOM      6  C   UNL     1      28.399  28.997  28.461  1.00  0.00     0.028 C 
BRANCH   6   7
ATOM      7  C   UNL     1      28.363  29.176  26.962  1.00  0.00    -0.028 C 
ATOM      8  C   UNL     1      28.588  28.198  26.054  1.00  0.00    -0.070 CG0
ATOM      9  C   UNL     1      28.524  28.560  24.592  1.00  0.00     0.039 C 
ATOM     10  G   UNL     1      28.910  26.767  26.445  1.00  0.00     0.000 G0
ENDBRANCH   6   7
ENDBRANCH   5   6
ENDBRANCH   3   5
ENDBRANCH   1   3
BRANCH   1  11
ATOM     11  C   UNL     1      25.695  26.210  28.354  1.00  0.00     0.087 C 
BRANCH  11  12
ATOM     12  C   UNL     1      27.215  25.909  28.285  1.00  0.00     0.066 C 
BRANCH  12  13
ATOM     13  C   UNL     1      27.725  25.937  26.850  1.00  0.00     0.140 C 
ATOM     14  O   UNL     1      27.190  25.226  26.011  1.00  0.00    -0.299 OA
BRANCH  13  15
ATOM     15  C   UNL     1      28.921  26.762  26.429  1.00  0.00     0.106 CG0
ATOM     16  G   UNL     1      28.579  28.192  26.051  1.00  0.00     0.000 G0
ENDBRANCH  13  15
ENDBRANCH  12  13
BRANCH  12  17
ATOM     17  C   UNL     1      27.630  24.583  28.993  1.00  0.00    -0.006 C 
ATOM     18  C   UNL     1      28.870  24.773  29.881  1.00  0.00     0.008 C 
ATOM     19  C   UNL     1      26.501  23.921  29.801  1.00  0.00     0.008 C 
ENDBRANCH  12  17
ENDBRANCH  11  12
ENDBRANCH   1  11
TORSDOF 1
ENDMDL
MODEL 2
REMARK VINA RESULT:    -2.200      1.589      3.748
REMARK INTER + INTRA:          -3.498
REMARK INTER:                  -3.736
REMARK INTRA:                   0.238
REMARK UNBOUND:                -0.141
REMARK SMILES CC1=CCC[C@@H](C)C(=O)C[C@@H](C(C)C)C(=O)C1
REMARK SMILES IDX 8 1 9 2 6 3 7 4 5 5 4 6 3 7 2 8 1 9 10 11 11 12 15 13 16 14
REMARK SMILES IDX 17 15 12 17 13 18 14 19
REMARK H PARENT
REMARK Flexibility Score: 70.00
ROOT
ATOM      1  C   UNL     1      26.153  25.441  29.255  1.00  0.00     0.136 C 
ATOM      2  O   UNL     1      25.206  25.125  28.548  1.00  0.00    -0.299 OA
ENDROOT
BRANCH   1   3
ATOM      3  C   UNL     1      27.383  24.557  29.297  1.00  0.00     0.053 C 
ATOM      4  C   UNL     1      28.073  24.712  30.655  1.00  0.00     0.016 C 
BRANCH   3   5
ATOM      5  C   UNL     1      28.377  24.880  28.155  1.00  0.00     0.015 C 
BRANCH   5   6
ATOM      6  C   UNL     1      27.709  25.264  26.824  1.00  0.00     0.028 C 
BRANCH   6   7
ATOM      7  C   UNL     1      28.489  26.336  26.101  1.00  0.00    -0.028 C 
ATOM      8  C   UNL     1      28.149  27.645  26.047  1.00  0.00    -0.070 CG0
ATOM      9  C   UNL     1      29.041  28.577  25.266  1.00  0.00     0.039 C 
ATOM     10  G   UNL     1      26.911  28.206  26.724  1.00  0.00     0.000 G0
ENDBRANCH   6   7
ENDBRANCH   5   6
ENDBRANCH   3   5
ENDBRANCH   1   3
BRANCH   1  11
ATOM     11  C   UNL     1      26.088  26.738  30.032  1.00  0.00     0.087 C 
BRANCH  11  12
ATOM     12  C   UNL     1      25.786  27.967  29.137  1.00  0.00     0.066 C 
BRANCH  12  13
ATOM     13  C   UNL     1      26.969  28.311  28.241  1.00  0.00     0.140 C 
ATOM     14  O   UNL     1      28.002  28.728  28.747  1.00  0.00    -0.299 OA
BRANCH  13  15
ATOM     15  C   UNL     1      26.899  28.224  26.733  1.00  0.00     0.106 CG0
ATOM     16  G   UNL     1      28.151  27.653  26.091  1.00  0.00     0.000 G0
ENDBRANCH  13  15
ENDBRANCH  12  13
BRANCH  12  17
ATOM     17  C   UNL     1      25.310  29.225  29.928  1.00  0.00    -0.006 C 
ATOM     18  C   UNL     1      23.905  29.674  29.495  1.00  0.00     0.008 C 
ATOM     19  C   UNL     1      25.361  29.062  31.457  1.00  0.00     0.008 C 
ENDBRANCH  12  17
ENDBRANCH  11  12
ENDBRANCH   1  11
TORSDOF 1
ENDMDL
MODEL 3
REMARK VINA RESULT:    -0.059     14.042     16.098
REMARK INTER + INTRA:          -0.230
REMARK INTER:                  -0.278
REMARK INTRA:                   0.047
REMARK UNBOUND:                -0.141
REMARK SMILES CC1=CCC[C@@H](C)C(=O)C[C@@H](C(C)C)C(=O)C1
REMARK SMILES IDX 8 1 9 2 6 3 7 4 5 5 4 6 3 7 2 8 1 9 10 11 11 12 15 13 16 14
REMARK SMILES IDX 17 15 12 17 13 18 14 19
REMARK H PARENT
REMARK Flexibility Score: 70.00
ROOT
ATOM      1  C   UNL     1      26.580  41.538  22.323  1.00  0.00     0.136 C 
ATOM      2  O   UNL     1      25.753  42.146  22.989  1.00  0.00    -0.299 OA
ENDROOT
BRANCH   1   3
ATOM      3  C   UNL     1      28.053  41.674  22.654  1.00  0.00     0.053 C 
ATOM      4  C   UNL     1      28.376  40.824  23.886  1.00  0.00     0.016 C 
BRANCH   3   5
ATOM      5  C   UNL     1      28.466  43.146  22.900  1.00  0.00     0.015 C 
BRANCH   5   6
ATOM      6  C   UNL     1      29.125  43.829  21.690  1.00  0.00     0.028 C 
BRANCH   6   7
ATOM      7  C   UNL     1      28.117  44.124  20.604  1.00  0.00    -0.028 C 
ATOM      8  C   UNL     1      27.855  43.323  19.545  1.00  0.00    -0.070 CG0
ATOM      9  C   UNL     1      26.823  43.783  18.547  1.00  0.00     0.039 C 
ATOM     10  G   UNL     1      28.561  41.998  19.317  1.00  0.00     0.000 G0
ENDBRANCH   6   7
ENDBRANCH   5   6
ENDBRANCH   3   5
ENDBRANCH   1   3
BRANCH   1  11
ATOM     11  C   UNL     1      26.103  40.625  21.215  1.00  0.00     0.087 C 
BRANCH  11  12
ATOM     12  C   UNL     1      27.266  39.954  20.439  1.00  0.00     0.066 C 
BRANCH  12  13
ATOM     13  C   UNL     1      27.674  40.775  19.223  1.00  0.00     0.140 C 
ATOM     14  O   UNL     1      27.301  40.425  18.112  1.00  0.00    -0.299 OA
BRANCH  13  15
ATOM     15  C   UNL     1      28.586  41.977  19.324  1.00  0.00     0.106 CG0
ATOM     16  G   UNL     1      27.855  43.288  19.551  1.00  0.00     0.000 G0
ENDBRANCH  13  15
ENDBRANCH  12  13
BRANCH  12  17
ATOM     17  C   UNL     1      26.986  38.473  20.036  1.00  0.00    -0.006 C 
ATOM     18  C   UNL     1      28.212  37.576  20.267  1.00  0.00     0.008 C 
ATOM     19  C   UNL     1      25.750  37.859  20.717  1.00  0.00     0.008 C 
ENDBRANCH  12  17
ENDBRANCH  11  12
ENDBRANCH   1  11
TORSDOF 1
ENDMDL
MODEL 4
REMARK VINA RESULT:     0.326     13.779     15.719
REMARK INTER + INTRA:           0.356
REMARK INTER:                  -0.290
REMARK INTRA:                   0.646
REMARK UNBOUND:                -0.141
REMARK SMILES CC1=CCC[C@@H](C)C(=O)C[C@@H](C(C)C)C(=O)C1
REMARK SMILES IDX 8 1 9 2 6 3 7 4 5 5 4 6 3 7 2 8 1 9 10 11 11 12 15 13 16 14
REMARK SMILES IDX 17 15 12 17 13 18 14 19
REMARK H PARENT
REMARK Flexibility Score: 70.00
ROOT
ATOM      1  C   UNL     1      25.735  38.122  20.232  1.00  0.00     0.136 C 
ATOM      2  O   UNL     1      25.911  36.958  20.565  1.00  0.00    -0.299 OA
ENDROOT
BRANCH   1   3
ATOM      3  C   UNL     1      24.771  38.987  21.018  1.00  0.00     0.053 C 
ATOM      4  C   UNL     1      23.349  38.443  20.850  1.00  0.00     0.016 C 
BRANCH   3   5
ATOM      5  C   UNL     1      24.827  40.472  20.583  1.00  0.00     0.015 C 
BRANCH   5   6
ATOM      6  C   UNL     1      25.765  41.345  21.434  1.00  0.00     0.028 C 
BRANCH   6   7
ATOM      7  C   UNL     1      26.115  42.633  20.727  1.00  0.00    -0.028 C 
ATOM      8  C   UNL     1      26.729  42.720  19.524  1.00  0.00    -0.070 CG0
ATOM      9  C   UNL     1      27.015  44.093  18.972  1.00  0.00     0.039 C 
ATOM     10  G   UNL     1      27.147  41.501  18.720  1.00  0.00     0.000 G0
ENDBRANCH   6   7
ENDBRANCH   5   6
ENDBRANCH   3   5
ENDBRANCH   1   3
BRANCH   1  11
ATOM     11  C   UNL     1      26.527  38.680  19.069  1.00  0.00     0.087 C 
BRANCH  11  12
ATOM     12  C   UNL     1      27.966  39.102  19.463  1.00  0.00     0.066 C 
BRANCH  12  13
ATOM     13  C   UNL     1      28.152  40.610  19.368  1.00  0.00     0.140 C 
ATOM     14  O   UNL     1      29.120  41.129  19.908  1.00  0.00    -0.299 OA
BRANCH  13  15
ATOM     15  C   UNL     1      27.147  41.512  18.687  1.00  0.00     0.106 CG0
ATOM     16  G   UNL     1      26.736  42.715  19.518  1.00  0.00     0.000 G0
ENDBRANCH  13  15
ENDBRANCH  12  13
BRANCH  12  17
ATOM     17  C   UNL     1      29.083  38.358  18.667  1.00  0.00    -0.006 C 
ATOM     18  C   UNL     1      29.108  36.855  18.987  1.00  0.00     0.008 C 
ATOM     19  C   UNL     1      29.019  38.570  17.145  1.00  0.00     0.008 C 
ENDBRANCH  12  17
ENDBRANCH  11  12
ENDBRANCH   1  11
TORSDOF 1
ENDMDL
MODEL 5
REMARK VINA RESULT:     0.599      2.612      3.973
REMARK INTER + INTRA:           0.772
REMARK INTER:                  -0.013
REMARK INTRA:                   0.786
REMARK UNBOUND:                -0.141
REMARK SMILES CC1=CCC[C@@H](C)C(=O)C[C@@H](C(C)C)C(=O)C1
REMARK SMILES IDX 8 1 9 2 6 3 7 4 5 5 4 6 3 7 2 8 1 9 10 11 11 12 15 13 16 14
REMARK SMILES IDX 17 15 12 17 13 18 14 19
REMARK H PARENT
REMARK Flexibility Score: 70.00
ROOT
ATOM      1  C   UNL     1      24.289  28.279  28.741  1.00  0.00     0.136 C 
ATOM      2  O   UNL     1      23.578  29.259  28.913  1.00  0.00    -0.299 OA
ENDROOT
BRANCH   1   3
ATOM      3  C   UNL     1      25.538  28.104  29.581  1.00  0.00     0.053 C 
ATOM      4  C   UNL     1      25.601  29.216  30.634  1.00  0.00     0.016 C 
BRANCH   3   5
ATOM      5  C   UNL     1      26.828  28.109  28.725  1.00  0.00     0.015 C 
BRANCH   5   6
ATOM      6  C   UNL     1      27.605  26.782  28.745  1.00  0.00     0.028 C 
BRANCH   6   7
ATOM      7  C   UNL     1      27.496  26.056  27.425  1.00  0.00    -0.028 C 
ATOM      8  C   UNL     1      26.649  25.034  27.165  1.00  0.00    -0.070 CG0
ATOM      9  C   UNL     1      26.684  24.416  25.790  1.00  0.00     0.039 C 
ATOM     10  G   UNL     1      25.681  24.481  28.196  1.00  0.00     0.000 G0
ENDBRANCH   6   7
ENDBRANCH   5   6
ENDBRANCH   3   5
ENDBRANCH   1   3
BRANCH   1  11
ATOM     11  C   UNL     1      23.872  27.238  27.725  1.00  0.00     0.087 C 
BRANCH  11  12
ATOM     12  C   UNL     1      23.411  25.908  28.373  1.00  0.00     0.066 C 
BRANCH  12  13
ATOM     13  C   UNL     1      24.208  24.723  27.844  1.00  0.00     0.140 C 
ATOM     14  O   UNL     1      23.647  23.886  27.151  1.00  0.00    -0.299 OA
BRANCH  13  15
ATOM     15  C   UNL     1      25.661  24.498  28.198  1.00  0.00     0.106 CG0
ATOM     16  G   UNL     1      26.637  25.037  27.166  1.00  0.00     0.000 G0
ENDBRANCH  13  15
ENDBRANCH  12  13
BRANCH  12  17
ATOM     17  C   UNL     1      21.879  25.641  28.250  1.00  0.00    -0.006 C 
ATOM     18  C   UNL     1      21.051  26.875  28.640  1.00  0.00     0.008 C 
ATOM     19  C   UNL     1      21.439  25.129  26.867  1.00  0.00     0.008 C 
ENDBRANCH  12  17
ENDBRANCH  11  12
ENDBRANCH   1  11
TORSDOF 1
ENDMDL
