MODEL 1
REMARK VINA RESULT:    -5.032      0.000      0.000
REMARK INTER + INTRA:          -9.239
REMARK INTER:                  -7.679
REMARK INTRA:                  -1.560
REMARK UNBOUND:                -1.560
REMARK SMILES OC[C@@H]1O[C@](CO)(O[C@H]2O[C@@H](CO)[C@@H](O)[C@@H](O)[C@@H]2O)[C@H](O)[C@@H]1O
REMARK SMILES IDX 8 1 9 2 11 3 14 4 10 5 16 6 18 7 12 8 13 9 15 11 17 13 19 15
REMARK SMILES IDX 5 17 20 18 4 19 22 20 3 21 6 22 7 23 21 25 23 27 2 29 1 30
REMARK H PARENT 13 10 15 12 17 14 19 16 7 24 21 26 23 28 1 31
REMARK Flexibility Score: inf
ROOT
ATOM      1  O   UNL     1       5.686   9.779  59.267  1.00  0.00    -0.313 OA
ENDROOT
BRANCH   1   2
ATOM      2  C   UNL     1       5.654  10.811  60.243  1.00  0.00     0.285 C 
ATOM      3  C   UNL     1       4.849  12.693  59.004  1.00  0.00     0.178 C 
ATOM      4  C   UNL     1       3.758  13.091  60.050  1.00  0.00     0.177 C 
ATOM      5  O   UNL     1       5.962  12.057  59.621  1.00  0.00    -0.341 OA
ATOM      6  C   UNL     1       3.835  12.216  61.320  1.00  0.00     0.179 C 
ATOM      7  C   UNL     1       4.279  10.787  60.965  1.00  0.00     0.202 C 
BRANCH   3   8
ATOM      8  C   UNL     1       4.323  11.908  57.778  1.00  0.00     0.191 C 
BRANCH   8   9
ATOM      9  O   UNL     1       5.383  11.633  56.905  1.00  0.00    -0.394 OA
ATOM     10  H   UNL     1       5.028  11.766  55.987  1.00  0.00     0.210 HD
ENDBRANCH   8   9
ENDBRANCH   3   8
BRANCH   4  11
ATOM     11  O   UNL     1       2.469  13.043  59.488  1.00  0.00    -0.387 OA
ATOM     12  H   UNL     1       2.499  13.596  58.661  1.00  0.00     0.211 HD
ENDBRANCH   4  11
BRANCH   6  13
ATOM     13  O   UNL     1       2.620  12.222  62.034  1.00  0.00    -0.387 OA
ATOM     14  H   UNL     1       1.883  12.076  61.383  1.00  0.00     0.211 HD
ENDBRANCH   6  13
BRANCH   7  15
ATOM     15  O   UNL     1       4.325   9.971  62.111  1.00  0.00    -0.385 OA
ATOM     16  H   UNL     1       5.187   9.480  62.102  1.00  0.00     0.211 HD
ENDBRANCH   7  15
ENDBRANCH   1   2
BRANCH   1  17
ATOM     17  C   UNL     1       6.622   8.740  59.536  1.00  0.00     0.224 C 
ATOM     18  C   UNL     1       6.799   7.894  58.252  1.00  0.00     0.208 C 
ATOM     19  O   UNL     1       6.138   7.893  60.567  1.00  0.00    -0.337 OA
ATOM     20  C   UNL     1       6.770   6.478  58.770  1.00  0.00     0.180 C 
ATOM     21  C   UNL     1       5.952   6.596  60.049  1.00  0.00     0.179 C 
BRANCH  17  22
ATOM     22  C   UNL     1       7.989   9.325  59.971  1.00  0.00     0.225 C 
BRANCH  22  23
ATOM     23  O   UNL     1       8.749   9.720  58.856  1.00  0.00    -0.391 OA
ATOM     24  H   UNL     1       8.749   8.959  58.218  1.00  0.00     0.210 HD
ENDBRANCH  22  23
ENDBRANCH  17  22
BRANCH  18  25
ATOM     25  O   UNL     1       5.725   8.108  57.360  1.00  0.00    -0.385 OA
ATOM     26  H   UNL     1       4.999   7.481  57.617  1.00  0.00     0.211 HD
ENDBRANCH  18  25
BRANCH  20  27
ATOM     27  O   UNL     1       6.215   5.572  57.850  1.00  0.00    -0.387 OA
ATOM     28  H   UNL     1       6.921   4.900  57.664  1.00  0.00     0.211 HD
ENDBRANCH  20  27
BRANCH  21  29
ATOM     29  C   UNL     1       4.446   6.345  59.864  1.00  0.00     0.191 C 
BRANCH  29  30
ATOM     30  O   UNL     1       3.730   7.439  60.364  1.00  0.00    -0.394 OA
ATOM     31  H   UNL     1       2.824   7.384  59.964  1.00  0.00     0.210 HD
ENDBRANCH  29  30
ENDBRANCH  21  29
ENDBRANCH   1  17
TORSDOF 13
ENDMDL
MODEL 2
REMARK VINA RESULT:    -4.958      1.203      2.016
REMARK INTER + INTRA:          -9.126
REMARK INTER:                  -7.374
REMARK INTRA:                  -1.752
REMARK UNBOUND:                -1.560
REMARK SMILES OC[C@@H]1O[C@](CO)(O[C@H]2O[C@@H](CO)[C@@H](O)[C@@H](O)[C@@H]2O)[C@H](O)[C@@H]1O
REMARK SMILES IDX 8 1 9 2 11 3 14 4 10 5 16 6 18 7 12 8 13 9 15 11 17 13 19 15
REMARK SMILES IDX 5 17 20 18 4 19 22 20 3 21 6 22 7 23 21 25 23 27 2 29 1 30
REMARK H PARENT 13 10 15 12 17 14 19 16 7 24 21 26 23 28 1 31
REMARK Flexibility Score: inf
ROOT
ATOM      1  O   UNL     1       5.116   9.280  59.280  1.00  0.00    -0.313 OA
ENDROOT
BRANCH   1   2
ATOM      2  C   UNL     1       5.324  10.274  60.273  1.00  0.00     0.285 C 
ATOM      3  C   UNL     1       5.008  12.313  59.062  1.00  0.00     0.178 C 
ATOM      4  C   UNL     1       4.037  12.947  60.109  1.00  0.00     0.177 C 
ATOM      5  O   UNL     1       5.930  11.418  59.674  1.00  0.00    -0.341 OA
ATOM      6  C   UNL     1       3.889  12.060  61.364  1.00  0.00     0.179 C 
ATOM      7  C   UNL     1       3.978  10.572  60.988  1.00  0.00     0.202 C 
BRANCH   3   8
ATOM      8  C   UNL     1       4.320  11.697  57.820  1.00  0.00     0.191 C 
BRANCH   8   9
ATOM      9  O   UNL     1       5.289  11.164  56.960  1.00  0.00    -0.394 OA
ATOM     10  H   UNL     1       5.867  11.924  56.688  1.00  0.00     0.210 HD
ENDBRANCH   8   9
ENDBRANCH   3   8
BRANCH   4  11
ATOM     11  O   UNL     1       2.779  13.220  59.539  1.00  0.00    -0.387 OA
ATOM     12  H   UNL     1       2.111  13.134  60.273  1.00  0.00     0.211 HD
ENDBRANCH   4  11
BRANCH   6  13
ATOM     13  O   UNL     1       2.704  12.348  62.071  1.00  0.00    -0.387 OA
ATOM     14  H   UNL     1       2.954  12.833  62.902  1.00  0.00     0.211 HD
ENDBRANCH   6  13
BRANCH   7  15
ATOM     15  O   UNL     1       3.816   9.752  62.119  1.00  0.00    -0.385 OA
ATOM     16  H   UNL     1       4.694   9.340  62.328  1.00  0.00     0.211 HD
ENDBRANCH   7  15
ENDBRANCH   1   2
BRANCH   1  17
ATOM     17  C   UNL     1       5.914   8.111  59.437  1.00  0.00     0.224 C 
ATOM     18  C   UNL     1       7.298   8.373  58.797  1.00  0.00     0.208 C 
ATOM     19  O   UNL     1       5.314   7.009  58.773  1.00  0.00    -0.337 OA
ATOM     20  C   UNL     1       7.568   7.099  58.035  1.00  0.00     0.180 C 
ATOM     21  C   UNL     1       6.170   6.570  57.743  1.00  0.00     0.179 C 
BRANCH  17  22
ATOM     22  C   UNL     1       6.088   7.756  60.936  1.00  0.00     0.225 C 
BRANCH  22  23
ATOM     23  O   UNL     1       4.994   7.010  61.408  1.00  0.00    -0.391 OA
ATOM     24  H   UNL     1       4.916   7.188  62.382  1.00  0.00     0.210 HD
ENDBRANCH  22  23
ENDBRANCH  17  22
BRANCH  18  25
ATOM     25  O   UNL     1       7.240   9.468  57.908  1.00  0.00    -0.385 OA
ATOM     26  H   UNL     1       6.530  10.079  58.239  1.00  0.00     0.211 HD
ENDBRANCH  18  25
BRANCH  20  27
ATOM     27  O   UNL     1       8.325   7.310  56.870  1.00  0.00    -0.387 OA
ATOM     28  H   UNL     1       9.233   6.960  57.063  1.00  0.00     0.211 HD
ENDBRANCH  20  27
BRANCH  21  29
ATOM     29  C   UNL     1       5.592   7.020  56.390  1.00  0.00     0.191 C 
BRANCH  29  30
ATOM     30  O   UNL     1       4.791   8.151  56.582  1.00  0.00    -0.394 OA
ATOM     31  H   UNL     1       5.194   8.873  56.035  1.00  0.00     0.210 HD
ENDBRANCH  29  30
ENDBRANCH  21  29
ENDBRANCH   1  17
TORSDOF 13
ENDMDL
MODEL 3
REMARK VINA RESULT:    -4.955      1.981      3.558
REMARK INTER + INTRA:          -9.121
REMARK INTER:                  -7.662
REMARK INTRA:                  -1.459
REMARK UNBOUND:                -1.560
REMARK SMILES OC[C@@H]1O[C@](CO)(O[C@H]2O[C@@H](CO)[C@@H](O)[C@@H](O)[C@@H]2O)[C@H](O)[C@@H]1O
REMARK SMILES IDX 8 1 9 2 11 3 14 4 10 5 16 6 18 7 12 8 13 9 15 11 17 13 19 15
REMARK SMILES IDX 5 17 20 18 4 19 22 20 3 21 6 22 7 23 21 25 23 27 2 29 1 30
REMARK H PARENT 13 10 15 12 17 14 19 16 7 24 21 26 23 28 1 31
REMARK Flexibility Score: inf
ROOT
ATOM      1  O   UNL     1       4.667  10.132  60.571  1.00  0.00    -0.313 OA
ENDROOT
BRANCH   1   2
ATOM      2  C   UNL     1       3.471   9.748  61.235  1.00  0.00     0.285 C 
ATOM      3  C   UNL     1       2.070  11.668  60.963  1.00  0.00     0.178 C 
ATOM      4  C   UNL     1       0.826  10.862  60.466  1.00  0.00     0.177 C 
ATOM      5  O   UNL     1       2.880  10.895  61.841  1.00  0.00    -0.341 OA
ATOM      6  C   UNL     1       1.068   9.338  60.525  1.00  0.00     0.179 C 
ATOM      7  C   UNL     1       2.543   9.014  60.229  1.00  0.00     0.202 C 
BRANCH   3   8
ATOM      8  C   UNL     1       2.894  12.353  59.846  1.00  0.00     0.191 C 
BRANCH   8   9
ATOM      9  O   UNL     1       3.922  13.112  60.418  1.00  0.00    -0.394 OA
ATOM     10  H   UNL     1       4.485  12.475  60.931  1.00  0.00     0.210 HD
ENDBRANCH   8   9
ENDBRANCH   3   8
BRANCH   4  11
ATOM     11  O   UNL     1       0.446  11.257  59.169  1.00  0.00    -0.387 OA
ATOM     12  H   UNL     1      -0.204  12.003  59.280  1.00  0.00     0.211 HD
ENDBRANCH   4  11
BRANCH   6  13
ATOM     13  O   UNL     1       0.199   8.636  59.667  1.00  0.00    -0.387 OA
ATOM     14  H   UNL     1      -0.716   9.006  59.789  1.00  0.00     0.211 HD
ENDBRANCH   6  13
BRANCH   7  15
ATOM     15  O   UNL     1       2.771   7.626  60.251  1.00  0.00    -0.385 OA
ATOM     16  H   UNL     1       3.583   7.441  59.713  1.00  0.00     0.211 HD
ENDBRANCH   7  15
ENDBRANCH   1   2
BRANCH   1  17
ATOM     17  C   UNL     1       5.747   9.215  60.723  1.00  0.00     0.224 C 
ATOM     18  C   UNL     1       7.075   9.986  60.531  1.00  0.00     0.208 C 
ATOM     19  O   UNL     1       5.673   8.197  59.735  1.00  0.00    -0.337 OA
ATOM     20  C   UNL     1       7.881   9.063  59.652  1.00  0.00     0.180 C 
ATOM     21  C   UNL     1       6.812   8.273  58.909  1.00  0.00     0.179 C 
BRANCH  17  22
ATOM     22  C   UNL     1       5.721   8.554  62.124  1.00  0.00     0.225 C 
BRANCH  22  23
ATOM     23  O   UNL     1       5.404   7.187  62.033  1.00  0.00    -0.391 OA
ATOM     24  H   UNL     1       5.724   6.756  62.868  1.00  0.00     0.210 HD
ENDBRANCH  22  23
ENDBRANCH  17  22
BRANCH  18  25
ATOM     25  O   UNL     1       6.851  11.214  59.871  1.00  0.00    -0.385 OA
ATOM     26  H   UNL     1       7.705  11.476  59.437  1.00  0.00     0.211 HD
ENDBRANCH  18  25
BRANCH  20  27
ATOM     27  O   UNL     1       8.749   9.752  58.788  1.00  0.00    -0.387 OA
ATOM     28  H   UNL     1       8.333  10.638  58.626  1.00  0.00     0.211 HD
ENDBRANCH  20  27
BRANCH  21  29
ATOM     29  C   UNL     1       6.404   8.879  57.555  1.00  0.00     0.191 C 
BRANCH  29  30
ATOM     30  O   UNL     1       7.211   8.341  56.546  1.00  0.00    -0.394 OA
ATOM     31  H   UNL     1       7.760   7.635  56.975  1.00  0.00     0.210 HD
ENDBRANCH  29  30
ENDBRANCH  21  29
ENDBRANCH   1  17
TORSDOF 13
ENDMDL
MODEL 4
REMARK VINA RESULT:    -4.851      2.083      5.273
REMARK INTER + INTRA:          -8.964
REMARK INTER:                  -7.538
REMARK INTRA:                  -1.425
REMARK UNBOUND:                -1.560
REMARK SMILES OC[C@@H]1O[C@](CO)(O[C@H]2O[C@@H](CO)[C@@H](O)[C@@H](O)[C@@H]2O)[C@H](O)[C@@H]1O
REMARK SMILES IDX 8 1 9 2 11 3 14 4 10 5 16 6 18 7 12 8 13 9 15 11 17 13 19 15
REMARK SMILES IDX 5 17 20 18 4 19 22 20 3 21 6 22 7 23 21 25 23 27 2 29 1 30
REMARK H PARENT 13 10 15 12 17 14 19 16 7 24 21 26 23 28 1 31
REMARK Flexibility Score: inf
ROOT
ATOM      1  O   UNL     1       3.920   9.663  59.363  1.00  0.00    -0.313 OA
ENDROOT
BRANCH   1   2
ATOM      2  C   UNL     1       4.833   8.681  59.833  1.00  0.00     0.285 C 
ATOM      3  C   UNL     1       6.527   8.676  58.143  1.00  0.00     0.178 C 
ATOM      4  C   UNL     1       7.722   8.771  59.146  1.00  0.00     0.177 C 
ATOM      5  O   UNL     1       5.411   8.005  58.718  1.00  0.00    -0.341 OA
ATOM      6  C   UNL     1       7.248   8.692  60.613  1.00  0.00     0.179 C 
ATOM      7  C   UNL     1       5.869   9.355  60.772  1.00  0.00     0.202 C 
BRANCH   3   8
ATOM      8  C   UNL     1       6.132  10.010  57.467  1.00  0.00     0.191 C 
BRANCH   8   9
ATOM      9  O   UNL     1       6.849  10.165  56.275  1.00  0.00    -0.394 OA
ATOM     10  H   UNL     1       6.736  11.114  56.004  1.00  0.00     0.210 HD
ENDBRANCH   8   9
ENDBRANCH   3   8
BRANCH   4  11
ATOM     11  O   UNL     1       8.480   9.938  58.929  1.00  0.00    -0.387 OA
ATOM     12  H   UNL     1       8.075  10.396  58.143  1.00  0.00     0.211 HD
ENDBRANCH   4  11
BRANCH   6  13
ATOM     13  O   UNL     1       8.195   9.241  61.500  1.00  0.00    -0.387 OA
ATOM     14  H   UNL     1       7.715   9.848  62.123  1.00  0.00     0.211 HD
ENDBRANCH   6  13
BRANCH   7  15
ATOM     15  O   UNL     1       5.438   9.315  62.111  1.00  0.00    -0.385 OA
ATOM     16  H   UNL     1       5.844  10.085  62.586  1.00  0.00     0.211 HD
ENDBRANCH   7  15
ENDBRANCH   1   2
BRANCH   1  17
ATOM     17  C   UNL     1       2.569   9.454  59.763  1.00  0.00     0.224 C 
ATOM     18  C   UNL     1       1.699  10.584  59.162  1.00  0.00     0.208 C 
ATOM     19  O   UNL     1       2.459   9.508  61.178  1.00  0.00    -0.337 OA
ATOM     20  C   UNL     1       0.807  10.977  60.313  1.00  0.00     0.180 C 
ATOM     21  C   UNL     1       1.631  10.592  61.535  1.00  0.00     0.179 C 
BRANCH  17  22
ATOM     22  C   UNL     1       2.053   8.077  59.275  1.00  0.00     0.225 C 
BRANCH  22  23
ATOM     23  O   UNL     1       1.277   7.448  60.264  1.00  0.00    -0.391 OA
ATOM     24  H   UNL     1       0.643   6.842  59.798  1.00  0.00     0.210 HD
ENDBRANCH  22  23
ENDBRANCH  17  22
BRANCH  18  25
ATOM     25  O   UNL     1       2.500  11.679  58.771  1.00  0.00    -0.385 OA
ATOM     26  H   UNL     1       2.192  11.964  57.871  1.00  0.00     0.211 HD
ENDBRANCH  18  25
BRANCH  20  27
ATOM     27  O   UNL     1       0.462  12.339  60.296  1.00  0.00    -0.387 OA
ATOM     28  H   UNL     1       0.301  12.596  61.241  1.00  0.00     0.211 HD
ENDBRANCH  20  27
BRANCH  21  29
ATOM     29  C   UNL     1       2.509  11.726  62.090  1.00  0.00     0.191 C 
BRANCH  29  30
ATOM     30  O   UNL     1       3.764  11.684  61.474  1.00  0.00    -0.394 OA
ATOM     31  H   UNL     1       3.597  11.743  60.497  1.00  0.00     0.210 HD
ENDBRANCH  29  30
ENDBRANCH  21  29
ENDBRANCH   1  17
TORSDOF 13
ENDMDL
MODEL 5
REMARK VINA RESULT:    -4.805      2.801      5.732
REMARK INTER + INTRA:          -8.892
REMARK INTER:                  -7.225
REMARK INTRA:                  -1.668
REMARK UNBOUND:                -1.560
REMARK SMILES OC[C@@H]1O[C@](CO)(O[C@H]2O[C@@H](CO)[C@@H](O)[C@@H](O)[C@@H]2O)[C@H](O)[C@@H]1O
REMARK SMILES IDX 8 1 9 2 11 3 14 4 10 5 16 6 18 7 12 8 13 9 15 11 17 13 19 15
REMARK SMILES IDX 5 17 20 18 4 19 22 20 3 21 6 22 7 23 21 25 23 27 2 29 1 30
REMARK H PARENT 13 10 15 12 17 14 19 16 7 24 21 26 23 28 1 31
REMARK Flexibility Score: inf
ROOT
ATOM      1  O   UNL     1       2.891  11.167  57.912  1.00  0.00    -0.313 OA
ENDROOT
BRANCH   1   2
ATOM      2  C   UNL     1       3.585  10.158  57.192  1.00  0.00     0.285 C 
ATOM      3  C   UNL     1       3.038  10.653  54.916  1.00  0.00     0.178 C 
ATOM      4  C   UNL     1       4.511  10.581  54.400  1.00  0.00     0.177 C 
ATOM      5  O   UNL     1       2.830   9.801  56.036  1.00  0.00    -0.341 OA
ATOM      6  C   UNL     1       5.486  10.129  55.510  1.00  0.00     0.179 C 
ATOM      7  C   UNL     1       5.024  10.653  56.880  1.00  0.00     0.202 C 
BRANCH   3   8
ATOM      8  C   UNL     1       2.497  12.084  55.153  1.00  0.00     0.191 C 
BRANCH   8   9
ATOM      9  O   UNL     1       1.196  12.017  55.666  1.00  0.00    -0.394 OA
ATOM     10  H   UNL     1       1.254  12.313  56.611  1.00  0.00     0.210 HD
ENDBRANCH   8   9
ENDBRANCH   3   8
BRANCH   4  11
ATOM     11  O   UNL     1       4.920  11.809  53.847  1.00  0.00    -0.387 OA
ATOM     12  H   UNL     1       5.396  12.300  54.570  1.00  0.00     0.211 HD
ENDBRANCH   4  11
BRANCH   6  13
ATOM     13  O   UNL     1       6.813  10.509  55.227  1.00  0.00    -0.387 OA
ATOM     14  H   UNL     1       6.833  10.889  54.309  1.00  0.00     0.211 HD
ENDBRANCH   6  13
BRANCH   7  15
ATOM     15  O   UNL     1       5.920  10.272  57.897  1.00  0.00    -0.385 OA
ATOM     16  H   UNL     1       5.391   9.887  58.642  1.00  0.00     0.211 HD
ENDBRANCH   7  15
ENDBRANCH   1   2
BRANCH   1  17
ATOM     17  C   UNL     1       2.346  10.737  59.155  1.00  0.00     0.224 C 
ATOM     18  C   UNL     1       2.068  11.985  60.027  1.00  0.00     0.208 C 
ATOM     19  O   UNL     1       3.274   9.909  59.841  1.00  0.00    -0.337 OA
ATOM     20  C   UNL     1       2.583  11.575  61.384  1.00  0.00     0.180 C 
ATOM     21  C   UNL     1       3.642  10.532  61.050  1.00  0.00     0.179 C 
BRANCH  17  22
ATOM     22  C   UNL     1       1.033   9.944  58.940  1.00  0.00     0.225 C 
BRANCH  22  23
ATOM     23  O   UNL     1       0.284  10.483  57.879  1.00  0.00    -0.391 OA
ATOM     24  H   UNL     1       0.464  11.460  57.861  1.00  0.00     0.210 HD
ENDBRANCH  22  23
ENDBRANCH  17  22
BRANCH  18  25
ATOM     25  O   UNL     1       2.791  13.101  59.549  1.00  0.00    -0.385 OA
ATOM     26  H   UNL     1       2.152  13.859  59.483  1.00  0.00     0.211 HD
ENDBRANCH  18  25
BRANCH  20  27
ATOM     27  O   UNL     1       3.096  12.655  62.123  1.00  0.00    -0.387 OA
ATOM     28  H   UNL     1       2.843  12.490  63.068  1.00  0.00     0.211 HD
ENDBRANCH  20  27
BRANCH  21  29
ATOM     29  C   UNL     1       5.065  11.099  60.904  1.00  0.00     0.191 C 
BRANCH  29  30
ATOM     30  O   UNL     1       5.980  10.041  60.842  1.00  0.00    -0.394 OA
ATOM     31  H   UNL     1       6.829  10.386  61.222  1.00  0.00     0.210 HD
ENDBRANCH  29  30
ENDBRANCH  21  29
ENDBRANCH   1  17
TORSDOF 13
ENDMDL
MODEL 6
REMARK VINA RESULT:    -4.783      1.943      5.623
REMARK INTER + INTRA:          -8.860
REMARK INTER:                  -7.294
REMARK INTRA:                  -1.566
REMARK UNBOUND:                -1.560
REMARK SMILES OC[C@@H]1O[C@](CO)(O[C@H]2O[C@@H](CO)[C@@H](O)[C@@H](O)[C@@H]2O)[C@H](O)[C@@H]1O
REMARK SMILES IDX 8 1 9 2 11 3 14 4 10 5 16 6 18 7 12 8 13 9 15 11 17 13 19 15
REMARK SMILES IDX 5 17 20 18 4 19 22 20 3 21 6 22 7 23 21 25 23 27 2 29 1 30
REMARK H PARENT 13 10 15 12 17 14 19 16 7 24 21 26 23 28 1 31
REMARK Flexibility Score: inf
ROOT
ATOM      1  O   UNL     1       3.995   9.951  60.425  1.00  0.00    -0.313 OA
ENDROOT
BRANCH   1   2
ATOM      2  C   UNL     1       5.231  10.086  61.111  1.00  0.00     0.285 C 
ATOM      3  C   UNL     1       6.097   7.856  61.094  1.00  0.00     0.178 C 
ATOM      4  C   UNL     1       7.519   8.263  60.590  1.00  0.00     0.177 C 
ATOM      5  O   UNL     1       5.490   8.896  61.852  1.00  0.00    -0.341 OA
ATOM      6  C   UNL     1       7.676   9.797  60.493  1.00  0.00     0.179 C 
ATOM      7  C   UNL     1       6.344  10.451  60.091  1.00  0.00     0.202 C 
BRANCH   3   8
ATOM      8  C   UNL     1       5.155   7.290  60.005  1.00  0.00     0.191 C 
BRANCH   8   9
ATOM      9  O   UNL     1       3.866   7.134  60.532  1.00  0.00    -0.394 OA
ATOM     10  H   UNL     1       3.341   6.650  59.842  1.00  0.00     0.210 HD
ENDBRANCH   8   9
ENDBRANCH   3   8
BRANCH   4  11
ATOM     11  O   UNL     1       7.820   7.653  59.358  1.00  0.00    -0.387 OA
ATOM     12  H   UNL     1       6.982   7.213  59.048  1.00  0.00     0.211 HD
ENDBRANCH   4  11
BRANCH   6  13
ATOM     13  O   UNL     1       8.720  10.162  59.620  1.00  0.00    -0.387 OA
ATOM     14  H   UNL     1       8.532   9.757  58.733  1.00  0.00     0.211 HD
ENDBRANCH   6  13
BRANCH   7  15
ATOM     15  O   UNL     1       6.480  11.847  59.971  1.00  0.00    -0.385 OA
ATOM     16  H   UNL     1       6.935  12.181  60.787  1.00  0.00     0.211 HD
ENDBRANCH   7  15
ENDBRANCH   1   2
BRANCH   1  17
ATOM     17  C   UNL     1       3.117  11.064  60.566  1.00  0.00     0.224 C 
ATOM     18  C   UNL     1       1.662  10.538  60.610  1.00  0.00     0.208 C 
ATOM     19  O   UNL     1       3.243  11.937  59.454  1.00  0.00    -0.337 OA
ATOM     20  C   UNL     1       0.925  11.494  59.706  1.00  0.00     0.180 C 
ATOM     21  C   UNL     1       2.016  11.986  58.763  1.00  0.00     0.179 C 
BRANCH  17  22
ATOM     22  C   UNL     1       3.428  11.855  61.861  1.00  0.00     0.225 C 
BRANCH  22  23
ATOM     23  O   UNL     1       3.958  13.123  61.563  1.00  0.00    -0.391 OA
ATOM     24  H   UNL     1       3.712  13.331  60.623  1.00  0.00     0.210 HD
ENDBRANCH  22  23
ENDBRANCH  17  22
BRANCH  18  25
ATOM     25  O   UNL     1       1.588   9.225  60.094  1.00  0.00    -0.385 OA
ATOM     26  H   UNL     1       2.237   9.166  59.344  1.00  0.00     0.211 HD
ENDBRANCH  18  25
BRANCH  20  27
ATOM     27  O   UNL     1      -0.148  10.889  59.030  1.00  0.00    -0.387 OA
ATOM     28  H   UNL     1      -0.941  11.460  59.203  1.00  0.00     0.211 HD
ENDBRANCH  20  27
BRANCH  21  29
ATOM     29  C   UNL     1       2.144  11.172  57.464  1.00  0.00     0.191 C 
BRANCH  29  30
ATOM     30  O   UNL     1       1.354  11.760  56.470  1.00  0.00    -0.394 OA
ATOM     31  H   UNL     1       0.838  11.023  56.052  1.00  0.00     0.210 HD
ENDBRANCH  29  30
ENDBRANCH  21  29
ENDBRANCH   1  17
TORSDOF 13
ENDMDL
MODEL 7
REMARK VINA RESULT:    -4.643      2.035      5.446
REMARK INTER + INTRA:          -8.646
REMARK INTER:                  -6.924
REMARK INTRA:                  -1.722
REMARK UNBOUND:                -1.560
REMARK SMILES OC[C@@H]1O[C@](CO)(O[C@H]2O[C@@H](CO)[C@@H](O)[C@@H](O)[C@@H]2O)[C@H](O)[C@@H]1O
REMARK SMILES IDX 8 1 9 2 11 3 14 4 10 5 16 6 18 7 12 8 13 9 15 11 17 13 19 15
REMARK SMILES IDX 5 17 20 18 4 19 22 20 3 21 6 22 7 23 21 25 23 27 2 29 1 30
REMARK H PARENT 13 10 15 12 17 14 19 16 7 24 21 26 23 28 1 31
REMARK Flexibility Score: inf
ROOT
ATOM      1  O   UNL     1       4.365  10.014  59.171  1.00  0.00    -0.313 OA
ENDROOT
BRANCH   1   2
ATOM      2  C   UNL     1       5.704  10.488  59.208  1.00  0.00     0.285 C 
ATOM      3  C   UNL     1       6.484   9.717  61.335  1.00  0.00     0.178 C 
ATOM      4  C   UNL     1       7.812   9.106  60.782  1.00  0.00     0.177 C 
ATOM      5  O   UNL     1       6.048  10.822  60.551  1.00  0.00    -0.341 OA
ATOM      6  C   UNL     1       7.998   9.403  59.278  1.00  0.00     0.179 C 
ATOM      7  C   UNL     1       6.638   9.429  58.560  1.00  0.00     0.202 C 
BRANCH   3   8
ATOM      8  C   UNL     1       5.353   8.695  61.598  1.00  0.00     0.191 C 
BRANCH   8   9
ATOM      9  O   UNL     1       4.223   9.358  62.093  1.00  0.00    -0.394 OA
ATOM     10  H   UNL     1       4.364  10.323  61.905  1.00  0.00     0.210 HD
ENDBRANCH   8   9
ENDBRANCH   3   8
BRANCH   4  11
ATOM     11  O   UNL     1       7.879   7.721  61.029  1.00  0.00    -0.387 OA
ATOM     12  H   UNL     1       7.170   7.300  60.471  1.00  0.00     0.211 HD
ENDBRANCH   4  11
BRANCH   6  13
ATOM     13  O   UNL     1       8.889   8.496  58.672  1.00  0.00    -0.387 OA
ATOM     14  H   UNL     1       8.441   8.116  57.870  1.00  0.00     0.211 HD
ENDBRANCH   6  13
BRANCH   7  15
ATOM     15  O   UNL     1       6.796   9.671  57.183  1.00  0.00    -0.385 OA
ATOM     16  H   UNL     1       7.684   9.324  56.911  1.00  0.00     0.211 HD
ENDBRANCH   7  15
ENDBRANCH   1   2
BRANCH   1  17
ATOM     17  C   UNL     1       3.457  10.864  58.477  1.00  0.00     0.224 C 
ATOM     18  C   UNL     1       2.862  11.875  59.486  1.00  0.00     0.208 C 
ATOM     19  O   UNL     1       2.393  10.104  57.924  1.00  0.00    -0.337 OA
ATOM     20  C   UNL     1       1.395  11.884  59.136  1.00  0.00     0.180 C 
ATOM     21  C   UNL     1       1.180  10.509  58.517  1.00  0.00     0.179 C 
BRANCH  17  22
ATOM     22  C   UNL     1       4.174  11.624  57.333  1.00  0.00     0.225 C 
BRANCH  22  23
ATOM     23  O   UNL     1       4.154  10.879  56.141  1.00  0.00    -0.391 OA
ATOM     24  H   UNL     1       4.397   9.945  56.375  1.00  0.00     0.210 HD
ENDBRANCH  22  23
ENDBRANCH  17  22
BRANCH  18  25
ATOM     25  O   UNL     1       3.042  11.423  60.812  1.00  0.00    -0.385 OA
ATOM     26  H   UNL     1       3.812  11.924  61.192  1.00  0.00     0.211 HD
ENDBRANCH  18  25
BRANCH  20  27
ATOM     27  O   UNL     1       0.569  12.116  60.249  1.00  0.00    -0.387 OA
ATOM     28  H   UNL     1       0.842  12.996  60.617  1.00  0.00     0.211 HD
ENDBRANCH  20  27
BRANCH  21  29
ATOM     29  C   UNL     1       0.729   9.429  59.514  1.00  0.00     0.191 C 
BRANCH  29  30
ATOM     30  O   UNL     1       1.811   9.065  60.324  1.00  0.00    -0.394 OA
ATOM     31  H   UNL     1       1.424   8.609  61.116  1.00  0.00     0.210 HD
ENDBRANCH  29  30
ENDBRANCH  21  29
ENDBRANCH   1  17
TORSDOF 13
ENDMDL
