MODEL 1
REMARK VINA RESULT:    -5.703      0.000      0.000
REMARK INTER + INTRA:          -6.591
REMARK INTER:                  -6.369
REMARK INTRA:                  -0.222
REMARK UNBOUND:                -0.222
REMARK SMILES CC(C)c1ccc(C(=O)[O-])cc1
REMARK SMILES IDX 7 1 6 2 11 3 5 4 12 5 4 6 8 7 9 8 10 9 2 10 1 11 3 12
REMARK H PARENT
REMARK Flexibility Score: inf
ROOT
ATOM      1  C   UNL     1      13.690 -31.735  21.980  1.00  0.00    -0.003 A 
ATOM      2  C   UNL     1      12.648 -31.004  21.384  1.00  0.00     0.010 A 
ATOM      3  C   UNL     1      14.125 -31.376  23.266  1.00  0.00     0.010 A 
ATOM      4  C   UNL     1      12.055 -29.936  22.061  1.00  0.00     0.004 A 
ATOM      5  C   UNL     1      13.530 -30.307  23.942  1.00  0.00     0.004 A 
ATOM      6  C   UNL     1      12.488 -29.574  23.348  1.00  0.00    -0.045 A 
ENDROOT
BRANCH   1   7
ATOM      7  C   UNL     1      14.322 -32.867  21.267  1.00  0.00     0.071 C 
ATOM      8  O   UNL     1      13.972 -33.163  20.094  1.00  0.00    -0.545 OA
ATOM      9  O   UNL     1      15.315 -33.622  21.883  1.00  0.00    -0.545 OA
ENDBRANCH   1   7
BRANCH   6  10
ATOM     10  C   UNL     1      11.833 -28.412  24.070  1.00  0.00     0.013 C 
ATOM     11  C   UNL     1      11.012 -27.552  23.101  1.00  0.00     0.012 C 
ATOM     12  C   UNL     1      12.874 -27.567  24.812  1.00  0.00     0.012 C 
ENDBRANCH   6  10
TORSDOF 2
ENDMDL
MODEL 2
REMARK VINA RESULT:    -5.656      0.415      1.725
REMARK INTER + INTRA:          -6.539
REMARK INTER:                  -6.319
REMARK INTRA:                  -0.220
REMARK UNBOUND:                -0.222
REMARK SMILES CC(C)c1ccc(C(=O)[O-])cc1
REMARK SMILES IDX 7 1 6 2 11 3 5 4 12 5 4 6 8 7 9 8 10 9 2 10 1 11 3 12
REMARK H PARENT
REMARK Flexibility Score: inf
ROOT
ATOM      1  C   UNL     1      13.913 -32.035  21.964  1.00  0.00    -0.003 A 
ATOM      2  C   UNL     1      14.231 -31.613  23.266  1.00  0.00     0.010 A 
ATOM      3  C   UNL     1      12.904 -31.361  21.257  1.00  0.00     0.010 A 
ATOM      4  C   UNL     1      13.553 -30.539  23.849  1.00  0.00     0.004 A 
ATOM      5  C   UNL     1      12.227 -30.286  21.841  1.00  0.00     0.004 A 
ATOM      6  C   UNL     1      12.544 -29.862  23.143  1.00  0.00    -0.045 A 
ENDROOT
BRANCH   1   7
ATOM      7  C   UNL     1      14.627 -33.173  21.343  1.00  0.00     0.071 C 
ATOM      8  O   UNL     1      15.545 -33.770  21.965  1.00  0.00    -0.545 OA
ATOM      9  O   UNL     1      14.294 -33.600  20.062  1.00  0.00    -0.545 OA
ENDBRANCH   1   7
BRANCH   6  10
ATOM     10  C   UNL     1      11.818 -28.697  23.789  1.00  0.00     0.013 C 
ATOM     11  C   UNL     1      10.875 -28.013  22.792  1.00  0.00     0.012 C 
ATOM     12  C   UNL     1      12.808 -27.694  24.390  1.00  0.00     0.012 C 
ENDBRANCH   6  10
TORSDOF 2
ENDMDL
MODEL 3
REMARK VINA RESULT:    -5.392      1.580      2.685
REMARK INTER + INTRA:          -6.244
REMARK INTER:                  -6.025
REMARK INTRA:                  -0.219
REMARK UNBOUND:                -0.222
REMARK SMILES CC(C)c1ccc(C(=O)[O-])cc1
REMARK SMILES IDX 7 1 6 2 11 3 5 4 12 5 4 6 8 7 9 8 10 9 2 10 1 11 3 12
REMARK H PARENT
REMARK Flexibility Score: inf
ROOT
ATOM      1  C   UNL     1      14.902 -33.524  21.573  1.00  0.00    -0.003 A 
ATOM      2  C   UNL     1      14.141 -32.910  20.564  1.00  0.00     0.010 A 
ATOM      3  C   UNL     1      14.921 -32.952  22.855  1.00  0.00     0.010 A 
ATOM      4  C   UNL     1      13.414 -31.747  20.833  1.00  0.00     0.004 A 
ATOM      5  C   UNL     1      14.193 -31.790  23.124  1.00  0.00     0.004 A 
ATOM      6  C   UNL     1      13.431 -31.174  22.116  1.00  0.00    -0.045 A 
ENDROOT
BRANCH   1   7
ATOM      7  C   UNL     1      15.674 -34.755  21.292  1.00  0.00     0.071 C 
ATOM      8  O   UNL     1      16.545 -35.165  22.105  1.00  0.00    -0.545 OA
ATOM      9  O   UNL     1      15.448 -35.479  20.126  1.00  0.00    -0.545 OA
ENDBRANCH   1   7
BRANCH   6  10
ATOM     10  C   UNL     1      12.636 -29.911  22.392  1.00  0.00     0.013 C 
ATOM     11  C   UNL     1      12.751 -29.499  23.865  1.00  0.00     0.012 C 
ATOM     12  C   UNL     1      11.169 -30.082  21.980  1.00  0.00     0.012 C 
ENDBRANCH   6  10
TORSDOF 2
ENDMDL
MODEL 4
REMARK VINA RESULT:    -5.241      1.817      2.289
REMARK INTER + INTRA:          -6.076
REMARK INTER:                  -5.867
REMARK INTRA:                  -0.208
REMARK UNBOUND:                -0.222
REMARK SMILES CC(C)c1ccc(C(=O)[O-])cc1
REMARK SMILES IDX 7 1 6 2 11 3 5 4 12 5 4 6 8 7 9 8 10 9 2 10 1 11 3 12
REMARK H PARENT
REMARK Flexibility Score: inf
ROOT
ATOM      1  C   UNL     1      15.549 -30.864  22.351  1.00  0.00    -0.003 A 
ATOM      2  C   UNL     1      14.616 -31.512  23.178  1.00  0.00     0.010 A 
ATOM      3  C   UNL     1      15.403 -29.488  22.110  1.00  0.00     0.010 A 
ATOM      4  C   UNL     1      13.560 -30.799  23.752  1.00  0.00     0.004 A 
ATOM      5  C   UNL     1      14.347 -28.775  22.684  1.00  0.00     0.004 A 
ATOM      6  C   UNL     1      13.413 -29.422  23.512  1.00  0.00    -0.045 A 
ENDROOT
BRANCH   1   7
ATOM      7  C   UNL     1      16.668 -31.615  21.742  1.00  0.00     0.071 C 
ATOM      8  O   UNL     1      16.880 -32.816  22.055  1.00  0.00    -0.545 OA
ATOM      9  O   UNL     1      17.503 -31.004  20.812  1.00  0.00    -0.545 OA
ENDBRANCH   1   7
BRANCH   6  10
ATOM     10  C   UNL     1      12.261 -28.661  24.141  1.00  0.00     0.013 C 
ATOM     11  C   UNL     1      11.266 -28.185  23.076  1.00  0.00     0.012 C 
ATOM     12  C   UNL     1      12.771 -27.487  24.984  1.00  0.00     0.012 C 
ENDBRANCH   6  10
TORSDOF 2
ENDMDL
MODEL 5
REMARK VINA RESULT:    -5.231      2.767      5.361
REMARK INTER + INTRA:          -6.064
REMARK INTER:                  -5.847
REMARK INTRA:                  -0.217
REMARK UNBOUND:                -0.222
REMARK SMILES CC(C)c1ccc(C(=O)[O-])cc1
REMARK SMILES IDX 7 1 6 2 11 3 5 4 12 5 4 6 8 7 9 8 10 9 2 10 1 11 3 12
REMARK H PARENT
REMARK Flexibility Score: inf
ROOT
ATOM      1  C   UNL     1      12.886 -30.251  22.957  1.00  0.00    -0.003 A 
ATOM      2  C   UNL     1      13.695 -30.995  23.833  1.00  0.00     0.010 A 
ATOM      3  C   UNL     1      12.792 -30.650  21.614  1.00  0.00     0.010 A 
ATOM      4  C   UNL     1      14.393 -32.115  23.375  1.00  0.00     0.004 A 
ATOM      5  C   UNL     1      13.491 -31.770  21.156  1.00  0.00     0.004 A 
ATOM      6  C   UNL     1      14.300 -32.516  22.031  1.00  0.00    -0.045 A 
ENDROOT
BRANCH   1   7
ATOM      7  C   UNL     1      12.145 -29.064  23.438  1.00  0.00     0.071 C 
ATOM      8  O   UNL     1      12.497 -28.471  24.492  1.00  0.00    -0.545 OA
ATOM      9  O   UNL     1      11.048 -28.584  22.731  1.00  0.00    -0.545 OA
ENDBRANCH   1   7
BRANCH   6  10
ATOM     10  C   UNL     1      15.064 -33.735  21.548  1.00  0.00     0.013 C 
ATOM     11  C   UNL     1      16.567 -33.582  21.810  1.00  0.00     0.012 C 
ATOM     12  C   UNL     1      14.786 -34.009  20.066  1.00  0.00     0.012 C 
ENDBRANCH   6  10
TORSDOF 2
ENDMDL
MODEL 6
REMARK VINA RESULT:    -5.224      2.772      5.105
REMARK INTER + INTRA:          -6.056
REMARK INTER:                  -5.839
REMARK INTRA:                  -0.217
REMARK UNBOUND:                -0.222
REMARK SMILES CC(C)c1ccc(C(=O)[O-])cc1
REMARK SMILES IDX 7 1 6 2 11 3 5 4 12 5 4 6 8 7 9 8 10 9 2 10 1 11 3 12
REMARK H PARENT
REMARK Flexibility Score: inf
ROOT
ATOM      1  C   UNL     1      12.908 -30.235  22.955  1.00  0.00    -0.003 A 
ATOM      2  C   UNL     1      12.814 -30.646  21.614  1.00  0.00     0.010 A 
ATOM      3  C   UNL     1      13.706 -30.979  23.840  1.00  0.00     0.010 A 
ATOM      4  C   UNL     1      13.504 -31.776  21.169  1.00  0.00     0.004 A 
ATOM      5  C   UNL     1      14.396 -32.109  23.394  1.00  0.00     0.004 A 
ATOM      6  C   UNL     1      14.303 -32.521  22.052  1.00  0.00    -0.045 A 
ENDROOT
BRANCH   1   7
ATOM      7  C   UNL     1      12.178 -29.039  23.431  1.00  0.00     0.071 C 
ATOM      8  O   UNL     1      11.184 -28.599  22.796  1.00  0.00    -0.545 OA
ATOM      9  O   UNL     1      12.581 -28.384  24.590  1.00  0.00    -0.545 OA
ENDBRANCH   1   7
BRANCH   6  10
ATOM     10  C   UNL     1      15.047 -33.746  21.554  1.00  0.00     0.013 C 
ATOM     11  C   UNL     1      16.551 -33.629  21.830  1.00  0.00     0.012 C 
ATOM     12  C   UNL     1      14.777 -33.987  20.064  1.00  0.00     0.012 C 
ENDBRANCH   6  10
TORSDOF 2
ENDMDL
MODEL 7
REMARK VINA RESULT:    -4.979      9.591     10.416
REMARK INTER + INTRA:          -5.782
REMARK INTER:                  -5.570
REMARK INTRA:                  -0.213
REMARK UNBOUND:                -0.222
REMARK SMILES CC(C)c1ccc(C(=O)[O-])cc1
REMARK SMILES IDX 7 1 6 2 11 3 5 4 12 5 4 6 8 7 9 8 10 9 2 10 1 11 3 12
REMARK H PARENT
REMARK Flexibility Score: inf
ROOT
ATOM      1  C   UNL     1      22.391 -25.556  20.723  1.00  0.00    -0.003 A 
ATOM      2  C   UNL     1      22.929 -26.774  21.173  1.00  0.00     0.010 A 
ATOM      3  C   UNL     1      21.047 -25.514  20.318  1.00  0.00     0.010 A 
ATOM      4  C   UNL     1      22.138 -27.925  21.216  1.00  0.00     0.004 A 
ATOM      5  C   UNL     1      20.257 -26.666  20.362  1.00  0.00     0.004 A 
ATOM      6  C   UNL     1      20.793 -27.885  20.811  1.00  0.00    -0.045 A 
ENDROOT
BRANCH   1   7
ATOM      7  C   UNL     1      23.224 -24.334  20.675  1.00  0.00     0.071 C 
ATOM      8  O   UNL     1      23.293 -23.565  21.671  1.00  0.00    -0.545 OA
ATOM      9  O   UNL     1      23.945 -24.017  19.529  1.00  0.00    -0.545 OA
ENDBRANCH   1   7
BRANCH   6  10
ATOM     10  C   UNL     1      19.947 -29.144  20.864  1.00  0.00     0.013 C 
ATOM     11  C   UNL     1      18.465 -28.804  21.059  1.00  0.00     0.012 C 
ATOM     12  C   UNL     1      20.444 -30.096  21.957  1.00  0.00     0.012 C 
ENDBRANCH   6  10
TORSDOF 2
ENDMDL
MODEL 8
REMARK VINA RESULT:    -4.880      3.436      5.143
REMARK INTER + INTRA:          -5.672
REMARK INTER:                  -5.468
REMARK INTRA:                  -0.203
REMARK UNBOUND:                -0.222
REMARK SMILES CC(C)c1ccc(C(=O)[O-])cc1
REMARK SMILES IDX 7 1 6 2 11 3 5 4 12 5 4 6 8 7 9 8 10 9 2 10 1 11 3 12
REMARK H PARENT
REMARK Flexibility Score: inf
ROOT
ATOM      1  C   UNL     1      13.225 -29.329  23.448  1.00  0.00    -0.003 A 
ATOM      2  C   UNL     1      14.303 -28.702  22.801  1.00  0.00     0.010 A 
ATOM      3  C   UNL     1      13.377 -30.651  23.898  1.00  0.00     0.010 A 
ATOM      4  C   UNL     1      15.508 -29.383  22.608  1.00  0.00     0.004 A 
ATOM      5  C   UNL     1      14.582 -31.331  23.705  1.00  0.00     0.004 A 
ATOM      6  C   UNL     1      15.662 -30.705  23.058  1.00  0.00    -0.045 A 
ENDROOT
BRANCH   1   7
ATOM      7  C   UNL     1      11.947 -28.612  23.654  1.00  0.00     0.071 C 
ATOM      8  O   UNL     1      11.813 -27.803  24.611  1.00  0.00    -0.545 OA
ATOM      9  O   UNL     1      10.875 -28.820  22.793  1.00  0.00    -0.545 OA
ENDBRANCH   1   7
BRANCH   6  10
ATOM     10  C   UNL     1      16.976 -31.432  22.842  1.00  0.00     0.013 C 
ATOM     11  C   UNL     1      17.968 -31.126  23.970  1.00  0.00     0.012 C 
ATOM     12  C   UNL     1      17.576 -31.092  21.473  1.00  0.00     0.012 C 
ENDBRANCH   6  10
TORSDOF 2
ENDMDL
MODEL 9
REMARK VINA RESULT:    -4.877      3.380      5.255
REMARK INTER + INTRA:          -5.669
REMARK INTER:                  -5.460
REMARK INTRA:                  -0.209
REMARK UNBOUND:                -0.222
REMARK SMILES CC(C)c1ccc(C(=O)[O-])cc1
REMARK SMILES IDX 7 1 6 2 11 3 5 4 12 5 4 6 8 7 9 8 10 9 2 10 1 11 3 12
REMARK H PARENT
REMARK Flexibility Score: inf
ROOT
ATOM      1  C   UNL     1      13.491 -29.283  23.541  1.00  0.00    -0.003 A 
ATOM      2  C   UNL     1      13.591 -30.645  23.874  1.00  0.00     0.010 A 
ATOM      3  C   UNL     1      14.442 -28.723  22.673  1.00  0.00     0.010 A 
ATOM      4  C   UNL     1      14.621 -31.429  23.348  1.00  0.00     0.004 A 
ATOM      5  C   UNL     1      15.471 -29.508  22.147  1.00  0.00     0.004 A 
ATOM      6  C   UNL     1      15.573 -30.870  22.478  1.00  0.00    -0.045 A 
ENDROOT
BRANCH   1   7
ATOM      7  C   UNL     1      12.402 -28.448  24.096  1.00  0.00     0.071 C 
ATOM      8  O   UNL     1      11.257 -28.457  23.573  1.00  0.00    -0.545 OA
ATOM      9  O   UNL     1      12.629 -27.641  25.206  1.00  0.00    -0.545 OA
ENDBRANCH   1   7
BRANCH   6  10
ATOM     10  C   UNL     1      16.685 -31.735  21.915  1.00  0.00     0.013 C 
ATOM     11  C   UNL     1      17.602 -30.923  20.992  1.00  0.00     0.012 C 
ATOM     12  C   UNL     1      16.118 -32.960  21.189  1.00  0.00     0.012 C 
ENDBRANCH   6  10
TORSDOF 2
ENDMDL
