MODEL 1
REMARK VINA RESULT:    -5.222      0.000      0.000
REMARK INTER + INTRA:          -6.375
REMARK INTER:                  -6.138
REMARK INTRA:                  -0.237
REMARK UNBOUND:                -0.237
REMARK SMILES O=C([O-])C=Cc1ccc(O)c(O)c1
REMARK SMILES IDX 6 1 13 2 7 3 11 4 8 5 9 6 5 7 4 8 2 9 1 10 3 11 12 12 10 14
REMARK H PARENT 12 13 10 15
REMARK Flexibility Score: inf
ROOT
ATOM      1  C   UNL     1     -28.517 -52.443  51.463  1.00  0.00    -0.022 A 
ATOM      2  C   UNL     1     -29.858 -52.832  51.610  1.00  0.00     0.058 A 
ATOM      3  C   UNL     1     -28.223 -51.130  51.076  1.00  0.00     0.012 A 
ATOM      4  C   UNL     1     -30.897 -51.910  51.425  1.00  0.00     0.157 A 
ATOM      5  C   UNL     1     -29.250 -50.203  50.892  1.00  0.00     0.051 A 
ATOM      6  C   UNL     1     -30.588 -50.576  51.067  1.00  0.00     0.157 A 
ENDROOT
BRANCH   1   7
ATOM      7  C   UNL     1     -27.416 -53.420  51.605  1.00  0.00     0.010 C 
ATOM      8  C   UNL     1     -26.668 -53.595  52.705  1.00  0.00     0.025 C 
BRANCH   8   9
ATOM      9  C   UNL     1     -26.683 -52.733  53.903  1.00  0.00     0.064 C 
ATOM     10  O   UNL     1     -26.110 -51.612  53.916  1.00  0.00    -0.545 OA
ATOM     11  O   UNL     1     -27.284 -53.200  55.065  1.00  0.00    -0.545 OA
ENDBRANCH   8   9
ENDBRANCH   1   7
BRANCH   4  12
ATOM     12  O   UNL     1     -32.207 -52.360  51.598  1.00  0.00    -0.504 OA
ATOM     13  H   UNL     1     -32.521 -52.888  52.399  1.00  0.00     0.293 HD
ENDBRANCH   4  12
BRANCH   6  14
ATOM     14  O   UNL     1     -31.568 -49.600  50.875  1.00  0.00    -0.504 OA
ATOM     15  H   UNL     1     -32.272 -49.641  50.153  1.00  0.00     0.293 HD
ENDBRANCH   6  14
TORSDOF 4
ENDMDL
MODEL 2
REMARK VINA RESULT:    -4.732      1.204      5.025
REMARK INTER + INTRA:          -5.798
REMARK INTER:                  -6.031
REMARK INTRA:                   0.233
REMARK UNBOUND:                -0.237
REMARK SMILES O=C([O-])C=Cc1ccc(O)c(O)c1
REMARK SMILES IDX 6 1 13 2 7 3 11 4 8 5 9 6 5 7 4 8 2 9 1 10 3 11 12 12 10 14
REMARK H PARENT 12 13 10 15
REMARK Flexibility Score: inf
ROOT
ATOM      1  C   UNL     1     -27.866 -51.648  51.601  1.00  0.00    -0.022 A 
ATOM      2  C   UNL     1     -27.285 -51.461  52.865  1.00  0.00     0.058 A 
ATOM      3  C   UNL     1     -27.755 -52.895  50.974  1.00  0.00     0.012 A 
ATOM      4  C   UNL     1     -26.644 -52.518  53.524  1.00  0.00     0.157 A 
ATOM      5  C   UNL     1     -27.120 -53.955  51.622  1.00  0.00     0.051 A 
ATOM      6  C   UNL     1     -26.566 -53.785  52.896  1.00  0.00     0.157 A 
ENDROOT
BRANCH   1   7
ATOM      7  C   UNL     1     -28.499 -50.527  50.875  1.00  0.00     0.010 C 
ATOM      8  C   UNL     1     -29.805 -50.217  50.908  1.00  0.00     0.025 C 
BRANCH   8   9
ATOM      9  C   UNL     1     -30.869 -51.034  51.522  1.00  0.00     0.064 C 
ATOM     10  O   UNL     1     -30.797 -52.290  51.560  1.00  0.00    -0.545 OA
ATOM     11  O   UNL     1     -32.009 -50.405  52.008  1.00  0.00    -0.545 OA
ENDBRANCH   8   9
ENDBRANCH   1   7
BRANCH   4  12
ATOM     12  O   UNL     1     -26.098 -52.266  54.784  1.00  0.00    -0.504 OA
ATOM     13  H   UNL     1     -26.453 -51.570  55.424  1.00  0.00     0.293 HD
ENDBRANCH   4  12
BRANCH   6  14
ATOM     14  O   UNL     1     -25.951 -54.886  53.494  1.00  0.00    -0.504 OA
ATOM     15  H   UNL     1     -26.453 -55.676  53.874  1.00  0.00     0.293 HD
ENDBRANCH   6  14
TORSDOF 4
ENDMDL
MODEL 3
REMARK VINA RESULT:    -4.509      1.641      5.261
REMARK INTER + INTRA:          -5.537
REMARK INTER:                  -5.325
REMARK INTRA:                  -0.212
REMARK UNBOUND:                -0.237
REMARK SMILES O=C([O-])C=Cc1ccc(O)c(O)c1
REMARK SMILES IDX 6 1 13 2 7 3 11 4 8 5 9 6 5 7 4 8 2 9 1 10 3 11 12 12 10 14
REMARK H PARENT 12 13 10 15
REMARK Flexibility Score: inf
ROOT
ATOM      1  C   UNL     1     -27.396 -53.161  52.831  1.00  0.00    -0.022 A 
ATOM      2  C   UNL     1     -26.647 -52.068  53.292  1.00  0.00     0.058 A 
ATOM      3  C   UNL     1     -27.716 -54.196  53.718  1.00  0.00     0.012 A 
ATOM      4  C   UNL     1     -26.264 -51.976  54.637  1.00  0.00     0.157 A 
ATOM      5  C   UNL     1     -27.341 -54.114  55.060  1.00  0.00     0.051 A 
ATOM      6  C   UNL     1     -26.622 -53.011  55.534  1.00  0.00     0.157 A 
ENDROOT
BRANCH   1   7
ATOM      7  C   UNL     1     -27.760 -53.294  51.404  1.00  0.00     0.010 C 
ATOM      8  C   UNL     1     -28.961 -53.007  50.878  1.00  0.00     0.025 C 
BRANCH   8   9
ATOM      9  C   UNL     1     -30.181 -52.684  51.641  1.00  0.00     0.064 C 
ATOM     10  O   UNL     1     -30.843 -53.576  52.236  1.00  0.00    -0.545 OA
ATOM     11  O   UNL     1     -30.649 -51.376  51.647  1.00  0.00    -0.545 OA
ENDBRANCH   8   9
ENDBRANCH   1   7
BRANCH   4  12
ATOM     12  O   UNL     1     -25.531 -50.856  55.032  1.00  0.00    -0.504 OA
ATOM     13  H   UNL     1     -25.022 -50.792  55.901  1.00  0.00     0.293 HD
ENDBRANCH   4  12
BRANCH   6  14
ATOM     14  O   UNL     1     -26.285 -52.985  56.889  1.00  0.00    -0.504 OA
ATOM     15  H   UNL     1     -26.847 -52.544  57.603  1.00  0.00     0.293 HD
ENDBRANCH   6  14
TORSDOF 4
ENDMDL
MODEL 4
REMARK VINA RESULT:    -4.481     17.389     18.329
REMARK INTER + INTRA:          -5.504
REMARK INTER:                  -5.240
REMARK INTRA:                  -0.264
REMARK UNBOUND:                -0.237
REMARK SMILES O=C([O-])C=Cc1ccc(O)c(O)c1
REMARK SMILES IDX 6 1 13 2 7 3 11 4 8 5 9 6 5 7 4 8 2 9 1 10 3 11 12 12 10 14
REMARK H PARENT 12 13 10 15
REMARK Flexibility Score: inf
ROOT
ATOM      1  C   UNL     1     -22.313 -68.755  57.138  1.00  0.00    -0.022 A 
ATOM      2  C   UNL     1     -23.575 -68.205  56.862  1.00  0.00     0.058 A 
ATOM      3  C   UNL     1     -21.999 -69.125  58.451  1.00  0.00     0.012 A 
ATOM      4  C   UNL     1     -24.536 -68.072  57.873  1.00  0.00     0.157 A 
ATOM      5  C   UNL     1     -22.949 -68.998  59.465  1.00  0.00     0.051 A 
ATOM      6  C   UNL     1     -24.221 -68.480  59.191  1.00  0.00     0.157 A 
ENDROOT
BRANCH   1   7
ATOM      7  C   UNL     1     -21.274 -68.853  56.091  1.00  0.00     0.010 C 
ATOM      8  C   UNL     1     -20.250 -67.999  55.929  1.00  0.00     0.025 C 
BRANCH   8   9
ATOM      9  C   UNL     1     -20.074 -66.720  56.643  1.00  0.00     0.064 C 
ATOM     10  O   UNL     1     -19.384 -66.639  57.693  1.00  0.00    -0.545 OA
ATOM     11  O   UNL     1     -20.742 -65.591  56.182  1.00  0.00    -0.545 OA
ENDBRANCH   8   9
ENDBRANCH   1   7
BRANCH   4  12
ATOM     12  O   UNL     1     -25.774 -67.528  57.527  1.00  0.00    -0.504 OA
ATOM     13  H   UNL     1     -26.042 -67.289  56.583  1.00  0.00     0.293 HD
ENDBRANCH   4  12
BRANCH   6  14
ATOM     14  O   UNL     1     -25.129 -68.386  60.247  1.00  0.00    -0.504 OA
ATOM     15  H   UNL     1     -24.863 -68.349  61.221  1.00  0.00     0.293 HD
ENDBRANCH   6  14
TORSDOF 4
ENDMDL
MODEL 5
REMARK VINA RESULT:    -4.470      2.855      6.016
REMARK INTER + INTRA:          -5.491
REMARK INTER:                  -5.204
REMARK INTRA:                  -0.287
REMARK UNBOUND:                -0.237
REMARK SMILES O=C([O-])C=Cc1ccc(O)c(O)c1
REMARK SMILES IDX 6 1 13 2 7 3 11 4 8 5 9 6 5 7 4 8 2 9 1 10 3 11 12 12 10 14
REMARK H PARENT 12 13 10 15
REMARK Flexibility Score: inf
ROOT
ATOM      1  C   UNL     1     -28.023 -54.358  54.596  1.00  0.00    -0.022 A 
ATOM      2  C   UNL     1     -27.306 -55.565  54.590  1.00  0.00     0.058 A 
ATOM      3  C   UNL     1     -27.672 -53.356  55.509  1.00  0.00     0.012 A 
ATOM      4  C   UNL     1     -26.214 -55.755  55.447  1.00  0.00     0.157 A 
ATOM      5  C   UNL     1     -26.584 -53.535  56.366  1.00  0.00     0.051 A 
ATOM      6  C   UNL     1     -25.845 -54.723  56.343  1.00  0.00     0.157 A 
ENDROOT
BRANCH   1   7
ATOM      7  C   UNL     1     -29.209 -54.167  53.734  1.00  0.00     0.010 C 
ATOM      8  C   UNL     1     -29.192 -53.667  52.488  1.00  0.00     0.025 C 
BRANCH   8   9
ATOM      9  C   UNL     1     -28.027 -53.053  51.822  1.00  0.00     0.064 C 
ATOM     10  O   UNL     1     -27.173 -53.750  51.212  1.00  0.00    -0.545 OA
ATOM     11  O   UNL     1     -27.831 -51.682  51.928  1.00  0.00    -0.545 OA
ENDBRANCH   8   9
ENDBRANCH   1   7
BRANCH   4  12
ATOM     12  O   UNL     1     -25.538 -56.974  55.380  1.00  0.00    -0.504 OA
ATOM     13  H   UNL     1     -25.222 -57.490  56.189  1.00  0.00     0.293 HD
ENDBRANCH   4  12
BRANCH   6  14
ATOM     14  O   UNL     1     -24.764 -54.837  57.219  1.00  0.00    -0.504 OA
ATOM     15  H   UNL     1     -24.073 -55.572  57.173  1.00  0.00     0.293 HD
ENDBRANCH   6  14
TORSDOF 4
ENDMDL
MODEL 6
REMARK VINA RESULT:    -4.324      1.506      1.952
REMARK INTER + INTRA:          -5.319
REMARK INTER:                  -5.071
REMARK INTRA:                  -0.248
REMARK UNBOUND:                -0.237
REMARK SMILES O=C([O-])C=Cc1ccc(O)c(O)c1
REMARK SMILES IDX 6 1 13 2 7 3 11 4 8 5 9 6 5 7 4 8 2 9 1 10 3 11 12 12 10 14
REMARK H PARENT 12 13 10 15
REMARK Flexibility Score: inf
ROOT
ATOM      1  C   UNL     1     -27.643 -53.234  52.730  1.00  0.00    -0.022 A 
ATOM      2  C   UNL     1     -28.915 -53.419  52.166  1.00  0.00     0.058 A 
ATOM      3  C   UNL     1     -27.020 -51.985  52.620  1.00  0.00     0.012 A 
ATOM      4  C   UNL     1     -29.586 -52.358  51.545  1.00  0.00     0.157 A 
ATOM      5  C   UNL     1     -27.680 -50.921  52.006  1.00  0.00     0.051 A 
ATOM      6  C   UNL     1     -28.962 -51.089  51.470  1.00  0.00     0.157 A 
ENDROOT
BRANCH   1   7
ATOM      7  C   UNL     1     -26.904 -54.360  53.341  1.00  0.00     0.010 C 
ATOM      8  C   UNL     1     -26.822 -54.614  54.656  1.00  0.00     0.025 C 
BRANCH   8   9
ATOM      9  C   UNL     1     -27.295 -53.726  55.736  1.00  0.00     0.064 C 
ATOM     10  O   UNL     1     -26.514 -52.940  56.334  1.00  0.00    -0.545 OA
ATOM     11  O   UNL     1     -28.619 -53.811  56.150  1.00  0.00    -0.545 OA
ENDBRANCH   8   9
ENDBRANCH   1   7
BRANCH   4  12
ATOM     12  O   UNL     1     -30.854 -52.608  51.017  1.00  0.00    -0.504 OA
ATOM     13  H   UNL     1     -31.505 -53.276  51.403  1.00  0.00     0.293 HD
ENDBRANCH   4  12
BRANCH   6  14
ATOM     14  O   UNL     1     -29.573 -49.983  50.875  1.00  0.00    -0.504 OA
ATOM     15  H   UNL     1     -29.131 -49.400  50.179  1.00  0.00     0.293 HD
ENDBRANCH   6  14
TORSDOF 4
ENDMDL
MODEL 7
REMARK VINA RESULT:    -4.291      3.592      5.365
REMARK INTER + INTRA:          -5.280
REMARK INTER:                  -5.039
REMARK INTRA:                  -0.241
REMARK UNBOUND:                -0.237
REMARK SMILES O=C([O-])C=Cc1ccc(O)c(O)c1
REMARK SMILES IDX 6 1 13 2 7 3 11 4 8 5 9 6 5 7 4 8 2 9 1 10 3 11 12 12 10 14
REMARK H PARENT 12 13 10 15
REMARK Flexibility Score: inf
ROOT
ATOM      1  C   UNL     1     -28.054 -54.146  55.628  1.00  0.00    -0.022 A 
ATOM      2  C   UNL     1     -28.012 -53.785  54.272  1.00  0.00     0.058 A 
ATOM      3  C   UNL     1     -27.155 -53.554  56.523  1.00  0.00     0.012 A 
ATOM      4  C   UNL     1     -27.120 -52.804  53.818  1.00  0.00     0.157 A 
ATOM      5  C   UNL     1     -26.264 -52.575  56.082  1.00  0.00     0.051 A 
ATOM      6  C   UNL     1     -26.238 -52.186  54.738  1.00  0.00     0.157 A 
ENDROOT
BRANCH   1   7
ATOM      7  C   UNL     1     -28.953 -55.217  56.108  1.00  0.00     0.010 C 
ATOM      8  C   UNL     1     -28.717 -56.534  56.010  1.00  0.00     0.025 C 
BRANCH   8   9
ATOM      9  C   UNL     1     -27.615 -57.158  55.251  1.00  0.00     0.064 C 
ATOM     10  O   UNL     1     -26.490 -57.369  55.776  1.00  0.00    -0.545 OA
ATOM     11  O   UNL     1     -27.803 -57.455  53.907  1.00  0.00    -0.545 OA
ENDBRANCH   8   9
ENDBRANCH   1   7
BRANCH   4  12
ATOM     12  O   UNL     1     -27.139 -52.484  52.460  1.00  0.00    -0.504 OA
ATOM     13  H   UNL     1     -26.374 -52.665  51.826  1.00  0.00     0.293 HD
ENDBRANCH   4  12
BRANCH   6  14
ATOM     14  O   UNL     1     -25.330 -51.195  54.361  1.00  0.00    -0.504 OA
ATOM     15  H   UNL     1     -25.516 -50.494  53.658  1.00  0.00     0.293 HD
ENDBRANCH   6  14
TORSDOF 4
ENDMDL
MODEL 8
REMARK VINA RESULT:    -4.283      1.693      4.843
REMARK INTER + INTRA:          -5.271
REMARK INTER:                  -5.013
REMARK INTRA:                  -0.258
REMARK UNBOUND:                -0.237
REMARK SMILES O=C([O-])C=Cc1ccc(O)c(O)c1
REMARK SMILES IDX 6 1 13 2 7 3 11 4 8 5 9 6 5 7 4 8 2 9 1 10 3 11 12 12 10 14
REMARK H PARENT 12 13 10 15
REMARK Flexibility Score: inf
ROOT
ATOM      1  C   UNL     1     -26.955 -53.165  52.919  1.00  0.00    -0.022 A 
ATOM      2  C   UNL     1     -27.324 -53.866  54.077  1.00  0.00     0.058 A 
ATOM      3  C   UNL     1     -26.264 -51.953  53.041  1.00  0.00     0.012 A 
ATOM      4  C   UNL     1     -26.963 -53.394  55.347  1.00  0.00     0.157 A 
ATOM      5  C   UNL     1     -25.898 -51.476  54.300  1.00  0.00     0.051 A 
ATOM      6  C   UNL     1     -26.234 -52.186  55.459  1.00  0.00     0.157 A 
ENDROOT
BRANCH   1   7
ATOM      7  C   UNL     1     -27.375 -53.625  51.578  1.00  0.00     0.010 C 
ATOM      8  C   UNL     1     -28.415 -53.142  50.880  1.00  0.00     0.025 C 
BRANCH   8   9
ATOM      9  C   UNL     1     -29.430 -52.199  51.388  1.00  0.00     0.064 C 
ATOM     10  O   UNL     1     -29.257 -50.953  51.338  1.00  0.00    -0.545 OA
ATOM     11  O   UNL     1     -30.573 -52.700  51.998  1.00  0.00    -0.545 OA
ENDBRANCH   8   9
ENDBRANCH   1   7
BRANCH   4  12
ATOM     12  O   UNL     1     -27.351 -54.147  56.456  1.00  0.00    -0.504 OA
ATOM     13  H   UNL     1     -28.165 -53.946  57.019  1.00  0.00     0.293 HD
ENDBRANCH   4  12
BRANCH   6  14
ATOM     14  O   UNL     1     -25.832 -51.659  56.688  1.00  0.00    -0.504 OA
ATOM     15  H   UNL     1     -26.429 -51.112  57.291  1.00  0.00     0.293 HD
ENDBRANCH   6  14
TORSDOF 4
ENDMDL
MODEL 9
REMARK VINA RESULT:    -4.260      3.739      5.526
REMARK INTER + INTRA:          -5.244
REMARK INTER:                  -5.041
REMARK INTRA:                  -0.203
REMARK UNBOUND:                -0.237
REMARK SMILES O=C([O-])C=Cc1ccc(O)c(O)c1
REMARK SMILES IDX 6 1 13 2 7 3 11 4 8 5 9 6 5 7 4 8 2 9 1 10 3 11 12 12 10 14
REMARK H PARENT 12 13 10 15
REMARK Flexibility Score: inf
ROOT
ATOM      1  C   UNL     1     -28.355 -54.431  55.209  1.00  0.00    -0.022 A 
ATOM      2  C   UNL     1     -27.470 -53.739  56.051  1.00  0.00     0.058 A 
ATOM      3  C   UNL     1     -28.376 -54.131  53.842  1.00  0.00     0.012 A 
ATOM      4  C   UNL     1     -26.575 -52.795  55.531  1.00  0.00     0.157 A 
ATOM      5  C   UNL     1     -27.488 -53.193  53.313  1.00  0.00     0.051 A 
ATOM      6  C   UNL     1     -26.580 -52.523  54.142  1.00  0.00     0.157 A 
ENDROOT
BRANCH   1   7
ATOM      7  C   UNL     1     -29.338 -55.391  55.754  1.00  0.00     0.010 C 
ATOM      8  C   UNL     1     -29.152 -56.715  55.869  1.00  0.00     0.025 C 
BRANCH   8   9
ATOM      9  C   UNL     1     -28.017 -57.477  55.313  1.00  0.00     0.064 C 
ATOM     10  O   UNL     1     -26.850 -57.348  55.768  1.00  0.00    -0.545 OA
ATOM     11  O   UNL     1     -28.229 -58.303  54.216  1.00  0.00    -0.545 OA
ENDBRANCH   8   9
ENDBRANCH   1   7
BRANCH   4  12
ATOM     12  O   UNL     1     -25.714 -52.152  56.422  1.00  0.00    -0.504 OA
ATOM     13  H   UNL     1     -25.988 -51.830  57.339  1.00  0.00     0.293 HD
ENDBRANCH   4  12
BRANCH   6  14
ATOM     14  O   UNL     1     -25.713 -51.602  53.550  1.00  0.00    -0.504 OA
ATOM     15  H   UNL     1     -25.849 -51.207  52.631  1.00  0.00     0.293 HD
ENDBRANCH   6  14
TORSDOF 4
ENDMDL
