MODEL 1
REMARK VINA RESULT:    -2.884      0.000      0.000
REMARK INTER + INTRA:          -3.422
REMARK INTER:                  -3.390
REMARK INTRA:                  -0.032
REMARK UNBOUND:                -0.032
REMARK SMILES O=C([O-])CCC(=O)[O-]
REMARK SMILES IDX 4 1 2 2 1 3 3 4 5 5 6 6 7 7 8 8
REMARK H PARENT
REMARK Flexibility Score: inf
ROOT
ATOM      1  C   UNL     1       9.886   7.259  42.473  1.00  0.00     0.059 C 
ENDROOT
BRANCH   1   2
ATOM      2  C   UNL     1      10.623   6.705  41.295  1.00  0.00     0.042 C 
ATOM      3  O   UNL     1      11.711   6.094  41.458  1.00  0.00    -0.550 OA
ATOM      4  O   UNL     1      10.083   6.821  40.020  1.00  0.00    -0.550 OA
ENDBRANCH   1   2
BRANCH   1   5
ATOM      5  C   UNL     1       8.700   6.362  42.833  1.00  0.00     0.059 C 
BRANCH   5   6
ATOM      6  C   UNL     1       8.209   6.671  44.211  1.00  0.00     0.042 C 
ATOM      7  O   UNL     1       7.335   5.942  44.750  1.00  0.00    -0.550 OA
ATOM      8  O   UNL     1       8.750   7.735  44.920  1.00  0.00    -0.550 OA
ENDBRANCH   5   6
ENDBRANCH   1   5
TORSDOF 3
ENDMDL
MODEL 2
REMARK VINA RESULT:    -2.860      0.222      4.240
REMARK INTER + INTRA:          -3.394
REMARK INTER:                  -3.362
REMARK INTRA:                  -0.032
REMARK UNBOUND:                -0.032
REMARK SMILES O=C([O-])CCC(=O)[O-]
REMARK SMILES IDX 4 1 2 2 1 3 3 4 5 5 6 6 7 7 8 8
REMARK H PARENT
REMARK Flexibility Score: inf
ROOT
ATOM      1  C   UNL     1       8.573   6.395  42.999  1.00  0.00     0.059 C 
ENDROOT
BRANCH   1   2
ATOM      2  C   UNL     1       8.158   6.716  44.400  1.00  0.00     0.042 C 
ATOM      3  O   UNL     1       7.295   6.009  44.983  1.00  0.00    -0.550 OA
ATOM      4  O   UNL     1       8.760   7.767  45.080  1.00  0.00    -0.550 OA
ENDBRANCH   1   2
BRANCH   1   5
ATOM      5  C   UNL     1       9.772   7.251  42.586  1.00  0.00     0.059 C 
BRANCH   5   6
ATOM      6  C   UNL     1      10.431   6.678  41.372  1.00  0.00     0.042 C 
ATOM      7  O   UNL     1       9.829   6.680  40.265  1.00  0.00    -0.550 OA
ATOM      8  O   UNL     1      11.727   6.187  41.449  1.00  0.00    -0.550 OA
ENDBRANCH   5   6
ENDBRANCH   1   5
TORSDOF 3
ENDMDL
MODEL 3
REMARK VINA RESULT:    -2.733     10.764     12.094
REMARK INTER + INTRA:          -3.245
REMARK INTER:                  -3.162
REMARK INTRA:                  -0.083
REMARK UNBOUND:                -0.032
REMARK SMILES O=C([O-])CCC(=O)[O-]
REMARK SMILES IDX 4 1 2 2 1 3 3 4 5 5 6 6 7 7 8 8
REMARK H PARENT
REMARK Flexibility Score: inf
ROOT
ATOM      1  C   UNL     1       6.434  -1.377  35.086  1.00  0.00     0.059 C 
ENDROOT
BRANCH   1   2
ATOM      2  C   UNL     1       6.479  -0.737  36.437  1.00  0.00     0.042 C 
ATOM      3  O   UNL     1       7.378   0.102  36.712  1.00  0.00    -0.550 OA
ATOM      4  O   UNL     1       5.499  -1.027  37.377  1.00  0.00    -0.550 OA
ENDBRANCH   1   2
BRANCH   1   5
ATOM      5  C   UNL     1       7.841  -1.473  34.492  1.00  0.00     0.059 C 
BRANCH   5   6
ATOM      6  C   UNL     1       8.260  -2.904  34.366  1.00  0.00     0.042 C 
ATOM      7  O   UNL     1       8.634  -3.546  35.383  1.00  0.00    -0.550 OA
ATOM      8  O   UNL     1       8.190  -3.543  33.136  1.00  0.00    -0.550 OA
ENDBRANCH   5   6
ENDBRANCH   1   5
TORSDOF 3
ENDMDL
MODEL 4
REMARK VINA RESULT:    -2.731     10.737     11.816
REMARK INTER + INTRA:          -3.242
REMARK INTER:                  -3.137
REMARK INTRA:                  -0.105
REMARK UNBOUND:                -0.032
REMARK SMILES O=C([O-])CCC(=O)[O-]
REMARK SMILES IDX 4 1 2 2 1 3 3 4 5 5 6 6 7 7 8 8
REMARK H PARENT
REMARK Flexibility Score: inf
ROOT
ATOM      1  C   UNL     1       9.347  -0.990  34.190  1.00  0.00     0.059 C 
ENDROOT
BRANCH   1   2
ATOM      2  C   UNL     1       9.119  -1.360  32.759  1.00  0.00     0.042 C 
ATOM      3  O   UNL     1       9.000  -2.569  32.428  1.00  0.00    -0.550 OA
ATOM      4  O   UNL     1       8.987  -0.367  31.797  1.00  0.00    -0.550 OA
ENDBRANCH   1   2
BRANCH   1   5
ATOM      5  C   UNL     1       8.478  -1.849  35.111  1.00  0.00     0.059 C 
BRANCH   5   6
ATOM      6  C   UNL     1       7.210  -1.132  35.451  1.00  0.00     0.042 C 
ATOM      7  O   UNL     1       6.118  -1.498  34.939  1.00  0.00    -0.550 OA
ATOM      8  O   UNL     1       7.223  -0.092  36.370  1.00  0.00    -0.550 OA
ENDBRANCH   5   6
ENDBRANCH   1   5
TORSDOF 3
ENDMDL
MODEL 5
REMARK VINA RESULT:    -2.730     11.147     12.678
REMARK INTER + INTRA:          -3.241
REMARK INTER:                  -3.129
REMARK INTRA:                  -0.112
REMARK UNBOUND:                -0.032
REMARK SMILES O=C([O-])CCC(=O)[O-]
REMARK SMILES IDX 4 1 2 2 1 3 3 4 5 5 6 6 7 7 8 8
REMARK H PARENT
REMARK Flexibility Score: inf
ROOT
ATOM      1  C   UNL     1       8.461  -1.477  35.263  1.00  0.00     0.059 C 
ENDROOT
BRANCH   1   2
ATOM      2  C   UNL     1       7.075  -1.001  35.566  1.00  0.00     0.042 C 
ATOM      3  O   UNL     1       6.085  -1.528  34.993  1.00  0.00    -0.550 OA
ATOM      4  O   UNL     1       6.873  -0.010  36.517  1.00  0.00    -0.550 OA
ENDBRANCH   1   2
BRANCH   1   5
ATOM      5  C   UNL     1       8.693  -1.523  33.752  1.00  0.00     0.059 C 
BRANCH   5   6
ATOM      6  C   UNL     1       9.006  -2.918  33.312  1.00  0.00     0.042 C 
ATOM      7  O   UNL     1       8.077  -3.698  32.972  1.00  0.00    -0.550 OA
ATOM      8  O   UNL     1      10.325  -3.343  33.231  1.00  0.00    -0.550 OA
ENDBRANCH   5   6
ENDBRANCH   1   5
TORSDOF 3
ENDMDL
MODEL 6
REMARK VINA RESULT:    -2.727     10.717     11.535
REMARK INTER + INTRA:          -3.238
REMARK INTER:                  -3.158
REMARK INTRA:                  -0.080
REMARK UNBOUND:                -0.032
REMARK SMILES O=C([O-])CCC(=O)[O-]
REMARK SMILES IDX 4 1 2 2 1 3 3 4 5 5 6 6 7 7 8 8
REMARK H PARENT
REMARK Flexibility Score: inf
ROOT
ATOM      1  C   UNL     1       7.870  -1.441  34.555  1.00  0.00     0.059 C 
ENDROOT
BRANCH   1   2
ATOM      2  C   UNL     1       8.269  -2.876  34.419  1.00  0.00     0.042 C 
ATOM      3  O   UNL     1       8.654  -3.524  35.428  1.00  0.00    -0.550 OA
ATOM      4  O   UNL     1       8.170  -3.512  33.189  1.00  0.00    -0.550 OA
ENDBRANCH   1   2
BRANCH   1   5
ATOM      5  C   UNL     1       6.452  -1.330  35.119  1.00  0.00     0.059 C 
BRANCH   5   6
ATOM      6  C   UNL     1       6.477  -0.710  36.480  1.00  0.00     0.042 C 
ATOM      7  O   UNL     1       7.354   0.147  36.769  1.00  0.00    -0.550 OA
ATOM      8  O   UNL     1       5.503  -1.039  37.413  1.00  0.00    -0.550 OA
ENDBRANCH   5   6
ENDBRANCH   1   5
TORSDOF 3
ENDMDL
MODEL 7
REMARK VINA RESULT:    -2.705     12.440     13.375
REMARK INTER + INTRA:          -3.212
REMARK INTER:                  -3.106
REMARK INTRA:                  -0.105
REMARK UNBOUND:                -0.032
REMARK SMILES O=C([O-])CCC(=O)[O-]
REMARK SMILES IDX 4 1 2 2 1 3 3 4 5 5 6 6 7 7 8 8
REMARK H PARENT
REMARK Flexibility Score: inf
ROOT
ATOM      1  C   UNL     1       9.347   0.061  31.409  1.00  0.00     0.059 C 
ENDROOT
BRANCH   1   2
ATOM      2  C   UNL     1       9.633  -0.952  32.472  1.00  0.00     0.042 C 
ATOM      3  O   UNL     1       9.227  -2.137  32.343  1.00  0.00    -0.550 OA
ATOM      4  O   UNL     1      10.392  -0.602  33.581  1.00  0.00    -0.550 OA
ENDBRANCH   1   2
BRANCH   1   5
ATOM      5  C   UNL     1      10.606   0.348  30.590  1.00  0.00     0.059 C 
BRANCH   5   6
ATOM      6  C   UNL     1      10.957   1.801  30.660  1.00  0.00     0.042 C 
ATOM      7  O   UNL     1      11.656   2.328  29.755  1.00  0.00    -0.550 OA
ATOM      8  O   UNL     1      10.471   2.584  31.698  1.00  0.00    -0.550 OA
ENDBRANCH   5   6
ENDBRANCH   1   5
TORSDOF 3
ENDMDL
MODEL 8
REMARK VINA RESULT:    -2.701     11.779     13.422
REMARK INTER + INTRA:          -3.207
REMARK INTER:                  -3.116
REMARK INTRA:                  -0.091
REMARK UNBOUND:                -0.032
REMARK SMILES O=C([O-])CCC(=O)[O-]
REMARK SMILES IDX 4 1 2 2 1 3 3 4 5 5 6 6 7 7 8 8
REMARK H PARENT
REMARK Flexibility Score: inf
ROOT
ATOM      1  C   UNL     1       9.147  -1.139  32.184  1.00  0.00     0.059 C 
ENDROOT
BRANCH   1   2
ATOM      2  C   UNL     1       9.160  -1.001  33.674  1.00  0.00     0.042 C 
ATOM      3  O   UNL     1       8.097  -1.151  34.333  1.00  0.00    -0.550 OA
ATOM      4  O   UNL     1      10.354  -0.756  34.340  1.00  0.00    -0.550 OA
ENDBRANCH   1   2
BRANCH   1   5
ATOM      5  C   UNL     1       9.357   0.222  31.519  1.00  0.00     0.059 C 
BRANCH   5   6
ATOM      6  C   UNL     1      10.567   0.194  30.640  1.00  0.00     0.042 C 
ATOM      7  O   UNL     1      10.896   1.216  29.982  1.00  0.00    -0.550 OA
ATOM      8  O   UNL     1      11.361  -0.944  30.585  1.00  0.00    -0.550 OA
ENDBRANCH   5   6
ENDBRANCH   1   5
TORSDOF 3
ENDMDL
MODEL 9
REMARK VINA RESULT:    -2.682     12.397     12.995
REMARK INTER + INTRA:          -3.185
REMARK INTER:                  -3.080
REMARK INTRA:                  -0.106
REMARK UNBOUND:                -0.032
REMARK SMILES O=C([O-])CCC(=O)[O-]
REMARK SMILES IDX 4 1 2 2 1 3 3 4 5 5 6 6 7 7 8 8
REMARK H PARENT
REMARK Flexibility Score: inf
ROOT
ATOM      1  C   UNL     1      10.604   0.366  30.645  1.00  0.00     0.059 C 
ENDROOT
BRANCH   1   2
ATOM      2  C   UNL     1      10.961   1.816  30.717  1.00  0.00     0.042 C 
ATOM      3  O   UNL     1      10.643   2.498  31.727  1.00  0.00    -0.550 OA
ATOM      4  O   UNL     1      11.690   2.405  29.692  1.00  0.00    -0.550 OA
ENDBRANCH   1   2
BRANCH   1   5
ATOM      5  C   UNL     1       9.316   0.092  31.424  1.00  0.00     0.059 C 
BRANCH   5   6
ATOM      6  C   UNL     1       9.552  -0.941  32.480  1.00  0.00     0.042 C 
ATOM      7  O   UNL     1       9.209  -2.137  32.284  1.00  0.00    -0.550 OA
ATOM      8  O   UNL     1      10.196  -0.594  33.660  1.00  0.00    -0.550 OA
ENDBRANCH   5   6
ENDBRANCH   1   5
TORSDOF 3
ENDMDL
