MODEL 1
REMARK VINA RESULT:    -5.463      0.000      0.000
REMARK INTER + INTRA:         -10.459
REMARK INTER:                  -8.337
REMARK INTRA:                  -2.122
REMARK UNBOUND:                -2.122
REMARK SMILES CC(=O)CCC=C(C)CCC=C(C)CCC=C(C)C
REMARK SMILES IDX 10 1 11 2 12 3 13 4 14 5 15 6 16 7 18 8 17 9 19 10 9 11 7 12
REMARK SMILES IDX 6 13 8 14 5 15 4 16 2 17 3 18 1 19
REMARK H PARENT
REMARK Flexibility Score: inf
ROOT
ATOM      1  C   UNL     1      36.943  39.644  84.937  1.00  0.00     0.032 C 
ENDROOT
BRANCH   1   2
ATOM      2  C   UNL     1      37.391  40.952  84.336  1.00  0.00    -0.028 C 
ATOM      3  C   UNL     1      37.162  42.164  84.890  1.00  0.00    -0.077 C 
ATOM      4  C   UNL     1      36.356  42.325  86.157  1.00  0.00     0.039 C 
BRANCH   3   5
ATOM      5  C   UNL     1      37.787  43.392  84.263  1.00  0.00     0.034 C 
BRANCH   5   6
ATOM      6  C   UNL     1      37.165  43.708  82.894  1.00  0.00     0.032 C 
BRANCH   6   7
ATOM      7  C   UNL     1      35.664  43.528  82.893  1.00  0.00    -0.028 C 
ATOM      8  C   UNL     1      35.201  45.899  83.553  1.00  0.00     0.039 C 
ATOM      9  C   UNL     1      34.773  44.490  83.218  1.00  0.00    -0.080 C 
ATOM     10  C   UNL     1      33.308  44.135  83.225  1.00  0.00     0.039 C 
ENDBRANCH   6   7
ENDBRANCH   5   6
ENDBRANCH   3   5
ENDBRANCH   1   2
BRANCH   1  11
ATOM     11  C   UNL     1      35.929  38.955  84.017  1.00  0.00     0.034 C 
BRANCH  11  12
ATOM     12  C   UNL     1      34.605  39.684  84.037  1.00  0.00    -0.077 C 
ATOM     13  C   UNL     1      33.881  39.701  85.181  1.00  0.00    -0.028 C 
ATOM     14  C   UNL     1      34.137  40.393  82.788  1.00  0.00     0.039 C 
BRANCH  13  15
ATOM     15  C   UNL     1      32.529  40.352  85.325  1.00  0.00     0.035 C 
BRANCH  15  16
ATOM     16  C   UNL     1      32.654  41.714  86.017  1.00  0.00     0.079 C 
BRANCH  16  17
ATOM     17  C   UNL     1      31.308  42.370  86.150  1.00  0.00     0.130 C 
ATOM     18  O   UNL     1      30.698  42.714  85.149  1.00  0.00    -0.300 OA
ATOM     19  C   UNL     1      30.698  42.584  87.503  1.00  0.00     0.087 C 
ENDBRANCH  16  17
ENDBRANCH  15  16
ENDBRANCH  13  15
ENDBRANCH  11  12
ENDBRANCH   1  11
TORSDOF 9
ENDMDL
MODEL 2
REMARK VINA RESULT:    -5.362      1.473      3.891
REMARK INTER + INTRA:         -10.304
REMARK INTER:                  -8.008
REMARK INTRA:                  -2.296
REMARK UNBOUND:                -2.122
REMARK SMILES CC(=O)CCC=C(C)CCC=C(C)CCC=C(C)C
REMARK SMILES IDX 10 1 11 2 12 3 13 4 14 5 15 6 16 7 18 8 17 9 19 10 9 11 7 12
REMARK SMILES IDX 6 13 8 14 5 15 4 16 2 17 3 18 1 19
REMARK H PARENT
REMARK Flexibility Score: inf
ROOT
ATOM      1  C   UNL     1      33.131  41.138  82.602  1.00  0.00     0.032 C 
ENDROOT
BRANCH   1   2
ATOM      2  C   UNL     1      34.419  40.387  82.833  1.00  0.00    -0.028 C 
ATOM      3  C   UNL     1      34.735  39.751  83.984  1.00  0.00    -0.077 C 
ATOM      4  C   UNL     1      33.836  39.797  85.196  1.00  0.00     0.039 C 
BRANCH   3   5
ATOM      5  C   UNL     1      35.995  38.914  84.042  1.00  0.00     0.034 C 
BRANCH   5   6
ATOM      6  C   UNL     1      37.070  39.567  84.923  1.00  0.00     0.032 C 
BRANCH   6   7
ATOM      7  C   UNL     1      37.696  40.773  84.262  1.00  0.00    -0.028 C 
ATOM      8  C   UNL     1      36.480  42.418  85.708  1.00  0.00     0.039 C 
ATOM      9  C   UNL     1      37.417  42.056  84.580  1.00  0.00    -0.080 C 
ATOM     10  C   UNL     1      38.082  43.151  83.786  1.00  0.00     0.039 C 
ENDBRANCH   6   7
ENDBRANCH   5   6
ENDBRANCH   3   5
ENDBRANCH   1   2
BRANCH   1  11
ATOM     11  C   UNL     1      33.377  42.649  82.665  1.00  0.00     0.034 C 
BRANCH  11  12
ATOM     12  C   UNL     1      32.753  43.243  83.907  1.00  0.00    -0.077 C 
ATOM     13  C   UNL     1      31.635  42.675  84.416  1.00  0.00    -0.028 C 
ATOM     14  C   UNL     1      33.406  44.439  84.558  1.00  0.00     0.039 C 
BRANCH  13  15
ATOM     15  C   UNL     1      30.888  43.191  85.621  1.00  0.00     0.035 C 
BRANCH  15  16
ATOM     16  C   UNL     1      31.176  42.321  86.850  1.00  0.00     0.079 C 
BRANCH  16  17
ATOM     17  C   UNL     1      31.893  43.114  87.907  1.00  0.00     0.130 C 
ATOM     18  O   UNL     1      31.252  43.794  88.696  1.00  0.00    -0.300 OA
ATOM     19  C   UNL     1      33.387  43.058  88.017  1.00  0.00     0.087 C 
ENDBRANCH  16  17
ENDBRANCH  15  16
ENDBRANCH  13  15
ENDBRANCH  11  12
ENDBRANCH   1  11
TORSDOF 9
ENDMDL
MODEL 3
REMARK VINA RESULT:    -5.321      1.550      3.319
REMARK INTER + INTRA:         -10.242
REMARK INTER:                  -7.509
REMARK INTRA:                  -2.732
REMARK UNBOUND:                -2.122
REMARK SMILES CC(=O)CCC=C(C)CCC=C(C)CCC=C(C)C
REMARK SMILES IDX 10 1 11 2 12 3 13 4 14 5 15 6 16 7 18 8 17 9 19 10 9 11 7 12
REMARK SMILES IDX 6 13 8 14 5 15 4 16 2 17 3 18 1 19
REMARK H PARENT
REMARK Flexibility Score: inf
ROOT
ATOM      1  C   UNL     1      35.860  39.111  84.370  1.00  0.00     0.032 C 
ENDROOT
BRANCH   1   2
ATOM      2  C   UNL     1      34.913  39.758  83.392  1.00  0.00    -0.028 C 
ATOM      3  C   UNL     1      33.678  40.208  83.710  1.00  0.00    -0.077 C 
ATOM      4  C   UNL     1      33.094  40.034  85.091  1.00  0.00     0.039 C 
BRANCH   3   5
ATOM      5  C   UNL     1      32.879  40.968  82.672  1.00  0.00     0.034 C 
BRANCH   5   6
ATOM      6  C   UNL     1      32.575  42.403  83.129  1.00  0.00     0.032 C 
BRANCH   6   7
ATOM      7  C   UNL     1      33.826  43.243  83.243  1.00  0.00    -0.028 C 
ATOM      8  C   UNL     1      32.571  45.399  83.466  1.00  0.00     0.039 C 
ATOM      9  C   UNL     1      33.841  44.589  83.361  1.00  0.00    -0.080 C 
ATOM     10  C   UNL     1      35.175  45.289  83.405  1.00  0.00     0.039 C 
ENDBRANCH   6   7
ENDBRANCH   5   6
ENDBRANCH   3   5
ENDBRANCH   1   2
BRANCH   1  11
ATOM     11  C   UNL     1      37.172  39.900  84.443  1.00  0.00     0.034 C 
BRANCH  11  12
ATOM     12  C   UNL     1      36.915  41.328  84.871  1.00  0.00    -0.077 C 
ATOM     13  C   UNL     1      36.211  41.558  86.004  1.00  0.00    -0.028 C 
ATOM     14  C   UNL     1      37.471  42.457  84.036  1.00  0.00     0.039 C 
BRANCH  13  15
ATOM     15  C   UNL     1      35.848  42.928  86.520  1.00  0.00     0.035 C 
BRANCH  15  16
ATOM     16  C   UNL     1      34.638  42.851  87.457  1.00  0.00     0.079 C 
BRANCH  16  17
ATOM     17  C   UNL     1      33.552  43.785  87.002  1.00  0.00     0.130 C 
ATOM     18  O   UNL     1      33.794  44.973  86.854  1.00  0.00    -0.300 OA
ATOM     19  C   UNL     1      32.178  43.263  86.705  1.00  0.00     0.087 C 
ENDBRANCH  16  17
ENDBRANCH  15  16
ENDBRANCH  13  15
ENDBRANCH  11  12
ENDBRANCH   1  11
TORSDOF 9
ENDMDL
MODEL 4
REMARK VINA RESULT:    -5.257      2.674      4.769
REMARK INTER + INTRA:         -10.145
REMARK INTER:                  -8.587
REMARK INTRA:                  -1.558
REMARK UNBOUND:                -2.122
REMARK SMILES CC(=O)CCC=C(C)CCC=C(C)CCC=C(C)C
REMARK SMILES IDX 10 1 11 2 12 3 13 4 14 5 15 6 16 7 18 8 17 9 19 10 9 11 7 12
REMARK SMILES IDX 6 13 8 14 5 15 4 16 2 17 3 18 1 19
REMARK H PARENT
REMARK Flexibility Score: inf
ROOT
ATOM      1  C   UNL     1      33.025  41.130  82.651  1.00  0.00     0.032 C 
ENDROOT
BRANCH   1   2
ATOM      2  C   UNL     1      34.354  40.453  82.869  1.00  0.00    -0.028 C 
ATOM      3  C   UNL     1      34.699  39.794  83.999  1.00  0.00    -0.077 C 
ATOM      4  C   UNL     1      33.787  39.737  85.201  1.00  0.00     0.039 C 
BRANCH   3   5
ATOM      5  C   UNL     1      36.008  39.035  84.041  1.00  0.00     0.034 C 
BRANCH   5   6
ATOM      6  C   UNL     1      37.017  39.697  84.991  1.00  0.00     0.032 C 
BRANCH   6   7
ATOM      7  C   UNL     1      37.699  40.889  84.360  1.00  0.00    -0.028 C 
ATOM      8  C   UNL     1      36.357  42.564  85.652  1.00  0.00     0.039 C 
ATOM      9  C   UNL     1      37.392  42.178  84.621  1.00  0.00    -0.080 C 
ATOM     10  C   UNL     1      38.125  43.256  83.864  1.00  0.00     0.039 C 
ENDBRANCH   6   7
ENDBRANCH   5   6
ENDBRANCH   3   5
ENDBRANCH   1   2
BRANCH   1  11
ATOM     11  C   UNL     1      33.152  42.639  82.882  1.00  0.00     0.034 C 
BRANCH  11  12
ATOM     12  C   UNL     1      31.815  43.239  83.255  1.00  0.00    -0.077 C 
ATOM     13  C   UNL     1      31.345  44.291  82.544  1.00  0.00    -0.028 C 
ATOM     14  C   UNL     1      31.031  42.635  84.396  1.00  0.00     0.039 C 
BRANCH  13  15
ATOM     15  C   UNL     1      30.052  45.009  82.836  1.00  0.00     0.035 C 
BRANCH  15  16
ATOM     16  C   UNL     1      28.983  44.643  81.801  1.00  0.00     0.079 C 
BRANCH  16  17
ATOM     17  C   UNL     1      27.624  44.573  82.440  1.00  0.00     0.130 C 
ATOM     18  O   UNL     1      26.624  44.773  81.766  1.00  0.00    -0.300 OA
ATOM     19  C   UNL     1      27.485  44.236  83.894  1.00  0.00     0.087 C 
ENDBRANCH  16  17
ENDBRANCH  15  16
ENDBRANCH  13  15
ENDBRANCH  11  12
ENDBRANCH   1  11
TORSDOF 9
ENDMDL
MODEL 5
REMARK VINA RESULT:    -5.240      1.942      4.905
REMARK INTER + INTRA:         -10.119
REMARK INTER:                  -7.718
REMARK INTRA:                  -2.401
REMARK UNBOUND:                -2.122
REMARK SMILES CC(=O)CCC=C(C)CCC=C(C)CCC=C(C)C
REMARK SMILES IDX 10 1 11 2 12 3 13 4 14 5 15 6 16 7 18 8 17 9 19 10 9 11 7 12
REMARK SMILES IDX 6 13 8 14 5 15 4 16 2 17 3 18 1 19
REMARK H PARENT
REMARK Flexibility Score: inf
ROOT
ATOM      1  C   UNL     1      34.735  39.375  85.097  1.00  0.00     0.032 C 
ENDROOT
BRANCH   1   2
ATOM      2  C   UNL     1      33.448  40.101  84.795  1.00  0.00    -0.028 C 
ATOM      3  C   UNL     1      33.193  40.752  83.638  1.00  0.00    -0.077 C 
ATOM      4  C   UNL     1      34.227  40.874  82.545  1.00  0.00     0.039 C 
BRANCH   3   5
ATOM      5  C   UNL     1      31.809  41.319  83.399  1.00  0.00     0.034 C 
BRANCH   5   6
ATOM      6  C   UNL     1      31.659  42.721  84.009  1.00  0.00     0.032 C 
BRANCH   6   7
ATOM      7  C   UNL     1      30.942  42.693  85.339  1.00  0.00    -0.028 C 
ATOM      8  C   UNL     1      33.018  43.138  86.668  1.00  0.00     0.039 C 
ATOM      9  C   UNL     1      31.542  42.844  86.540  1.00  0.00    -0.080 C 
ATOM     10  C   UNL     1      30.695  42.732  87.782  1.00  0.00     0.039 C 
ENDBRANCH   6   7
ENDBRANCH   5   6
ENDBRANCH   3   5
ENDBRANCH   1   2
BRANCH   1  11
ATOM     11  C   UNL     1      35.555  40.154  86.131  1.00  0.00     0.034 C 
BRANCH  11  12
ATOM     12  C   UNL     1      36.515  41.103  85.450  1.00  0.00    -0.077 C 
ATOM     13  C   UNL     1      36.544  42.399  85.839  1.00  0.00    -0.028 C 
ATOM     14  C   UNL     1      37.429  40.574  84.371  1.00  0.00     0.039 C 
BRANCH  13  15
ATOM     15  C   UNL     1      37.420  43.457  85.216  1.00  0.00     0.035 C 
BRANCH  15  16
ATOM     16  C   UNL     1      36.569  44.590  84.632  1.00  0.00     0.079 C 
BRANCH  16  17
ATOM     17  C   UNL     1      36.011  44.200  83.291  1.00  0.00     0.130 C 
ATOM     18  O   UNL     1      36.692  43.546  82.516  1.00  0.00    -0.300 OA
ATOM     19  C   UNL     1      34.613  44.586  82.910  1.00  0.00     0.087 C 
ENDBRANCH  16  17
ENDBRANCH  15  16
ENDBRANCH  13  15
ENDBRANCH  11  12
ENDBRANCH   1  11
TORSDOF 9
ENDMDL
MODEL 6
REMARK VINA RESULT:    -5.228      2.305      4.449
REMARK INTER + INTRA:         -10.100
REMARK INTER:                  -8.031
REMARK INTRA:                  -2.069
REMARK UNBOUND:                -2.122
REMARK SMILES CC(=O)CCC=C(C)CCC=C(C)CCC=C(C)C
REMARK SMILES IDX 10 1 11 2 12 3 13 4 14 5 15 6 16 7 18 8 17 9 19 10 9 11 7 12
REMARK SMILES IDX 6 13 8 14 5 15 4 16 2 17 3 18 1 19
REMARK H PARENT
REMARK Flexibility Score: inf
ROOT
ATOM      1  C   UNL     1      32.585  40.477  85.208  1.00  0.00     0.032 C 
ENDROOT
BRANCH   1   2
ATOM      2  C   UNL     1      33.894  39.740  85.084  1.00  0.00    -0.028 C 
ATOM      3  C   UNL     1      34.671  39.745  83.977  1.00  0.00    -0.077 C 
ATOM      4  C   UNL     1      34.251  40.448  82.709  1.00  0.00     0.039 C 
BRANCH   3   5
ATOM      5  C   UNL     1      36.032  39.083  84.027  1.00  0.00     0.034 C 
BRANCH   5   6
ATOM      6  C   UNL     1      36.994  39.835  84.959  1.00  0.00     0.032 C 
BRANCH   6   7
ATOM      7  C   UNL     1      37.360  41.200  84.421  1.00  0.00    -0.028 C 
ATOM      8  C   UNL     1      36.384  42.426  86.376  1.00  0.00     0.039 C 
ATOM      9  C   UNL     1      37.064  42.370  85.028  1.00  0.00    -0.080 C 
ATOM     10  C   UNL     1      37.445  43.653  84.334  1.00  0.00     0.039 C 
ENDBRANCH   6   7
ENDBRANCH   5   6
ENDBRANCH   3   5
ENDBRANCH   1   2
BRANCH   1  11
ATOM     11  C   UNL     1      32.801  41.838  85.877  1.00  0.00     0.034 C 
BRANCH  11  12
ATOM     12  C   UNL     1      32.581  42.962  84.889  1.00  0.00    -0.077 C 
ATOM     13  C   UNL     1      31.635  42.820  83.932  1.00  0.00    -0.028 C 
ATOM     14  C   UNL     1      33.408  44.220  85.011  1.00  0.00     0.039 C 
BRANCH  13  15
ATOM     15  C   UNL     1      31.343  43.841  82.862  1.00  0.00     0.035 C 
BRANCH  15  16
ATOM     16  C   UNL     1      30.075  44.633  83.200  1.00  0.00     0.079 C 
BRANCH  16  17
ATOM     17  C   UNL     1      29.076  44.542  82.080  1.00  0.00     0.130 C 
ATOM     18  O   UNL     1      29.464  44.409  80.929  1.00  0.00    -0.300 OA
ATOM     19  C   UNL     1      27.605  44.590  82.369  1.00  0.00     0.087 C 
ENDBRANCH  16  17
ENDBRANCH  15  16
ENDBRANCH  13  15
ENDBRANCH  11  12
ENDBRANCH   1  11
TORSDOF 9
ENDMDL
MODEL 7
REMARK VINA RESULT:    -5.201      1.822      4.770
REMARK INTER + INTRA:         -10.059
REMARK INTER:                  -7.687
REMARK INTRA:                  -2.372
REMARK UNBOUND:                -2.122
REMARK SMILES CC(=O)CCC=C(C)CCC=C(C)CCC=C(C)C
REMARK SMILES IDX 10 1 11 2 12 3 13 4 14 5 15 6 16 7 18 8 17 9 19 10 9 11 7 12
REMARK SMILES IDX 6 13 8 14 5 15 4 16 2 17 3 18 1 19
REMARK H PARENT
REMARK Flexibility Score: inf
ROOT
ATOM      1  C   UNL     1      32.621  40.498  85.222  1.00  0.00     0.032 C 
ENDROOT
BRANCH   1   2
ATOM      2  C   UNL     1      33.902  39.717  85.073  1.00  0.00    -0.028 C 
ATOM      3  C   UNL     1      34.657  39.698  83.951  1.00  0.00    -0.077 C 
ATOM      4  C   UNL     1      34.237  40.417  82.692  1.00  0.00     0.039 C 
BRANCH   3   5
ATOM      5  C   UNL     1      35.996  38.990  83.975  1.00  0.00     0.034 C 
BRANCH   5   6
ATOM      6  C   UNL     1      37.013  39.732  84.854  1.00  0.00     0.032 C 
BRANCH   6   7
ATOM      7  C   UNL     1      37.566  40.964  84.174  1.00  0.00    -0.028 C 
ATOM      8  C   UNL     1      36.604  42.544  85.863  1.00  0.00     0.039 C 
ATOM      9  C   UNL     1      37.363  42.231  84.595  1.00  0.00    -0.080 C 
ATOM     10  C   UNL     1      37.934  43.358  83.773  1.00  0.00     0.039 C 
ENDBRANCH   6   7
ENDBRANCH   5   6
ENDBRANCH   3   5
ENDBRANCH   1   2
BRANCH   1  11
ATOM     11  C   UNL     1      32.893  41.845  85.898  1.00  0.00     0.034 C 
BRANCH  11  12
ATOM     12  C   UNL     1      32.593  42.989  84.956  1.00  0.00    -0.077 C 
ATOM     13  C   UNL     1      33.604  43.530  84.236  1.00  0.00    -0.028 C 
ATOM     14  C   UNL     1      31.171  43.481  84.826  1.00  0.00     0.039 C 
BRANCH  13  15
ATOM     15  C   UNL     1      33.451  44.698  83.295  1.00  0.00     0.035 C 
BRANCH  15  16
ATOM     16  C   UNL     1      34.822  45.222  82.854  1.00  0.00     0.079 C 
BRANCH  16  17
ATOM     17  C   UNL     1      35.207  46.441  83.645  1.00  0.00     0.130 C 
ATOM     18  O   UNL     1      34.930  47.553  83.221  1.00  0.00    -0.300 OA
ATOM     19  C   UNL     1      35.907  46.302  84.963  1.00  0.00     0.087 C 
ENDBRANCH  16  17
ENDBRANCH  15  16
ENDBRANCH  13  15
ENDBRANCH  11  12
ENDBRANCH   1  11
TORSDOF 9
ENDMDL
MODEL 8
REMARK VINA RESULT:    -5.158      1.985      5.802
REMARK INTER + INTRA:          -9.993
REMARK INTER:                  -7.415
REMARK INTRA:                  -2.578
REMARK UNBOUND:                -2.122
REMARK SMILES CC(=O)CCC=C(C)CCC=C(C)CCC=C(C)C
REMARK SMILES IDX 10 1 11 2 12 3 13 4 14 5 15 6 16 7 18 8 17 9 19 10 9 11 7 12
REMARK SMILES IDX 6 13 8 14 5 15 4 16 2 17 3 18 1 19
REMARK H PARENT
REMARK Flexibility Score: inf
ROOT
ATOM      1  C   UNL     1      30.632  43.874  84.028  1.00  0.00     0.032 C 
ENDROOT
BRANCH   1   2
ATOM      2  C   UNL     1      31.193  42.577  84.553  1.00  0.00    -0.028 C 
ATOM      3  C   UNL     1      31.675  42.406  85.806  1.00  0.00    -0.077 C 
ATOM      4  C   UNL     1      31.761  43.545  86.792  1.00  0.00     0.039 C 
BRANCH   3   5
ATOM      5  C   UNL     1      32.078  41.018  86.258  1.00  0.00     0.034 C 
BRANCH   5   6
ATOM      6  C   UNL     1      32.385  40.101  85.065  1.00  0.00     0.032 C 
BRANCH   6   7
ATOM      7  C   UNL     1      33.845  39.713  85.002  1.00  0.00    -0.028 C 
ATOM      8  C   UNL     1      34.108  40.401  82.608  1.00  0.00     0.039 C 
ATOM      9  C   UNL     1      34.620  39.810  83.901  1.00  0.00    -0.080 C 
ATOM     10  C   UNL     1      36.045  39.326  83.983  1.00  0.00     0.039 C 
ENDBRANCH   6   7
ENDBRANCH   5   6
ENDBRANCH   3   5
ENDBRANCH   1   2
BRANCH   1  11
ATOM     11  C   UNL     1      31.472  44.379  82.850  1.00  0.00     0.034 C 
BRANCH  11  12
ATOM     12  C   UNL     1      32.840  44.822  83.317  1.00  0.00    -0.077 C 
ATOM     13  C   UNL     1      33.934  44.171  82.857  1.00  0.00    -0.028 C 
ATOM     14  C   UNL     1      32.949  45.993  84.264  1.00  0.00     0.039 C 
BRANCH  13  15
ATOM     15  C   UNL     1      35.349  44.481  83.274  1.00  0.00     0.035 C 
BRANCH  15  16
ATOM     16  C   UNL     1      36.169  43.193  83.410  1.00  0.00     0.079 C 
BRANCH  16  17
ATOM     17  C   UNL     1      36.521  42.935  84.848  1.00  0.00     0.130 C 
ATOM     18  O   UNL     1      37.693  42.825  85.177  1.00  0.00    -0.300 OA
ATOM     19  C   UNL     1      35.445  42.835  85.887  1.00  0.00     0.087 C 
ENDBRANCH  16  17
ENDBRANCH  15  16
ENDBRANCH  13  15
ENDBRANCH  11  12
ENDBRANCH   1  11
TORSDOF 9
ENDMDL
MODEL 9
REMARK VINA RESULT:    -5.111      1.936      4.244
REMARK INTER + INTRA:          -9.923
REMARK INTER:                  -7.636
REMARK INTRA:                  -2.287
REMARK UNBOUND:                -2.122
REMARK SMILES CC(=O)CCC=C(C)CCC=C(C)CCC=C(C)C
REMARK SMILES IDX 10 1 11 2 12 3 13 4 14 5 15 6 16 7 18 8 17 9 19 10 9 11 7 12
REMARK SMILES IDX 6 13 8 14 5 15 4 16 2 17 3 18 1 19
REMARK H PARENT
REMARK Flexibility Score: inf
ROOT
ATOM      1  C   UNL     1      32.514  40.117  85.089  1.00  0.00     0.032 C 
ENDROOT
BRANCH   1   2
ATOM      2  C   UNL     1      33.967  39.719  85.144  1.00  0.00    -0.028 C 
ATOM      3  C   UNL     1      34.804  39.737  84.081  1.00  0.00    -0.077 C 
ATOM      4  C   UNL     1      34.329  40.097  82.695  1.00  0.00     0.039 C 
BRANCH   3   5
ATOM      5  C   UNL     1      36.275  39.451  84.296  1.00  0.00     0.034 C 
BRANCH   5   6
ATOM      6  C   UNL     1      37.110  40.741  84.291  1.00  0.00     0.032 C 
BRANCH   6   7
ATOM      7  C   UNL     1      36.483  41.830  85.131  1.00  0.00    -0.028 C 
ATOM      8  C   UNL     1      36.016  43.317  83.170  1.00  0.00     0.039 C 
ATOM      9  C   UNL     1      36.019  43.004  84.647  1.00  0.00    -0.080 C 
ATOM     10  C   UNL     1      35.474  44.015  85.623  1.00  0.00     0.039 C 
ENDBRANCH   6   7
ENDBRANCH   5   6
ENDBRANCH   3   5
ENDBRANCH   1   2
BRANCH   1  11
ATOM     11  C   UNL     1      32.281  41.396  85.900  1.00  0.00     0.034 C 
BRANCH  11  12
ATOM     12  C   UNL     1      31.724  42.494  85.023  1.00  0.00    -0.077 C 
ATOM     13  C   UNL     1      32.353  42.790  83.862  1.00  0.00    -0.028 C 
ATOM     14  C   UNL     1      30.469  43.215  85.455  1.00  0.00     0.039 C 
BRANCH  13  15
ATOM     15  C   UNL     1      31.930  43.887  82.917  1.00  0.00     0.035 C 
BRANCH  15  16
ATOM     16  C   UNL     1      32.685  45.185  83.221  1.00  0.00     0.079 C 
BRANCH  16  17
ATOM     17  C   UNL     1      31.853  46.383  82.857  1.00  0.00     0.130 C 
ATOM     18  O   UNL     1      32.389  47.376  82.387  1.00  0.00    -0.300 OA
ATOM     19  C   UNL     1      30.366  46.360  83.043  1.00  0.00     0.087 C 
ENDBRANCH  16  17
ENDBRANCH  15  16
ENDBRANCH  13  15
ENDBRANCH  11  12
ENDBRANCH   1  11
TORSDOF 9
ENDMDL
