MODEL 1
REMARK VINA RESULT:    -7.077      0.000      0.000
REMARK INTER + INTRA:          -7.284
REMARK INTER:                  -7.284
REMARK INTRA:                   0.000
REMARK UNBOUND:                 0.000
REMARK SMILES C=C1CCC[C@@]2(C)C[C@]3(O)OC(=O)C(C)=C3C[C@@H]12
REMARK SMILES IDX 15 1 14 2 16 3 17 4 18 5 2 6 1 7 3 8 4 9 5 10 6 11 8 12 9 13
REMARK SMILES IDX 11 14 12 15 13 16 7 17 10 18
REMARK H PARENT 10 19
REMARK Flexibility Score: inf
ROOT
ATOM      1  C   UNL     1     253.210 -20.732  51.230  1.00  0.00     0.052 C 
ATOM      2  C   UNL     1     252.322 -21.752  50.587  1.00  0.00     0.040 C 
ATOM      3  C   UNL     1     251.848 -22.862  51.161  1.00  0.00     0.012 C 
ATOM      4  C   UNL     1     252.266 -23.408  52.486  1.00  0.00     0.047 C 
ATOM      5  C   UNL     1     253.402 -24.462  52.310  1.00  0.00     0.025 C 
ATOM      6  C   UNL     1     253.579 -25.332  53.572  1.00  0.00    -0.073 C 
ATOM      7  C   UNL     1     253.291 -24.867  54.804  1.00  0.00     0.008 C 
ATOM      8  C   UNL     1     254.256 -26.684  53.511  1.00  0.00     0.031 C 
ATOM      9  C   UNL     1     254.749 -27.033  52.115  1.00  0.00     0.005 C 
ATOM     10  C   UNL     1     253.633 -26.796  51.107  1.00  0.00     0.008 C 
ATOM     11  C   UNL     1     253.297 -25.283  50.934  1.00  0.00    -0.019 C 
ATOM     12  C   UNL     1     251.860 -25.214  50.306  1.00  0.00     0.092 C 
ATOM     13  C   UNL     1     251.273 -23.792  50.137  1.00  0.00     0.235 C 
ATOM     14  O   UNL     1     251.627 -23.184  48.896  1.00  0.00    -0.426 OA
ATOM     15  C   UNL     1     252.176 -21.942  49.158  1.00  0.00     0.336 C 
ATOM     16  O   UNL     1     252.559 -21.142  48.266  1.00  0.00    -0.246 OA
ATOM     17  C   UNL     1     254.310 -24.700  49.910  1.00  0.00     0.012 C 
ENDROOT
BRANCH  13  18
ATOM     18  O   UNL     1     249.875 -23.813  50.268  1.00  0.00    -0.353 OA
ATOM     19  H   UNL     1     249.679 -24.151  51.182  1.00  0.00     0.215 HD
ENDBRANCH  13  18
TORSDOF 1
ENDMDL
MODEL 2
REMARK VINA RESULT:    -6.908      1.577      3.207
REMARK INTER + INTRA:          -7.110
REMARK INTER:                  -7.110
REMARK INTRA:                   0.000
REMARK UNBOUND:                 0.000
REMARK SMILES C=C1CCC[C@@]2(C)C[C@]3(O)OC(=O)C(C)=C3C[C@@H]12
REMARK SMILES IDX 15 1 14 2 16 3 17 4 18 5 2 6 1 7 3 8 4 9 5 10 6 11 8 12 9 13
REMARK SMILES IDX 11 14 12 15 13 16 7 17 10 18
REMARK H PARENT 10 19
REMARK Flexibility Score: inf
ROOT
ATOM      1  C   UNL     1     250.276 -24.647  48.300  1.00  0.00     0.052 C 
ATOM      2  C   UNL     1     251.659 -24.078  48.233  1.00  0.00     0.040 C 
ATOM      3  C   UNL     1     252.785 -24.687  48.616  1.00  0.00     0.012 C 
ATOM      4  C   UNL     1     252.869 -25.973  49.370  1.00  0.00     0.047 C 
ATOM      5  C   UNL     1     252.964 -25.703  50.904  1.00  0.00     0.025 C 
ATOM      6  C   UNL     1     253.455 -26.946  51.676  1.00  0.00    -0.073 C 
ATOM      7  C   UNL     1     253.218 -28.198  51.236  1.00  0.00     0.008 C 
ATOM      8  C   UNL     1     254.064 -26.828  53.056  1.00  0.00     0.031 C 
ATOM      9  C   UNL     1     254.089 -25.397  53.568  1.00  0.00     0.005 C 
ATOM     10  C   UNL     1     254.672 -24.483  52.498  1.00  0.00     0.008 C 
ATOM     11  C   UNL     1     253.732 -24.340  51.261  1.00  0.00    -0.019 C 
ATOM     12  C   UNL     1     254.629 -23.832  50.077  1.00  0.00     0.092 C 
ATOM     13  C   UNL     1     253.920 -23.713  48.707  1.00  0.00     0.235 C 
ATOM     14  O   UNL     1     253.289 -22.448  48.510  1.00  0.00    -0.426 OA
ATOM     15  C   UNL     1     251.972 -22.666  48.152  1.00  0.00     0.336 C 
ATOM     16  O   UNL     1     251.159 -21.746  47.876  1.00  0.00    -0.246 OA
ATOM     17  C   UNL     1     252.690 -23.237  51.599  1.00  0.00     0.012 C 
ENDROOT
BRANCH  13  18
ATOM     18  O   UNL     1     254.821 -23.957  47.659  1.00  0.00    -0.353 OA
ATOM     19  H   UNL     1     254.562 -23.353  46.913  1.00  0.00     0.215 HD
ENDBRANCH  13  18
TORSDOF 1
ENDMDL
MODEL 3
REMARK VINA RESULT:    -6.817     10.442     12.220
REMARK INTER + INTRA:          -7.016
REMARK INTER:                  -7.016
REMARK INTRA:                   0.000
REMARK UNBOUND:                 0.000
REMARK SMILES C=C1CCC[C@@]2(C)C[C@]3(O)OC(=O)C(C)=C3C[C@@H]12
REMARK SMILES IDX 15 1 14 2 16 3 17 4 18 5 2 6 1 7 3 8 4 9 5 10 6 11 8 12 9 13
REMARK SMILES IDX 11 14 12 15 13 16 7 17 10 18
REMARK H PARENT 10 19
REMARK Flexibility Score: inf
ROOT
ATOM      1  C   UNL     1     264.889 -27.998  58.458  1.00  0.00     0.052 C 
ATOM      2  C   UNL     1     263.927 -27.460  57.443  1.00  0.00     0.040 C 
ATOM      3  C   UNL     1     262.838 -26.729  57.696  1.00  0.00     0.012 C 
ATOM      4  C   UNL     1     262.252 -26.471  59.045  1.00  0.00     0.047 C 
ATOM      5  C   UNL     1     261.139 -27.516  59.368  1.00  0.00     0.025 C 
ATOM      6  C   UNL     1     260.245 -27.058  60.539  1.00  0.00    -0.073 C 
ATOM      7  C   UNL     1     260.709 -26.258  61.520  1.00  0.00     0.008 C 
ATOM      8  C   UNL     1     258.859 -27.630  60.745  1.00  0.00     0.031 C 
ATOM      9  C   UNL     1     258.502 -28.692  59.717  1.00  0.00     0.005 C 
ATOM     10  C   UNL     1     258.813 -28.173  58.319  1.00  0.00     0.008 C 
ATOM     11  C   UNL     1     260.344 -28.017  58.067  1.00  0.00    -0.019 C 
ATOM     12  C   UNL     1     260.499 -27.032  56.856  1.00  0.00     0.092 C 
ATOM     13  C   UNL     1     261.953 -26.648  56.489  1.00  0.00     0.235 C 
ATOM     14  O   UNL     1     262.558 -27.557  55.571  1.00  0.00    -0.426 OA
ATOM     15  C   UNL     1     263.764 -27.976  56.100  1.00  0.00     0.336 C 
ATOM     16  O   UNL     1     264.554 -28.759  55.510  1.00  0.00    -0.246 OA
ATOM     17  C   UNL     1     260.885 -29.411  57.641  1.00  0.00     0.012 C 
ENDROOT
BRANCH  13  18
ATOM     18  O   UNL     1     262.006 -25.346  55.967  1.00  0.00    -0.353 OA
ATOM     19  H   UNL     1     261.413 -25.334  55.170  1.00  0.00     0.215 HD
ENDBRANCH  13  18
TORSDOF 1
ENDMDL
MODEL 4
REMARK VINA RESULT:    -6.346      1.773      3.959
REMARK INTER + INTRA:          -6.532
REMARK INTER:                  -6.532
REMARK INTRA:                   0.000
REMARK UNBOUND:                 0.000
REMARK SMILES C=C1CCC[C@@]2(C)C[C@]3(O)OC(=O)C(C)=C3C[C@@H]12
REMARK SMILES IDX 15 1 14 2 16 3 17 4 18 5 2 6 1 7 3 8 4 9 5 10 6 11 8 12 9 13
REMARK SMILES IDX 11 14 12 15 13 16 7 17 10 18
REMARK H PARENT 10 19
REMARK Flexibility Score: inf
ROOT
ATOM      1  C   UNL     1     253.156 -27.337  50.534  1.00  0.00     0.052 C 
ATOM      2  C   UNL     1     253.531 -25.918  50.234  1.00  0.00     0.040 C 
ATOM      3  C   UNL     1     253.867 -24.983  51.128  1.00  0.00     0.012 C 
ATOM      4  C   UNL     1     253.742 -25.106  52.611  1.00  0.00     0.047 C 
ATOM      5  C   UNL     1     252.382 -24.516  53.097  1.00  0.00     0.025 C 
ATOM      6  C   UNL     1     252.382 -24.251  54.617  1.00  0.00    -0.073 C 
ATOM      7  C   UNL     1     253.131 -24.982  55.467  1.00  0.00     0.008 C 
ATOM      8  C   UNL     1     251.406 -23.283  55.250  1.00  0.00     0.031 C 
ATOM      9  C   UNL     1     250.449 -22.669  54.241  1.00  0.00     0.005 C 
ATOM     10  C   UNL     1     251.235 -22.143  53.047  1.00  0.00     0.008 C 
ATOM     11  C   UNL     1     251.866 -23.290  52.198  1.00  0.00    -0.019 C 
ATOM     12  C   UNL     1     253.020 -22.638  51.358  1.00  0.00     0.092 C 
ATOM     13  C   UNL     1     253.862 -23.619  50.506  1.00  0.00     0.235 C 
ATOM     14  O   UNL     1     253.314 -23.846  49.208  1.00  0.00    -0.426 OA
ATOM     15  C   UNL     1     253.192 -25.210  49.017  1.00  0.00     0.336 C 
ATOM     16  O   UNL     1     252.770 -25.734  47.953  1.00  0.00    -0.246 OA
ATOM     17  C   UNL     1     250.769 -23.796  51.221  1.00  0.00     0.012 C 
ENDROOT
BRANCH  13  18
ATOM     18  O   UNL     1     255.184 -23.164  50.385  1.00  0.00    -0.353 OA
ATOM     19  H   UNL     1     255.770 -23.909  50.682  1.00  0.00     0.215 HD
ENDBRANCH  13  18
TORSDOF 1
ENDMDL
MODEL 5
REMARK VINA RESULT:    -6.287     10.775     12.908
REMARK INTER + INTRA:          -6.470
REMARK INTER:                  -6.470
REMARK INTRA:                   0.000
REMARK UNBOUND:                 0.000
REMARK SMILES C=C1CCC[C@@]2(C)C[C@]3(O)OC(=O)C(C)=C3C[C@@H]12
REMARK SMILES IDX 15 1 14 2 16 3 17 4 18 5 2 6 1 7 3 8 4 9 5 10 6 11 8 12 9 13
REMARK SMILES IDX 11 14 12 15 13 16 7 17 10 18
REMARK H PARENT 10 19
REMARK Flexibility Score: inf
ROOT
ATOM      1  C   UNL     1     261.126 -27.034  55.144  1.00  0.00     0.052 C 
ATOM      2  C   UNL     1     262.342 -27.577  55.828  1.00  0.00     0.040 C 
ATOM      3  C   UNL     1     262.358 -28.351  56.917  1.00  0.00     0.012 C 
ATOM      4  C   UNL     1     261.183 -28.664  57.784  1.00  0.00     0.047 C 
ATOM      5  C   UNL     1     261.105 -27.666  58.981  1.00  0.00     0.025 C 
ATOM      6  C   UNL     1     260.178 -28.184  60.100  1.00  0.00    -0.073 C 
ATOM      7  C   UNL     1     259.131 -28.994  59.841  1.00  0.00     0.008 C 
ATOM      8  C   UNL     1     260.284 -27.665  61.518  1.00  0.00     0.031 C 
ATOM      9  C   UNL     1     261.347 -26.590  61.672  1.00  0.00     0.005 C 
ATOM     10  C   UNL     1     262.646 -27.062  61.031  1.00  0.00     0.008 C 
ATOM     11  C   UNL     1     262.544 -27.158  59.478  1.00  0.00    -0.019 C 
ATOM     12  C   UNL     1     263.705 -28.106  59.013  1.00  0.00     0.092 C 
ATOM     13  C   UNL     1     263.736 -28.431  57.500  1.00  0.00     0.235 C 
ATOM     14  O   UNL     1     264.476 -27.478  56.738  1.00  0.00    -0.426 OA
ATOM     15  C   UNL     1     263.678 -27.032  55.701  1.00  0.00     0.336 C 
ATOM     16  O   UNL     1     264.058 -26.208  54.828  1.00  0.00    -0.246 OA
ATOM     17  C   UNL     1     262.810 -25.736  58.909  1.00  0.00     0.012 C 
ENDROOT
BRANCH  13  18
ATOM     18  O   UNL     1     264.255 -29.716  57.278  1.00  0.00    -0.353 OA
ATOM     19  H   UNL     1     264.251 -30.180  58.157  1.00  0.00     0.215 HD
ENDBRANCH  13  18
TORSDOF 1
ENDMDL
MODEL 6
REMARK VINA RESULT:    -6.198      2.486      4.872
REMARK INTER + INTRA:          -6.380
REMARK INTER:                  -6.380
REMARK INTRA:                   0.000
REMARK UNBOUND:                 0.000
REMARK SMILES C=C1CCC[C@@]2(C)C[C@]3(O)OC(=O)C(C)=C3C[C@@H]12
REMARK SMILES IDX 15 1 14 2 16 3 17 4 18 5 2 6 1 7 3 8 4 9 5 10 6 11 8 12 9 13
REMARK SMILES IDX 11 14 12 15 13 16 7 17 10 18
REMARK H PARENT 10 19
REMARK Flexibility Score: inf
ROOT
ATOM      1  C   UNL     1     252.362 -24.120  53.901  1.00  0.00     0.052 C 
ATOM      2  C   UNL     1     253.354 -24.339  52.800  1.00  0.00     0.040 C 
ATOM      3  C   UNL     1     253.414 -23.669  51.645  1.00  0.00     0.012 C 
ATOM      4  C   UNL     1     252.390 -22.710  51.136  1.00  0.00     0.047 C 
ATOM      5  C   UNL     1     251.374 -23.437  50.202  1.00  0.00     0.025 C 
ATOM      6  C   UNL     1     250.564 -22.441  49.348  1.00  0.00    -0.073 C 
ATOM      7  C   UNL     1     250.295 -21.190  49.775  1.00  0.00     0.008 C 
ATOM      8  C   UNL     1     249.875 -22.872  48.071  1.00  0.00     0.031 C 
ATOM      9  C   UNL     1     250.048 -24.354  47.781  1.00  0.00     0.005 C 
ATOM     10  C   UNL     1     251.519 -24.731  47.910  1.00  0.00     0.008 C 
ATOM     11  C   UNL     1     252.026 -24.654  49.383  1.00  0.00    -0.019 C 
ATOM     12  C   UNL     1     253.591 -24.554  49.310  1.00  0.00     0.092 C 
ATOM     13  C   UNL     1     254.311 -24.365  50.667  1.00  0.00     0.235 C 
ATOM     14  O   UNL     1     254.619 -25.598  51.315  1.00  0.00    -0.426 OA
ATOM     15  C   UNL     1     254.121 -25.551  52.604  1.00  0.00     0.336 C 
ATOM     16  O   UNL     1     254.261 -26.478  53.444  1.00  0.00    -0.246 OA
ATOM     17  C   UNL     1     251.649 -25.996  50.071  1.00  0.00     0.012 C 
ENDROOT
BRANCH  13  18
ATOM     18  O   UNL     1     255.486 -23.613  50.505  1.00  0.00    -0.353 OA
ATOM     19  H   UNL     1     255.216 -22.745  50.105  1.00  0.00     0.215 HD
ENDBRANCH  13  18
TORSDOF 1
ENDMDL
MODEL 7
REMARK VINA RESULT:    -6.128     12.006     13.895
REMARK INTER + INTRA:          -6.307
REMARK INTER:                  -6.307
REMARK INTRA:                   0.000
REMARK UNBOUND:                 0.000
REMARK SMILES C=C1CCC[C@@]2(C)C[C@]3(O)OC(=O)C(C)=C3C[C@@H]12
REMARK SMILES IDX 15 1 14 2 16 3 17 4 18 5 2 6 1 7 3 8 4 9 5 10 6 11 8 12 9 13
REMARK SMILES IDX 11 14 12 15 13 16 7 17 10 18
REMARK H PARENT 10 19
REMARK Flexibility Score: inf
ROOT
ATOM      1  C   UNL     1     266.274 -29.713  57.663  1.00  0.00     0.052 C 
ATOM      2  C   UNL     1     265.674 -28.559  56.920  1.00  0.00     0.040 C 
ATOM      3  C   UNL     1     265.172 -27.446  57.461  1.00  0.00     0.012 C 
ATOM      4  C   UNL     1     264.925 -27.215  58.915  1.00  0.00     0.047 C 
ATOM      5  C   UNL     1     263.455 -27.583  59.286  1.00  0.00     0.025 C 
ATOM      6  C   UNL     1     263.041 -26.990  60.649  1.00  0.00    -0.073 C 
ATOM      7  C   UNL     1     263.938 -26.768  61.632  1.00  0.00     0.008 C 
ATOM      8  C   UNL     1     261.586 -26.800  61.019  1.00  0.00     0.031 C 
ATOM      9  C   UNL     1     260.635 -27.285  59.936  1.00  0.00     0.005 C 
ATOM     10  C   UNL     1     261.065 -26.717  58.590  1.00  0.00     0.008 C 
ATOM     11  C   UNL     1     262.415 -27.319  58.092  1.00  0.00    -0.019 C 
ATOM     12  C   UNL     1     262.979 -26.323  57.019  1.00  0.00     0.092 C 
ATOM     13  C   UNL     1     264.377 -26.671  56.454  1.00  0.00     0.235 C 
ATOM     14  O   UNL     1     264.325 -27.544  55.327  1.00  0.00    -0.426 OA
ATOM     15  C   UNL     1     265.155 -28.623  55.570  1.00  0.00     0.336 C 
ATOM     16  O   UNL     1     265.352 -29.555  54.747  1.00  0.00    -0.246 OA
ATOM     17  C   UNL     1     262.087 -28.667  57.390  1.00  0.00     0.012 C 
ENDROOT
BRANCH  13  18
ATOM     18  O   UNL     1     265.079 -25.504  56.114  1.00  0.00    -0.353 OA
ATOM     19  H   UNL     1     265.761 -25.364  56.823  1.00  0.00     0.215 HD
ENDBRANCH  13  18
TORSDOF 1
ENDMDL
MODEL 8
REMARK VINA RESULT:    -6.088      2.569      5.140
REMARK INTER + INTRA:          -6.266
REMARK INTER:                  -6.266
REMARK INTRA:                   0.000
REMARK UNBOUND:                 0.000
REMARK SMILES C=C1CCC[C@@]2(C)C[C@]3(O)OC(=O)C(C)=C3C[C@@H]12
REMARK SMILES IDX 15 1 14 2 16 3 17 4 18 5 2 6 1 7 3 8 4 9 5 10 6 11 8 12 9 13
REMARK SMILES IDX 11 14 12 15 13 16 7 17 10 18
REMARK H PARENT 10 19
REMARK Flexibility Score: inf
ROOT
ATOM      1  C   UNL     1     251.723 -21.679  51.967  1.00  0.00     0.052 C 
ATOM      2  C   UNL     1     252.785 -22.644  51.539  1.00  0.00     0.040 C 
ATOM      3  C   UNL     1     253.373 -22.692  50.340  1.00  0.00     0.012 C 
ATOM      4  C   UNL     1     252.951 -21.929  49.128  1.00  0.00     0.047 C 
ATOM      5  C   UNL     1     251.989 -22.786  48.249  1.00  0.00     0.025 C 
ATOM      6  C   UNL     1     251.855 -22.217  46.821  1.00  0.00    -0.073 C 
ATOM      7  C   UNL     1     251.995 -20.900  46.563  1.00  0.00     0.008 C 
ATOM      8  C   UNL     1     251.380 -23.075  45.669  1.00  0.00     0.031 C 
ATOM      9  C   UNL     1     251.032 -24.492  46.096  1.00  0.00     0.005 C 
ATOM     10  C   UNL     1     252.167 -25.065  46.936  1.00  0.00     0.008 C 
ATOM     11  C   UNL     1     252.297 -24.360  48.321  1.00  0.00    -0.019 C 
ATOM     12  C   UNL     1     253.747 -24.661  48.840  1.00  0.00     0.092 C 
ATOM     13  C   UNL     1     254.138 -23.969  50.168  1.00  0.00     0.235 C 
ATOM     14  O   UNL     1     253.782 -24.729  51.322  1.00  0.00    -0.426 OA
ATOM     15  C   UNL     1     253.049 -23.921  52.170  1.00  0.00     0.336 C 
ATOM     16  O   UNL     1     252.615 -24.291  53.292  1.00  0.00    -0.246 OA
ATOM     17  C   UNL     1     251.279 -25.038  49.280  1.00  0.00     0.012 C 
ENDROOT
BRANCH  13  18
ATOM     18  O   UNL     1     255.513 -23.689  50.195  1.00  0.00    -0.353 OA
ATOM     19  H   UNL     1     255.661 -22.923  49.580  1.00  0.00     0.215 HD
ENDBRANCH  13  18
TORSDOF 1
ENDMDL
