MODEL 1
REMARK VINA RESULT:    -3.962      0.000      0.000
REMARK INTER + INTRA:          -7.775
REMARK INTER:                  -6.973
REMARK INTRA:                  -0.802
REMARK UNBOUND:                -0.802
REMARK SMILES CCCCCCCCCCCCCCC(=O)[O-]
REMARK SMILES IDX 9 1 10 2 11 3 12 4 13 5 14 6 15 7 16 8 17 9 8 10 7 11 6 12
REMARK SMILES IDX 5 13 4 14 3 15 2 16 1 17
REMARK H PARENT
REMARK Flexibility Score: inf
ROOT
ATOM      1  C   UNL     1      57.696  37.319  53.789  1.00  0.00     0.000 C 
ENDROOT
BRANCH   1   2
ATOM      2  C   UNL     1      58.796  36.789  54.729  1.00  0.00     0.000 C 
BRANCH   2   3
ATOM      3  C   UNL     1      59.523  37.864  55.561  1.00  0.00     0.000 C 
BRANCH   3   4
ATOM      4  C   UNL     1      58.701  38.456  56.719  1.00  0.00     0.000 C 
BRANCH   4   5
ATOM      5  C   UNL     1      59.065  37.846  58.083  1.00  0.00     0.006 C 
BRANCH   5   6
ATOM      6  C   UNL     1      59.872  38.816  58.956  1.00  0.00     0.053 C 
BRANCH   6   7
ATOM      7  C   UNL     1      61.346  38.576  58.840  1.00  0.00     0.041 C 
ATOM      8  O   UNL     1      61.778  37.440  58.511  1.00  0.00    -0.550 OA
ATOM      9  O   UNL     1      62.243  39.598  59.124  1.00  0.00    -0.550 OA
ENDBRANCH   6   7
ENDBRANCH   5   6
ENDBRANCH   4   5
ENDBRANCH   3   4
ENDBRANCH   2   3
ENDBRANCH   1   2
BRANCH   1  10
ATOM     10  C   UNL     1      57.531  36.537  52.473  1.00  0.00     0.000 C 
BRANCH  10  11
ATOM     11  C   UNL     1      58.427  35.291  52.404  1.00  0.00    -0.000 C 
BRANCH  11  12
ATOM     12  C   UNL     1      59.201  35.246  51.079  1.00  0.00    -0.000 C 
BRANCH  12  13
ATOM     13  C   UNL     1      58.454  35.946  49.932  1.00  0.00    -0.000 C 
BRANCH  13  14
ATOM     14  C   UNL     1      59.358  36.236  48.725  1.00  0.00    -0.000 C 
BRANCH  14  15
ATOM     15  C   UNL     1      60.793  35.757  48.987  1.00  0.00    -0.000 C 
BRANCH  15  16
ATOM     16  C   UNL     1      61.820  36.432  48.065  1.00  0.00    -0.003 C 
ATOM     17  C   UNL     1      61.672  37.953  48.029  1.00  0.00     0.004 C 
ENDBRANCH  15  16
ENDBRANCH  14  15
ENDBRANCH  13  14
ENDBRANCH  12  13
ENDBRANCH  11  12
ENDBRANCH  10  11
ENDBRANCH   1  10
TORSDOF 13
ENDMDL
MODEL 2
REMARK VINA RESULT:    -3.914      4.316      8.680
REMARK INTER + INTRA:          -7.690
REMARK INTER:                  -6.783
REMARK INTRA:                  -0.907
REMARK UNBOUND:                -0.802
REMARK SMILES CCCCCCCCCCCCCCC(=O)[O-]
REMARK SMILES IDX 9 1 10 2 11 3 12 4 13 5 14 6 15 7 16 8 17 9 8 10 7 11 6 12
REMARK SMILES IDX 5 13 4 14 3 15 2 16 1 17
REMARK H PARENT
REMARK Flexibility Score: inf
ROOT
ATOM      1  C   UNL     1      57.519  36.506  52.972  1.00  0.00     0.000 C 
ENDROOT
BRANCH   1   2
ATOM      2  C   UNL     1      58.155  35.117  52.764  1.00  0.00     0.000 C 
BRANCH   2   3
ATOM      3  C   UNL     1      59.010  34.970  51.490  1.00  0.00     0.000 C 
BRANCH   3   4
ATOM      4  C   UNL     1      58.590  35.873  50.317  1.00  0.00     0.000 C 
BRANCH   4   5
ATOM      5  C   UNL     1      59.278  35.492  48.995  1.00  0.00     0.006 C 
BRANCH   5   6
ATOM      6  C   UNL     1      60.087  36.655  48.406  1.00  0.00     0.053 C 
BRANCH   6   7
ATOM      7  C   UNL     1      59.421  37.242  47.199  1.00  0.00     0.041 C 
ATOM      8  O   UNL     1      58.488  38.077  47.334  1.00  0.00    -0.550 OA
ATOM      9  O   UNL     1      59.812  36.847  45.926  1.00  0.00    -0.550 OA
ENDBRANCH   6   7
ENDBRANCH   5   6
ENDBRANCH   4   5
ENDBRANCH   3   4
ENDBRANCH   2   3
ENDBRANCH   1   2
BRANCH   1  10
ATOM     10  C   UNL     1      58.034  37.280  54.198  1.00  0.00     0.000 C 
BRANCH  10  11
ATOM     11  C   UNL     1      59.175  36.554  54.926  1.00  0.00    -0.000 C 
BRANCH  11  12
ATOM     12  C   UNL     1      60.163  37.559  55.536  1.00  0.00    -0.000 C 
BRANCH  12  13
ATOM     13  C   UNL     1      60.861  37.016  56.793  1.00  0.00    -0.000 C 
BRANCH  13  14
ATOM     14  C   UNL     1      60.599  37.877  58.037  1.00  0.00    -0.000 C 
BRANCH  14  15
ATOM     15  C   UNL     1      59.275  37.482  58.708  1.00  0.00    -0.000 C 
BRANCH  15  16
ATOM     16  C   UNL     1      58.383  38.694  59.017  1.00  0.00    -0.003 C 
ATOM     17  C   UNL     1      58.233  39.638  57.824  1.00  0.00     0.004 C 
ENDBRANCH  15  16
ENDBRANCH  14  15
ENDBRANCH  13  14
ENDBRANCH  12  13
ENDBRANCH  11  12
ENDBRANCH  10  11
ENDBRANCH   1  10
TORSDOF 13
ENDMDL
MODEL 3
REMARK VINA RESULT:    -3.824      3.688      8.025
REMARK INTER + INTRA:          -7.533
REMARK INTER:                  -6.901
REMARK INTRA:                  -0.632
REMARK UNBOUND:                -0.802
REMARK SMILES CCCCCCCCCCCCCCC(=O)[O-]
REMARK SMILES IDX 9 1 10 2 11 3 12 4 13 5 14 6 15 7 16 8 17 9 8 10 7 11 6 12
REMARK SMILES IDX 5 13 4 14 3 15 2 16 1 17
REMARK H PARENT
REMARK Flexibility Score: inf
ROOT
ATOM      1  C   UNL     1      57.857  36.576  52.676  1.00  0.00     0.000 C 
ENDROOT
BRANCH   1   2
ATOM      2  C   UNL     1      58.576  35.217  52.568  1.00  0.00     0.000 C 
BRANCH   2   3
ATOM      3  C   UNL     1      59.264  34.944  51.215  1.00  0.00     0.000 C 
BRANCH   3   4
ATOM      4  C   UNL     1      58.702  35.743  50.027  1.00  0.00     0.000 C 
BRANCH   4   5
ATOM      5  C   UNL     1      59.570  35.622  48.763  1.00  0.00     0.006 C 
BRANCH   5   6
ATOM      6  C   UNL     1      60.005  36.991  48.224  1.00  0.00     0.053 C 
BRANCH   6   7
ATOM      7  C   UNL     1      61.480  37.207  48.377  1.00  0.00     0.041 C 
ATOM      8  O   UNL     1      61.968  38.360  48.244  1.00  0.00    -0.550 OA
ATOM      9  O   UNL     1      62.319  36.131  48.638  1.00  0.00    -0.550 OA
ENDBRANCH   6   7
ENDBRANCH   5   6
ENDBRANCH   4   5
ENDBRANCH   3   4
ENDBRANCH   2   3
ENDBRANCH   1   2
BRANCH   1  10
ATOM     10  C   UNL     1      57.662  37.096  54.112  1.00  0.00     0.000 C 
BRANCH  10  11
ATOM     11  C   UNL     1      58.967  37.112  54.923  1.00  0.00    -0.000 C 
BRANCH  11  12
ATOM     12  C   UNL     1      58.952  38.240  55.964  1.00  0.00    -0.000 C 
BRANCH  12  13
ATOM     13  C   UNL     1      59.438  37.776  57.347  1.00  0.00    -0.000 C 
BRANCH  13  14
ATOM     14  C   UNL     1      60.756  36.992  57.280  1.00  0.00    -0.000 C 
BRANCH  14  15
ATOM     15  C   UNL     1      61.876  37.737  58.022  1.00  0.00    -0.000 C 
BRANCH  15  16
ATOM     16  C   UNL     1      62.950  38.288  57.072  1.00  0.00    -0.003 C 
ATOM     17  C   UNL     1      64.075  39.014  57.809  1.00  0.00     0.004 C 
ENDBRANCH  15  16
ENDBRANCH  14  15
ENDBRANCH  13  14
ENDBRANCH  12  13
ENDBRANCH  11  12
ENDBRANCH  10  11
ENDBRANCH   1  10
TORSDOF 13
ENDMDL
MODEL 4
REMARK VINA RESULT:    -3.814     13.483     15.638
REMARK INTER + INTRA:          -7.515
REMARK INTER:                  -6.580
REMARK INTRA:                  -0.935
REMARK UNBOUND:                -0.802
REMARK SMILES CCCCCCCCCCCCCCC(=O)[O-]
REMARK SMILES IDX 9 1 10 2 11 3 12 4 13 5 14 6 15 7 16 8 17 9 8 10 7 11 6 12
REMARK SMILES IDX 5 13 4 14 3 15 2 16 1 17
REMARK H PARENT
REMARK Flexibility Score: inf
ROOT
ATOM      1  C   UNL     1      68.738  49.738  56.037  1.00  0.00     0.000 C 
ENDROOT
BRANCH   1   2
ATOM      2  C   UNL     1      68.377  50.336  57.411  1.00  0.00     0.000 C 
BRANCH   2   3
ATOM      3  C   UNL     1      67.088  49.782  58.050  1.00  0.00     0.000 C 
BRANCH   3   4
ATOM      4  C   UNL     1      67.050  48.253  58.216  1.00  0.00     0.000 C 
BRANCH   4   5
ATOM      5  C   UNL     1      65.656  47.659  57.953  1.00  0.00     0.006 C 
BRANCH   5   6
ATOM      6  C   UNL     1      65.478  46.284  58.611  1.00  0.00     0.053 C 
BRANCH   6   7
ATOM      7  C   UNL     1      65.315  45.196  57.594  1.00  0.00     0.041 C 
ATOM      8  O   UNL     1      64.762  44.110  57.913  1.00  0.00    -0.550 OA
ATOM      9  O   UNL     1      65.798  45.370  56.303  1.00  0.00    -0.550 OA
ENDBRANCH   6   7
ENDBRANCH   5   6
ENDBRANCH   4   5
ENDBRANCH   3   4
ENDBRANCH   2   3
ENDBRANCH   1   2
BRANCH   1  10
ATOM     10  C   UNL     1      68.751  50.745  54.872  1.00  0.00     0.000 C 
BRANCH  10  11
ATOM     11  C   UNL     1      70.171  51.117  54.421  1.00  0.00    -0.000 C 
BRANCH  11  12
ATOM     12  C   UNL     1      70.278  52.622  54.135  1.00  0.00    -0.000 C 
BRANCH  12  13
ATOM     13  C   UNL     1      70.588  52.924  52.659  1.00  0.00    -0.000 C 
BRANCH  13  14
ATOM     14  C   UNL     1      70.959  51.665  51.862  1.00  0.00    -0.000 C 
BRANCH  14  15
ATOM     15  C   UNL     1      70.384  51.729  50.439  1.00  0.00    -0.000 C 
BRANCH  15  16
ATOM     16  C   UNL     1      68.861  51.535  50.407  1.00  0.00    -0.003 C 
ATOM     17  C   UNL     1      68.413  50.258  51.118  1.00  0.00     0.004 C 
ENDBRANCH  15  16
ENDBRANCH  14  15
ENDBRANCH  13  14
ENDBRANCH  12  13
ENDBRANCH  11  12
ENDBRANCH  10  11
ENDBRANCH   1  10
TORSDOF 13
ENDMDL
MODEL 5
REMARK VINA RESULT:    -3.673     17.684     20.344
REMARK INTER + INTRA:          -7.267
REMARK INTER:                  -5.313
REMARK INTRA:                  -1.954
REMARK UNBOUND:                -0.802
REMARK SMILES CCCCCCCCCCCCCCC(=O)[O-]
REMARK SMILES IDX 9 1 10 2 11 3 12 4 13 5 14 6 15 7 16 8 17 9 8 10 7 11 6 12
REMARK SMILES IDX 5 13 4 14 3 15 2 16 1 17
REMARK H PARENT
REMARK Flexibility Score: inf
ROOT
ATOM      1  C   UNL     1      69.828  51.327  51.747  1.00  0.00     0.000 C 
ENDROOT
BRANCH   1   2
ATOM      2  C   UNL     1      68.742  50.945  50.722  1.00  0.00     0.000 C 
BRANCH   2   3
ATOM      3  C   UNL     1      68.696  51.825  49.456  1.00  0.00     0.000 C 
BRANCH   3   4
ATOM      4  C   UNL     1      67.817  53.083  49.570  1.00  0.00     0.000 C 
BRANCH   4   5
ATOM      5  C   UNL     1      68.509  54.345  49.027  1.00  0.00     0.006 C 
BRANCH   5   6
ATOM      6  C   UNL     1      69.607  54.011  48.008  1.00  0.00     0.053 C 
BRANCH   6   7
ATOM      7  C   UNL     1      69.139  54.210  46.599  1.00  0.00     0.041 C 
ATOM      8  O   UNL     1      68.053  54.803  46.371  1.00  0.00    -0.550 OA
ATOM      9  O   UNL     1      69.889  53.716  45.539  1.00  0.00    -0.550 OA
ENDBRANCH   6   7
ENDBRANCH   5   6
ENDBRANCH   4   5
ENDBRANCH   3   4
ENDBRANCH   2   3
ENDBRANCH   1   2
BRANCH   1  10
ATOM     10  C   UNL     1      71.048  52.060  51.160  1.00  0.00     0.000 C 
BRANCH  10  11
ATOM     11  C   UNL     1      71.251  53.458  51.764  1.00  0.00    -0.000 C 
BRANCH  11  12
ATOM     12  C   UNL     1      69.965  53.955  52.438  1.00  0.00    -0.000 C 
BRANCH  12  13
ATOM     13  C   UNL     1      70.226  54.607  53.806  1.00  0.00    -0.000 C 
BRANCH  13  14
ATOM     14  C   UNL     1      69.641  53.797  54.972  1.00  0.00    -0.000 C 
BRANCH  14  15
ATOM     15  C   UNL     1      70.749  53.055  55.734  1.00  0.00    -0.000 C 
BRANCH  15  16
ATOM     16  C   UNL     1      70.935  51.609  55.247  1.00  0.00    -0.003 C 
ATOM     17  C   UNL     1      69.654  50.782  55.346  1.00  0.00     0.004 C 
ENDBRANCH  15  16
ENDBRANCH  14  15
ENDBRANCH  13  14
ENDBRANCH  12  13
ENDBRANCH  11  12
ENDBRANCH  10  11
ENDBRANCH   1  10
TORSDOF 13
ENDMDL
MODEL 6
REMARK VINA RESULT:    -3.660     14.170     17.228
REMARK INTER + INTRA:          -7.245
REMARK INTER:                  -6.267
REMARK INTRA:                  -0.978
REMARK UNBOUND:                -0.802
REMARK SMILES CCCCCCCCCCCCCCC(=O)[O-]
REMARK SMILES IDX 9 1 10 2 11 3 12 4 13 5 14 6 15 7 16 8 17 9 8 10 7 11 6 12
REMARK SMILES IDX 5 13 4 14 3 15 2 16 1 17
REMARK H PARENT
REMARK Flexibility Score: inf
ROOT
ATOM      1  C   UNL     1      68.751  50.585  55.107  1.00  0.00     0.000 C 
ENDROOT
BRANCH   1   2
ATOM      2  C   UNL     1      70.204  51.077  54.952  1.00  0.00     0.000 C 
BRANCH   2   3
ATOM      3  C   UNL     1      70.357  52.574  54.613  1.00  0.00     0.000 C 
BRANCH   3   4
ATOM      4  C   UNL     1      70.616  52.882  53.129  1.00  0.00     0.000 C 
BRANCH   4   5
ATOM      5  C   UNL     1      71.065  51.645  52.332  1.00  0.00     0.006 C 
BRANCH   5   6
ATOM      6  C   UNL     1      70.578  51.684  50.878  1.00  0.00     0.053 C 
BRANCH   6   7
ATOM      7  C   UNL     1      69.173  51.181  50.746  1.00  0.00     0.041 C 
ATOM      8  O   UNL     1      68.703  50.385  51.601  1.00  0.00    -0.550 OA
ATOM      9  O   UNL     1      68.392  51.569  49.664  1.00  0.00    -0.550 OA
ENDBRANCH   6   7
ENDBRANCH   5   6
ENDBRANCH   4   5
ENDBRANCH   3   4
ENDBRANCH   2   3
ENDBRANCH   1   2
BRANCH   1  10
ATOM     10  C   UNL     1      67.952  51.261  56.237  1.00  0.00     0.000 C 
BRANCH  10  11
ATOM     11  C   UNL     1      68.063  50.514  57.575  1.00  0.00    -0.000 C 
BRANCH  11  12
ATOM     12  C   UNL     1      68.349  49.023  57.347  1.00  0.00    -0.000 C 
BRANCH  12  13
ATOM     13  C   UNL     1      67.504  48.112  58.254  1.00  0.00    -0.000 C 
BRANCH  13  14
ATOM     14  C   UNL     1      66.006  48.443  58.196  1.00  0.00    -0.000 C 
BRANCH  14  15
ATOM     15  C   UNL     1      65.158  47.168  58.312  1.00  0.00    -0.000 C 
BRANCH  15  16
ATOM     16  C   UNL     1      66.008  45.888  58.286  1.00  0.00    -0.003 C 
ATOM     17  C   UNL     1      65.747  45.031  57.047  1.00  0.00     0.004 C 
ENDBRANCH  15  16
ENDBRANCH  14  15
ENDBRANCH  13  14
ENDBRANCH  12  13
ENDBRANCH  11  12
ENDBRANCH  10  11
ENDBRANCH   1  10
TORSDOF 13
ENDMDL
MODEL 7
REMARK VINA RESULT:    -3.659     13.009     16.040
REMARK INTER + INTRA:          -7.243
REMARK INTER:                  -6.650
REMARK INTRA:                  -0.592
REMARK UNBOUND:                -0.802
REMARK SMILES CCCCCCCCCCCCCCC(=O)[O-]
REMARK SMILES IDX 9 1 10 2 11 3 12 4 13 5 14 6 15 7 16 8 17 9 8 10 7 11 6 12
REMARK SMILES IDX 5 13 4 14 3 15 2 16 1 17
REMARK H PARENT
REMARK Flexibility Score: inf
ROOT
ATOM      1  C   UNL     1      69.162  49.018  56.871  1.00  0.00     0.000 C 
ENDROOT
BRANCH   1   2
ATOM      2  C   UNL     1      69.951  50.239  56.359  1.00  0.00     0.000 C 
BRANCH   2   3
ATOM      3  C   UNL     1      69.651  50.651  54.903  1.00  0.00     0.000 C 
BRANCH   3   4
ATOM      4  C   UNL     1      70.634  51.667  54.299  1.00  0.00     0.000 C 
BRANCH   4   5
ATOM      5  C   UNL     1      70.930  51.400  52.813  1.00  0.00     0.006 C 
BRANCH   5   6
ATOM      6  C   UNL     1      69.986  52.176  51.885  1.00  0.00     0.053 C 
BRANCH   6   7
ATOM      7  C   UNL     1      69.145  51.258  51.051  1.00  0.00     0.041 C 
ATOM      8  O   UNL     1      69.087  51.413  49.803  1.00  0.00    -0.550 OA
ATOM      9  O   UNL     1      68.403  50.251  51.656  1.00  0.00    -0.550 OA
ENDBRANCH   6   7
ENDBRANCH   5   6
ENDBRANCH   4   5
ENDBRANCH   3   4
ENDBRANCH   2   3
ENDBRANCH   1   2
BRANCH   1  10
ATOM     10  C   UNL     1      67.667  49.273  57.136  1.00  0.00     0.000 C 
BRANCH  10  11
ATOM     11  C   UNL     1      67.087  48.349  58.218  1.00  0.00    -0.000 C 
BRANCH  11  12
ATOM     12  C   UNL     1      65.983  47.453  57.639  1.00  0.00    -0.000 C 
BRANCH  12  13
ATOM     13  C   UNL     1      65.294  46.594  58.712  1.00  0.00    -0.000 C 
BRANCH  13  14
ATOM     14  C   UNL     1      64.959  45.180  58.215  1.00  0.00    -0.000 C 
BRANCH  14  15
ATOM     15  C   UNL     1      65.719  44.861  56.919  1.00  0.00    -0.000 C 
BRANCH  15  16
ATOM     16  C   UNL     1      66.044  43.366  56.777  1.00  0.00    -0.003 C 
ATOM     17  C   UNL     1      66.440  42.719  58.104  1.00  0.00     0.004 C 
ENDBRANCH  15  16
ENDBRANCH  14  15
ENDBRANCH  13  14
ENDBRANCH  12  13
ENDBRANCH  11  12
ENDBRANCH  10  11
ENDBRANCH   1  10
TORSDOF 13
ENDMDL
MODEL 8
REMARK VINA RESULT:    -3.605     17.139     19.152
REMARK INTER + INTRA:          -7.147
REMARK INTER:                  -5.307
REMARK INTRA:                  -1.841
REMARK UNBOUND:                -0.802
REMARK SMILES CCCCCCCCCCCCCCC(=O)[O-]
REMARK SMILES IDX 9 1 10 2 11 3 12 4 13 5 14 6 15 7 16 8 17 9 8 10 7 11 6 12
REMARK SMILES IDX 5 13 4 14 3 15 2 16 1 17
REMARK H PARENT
REMARK Flexibility Score: inf
ROOT
ATOM      1  C   UNL     1      70.716  54.702  51.566  1.00  0.00     0.000 C 
ENDROOT
BRANCH   1   2
ATOM      2  C   UNL     1      70.491  53.597  52.616  1.00  0.00     0.000 C 
BRANCH   2   3
ATOM      3  C   UNL     1      71.235  52.274  52.347  1.00  0.00     0.000 C 
BRANCH   3   4
ATOM      4  C   UNL     1      70.771  51.080  53.199  1.00  0.00     0.000 C 
BRANCH   4   5
ATOM      5  C   UNL     1      71.338  51.111  54.628  1.00  0.00     0.006 C 
BRANCH   5   6
ATOM      6  C   UNL     1      70.320  50.619  55.666  1.00  0.00     0.053 C 
BRANCH   6   7
ATOM      7  C   UNL     1      69.156  51.553  55.792  1.00  0.00     0.041 C 
ATOM      8  O   UNL     1      67.983  51.128  55.625  1.00  0.00    -0.550 OA
ATOM      9  O   UNL     1      69.368  52.898  56.066  1.00  0.00    -0.550 OA
ENDBRANCH   6   7
ENDBRANCH   5   6
ENDBRANCH   4   5
ENDBRANCH   3   4
ENDBRANCH   2   3
ENDBRANCH   1   2
BRANCH   1  10
ATOM     10  C   UNL     1      72.083  54.659  50.859  1.00  0.00     0.000 C 
BRANCH  10  11
ATOM     11  C   UNL     1      71.972  54.299  49.369  1.00  0.00    -0.000 C 
BRANCH  11  12
ATOM     12  C   UNL     1      70.784  55.023  48.718  1.00  0.00    -0.000 C 
BRANCH  12  13
ATOM     13  C   UNL     1      69.800  54.055  48.041  1.00  0.00    -0.000 C 
BRANCH  13  14
ATOM     14  C   UNL     1      68.364  54.208  48.563  1.00  0.00    -0.000 C 
BRANCH  14  15
ATOM     15  C   UNL     1      68.045  53.135  49.615  1.00  0.00    -0.000 C 
BRANCH  15  16
ATOM     16  C   UNL     1      68.969  51.912  49.510  1.00  0.00    -0.003 C 
ATOM     17  C   UNL     1      68.482  50.730  50.348  1.00  0.00     0.004 C 
ENDBRANCH  15  16
ENDBRANCH  14  15
ENDBRANCH  13  14
ENDBRANCH  12  13
ENDBRANCH  11  12
ENDBRANCH  10  11
ENDBRANCH   1  10
TORSDOF 13
ENDMDL
MODEL 9
REMARK VINA RESULT:    -3.597      1.432      2.090
REMARK INTER + INTRA:          -7.133
REMARK INTER:                  -6.216
REMARK INTRA:                  -0.918
REMARK UNBOUND:                -0.802
REMARK SMILES CCCCCCCCCCCCCCC(=O)[O-]
REMARK SMILES IDX 9 1 10 2 11 3 12 4 13 5 14 6 15 7 16 8 17 9 8 10 7 11 6 12
REMARK SMILES IDX 5 13 4 14 3 15 2 16 1 17
REMARK H PARENT
REMARK Flexibility Score: inf
ROOT
ATOM      1  C   UNL     1      57.554  36.317  51.867  1.00  0.00     0.000 C 
ENDROOT
BRANCH   1   2
ATOM      2  C   UNL     1      57.235  36.984  53.221  1.00  0.00     0.000 C 
BRANCH   2   3
ATOM      3  C   UNL     1      58.347  36.875  54.283  1.00  0.00     0.000 C 
BRANCH   3   4
ATOM      4  C   UNL     1      58.339  37.984  55.349  1.00  0.00     0.000 C 
BRANCH   4   5
ATOM      5  C   UNL     1      59.647  38.046  56.156  1.00  0.00     0.006 C 
BRANCH   5   6
ATOM      6  C   UNL     1      60.534  36.816  55.918  1.00  0.00     0.053 C 
BRANCH   6   7
ATOM      7  C   UNL     1      61.341  36.469  57.131  1.00  0.00     0.041 C 
ATOM      8  O   UNL     1      61.349  35.288  57.569  1.00  0.00    -0.550 OA
ATOM      9  O   UNL     1      62.062  37.453  57.795  1.00  0.00    -0.550 OA
ENDBRANCH   6   7
ENDBRANCH   5   6
ENDBRANCH   4   5
ENDBRANCH   3   4
ENDBRANCH   2   3
ENDBRANCH   1   2
BRANCH   1  10
ATOM     10  C   UNL     1      58.744  35.341  51.886  1.00  0.00     0.000 C 
BRANCH  10  11
ATOM     11  C   UNL     1      59.274  35.020  50.481  1.00  0.00    -0.000 C 
BRANCH  11  12
ATOM     12  C   UNL     1      58.611  35.918  49.427  1.00  0.00    -0.000 C 
BRANCH  12  13
ATOM     13  C   UNL     1      58.704  35.334  48.007  1.00  0.00    -0.000 C 
BRANCH  13  14
ATOM     14  C   UNL     1      59.693  36.097  47.115  1.00  0.00    -0.000 C 
BRANCH  14  15
ATOM     15  C   UNL     1      61.115  35.536  47.268  1.00  0.00    -0.000 C 
BRANCH  15  16
ATOM     16  C   UNL     1      61.982  36.373  48.221  1.00  0.00    -0.003 C 
ATOM     17  C   UNL     1      61.644  37.863  48.173  1.00  0.00     0.004 C 
ENDBRANCH  15  16
ENDBRANCH  14  15
ENDBRANCH  13  14
ENDBRANCH  12  13
ENDBRANCH  11  12
ENDBRANCH  10  11
ENDBRANCH   1  10
TORSDOF 13
ENDMDL
