MODEL 1
REMARK VINA RESULT:    -3.781      0.000      0.000
REMARK INTER + INTRA:          -5.079
REMARK INTER:                  -5.328
REMARK INTRA:                   0.249
REMARK UNBOUND:                 0.249
REMARK SMILES CC1=CCC(=C(C)C)C(=O)CC(C)=CCC1
REMARK SMILES IDX 12 1 14 2 13 3 15 4 16 5 2 6 1 7 3 8 11 10 9 11 10 12 5 13
REMARK SMILES IDX 6 14 7 15 8 16 4 17
REMARK H PARENT
REMARK Flexibility Score: 60.00
ROOT
ATOM      1  C   UNL     1      20.947  33.355  30.301  1.00  0.00    -0.070 C 
ATOM      2  C   UNL     1      19.989  33.721  29.419  1.00  0.00    -0.027 C 
ATOM      3  C   UNL     1      22.382  33.370  29.839  1.00  0.00     0.039 C 
ENDROOT
BRANCH   2   4
ATOM      4  C   UNL     1      18.531  33.904  29.753  1.00  0.00     0.032 C 
BRANCH   4   5
ATOM      5  C   UNL     1      17.675  32.993  28.864  1.00  0.00     0.034 C 
BRANCH   5   6
ATOM      6  C   UNL     1      17.117  31.803  29.620  1.00  0.00    -0.077 C 
ATOM      7  C   UNL     1      15.684  31.853  30.088  1.00  0.00     0.039 C 
ATOM      8  C   UNL     1      17.857  30.721  29.966  1.00  0.00    -0.023 CG0
ATOM      9  G   UNL     1      19.289  30.416  29.568  1.00  0.00     0.000 G0
ENDBRANCH   5   6
ENDBRANCH   4   5
ENDBRANCH   2   4
BRANCH   1  10
ATOM     10  C   UNL     1      20.649  32.913  31.720  1.00  0.00     0.111 C 
BRANCH  10  11
ATOM     11  C   UNL     1      20.132  31.495  31.772  1.00  0.00     0.163 C 
ATOM     12  O   UNL     1      19.510  31.148  32.813  1.00  0.00    -0.294 OA
BRANCH  11  13
ATOM     13  C   UNL     1      20.338  30.491  30.675  1.00  0.00    -0.002 C 
ATOM     14  C   UNL     1      21.509  29.788  30.586  1.00  0.00    -0.069 C 
ATOM     15  C   UNL     1      21.848  28.945  29.377  1.00  0.00     0.039 C 
ATOM     16  C   UNL     1      22.509  29.774  31.720  1.00  0.00     0.039 C 
BRANCH  13  17
ATOM     17  C   UNL     1      19.287  30.416  29.573  1.00  0.00     0.066 CG0
ATOM     18  G   UNL     1      17.857  30.717  29.982  1.00  0.00     0.000 G0
ENDBRANCH  13  17
ENDBRANCH  11  13
ENDBRANCH  10  11
ENDBRANCH   1  10
TORSDOF 0
ENDMDL
MODEL 2
REMARK VINA RESULT:    -3.615      6.859      9.195
REMARK INTER + INTRA:          -4.845
REMARK INTER:                  -5.308
REMARK INTRA:                   0.464
REMARK UNBOUND:                 0.249
REMARK SMILES CC1=CCC(=C(C)C)C(=O)CC(C)=CCC1
REMARK SMILES IDX 12 1 14 2 13 3 15 4 16 5 2 6 1 7 3 8 11 10 9 11 10 12 5 13
REMARK SMILES IDX 6 14 7 15 8 16 4 17
REMARK H PARENT
REMARK Flexibility Score: 60.00
ROOT
ATOM      1  C   UNL     1      29.664  33.226  31.951  1.00  0.00    -0.070 C 
ATOM      2  C   UNL     1      29.792  33.694  30.689  1.00  0.00    -0.027 C 
ATOM      3  C   UNL     1      30.857  33.320  32.868  1.00  0.00     0.039 C 
ENDROOT
BRANCH   2   4
ATOM      4  C   UNL     1      28.667  33.813  29.693  1.00  0.00     0.032 C 
BRANCH   4   5
ATOM      5  C   UNL     1      29.106  33.236  28.341  1.00  0.00     0.034 C 
BRANCH   5   6
ATOM      6  C   UNL     1      29.333  31.738  28.396  1.00  0.00    -0.077 C 
ATOM      7  C   UNL     1      30.619  31.182  27.839  1.00  0.00     0.039 C 
ATOM      8  C   UNL     1      28.410  30.857  28.854  1.00  0.00    -0.023 CG0
ATOM      9  G   UNL     1      27.078  31.172  29.511  1.00  0.00     0.000 G0
ENDBRANCH   5   6
ENDBRANCH   4   5
ENDBRANCH   2   4
BRANCH   1  10
ATOM     10  C   UNL     1      28.392  32.593  32.481  1.00  0.00     0.111 C 
BRANCH  10  11
ATOM     11  C   UNL     1      28.147  31.231  31.878  1.00  0.00     0.163 C 
ATOM     12  O   UNL     1      29.011  30.340  32.102  1.00  0.00    -0.294 OA
BRANCH  11  13
ATOM     13  C   UNL     1      26.959  30.897  31.022  1.00  0.00    -0.002 C 
ATOM     14  C   UNL     1      25.887  30.231  31.550  1.00  0.00    -0.069 C 
ATOM     15  C   UNL     1      24.781  29.674  30.681  1.00  0.00     0.039 C 
ATOM     16  C   UNL     1      25.721  30.058  33.043  1.00  0.00     0.039 C 
BRANCH  13  17
ATOM     17  C   UNL     1      27.066  31.159  29.524  1.00  0.00     0.066 CG0
ATOM     18  G   UNL     1      28.410  30.870  28.881  1.00  0.00     0.000 G0
ENDBRANCH  13  17
ENDBRANCH  11  13
ENDBRANCH  10  11
ENDBRANCH   1  10
TORSDOF 0
ENDMDL
MODEL 3
REMARK VINA RESULT:    -3.605      6.784      9.450
REMARK INTER + INTRA:          -4.831
REMARK INTER:                  -5.042
REMARK INTRA:                   0.211
REMARK UNBOUND:                 0.249
REMARK SMILES CC1=CCC(=C(C)C)C(=O)CC(C)=CCC1
REMARK SMILES IDX 12 1 14 2 13 3 15 4 16 5 2 6 1 7 3 8 11 10 9 11 10 12 5 13
REMARK SMILES IDX 6 14 7 15 8 16 4 17
REMARK H PARENT
REMARK Flexibility Score: 60.00
ROOT
ATOM      1  C   UNL     1      28.148  31.183  32.310  1.00  0.00    -0.070 C 
ATOM      2  C   UNL     1      29.374  30.696  32.012  1.00  0.00    -0.027 C 
ATOM      3  C   UNL     1      27.187  30.285  33.047  1.00  0.00     0.039 C 
ENDROOT
BRANCH   2   4
ATOM      4  C   UNL     1      30.501  31.499  31.415  1.00  0.00     0.032 C 
BRANCH   4   5
ATOM      5  C   UNL     1      30.816  30.986  30.005  1.00  0.00     0.034 C 
BRANCH   5   6
ATOM      6  C   UNL     1      30.274  31.898  28.922  1.00  0.00    -0.077 C 
ATOM      7  C   UNL     1      31.179  32.965  28.357  1.00  0.00     0.039 C 
ATOM      8  C   UNL     1      28.993  31.858  28.479  1.00  0.00    -0.023 CG0
ATOM      9  G   UNL     1      27.921  30.850  28.848  1.00  0.00     0.000 G0
ENDBRANCH   5   6
ENDBRANCH   4   5
ENDBRANCH   2   4
BRANCH   1  10
ATOM     10  C   UNL     1      27.686  32.574  31.923  1.00  0.00     0.111 C 
BRANCH  10  11
ATOM     11  C   UNL     1      27.039  32.594  30.559  1.00  0.00     0.163 C 
ATOM     12  O   UNL     1      26.683  33.717  30.108  1.00  0.00    -0.294 OA
BRANCH  11  13
ATOM     13  C   UNL     1      26.784  31.363  29.737  1.00  0.00    -0.002 C 
ATOM     14  C   UNL     1      25.637  30.637  29.910  1.00  0.00    -0.069 C 
ATOM     15  C   UNL     1      25.445  29.277  29.277  1.00  0.00     0.039 C 
ATOM     16  C   UNL     1      24.470  31.181  30.704  1.00  0.00     0.039 C 
BRANCH  13  17
ATOM     17  C   UNL     1      27.913  30.855  28.849  1.00  0.00     0.066 CG0
ATOM     18  G   UNL     1      28.991  31.859  28.484  1.00  0.00     0.000 G0
ENDBRANCH  13  17
ENDBRANCH  11  13
ENDBRANCH  10  11
ENDBRANCH   1  10
TORSDOF 0
ENDMDL
MODEL 4
REMARK VINA RESULT:    -3.513      2.382      4.907
REMARK INTER + INTRA:          -4.702
REMARK INTER:                  -4.573
REMARK INTRA:                  -0.129
REMARK UNBOUND:                 0.249
REMARK SMILES CC1=CCC(=C(C)C)C(=O)CC(C)=CCC1
REMARK SMILES IDX 12 1 14 2 13 3 15 4 16 5 2 6 1 7 3 8 11 10 9 11 10 12 5 13
REMARK SMILES IDX 6 14 7 15 8 16 4 17
REMARK H PARENT
REMARK Flexibility Score: 60.00
ROOT
ATOM      1  C   UNL     1      24.128  29.346  30.023  1.00  0.00    -0.070 C 
ATOM      2  C   UNL     1      24.903  30.423  30.284  1.00  0.00    -0.027 C 
ATOM      3  C   UNL     1      24.639  28.324  29.039  1.00  0.00     0.039 C 
ENDROOT
BRANCH   2   4
ATOM      4  C   UNL     1      24.617  31.458  31.341  1.00  0.00     0.032 C 
BRANCH   4   5
ATOM      5  C   UNL     1      24.047  32.724  30.689  1.00  0.00     0.034 C 
BRANCH   5   6
ATOM      6  C   UNL     1      22.830  33.255  31.421  1.00  0.00    -0.077 C 
ATOM      7  C   UNL     1      23.040  34.124  32.635  1.00  0.00     0.039 C 
ATOM      8  C   UNL     1      21.555  32.933  31.088  1.00  0.00    -0.023 CG0
ATOM      9  G   UNL     1      21.090  32.130  29.887  1.00  0.00     0.000 G0
ENDBRANCH   5   6
ENDBRANCH   4   5
ENDBRANCH   2   4
BRANCH   1  10
ATOM     10  C   UNL     1      22.767  29.126  30.654  1.00  0.00     0.111 C 
BRANCH  10  11
ATOM     11  C   UNL     1      21.648  29.605  29.760  1.00  0.00     0.163 C 
ATOM     12  O   UNL     1      21.558  29.076  28.619  1.00  0.00    -0.294 OA
BRANCH  11  13
ATOM     13  C   UNL     1      20.670  30.677  30.148  1.00  0.00    -0.002 C 
ATOM     14  C   UNL     1      19.408  30.350  30.563  1.00  0.00    -0.069 C 
ATOM     15  C   UNL     1      18.326  31.391  30.738  1.00  0.00     0.039 C 
ATOM     16  C   UNL     1      19.038  28.927  30.920  1.00  0.00     0.039 C 
BRANCH  13  17
ATOM     17  C   UNL     1      21.065  32.126  29.891  1.00  0.00     0.066 CG0
ATOM     18  G   UNL     1      21.563  32.914  31.089  1.00  0.00     0.000 G0
ENDBRANCH  13  17
ENDBRANCH  11  13
ENDBRANCH  10  11
ENDBRANCH   1  10
TORSDOF 0
ENDMDL
MODEL 5
REMARK VINA RESULT:    -3.429      1.548      3.237
REMARK INTER + INTRA:          -4.584
REMARK INTER:                  -4.904
REMARK INTRA:                   0.320
REMARK UNBOUND:                 0.249
REMARK SMILES CC1=CCC(=C(C)C)C(=O)CC(C)=CCC1
REMARK SMILES IDX 12 1 14 2 13 3 15 4 16 5 2 6 1 7 3 8 11 10 9 11 10 12 5 13
REMARK SMILES IDX 6 14 7 15 8 16 4 17
REMARK H PARENT
REMARK Flexibility Score: 60.00
ROOT
ATOM      1  C   UNL     1      17.363  31.055  29.534  1.00  0.00    -0.070 C 
ATOM      2  C   UNL     1      17.471  32.401  29.466  1.00  0.00    -0.027 C 
ATOM      3  C   UNL     1      16.066  30.469  30.031  1.00  0.00     0.039 C 
ENDROOT
BRANCH   2   4
ATOM      4  C   UNL     1      18.632  33.146  28.859  1.00  0.00     0.032 C 
BRANCH   4   5
ATOM      5  C   UNL     1      19.217  34.123  29.886  1.00  0.00     0.034 C 
BRANCH   5   6
ATOM      6  C   UNL     1      19.381  33.494  31.257  1.00  0.00    -0.077 C 
ATOM      7  C   UNL     1      18.567  34.040  32.403  1.00  0.00     0.039 C 
ATOM      8  C   UNL     1      20.275  32.512  31.528  1.00  0.00    -0.023 CG0
ATOM      9  G   UNL     1      21.157  31.768  30.542  1.00  0.00     0.000 G0
ENDBRANCH   5   6
ENDBRANCH   4   5
ENDBRANCH   2   4
BRANCH   1  10
ATOM     10  C   UNL     1      18.486  30.108  29.155  1.00  0.00     0.111 C 
BRANCH  10  11
ATOM     11  C   UNL     1      19.425  29.858  30.311  1.00  0.00     0.163 C 
ATOM     12  O   UNL     1      18.947  29.277  31.323  1.00  0.00    -0.294 OA
BRANCH  11  13
ATOM     13  C   UNL     1      20.866  30.279  30.323  1.00  0.00    -0.002 C 
ATOM     14  C   UNL     1      21.865  29.344  30.308  1.00  0.00    -0.069 C 
ATOM     15  C   UNL     1      23.311  29.710  30.552  1.00  0.00     0.039 C 
ATOM     16  C   UNL     1      21.581  27.891  29.993  1.00  0.00     0.039 C 
BRANCH  13  17
ATOM     17  C   UNL     1      21.173  31.757  30.536  1.00  0.00     0.066 CG0
ATOM     18  G   UNL     1      20.283  32.498  31.517  1.00  0.00     0.000 G0
ENDBRANCH  13  17
ENDBRANCH  11  13
ENDBRANCH  10  11
ENDBRANCH   1  10
TORSDOF 0
ENDMDL
MODEL 6
REMARK VINA RESULT:    -3.420      2.982      5.220
REMARK INTER + INTRA:          -4.570
REMARK INTER:                  -4.523
REMARK INTRA:                  -0.047
REMARK UNBOUND:                 0.249
REMARK SMILES CC1=CCC(=C(C)C)C(=O)CC(C)=CCC1
REMARK SMILES IDX 12 1 14 2 13 3 15 4 16 5 2 6 1 7 3 8 11 10 9 11 10 12 5 13
REMARK SMILES IDX 6 14 7 15 8 16 4 17
REMARK H PARENT
REMARK Flexibility Score: 60.00
ROOT
ATOM      1  C   UNL     1      24.046  28.554  29.117  1.00  0.00    -0.070 C 
ATOM      2  C   UNL     1      22.730  28.251  29.173  1.00  0.00    -0.027 C 
ATOM      3  C   UNL     1      25.015  27.456  28.759  1.00  0.00     0.039 C 
ENDROOT
BRANCH   2   4
ATOM      4  C   UNL     1      21.620  29.250  29.368  1.00  0.00     0.032 C 
BRANCH   4   5
ATOM      5  C   UNL     1      21.272  29.357  30.858  1.00  0.00     0.034 C 
BRANCH   5   6
ATOM      6  C   UNL     1      20.882  30.766  31.263  1.00  0.00    -0.077 C 
ATOM      7  C   UNL     1      19.542  31.298  30.821  1.00  0.00     0.039 C 
ATOM      8  C   UNL     1      21.702  31.605  31.942  1.00  0.00    -0.023 CG0
ATOM      9  G   UNL     1      23.060  31.286  32.539  1.00  0.00     0.000 G0
ENDBRANCH   5   6
ENDBRANCH   4   5
ENDBRANCH   2   4
BRANCH   1  10
ATOM     10  C   UNL     1      24.597  29.935  29.415  1.00  0.00     0.111 C 
BRANCH  10  11
ATOM     11  C   UNL     1      24.750  30.172  30.898  1.00  0.00     0.163 C 
ATOM     12  O   UNL     1      25.291  29.255  31.574  1.00  0.00    -0.294 OA
BRANCH  11  13
ATOM     13  C   UNL     1      24.278  31.413  31.599  1.00  0.00    -0.002 C 
ATOM     14  C   UNL     1      25.002  32.572  31.527  1.00  0.00    -0.069 C 
ATOM     15  C   UNL     1      24.691  33.768  32.398  1.00  0.00     0.039 C 
ATOM     16  C   UNL     1      26.127  32.738  30.530  1.00  0.00     0.039 C 
BRANCH  13  17
ATOM     17  C   UNL     1      23.078  31.290  32.532  1.00  0.00     0.066 CG0
ATOM     18  G   UNL     1      21.721  31.612  31.935  1.00  0.00     0.000 G0
ENDBRANCH  13  17
ENDBRANCH  11  13
ENDBRANCH  10  11
ENDBRANCH   1  10
TORSDOF 0
ENDMDL
MODEL 7
REMARK VINA RESULT:    -3.208      5.353      7.538
REMARK INTER + INTRA:          -4.272
REMARK INTER:                  -4.549
REMARK INTRA:                   0.277
REMARK UNBOUND:                 0.249
REMARK SMILES CC1=CCC(=C(C)C)C(=O)CC(C)=CCC1
REMARK SMILES IDX 12 1 14 2 13 3 15 4 16 5 2 6 1 7 3 8 11 10 9 11 10 12 5 13
REMARK SMILES IDX 6 14 7 15 8 16 4 17
REMARK H PARENT
REMARK Flexibility Score: 60.00
ROOT
ATOM      1  C   UNL     1      25.708  30.527  30.964  1.00  0.00    -0.070 C 
ATOM      2  C   UNL     1      24.572  31.095  31.430  1.00  0.00    -0.027 C 
ATOM      3  C   UNL     1      25.693  29.946  29.573  1.00  0.00     0.039 C 
ENDROOT
BRANCH   2   4
ATOM      4  C   UNL     1      24.453  31.849  32.730  1.00  0.00     0.032 C 
BRANCH   4   5
ATOM      5  C   UNL     1      24.398  33.357  32.454  1.00  0.00     0.034 C 
BRANCH   5   6
ATOM      6  C   UNL     1      24.392  33.675  30.971  1.00  0.00    -0.077 C 
ATOM      7  C   UNL     1      23.073  33.686  30.240  1.00  0.00     0.039 C 
ATOM      8  C   UNL     1      25.518  33.880  30.244  1.00  0.00    -0.023 CG0
ATOM      9  G   UNL     1      26.944  33.974  30.757  1.00  0.00     0.000 G0
ENDBRANCH   5   6
ENDBRANCH   4   5
ENDBRANCH   2   4
BRANCH   1  10
ATOM     10  C   UNL     1      26.984  30.427  31.776  1.00  0.00     0.111 C 
BRANCH  10  11
ATOM     11  C   UNL     1      27.726  31.741  31.823  1.00  0.00     0.163 C 
ATOM     12  O   UNL     1      28.295  32.041  32.908  1.00  0.00    -0.294 OA
BRANCH  11  13
ATOM     13  C   UNL     1      27.800  32.701  30.671  1.00  0.00    -0.002 C 
ATOM     14  C   UNL     1      28.713  32.516  29.669  1.00  0.00    -0.069 C 
ATOM     15  C   UNL     1      28.978  33.573  28.620  1.00  0.00     0.039 C 
ATOM     16  C   UNL     1      29.474  31.217  29.524  1.00  0.00     0.039 C 
BRANCH  13  17
ATOM     17  C   UNL     1      26.961  33.971  30.749  1.00  0.00     0.066 CG0
ATOM     18  G   UNL     1      25.534  33.872  30.240  1.00  0.00     0.000 G0
ENDBRANCH  13  17
ENDBRANCH  11  13
ENDBRANCH  10  11
ENDBRANCH   1  10
TORSDOF 0
ENDMDL
MODEL 8
REMARK VINA RESULT:    -3.138      2.031      3.938
REMARK INTER + INTRA:          -4.173
REMARK INTER:                  -4.501
REMARK INTRA:                   0.328
REMARK UNBOUND:                 0.249
REMARK SMILES CC1=CCC(=C(C)C)C(=O)CC(C)=CCC1
REMARK SMILES IDX 12 1 14 2 13 3 15 4 16 5 2 6 1 7 3 8 11 10 9 11 10 12 5 13
REMARK SMILES IDX 6 14 7 15 8 16 4 17
REMARK H PARENT
REMARK Flexibility Score: 60.00
ROOT
ATOM      1  C   UNL     1      23.141  29.339  30.251  1.00  0.00    -0.070 C 
ATOM      2  C   UNL     1      22.022  29.041  29.553  1.00  0.00    -0.027 C 
ATOM      3  C   UNL     1      24.472  29.183  29.560  1.00  0.00     0.039 C 
ENDROOT
BRANCH   2   4
ATOM      4  C   UNL     1      20.614  29.279  30.035  1.00  0.00     0.032 C 
BRANCH   4   5
ATOM      5  C   UNL     1      20.012  30.487  29.306  1.00  0.00     0.034 C 
BRANCH   5   6
ATOM      6  C   UNL     1      19.719  31.642  30.243  1.00  0.00    -0.077 C 
ATOM      7  C   UNL     1      18.382  31.686  30.940  1.00  0.00     0.039 C 
ATOM      8  C   UNL     1      20.566  32.684  30.436  1.00  0.00    -0.023 CG0
ATOM      9  G   UNL     1      21.976  32.838  29.897  1.00  0.00     0.000 G0
ENDBRANCH   5   6
ENDBRANCH   4   5
ENDBRANCH   2   4
BRANCH   1  10
ATOM     10  C   UNL     1      23.126  29.800  31.695  1.00  0.00     0.111 C 
BRANCH  10  11
ATOM     11  C   UNL     1      22.763  31.261  31.816  1.00  0.00     0.163 C 
ATOM     12  O   UNL     1      22.116  31.609  32.842  1.00  0.00    -0.294 OA
BRANCH  11  13
ATOM     13  C   UNL     1      23.108  32.296  30.785  1.00  0.00    -0.002 C 
ATOM     14  C   UNL     1      24.355  32.858  30.753  1.00  0.00    -0.069 C 
ATOM     15  C   UNL     1      24.672  34.059  29.890  1.00  0.00     0.039 C 
ATOM     16  C   UNL     1      25.504  32.274  31.544  1.00  0.00     0.039 C 
BRANCH  13  17
ATOM     17  C   UNL     1      21.981  32.825  29.904  1.00  0.00     0.066 CG0
ATOM     18  G   UNL     1      20.571  32.672  30.445  1.00  0.00     0.000 G0
ENDBRANCH  13  17
ENDBRANCH  11  13
ENDBRANCH  10  11
ENDBRANCH   1  10
TORSDOF 0
ENDMDL
MODEL 9
REMARK VINA RESULT:    -3.047      1.722      4.117
REMARK INTER + INTRA:          -4.045
REMARK INTER:                  -4.651
REMARK INTRA:                   0.606
REMARK UNBOUND:                 0.249
REMARK SMILES CC1=CCC(=C(C)C)C(=O)CC(C)=CCC1
REMARK SMILES IDX 12 1 14 2 13 3 15 4 16 5 2 6 1 7 3 8 11 10 9 11 10 12 5 13
REMARK SMILES IDX 6 14 7 15 8 16 4 17
REMARK H PARENT
REMARK Flexibility Score: 60.00
ROOT
ATOM      1  C   UNL     1      20.168  33.908  31.446  1.00  0.00    -0.070 C 
ATOM      2  C   UNL     1      21.330  33.614  32.073  1.00  0.00    -0.027 C 
ATOM      3  C   UNL     1      18.932  34.093  32.288  1.00  0.00     0.039 C 
ENDROOT
BRANCH   2   4
ATOM      4  C   UNL     1      22.679  33.542  31.406  1.00  0.00     0.032 C 
BRANCH   4   5
ATOM      5  C   UNL     1      22.768  32.273  30.549  1.00  0.00     0.034 C 
BRANCH   5   6
ATOM      6  C   UNL     1      22.099  31.081  31.206  1.00  0.00    -0.077 C 
ATOM      7  C   UNL     1      22.693  30.532  32.479  1.00  0.00     0.039 C 
ATOM      8  C   UNL     1      21.034  30.432  30.674  1.00  0.00    -0.023 CG0
ATOM      9  G   UNL     1      20.234  30.823  29.446  1.00  0.00     0.000 G0
ENDBRANCH   5   6
ENDBRANCH   4   5
ENDBRANCH   2   4
BRANCH   1  10
ATOM     10  C   UNL     1      20.044  34.038  29.940  1.00  0.00     0.111 C 
BRANCH  10  11
ATOM     11  C   UNL     1      19.004  33.099  29.377  1.00  0.00     0.163 C 
ATOM     12  O   UNL     1      18.118  33.603  28.635  1.00  0.00    -0.294 OA
BRANCH  11  13
ATOM     13  C   UNL     1      18.962  31.627  29.670  1.00  0.00    -0.002 C 
ATOM     14  C   UNL     1      17.871  31.070  30.279  1.00  0.00    -0.069 C 
ATOM     15  C   UNL     1      17.881  29.650  30.799  1.00  0.00     0.039 C 
ATOM     16  C   UNL     1      16.572  31.831  30.422  1.00  0.00     0.039 C 
BRANCH  13  17
ATOM     17  C   UNL     1      20.233  30.819  29.435  1.00  0.00     0.066 CG0
ATOM     18  G   UNL     1      21.031  30.440  30.669  1.00  0.00     0.000 G0
ENDBRANCH  13  17
ENDBRANCH  11  13
ENDBRANCH  10  11
ENDBRANCH   1  10
TORSDOF 0
ENDMDL
