MODEL 1
REMARK VINA RESULT:    -4.776      0.000      0.000
REMARK INTER + INTRA:          -6.235
REMARK INTER:                  -5.892
REMARK INTRA:                  -0.342
REMARK UNBOUND:                -0.342
REMARK SMILES O=C1c2c(O)cc(O)cc2O[C@H](c2cc(O)c(O)c(O)c2)[C@@H]1O
REMARK SMILES IDX 12 1 22 2 2 3 1 4 3 5 4 6 6 7 7 8 9 9 10 10 11 11 13 12
REMARK SMILES IDX 14 13 15 14 21 15 17 16 19 17 16 18 18 20 20 22 23 24 5 26
REMARK SMILES IDX 8 28
REMARK H PARENT 16 19 18 21 20 23 23 25 5 27 8 29
REMARK Flexibility Score: inf
ROOT
ATOM      1  C   UNL     1      22.886   3.419  27.465  1.00  0.00     0.240 C 
ATOM      2  C   UNL     1      21.844   3.546  26.334  1.00  0.00     0.231 C 
ATOM      3  C   UNL     1      21.960   4.911  25.707  1.00  0.00     0.202 C 
ATOM      4  O   UNL     1      20.913   5.565  25.461  1.00  0.00    -0.291 OA
ATOM      5  C   UNL     1      23.311   5.475  25.451  1.00  0.00     0.105 A 
ATOM      6  C   UNL     1      23.568   6.551  24.560  1.00  0.00     0.133 A 
ATOM      7  C   UNL     1      24.869   7.054  24.444  1.00  0.00     0.093 A 
ATOM      8  C   UNL     1      25.928   6.474  25.145  1.00  0.00     0.123 A 
ATOM      9  C   UNL     1      25.689   5.383  25.985  1.00  0.00     0.093 A 
ATOM     10  C   UNL     1      24.392   4.891  26.149  1.00  0.00     0.138 A 
ATOM     11  O   UNL     1      24.185   3.803  27.008  1.00  0.00    -0.481 OA
ENDROOT
BRANCH   1  12
ATOM     12  C   UNL     1      22.913   2.021  28.042  1.00  0.00     0.003 A 
ATOM     13  C   UNL     1      23.951   1.143  27.697  1.00  0.00     0.058 A 
ATOM     14  C   UNL     1      24.013  -0.142  28.247  1.00  0.00     0.161 A 
ATOM     15  C   UNL     1      21.946   1.604  28.973  1.00  0.00     0.058 A 
ATOM     16  C   UNL     1      23.035  -0.559  29.164  1.00  0.00     0.200 A 
ATOM     17  C   UNL     1      22.000   0.319  29.530  1.00  0.00     0.161 A 
BRANCH  14  18
ATOM     18  O   UNL     1      25.056  -0.988  27.871  1.00  0.00    -0.504 OA
ATOM     19  H   UNL     1      26.028  -0.727  27.984  1.00  0.00     0.293 HD
ENDBRANCH  14  18
BRANCH  16  20
ATOM     20  O   UNL     1      23.102  -1.844  29.707  1.00  0.00    -0.502 OA
ATOM     21  H   UNL     1      22.544  -2.123  30.505  1.00  0.00     0.293 HD
ENDBRANCH  16  20
BRANCH  17  22
ATOM     22  O   UNL     1      21.031  -0.086  30.446  1.00  0.00    -0.504 OA
ATOM     23  H   UNL     1      21.087  -0.981  30.918  1.00  0.00     0.293 HD
ENDBRANCH  17  22
ENDBRANCH   1  12
BRANCH   2  24
ATOM     24  O   UNL     1      22.002   2.546  25.356  1.00  0.00    -0.381 OA
ATOM     25  H   UNL     1      22.950   2.252  25.368  1.00  0.00     0.211 HD
ENDBRANCH   2  24
BRANCH   6  26
ATOM     26  O   UNL     1      22.584   7.125  23.752  1.00  0.00    -0.507 OA
ATOM     27  H   UNL     1      21.645   6.767  23.664  1.00  0.00     0.293 HD
ENDBRANCH   6  26
BRANCH   8  28
ATOM     28  O   UNL     1      27.216   6.985  24.992  1.00  0.00    -0.508 OA
ATOM     29  H   UNL     1      27.415   7.969  25.128  1.00  0.00     0.293 HD
ENDBRANCH   8  28
TORSDOF 7
ENDMDL
MODEL 2
REMARK VINA RESULT:    -4.741      2.421      8.139
REMARK INTER + INTRA:          -6.193
REMARK INTER:                  -5.919
REMARK INTRA:                  -0.273
REMARK UNBOUND:                -0.342
REMARK SMILES O=C1c2c(O)cc(O)cc2O[C@H](c2cc(O)c(O)c(O)c2)[C@@H]1O
REMARK SMILES IDX 12 1 22 2 2 3 1 4 3 5 4 6 6 7 7 8 9 9 10 10 11 11 13 12
REMARK SMILES IDX 14 13 15 14 21 15 17 16 19 17 16 18 18 20 20 22 23 24 5 26
REMARK SMILES IDX 8 28
REMARK H PARENT 16 19 18 21 20 23 23 25 5 27 8 29
REMARK Flexibility Score: inf
ROOT
ATOM      1  C   UNL     1      22.993   0.676  29.248  1.00  0.00     0.240 C 
ATOM      2  C   UNL     1      24.002  -0.478  29.428  1.00  0.00     0.231 C 
ATOM      3  C   UNL     1      23.524  -1.383  30.534  1.00  0.00     0.202 C 
ATOM      4  O   UNL     1      24.347  -1.787  31.396  1.00  0.00    -0.291 OA
ATOM      5  C   UNL     1      22.080  -1.725  30.613  1.00  0.00     0.105 A 
ATOM      6  C   UNL     1      21.562  -2.822  31.352  1.00  0.00     0.133 A 
ATOM      7  C   UNL     1      20.177  -3.017  31.419  1.00  0.00     0.093 A 
ATOM      8  C   UNL     1      19.302  -2.184  30.719  1.00  0.00     0.123 A 
ATOM      9  C   UNL     1      19.809  -1.133  29.950  1.00  0.00     0.093 A 
ATOM     10  C   UNL     1      21.185  -0.894  29.903  1.00  0.00     0.138 A 
ATOM     11  O   UNL     1      21.659   0.175  29.131  1.00  0.00    -0.481 OA
ENDROOT
BRANCH   1  12
ATOM     12  C   UNL     1      23.346   1.542  28.060  1.00  0.00     0.003 A 
ATOM     13  C   UNL     1      24.673   1.952  27.862  1.00  0.00     0.058 A 
ATOM     14  C   UNL     1      25.025   2.724  26.750  1.00  0.00     0.161 A 
ATOM     15  C   UNL     1      22.373   1.895  27.109  1.00  0.00     0.058 A 
ATOM     16  C   UNL     1      24.046   3.088  25.811  1.00  0.00     0.200 A 
ATOM     17  C   UNL     1      22.716   2.668  25.991  1.00  0.00     0.161 A 
BRANCH  14  18
ATOM     18  O   UNL     1      26.354   3.118  26.595  1.00  0.00    -0.504 OA
ATOM     19  H   UNL     1      27.098   2.450  26.433  1.00  0.00     0.293 HD
ENDBRANCH  14  18
BRANCH  16  20
ATOM     20  O   UNL     1      24.405   3.861  24.705  1.00  0.00    -0.502 OA
ATOM     21  H   UNL     1      23.834   3.904  23.869  1.00  0.00     0.293 HD
ENDBRANCH  16  20
BRANCH  17  22
ATOM     22  O   UNL     1      21.741   3.019  25.059  1.00  0.00    -0.504 OA
ATOM     23  H   UNL     1      21.782   3.896  24.551  1.00  0.00     0.293 HD
ENDBRANCH  17  22
ENDBRANCH   1  12
BRANCH   2  24
ATOM     24  O   UNL     1      24.181  -1.213  28.241  1.00  0.00    -0.381 OA
ATOM     25  H   UNL     1      23.572  -0.837  27.553  1.00  0.00     0.211 HD
ENDBRANCH   2  24
BRANCH   6  26
ATOM     26  O   UNL     1      22.372  -3.757  32.001  1.00  0.00    -0.507 OA
ATOM     27  H   UNL     1      22.033  -4.433  32.669  1.00  0.00     0.293 HD
ENDBRANCH   6  26
BRANCH   8  28
ATOM     28  O   UNL     1      17.929  -2.416  30.789  1.00  0.00    -0.508 OA
ATOM     29  H   UNL     1      17.402  -2.224  31.633  1.00  0.00     0.293 HD
ENDBRANCH   8  28
TORSDOF 7
ENDMDL
MODEL 3
REMARK VINA RESULT:    -4.724     14.353     17.291
REMARK INTER + INTRA:          -6.171
REMARK INTER:                  -6.095
REMARK INTRA:                  -0.077
REMARK UNBOUND:                -0.342
REMARK SMILES O=C1c2c(O)cc(O)cc2O[C@H](c2cc(O)c(O)c(O)c2)[C@@H]1O
REMARK SMILES IDX 12 1 22 2 2 3 1 4 3 5 4 6 6 7 7 8 9 9 10 10 11 11 13 12
REMARK SMILES IDX 14 13 15 14 21 15 17 16 19 17 16 18 18 20 20 22 23 24 5 26
REMARK SMILES IDX 8 28
REMARK H PARENT 16 19 18 21 20 23 23 25 5 27 8 29
REMARK Flexibility Score: inf
ROOT
ATOM      1  C   UNL     1      14.683 -10.548  22.594  1.00  0.00     0.240 C 
ATOM      2  C   UNL     1      13.343 -10.778  23.324  1.00  0.00     0.231 C 
ATOM      3  C   UNL     1      13.564 -10.661  24.809  1.00  0.00     0.202 C 
ATOM      4  O   UNL     1      13.044 -11.514  25.576  1.00  0.00    -0.291 OA
ATOM      5  C   UNL     1      14.440  -9.578  25.326  1.00  0.00     0.105 A 
ATOM      6  C   UNL     1      14.443  -9.134  26.675  1.00  0.00     0.133 A 
ATOM      7  C   UNL     1      15.358  -8.153  27.076  1.00  0.00     0.093 A 
ATOM      8  C   UNL     1      16.225  -7.562  26.155  1.00  0.00     0.123 A 
ATOM      9  C   UNL     1      16.191  -7.959  24.815  1.00  0.00     0.093 A 
ATOM     10  C   UNL     1      15.315  -8.967  24.401  1.00  0.00     0.138 A 
ATOM     11  O   UNL     1      15.315  -9.350  23.053  1.00  0.00    -0.481 OA
ENDROOT
BRANCH   1  12
ATOM     12  C   UNL     1      14.501 -10.514  21.093  1.00  0.00     0.003 A 
ATOM     13  C   UNL     1      14.060  -9.338  20.468  1.00  0.00     0.058 A 
ATOM     14  C   UNL     1      13.919  -9.277  19.078  1.00  0.00     0.161 A 
ATOM     15  C   UNL     1      14.826 -11.628  20.300  1.00  0.00     0.058 A 
ATOM     16  C   UNL     1      14.230 -10.398  18.292  1.00  0.00     0.200 A 
ATOM     17  C   UNL     1      14.688 -11.576  18.906  1.00  0.00     0.161 A 
BRANCH  14  18
ATOM     18  O   UNL     1      13.470  -8.091  18.497  1.00  0.00    -0.504 OA
ATOM     19  H   UNL     1      13.607  -7.190  18.938  1.00  0.00     0.293 HD
ENDBRANCH  14  18
BRANCH  16  20
ATOM     20  O   UNL     1      14.084 -10.329  16.905  1.00  0.00    -0.502 OA
ATOM     21  H   UNL     1      13.726  -9.503  16.440  1.00  0.00     0.293 HD
ENDBRANCH  16  20
BRANCH  17  22
ATOM     22  O   UNL     1      15.006 -12.690  18.131  1.00  0.00    -0.504 OA
ATOM     23  H   UNL     1      15.893 -12.764  17.644  1.00  0.00     0.293 HD
ENDBRANCH  17  22
ENDBRANCH   1  12
BRANCH   2  24
ATOM     24  O   UNL     1      12.351  -9.871  22.906  1.00  0.00    -0.381 OA
ATOM     25  H   UNL     1      12.649  -9.463  22.051  1.00  0.00     0.211 HD
ENDBRANCH   2  24
BRANCH   6  26
ATOM     26  O   UNL     1      13.546  -9.604  27.637  1.00  0.00    -0.507 OA
ATOM     27  H   UNL     1      13.796 -10.236  28.382  1.00  0.00     0.293 HD
ENDBRANCH   6  26
BRANCH   8  28
ATOM     28  O   UNL     1      17.110  -6.573  26.580  1.00  0.00    -0.508 OA
ATOM     29  H   UNL     1      16.795  -5.630  26.780  1.00  0.00     0.293 HD
ENDBRANCH   8  28
TORSDOF 7
ENDMDL
MODEL 4
REMARK VINA RESULT:    -4.677      2.203      3.903
REMARK INTER + INTRA:          -6.114
REMARK INTER:                  -5.733
REMARK INTRA:                  -0.381
REMARK UNBOUND:                -0.342
REMARK SMILES O=C1c2c(O)cc(O)cc2O[C@H](c2cc(O)c(O)c(O)c2)[C@@H]1O
REMARK SMILES IDX 12 1 22 2 2 3 1 4 3 5 4 6 6 7 7 8 9 9 10 10 11 11 13 12
REMARK SMILES IDX 14 13 15 14 21 15 17 16 19 17 16 18 18 20 20 22 23 24 5 26
REMARK SMILES IDX 8 28
REMARK H PARENT 16 19 18 21 20 23 23 25 5 27 8 29
REMARK Flexibility Score: inf
ROOT
ATOM      1  C   UNL     1      23.496   0.964  28.901  1.00  0.00     0.240 C 
ATOM      2  C   UNL     1      23.480   2.169  29.866  1.00  0.00     0.231 C 
ATOM      3  C   UNL     1      24.012   3.382  29.150  1.00  0.00     0.202 C 
ATOM      4  O   UNL     1      24.839   4.128  29.737  1.00  0.00    -0.291 OA
ATOM      5  C   UNL     1      23.596   3.632  27.745  1.00  0.00     0.105 A 
ATOM      6  C   UNL     1      23.720   4.887  27.091  1.00  0.00     0.133 A 
ATOM      7  C   UNL     1      23.361   4.999  25.742  1.00  0.00     0.093 A 
ATOM      8  C   UNL     1      22.827   3.911  25.049  1.00  0.00     0.123 A 
ATOM      9  C   UNL     1      22.656   2.688  25.703  1.00  0.00     0.093 A 
ATOM     10  C   UNL     1      23.046   2.541  27.036  1.00  0.00     0.138 A 
ATOM     11  O   UNL     1      22.872   1.297  27.658  1.00  0.00    -0.481 OA
ENDROOT
BRANCH   1  12
ATOM     12  C   UNL     1      22.843  -0.252  29.518  1.00  0.00     0.003 A 
ATOM     13  C   UNL     1      21.603  -0.700  29.037  1.00  0.00     0.058 A 
ATOM     14  C   UNL     1      21.000  -1.843  29.572  1.00  0.00     0.161 A 
ATOM     15  C   UNL     1      23.489  -0.985  30.529  1.00  0.00     0.058 A 
ATOM     16  C   UNL     1      21.642  -2.562  30.593  1.00  0.00     0.200 A 
ATOM     17  C   UNL     1      22.892  -2.132  31.070  1.00  0.00     0.161 A 
BRANCH  14  18
ATOM     18  O   UNL     1      19.763  -2.249  29.072  1.00  0.00    -0.504 OA
ATOM     19  H   UNL     1      18.927  -1.687  29.180  1.00  0.00     0.293 HD
ENDBRANCH  14  18
BRANCH  16  20
ATOM     20  O   UNL     1      21.031  -3.701  31.123  1.00  0.00    -0.502 OA
ATOM     21  H   UNL     1      20.216  -3.647  31.722  1.00  0.00     0.293 HD
ENDBRANCH  16  20
BRANCH  17  22
ATOM     22  O   UNL     1      23.538  -2.846  32.078  1.00  0.00    -0.504 OA
ATOM     23  H   UNL     1      24.466  -3.232  31.945  1.00  0.00     0.293 HD
ENDBRANCH  17  22
ENDBRANCH   1  12
BRANCH   2  24
ATOM     24  O   UNL     1      22.190   2.427  30.367  1.00  0.00    -0.381 OA
ATOM     25  H   UNL     1      21.709   2.986  29.702  1.00  0.00     0.211 HD
ENDBRANCH   2  24
BRANCH   6  26
ATOM     26  O   UNL     1      24.155   6.046  27.737  1.00  0.00    -0.507 OA
ATOM     27  H   UNL     1      23.628   6.529  28.449  1.00  0.00     0.293 HD
ENDBRANCH   6  26
BRANCH   8  28
ATOM     28  O   UNL     1      22.461   4.060  23.713  1.00  0.00    -0.508 OA
ATOM     29  H   UNL     1      22.988   3.620  22.967  1.00  0.00     0.293 HD
ENDBRANCH   8  28
TORSDOF 7
ENDMDL
MODEL 5
REMARK VINA RESULT:    -4.655      1.790      3.561
REMARK INTER + INTRA:          -6.086
REMARK INTER:                  -5.707
REMARK INTRA:                  -0.379
REMARK UNBOUND:                -0.342
REMARK SMILES O=C1c2c(O)cc(O)cc2O[C@H](c2cc(O)c(O)c(O)c2)[C@@H]1O
REMARK SMILES IDX 12 1 22 2 2 3 1 4 3 5 4 6 6 7 7 8 9 9 10 10 11 11 13 12
REMARK SMILES IDX 14 13 15 14 21 15 17 16 19 17 16 18 18 20 20 22 23 24 5 26
REMARK SMILES IDX 8 28
REMARK H PARENT 16 19 18 21 20 23 23 25 5 27 8 29
REMARK Flexibility Score: inf
ROOT
ATOM      1  C   UNL     1      22.711   1.969  27.214  1.00  0.00     0.240 C 
ATOM      2  C   UNL     1      24.117   2.570  27.003  1.00  0.00     0.231 C 
ATOM      3  C   UNL     1      24.104   3.433  25.768  1.00  0.00     0.202 C 
ATOM      4  O   UNL     1      25.053   3.341  24.945  1.00  0.00    -0.291 OA
ATOM      5  C   UNL     1      22.942   4.325  25.522  1.00  0.00     0.105 A 
ATOM      6  C   UNL     1      22.961   5.427  24.626  1.00  0.00     0.133 A 
ATOM      7  C   UNL     1      21.789   6.164  24.415  1.00  0.00     0.093 A 
ATOM      8  C   UNL     1      20.619   5.869  25.117  1.00  0.00     0.123 A 
ATOM      9  C   UNL     1      20.609   4.817  26.038  1.00  0.00     0.093 A 
ATOM     10  C   UNL     1      21.755   4.041  26.234  1.00  0.00     0.138 A 
ATOM     11  O   UNL     1      21.707   2.987  27.156  1.00  0.00    -0.481 OA
ENDROOT
BRANCH   1  12
ATOM     12  C   UNL     1      22.622   1.204  28.515  1.00  0.00     0.003 A 
ATOM     13  C   UNL     1      21.634   1.536  29.455  1.00  0.00     0.058 A 
ATOM     14  C   UNL     1      21.514   0.818  30.649  1.00  0.00     0.161 A 
ATOM     15  C   UNL     1      23.476   0.120  28.776  1.00  0.00     0.058 A 
ATOM     16  C   UNL     1      22.381  -0.256  30.912  1.00  0.00     0.200 A 
ATOM     17  C   UNL     1      23.363  -0.607  29.970  1.00  0.00     0.161 A 
BRANCH  14  18
ATOM     18  O   UNL     1      20.524   1.185  31.561  1.00  0.00    -0.504 OA
ATOM     19  H   UNL     1      19.638   1.575  31.265  1.00  0.00     0.293 HD
ENDBRANCH  14  18
BRANCH  16  20
ATOM     20  O   UNL     1      22.256  -0.966  32.108  1.00  0.00    -0.502 OA
ATOM     21  H   UNL     1      21.836  -1.887  32.147  1.00  0.00     0.293 HD
ENDBRANCH  16  20
BRANCH  17  22
ATOM     22  O   UNL     1      24.222  -1.676  30.221  1.00  0.00    -0.504 OA
ATOM     23  H   UNL     1      25.205  -1.532  30.421  1.00  0.00     0.293 HD
ENDBRANCH  17  22
ENDBRANCH   1  12
BRANCH   2  24
ATOM     24  O   UNL     1      24.544   3.319  28.116  1.00  0.00    -0.381 OA
ATOM     25  H   UNL     1      24.154   4.229  28.040  1.00  0.00     0.211 HD
ENDBRANCH   2  24
BRANCH   6  26
ATOM     26  O   UNL     1      24.112   5.848  23.957  1.00  0.00    -0.507 OA
ATOM     27  H   UNL     1      24.252   6.783  23.605  1.00  0.00     0.293 HD
ENDBRANCH   6  26
BRANCH   8  28
ATOM     28  O   UNL     1      19.475   6.633  24.900  1.00  0.00    -0.508 OA
ATOM     29  H   UNL     1      19.422   7.304  24.142  1.00  0.00     0.293 HD
ENDBRANCH   8  28
TORSDOF 7
ENDMDL
MODEL 6
REMARK VINA RESULT:    -4.606      1.949      6.860
REMARK INTER + INTRA:          -6.026
REMARK INTER:                  -5.760
REMARK INTRA:                  -0.266
REMARK UNBOUND:                -0.342
REMARK SMILES O=C1c2c(O)cc(O)cc2O[C@H](c2cc(O)c(O)c(O)c2)[C@@H]1O
REMARK SMILES IDX 12 1 22 2 2 3 1 4 3 5 4 6 6 7 7 8 9 9 10 10 11 11 13 12
REMARK SMILES IDX 14 13 15 14 21 15 17 16 19 17 16 18 18 20 20 22 23 24 5 26
REMARK SMILES IDX 8 28
REMARK H PARENT 16 19 18 21 20 23 23 25 5 27 8 29
REMARK Flexibility Score: inf
ROOT
ATOM      1  C   UNL     1      22.044   3.095  26.936  1.00  0.00     0.240 C 
ATOM      2  C   UNL     1      21.702   4.040  28.108  1.00  0.00     0.231 C 
ATOM      3  C   UNL     1      20.951   3.268  29.161  1.00  0.00     0.202 C 
ATOM      4  O   UNL     1      19.930   3.782  29.688  1.00  0.00    -0.291 OA
ATOM      5  C   UNL     1      21.400   1.894  29.507  1.00  0.00     0.105 A 
ATOM      6  C   UNL     1      21.031   1.214  30.698  1.00  0.00     0.133 A 
ATOM      7  C   UNL     1      21.453  -0.107  30.896  1.00  0.00     0.093 A 
ATOM      8  C   UNL     1      22.280  -0.742  29.968  1.00  0.00     0.123 A 
ATOM      9  C   UNL     1      22.687  -0.059  28.818  1.00  0.00     0.093 A 
ATOM     10  C   UNL     1      22.245   1.244  28.579  1.00  0.00     0.138 A 
ATOM     11  O   UNL     1      22.662   1.896  27.412  1.00  0.00    -0.481 OA
ENDROOT
BRANCH   1  12
ATOM     12  C   UNL     1      22.919   3.777  25.908  1.00  0.00     0.003 A 
ATOM     13  C   UNL     1      23.987   3.078  25.326  1.00  0.00     0.058 A 
ATOM     14  C   UNL     1      24.786   3.680  24.349  1.00  0.00     0.161 A 
ATOM     15  C   UNL     1      22.642   5.085  25.477  1.00  0.00     0.058 A 
ATOM     16  C   UNL     1      24.515   4.993  23.932  1.00  0.00     0.200 A 
ATOM     17  C   UNL     1      23.437   5.696  24.497  1.00  0.00     0.161 A 
BRANCH  14  18
ATOM     18  O   UNL     1      25.844   2.954  23.801  1.00  0.00    -0.504 OA
ATOM     19  H   UNL     1      26.573   2.548  24.375  1.00  0.00     0.293 HD
ENDBRANCH  14  18
BRANCH  16  20
ATOM     20  O   UNL     1      25.320   5.588  22.958  1.00  0.00    -0.502 OA
ATOM     21  H   UNL     1      25.029   6.414  22.449  1.00  0.00     0.293 HD
ENDBRANCH  16  20
BRANCH  17  22
ATOM     22  O   UNL     1      23.157   6.997  24.083  1.00  0.00    -0.504 OA
ATOM     23  H   UNL     1      23.437   7.802  24.632  1.00  0.00     0.293 HD
ENDBRANCH  17  22
ENDBRANCH   1  12
BRANCH   2  24
ATOM     24  O   UNL     1      22.852   4.630  28.664  1.00  0.00    -0.381 OA
ATOM     25  H   UNL     1      23.356   5.071  27.930  1.00  0.00     0.211 HD
ENDBRANCH   2  24
BRANCH   6  26
ATOM     26  O   UNL     1      20.287   1.808  31.719  1.00  0.00    -0.507 OA
ATOM     27  H   UNL     1      20.516   2.694  32.145  1.00  0.00     0.293 HD
ENDBRANCH   6  26
BRANCH   8  28
ATOM     28  O   UNL     1      22.700  -2.050  30.203  1.00  0.00    -0.508 OA
ATOM     29  H   UNL     1      23.675  -2.272  30.367  1.00  0.00     0.293 HD
ENDBRANCH   8  28
TORSDOF 7
ENDMDL
MODEL 7
REMARK VINA RESULT:    -4.596      2.473      3.504
REMARK INTER + INTRA:          -6.013
REMARK INTER:                  -5.721
REMARK INTRA:                  -0.292
REMARK UNBOUND:                -0.342
REMARK SMILES O=C1c2c(O)cc(O)cc2O[C@H](c2cc(O)c(O)c(O)c2)[C@@H]1O
REMARK SMILES IDX 12 1 22 2 2 3 1 4 3 5 4 6 6 7 7 8 9 9 10 10 11 11 13 12
REMARK SMILES IDX 14 13 15 14 21 15 17 16 19 17 16 18 18 20 20 22 23 24 5 26
REMARK SMILES IDX 8 28
REMARK H PARENT 16 19 18 21 20 23 23 25 5 27 8 29
REMARK Flexibility Score: inf
ROOT
ATOM      1  C   UNL     1      23.050   1.475  28.762  1.00  0.00     0.240 C 
ATOM      2  C   UNL     1      23.718   1.162  27.406  1.00  0.00     0.231 C 
ATOM      3  C   UNL     1      24.093   2.454  26.730  1.00  0.00     0.202 C 
ATOM      4  O   UNL     1      23.847   2.600  25.504  1.00  0.00    -0.291 OA
ATOM      5  C   UNL     1      24.687   3.548  27.542  1.00  0.00     0.105 A 
ATOM      6  C   UNL     1      25.405   4.645  26.995  1.00  0.00     0.133 A 
ATOM      7  C   UNL     1      25.864   5.660  27.842  1.00  0.00     0.093 A 
ATOM      8  C   UNL     1      25.680   5.579  29.224  1.00  0.00     0.123 A 
ATOM      9  C   UNL     1      25.018   4.477  29.772  1.00  0.00     0.093 A 
ATOM     10  C   UNL     1      24.514   3.473  28.942  1.00  0.00     0.138 A 
ATOM     11  O   UNL     1      23.845   2.388  29.524  1.00  0.00    -0.481 OA
ENDROOT
BRANCH   1  12
ATOM     12  C   UNL     1      22.776   0.216  29.552  1.00  0.00     0.003 A 
ATOM     13  C   UNL     1      22.166  -0.883  28.927  1.00  0.00     0.058 A 
ATOM     14  C   UNL     1      21.936  -2.069  29.632  1.00  0.00     0.161 A 
ATOM     15  C   UNL     1      23.180   0.101  30.893  1.00  0.00     0.058 A 
ATOM     16  C   UNL     1      22.327  -2.173  30.976  1.00  0.00     0.200 A 
ATOM     17  C   UNL     1      22.954  -1.084  31.607  1.00  0.00     0.161 A 
BRANCH  14  18
ATOM     18  O   UNL     1      21.319  -3.134  28.976  1.00  0.00    -0.504 OA
ATOM     19  H   UNL     1      21.738  -3.589  28.175  1.00  0.00     0.293 HD
ENDBRANCH  14  18
BRANCH  16  20
ATOM     20  O   UNL     1      22.091  -3.359  31.673  1.00  0.00    -0.502 OA
ATOM     21  H   UNL     1      21.166  -3.764  31.753  1.00  0.00     0.293 HD
ENDBRANCH  16  20
BRANCH  17  22
ATOM     22  O   UNL     1      23.352  -1.183  32.939  1.00  0.00    -0.504 OA
ATOM     23  H   UNL     1      22.792  -1.674  33.626  1.00  0.00     0.293 HD
ENDBRANCH  17  22
ENDBRANCH   1  12
BRANCH   2  24
ATOM     24  O   UNL     1      24.853   0.343  27.554  1.00  0.00    -0.381 OA
ATOM     25  H   UNL     1      25.431   0.743  28.256  1.00  0.00     0.211 HD
ENDBRANCH   2  24
BRANCH   6  26
ATOM     26  O   UNL     1      25.715   4.754  25.637  1.00  0.00    -0.507 OA
ATOM     27  H   UNL     1      25.109   5.180  24.951  1.00  0.00     0.293 HD
ENDBRANCH   6  26
BRANCH   8  28
ATOM     28  O   UNL     1      26.167   6.596  30.043  1.00  0.00    -0.508 OA
ATOM     29  H   UNL     1      25.777   7.531  30.015  1.00  0.00     0.293 HD
ENDBRANCH   8  28
TORSDOF 7
ENDMDL
MODEL 8
REMARK VINA RESULT:    -4.592      2.265      7.353
REMARK INTER + INTRA:          -6.009
REMARK INTER:                  -5.663
REMARK INTRA:                  -0.345
REMARK UNBOUND:                -0.342
REMARK SMILES O=C1c2c(O)cc(O)cc2O[C@H](c2cc(O)c(O)c(O)c2)[C@@H]1O
REMARK SMILES IDX 12 1 22 2 2 3 1 4 3 5 4 6 6 7 7 8 9 9 10 10 11 11 13 12
REMARK SMILES IDX 14 13 15 14 21 15 17 16 19 17 16 18 18 20 20 22 23 24 5 26
REMARK SMILES IDX 8 28
REMARK H PARENT 16 19 18 21 20 23 23 25 5 27 8 29
REMARK Flexibility Score: inf
ROOT
ATOM      1  C   UNL     1      22.398   1.216  28.360  1.00  0.00     0.240 C 
ATOM      2  C   UNL     1      21.638   2.097  29.375  1.00  0.00     0.231 C 
ATOM      3  C   UNL     1      21.067   1.219  30.459  1.00  0.00     0.202 C 
ATOM      4  O   UNL     1      19.881   1.407  30.840  1.00  0.00    -0.291 OA
ATOM      5  C   UNL     1      21.897   0.116  31.007  1.00  0.00     0.105 A 
ATOM      6  C   UNL     1      21.640  -0.535  32.243  1.00  0.00     0.133 A 
ATOM      7  C   UNL     1      22.444  -1.612  32.636  1.00  0.00     0.093 A 
ATOM      8  C   UNL     1      23.532  -2.016  31.859  1.00  0.00     0.123 A 
ATOM      9  C   UNL     1      23.820  -1.346  30.666  1.00  0.00     0.093 A 
ATOM     10  C   UNL     1      23.006  -0.296  30.233  1.00  0.00     0.138 A 
ATOM     11  O   UNL     1      23.316   0.345  29.027  1.00  0.00    -0.481 OA
ENDROOT
BRANCH   1  12
ATOM     12  C   UNL     1      23.111   2.053  27.323  1.00  0.00     0.003 A 
ATOM     13  C   UNL     1      24.501   2.230  27.403  1.00  0.00     0.058 A 
ATOM     14  C   UNL     1      25.184   2.972  26.434  1.00  0.00     0.161 A 
ATOM     15  C   UNL     1      22.414   2.610  26.238  1.00  0.00     0.058 A 
ATOM     16  C   UNL     1      24.479   3.539  25.360  1.00  0.00     0.200 A 
ATOM     17  C   UNL     1      23.089   3.354  25.261  1.00  0.00     0.161 A 
BRANCH  14  18
ATOM     18  O   UNL     1      26.565   3.131  26.554  1.00  0.00    -0.504 OA
ATOM     19  H   UNL     1      27.134   2.496  27.100  1.00  0.00     0.293 HD
ENDBRANCH  14  18
BRANCH  16  20
ATOM     20  O   UNL     1      25.169   4.281  24.398  1.00  0.00    -0.502 OA
ATOM     21  H   UNL     1      25.695   3.840  23.653  1.00  0.00     0.293 HD
ENDBRANCH  16  20
BRANCH  17  22
ATOM     22  O   UNL     1      22.385   3.909  24.194  1.00  0.00    -0.504 OA
ATOM     23  H   UNL     1      22.840   4.132  23.315  1.00  0.00     0.293 HD
ENDBRANCH  17  22
ENDBRANCH   1  12
BRANCH   2  24
ATOM     24  O   UNL     1      22.463   3.088  29.937  1.00  0.00    -0.381 OA
ATOM     25  H   UNL     1      22.966   2.679  30.689  1.00  0.00     0.211 HD
ENDBRANCH   2  24
BRANCH   6  26
ATOM     26  O   UNL     1      20.633  -0.133  33.123  1.00  0.00    -0.507 OA
ATOM     27  H   UNL     1      19.649  -0.295  32.969  1.00  0.00     0.293 HD
ENDBRANCH   6  26
BRANCH   8  28
ATOM     28  O   UNL     1      24.326  -3.078  32.287  1.00  0.00    -0.508 OA
ATOM     29  H   UNL     1      25.147  -2.928  32.861  1.00  0.00     0.293 HD
ENDBRANCH   8  28
TORSDOF 7
ENDMDL
MODEL 9
REMARK VINA RESULT:    -4.532      9.857     13.702
REMARK INTER + INTRA:          -5.935
REMARK INTER:                  -5.541
REMARK INTRA:                  -0.393
REMARK UNBOUND:                -0.342
REMARK SMILES O=C1c2c(O)cc(O)cc2O[C@H](c2cc(O)c(O)c(O)c2)[C@@H]1O
REMARK SMILES IDX 12 1 22 2 2 3 1 4 3 5 4 6 6 7 7 8 9 9 10 10 11 11 13 12
REMARK SMILES IDX 14 13 15 14 21 15 17 16 19 17 16 18 18 20 20 22 23 24 5 26
REMARK SMILES IDX 8 28
REMARK H PARENT 16 19 18 21 20 23 23 25 5 27 8 29
REMARK Flexibility Score: inf
ROOT
ATOM      1  C   UNL     1      16.022  -6.310  27.393  1.00  0.00     0.240 C 
ATOM      2  C   UNL     1      15.257  -7.202  28.394  1.00  0.00     0.231 C 
ATOM      3  C   UNL     1      14.219  -8.001  27.651  1.00  0.00     0.202 C 
ATOM      4  O   UNL     1      13.059  -8.097  28.129  1.00  0.00    -0.291 OA
ATOM      5  C   UNL     1      14.575  -8.604  26.339  1.00  0.00     0.105 A 
ATOM      6  C   UNL     1      13.843  -9.653  25.722  1.00  0.00     0.133 A 
ATOM      7  C   UNL     1      14.222 -10.103  24.452  1.00  0.00     0.093 A 
ATOM      8  C   UNL     1      15.345  -9.577  23.810  1.00  0.00     0.123 A 
ATOM      9  C   UNL     1      16.098  -8.579  24.435  1.00  0.00     0.093 A 
ATOM     10  C   UNL     1      15.714  -8.085  25.684  1.00  0.00     0.138 A 
ATOM     11  O   UNL     1      16.484  -7.076  26.277  1.00  0.00    -0.481 OA
ENDROOT
BRANCH   1  12
ATOM     12  C   UNL     1      17.171  -5.586  28.058  1.00  0.00     0.003 A 
ATOM     13  C   UNL     1      18.492  -5.905  27.712  1.00  0.00     0.058 A 
ATOM     14  C   UNL     1      19.568  -5.223  28.290  1.00  0.00     0.161 A 
ATOM     15  C   UNL     1      16.937  -4.548  28.976  1.00  0.00     0.058 A 
ATOM     16  C   UNL     1      19.329  -4.198  29.219  1.00  0.00     0.200 A 
ATOM     17  C   UNL     1      18.008  -3.858  29.561  1.00  0.00     0.161 A 
BRANCH  14  18
ATOM     18  O   UNL     1      20.866  -5.578  27.925  1.00  0.00    -0.504 OA
ATOM     19  H   UNL     1      21.154  -6.544  27.827  1.00  0.00     0.293 HD
ENDBRANCH  14  18
BRANCH  16  20
ATOM     20  O   UNL     1      20.408  -3.523  29.794  1.00  0.00    -0.502 OA
ATOM     21  H   UNL     1      20.712  -2.614  29.467  1.00  0.00     0.293 HD
ENDBRANCH  16  20
BRANCH  17  22
ATOM     22  O   UNL     1      17.764  -2.836  30.477  1.00  0.00    -0.504 OA
ATOM     23  H   UNL     1      16.822  -2.540  30.704  1.00  0.00     0.293 HD
ENDBRANCH  17  22
ENDBRANCH   1  12
BRANCH   2  24
ATOM     24  O   UNL     1      16.119  -8.062  29.101  1.00  0.00    -0.381 OA
ATOM     25  H   UNL     1      17.025  -7.654  29.102  1.00  0.00     0.211 HD
ENDBRANCH   2  24
BRANCH   6  26
ATOM     26  O   UNL     1      12.768 -10.299  26.336  1.00  0.00    -0.507 OA
ATOM     27  H   UNL     1      12.005 -10.729  25.835  1.00  0.00     0.293 HD
ENDBRANCH   6  26
BRANCH   8  28
ATOM     28  O   UNL     1      15.709 -10.060  22.554  1.00  0.00    -0.508 OA
ATOM     29  H   UNL     1      16.681 -10.185  22.297  1.00  0.00     0.293 HD
ENDBRANCH   8  28
TORSDOF 7
ENDMDL
