MODEL 1
REMARK VINA RESULT:    -2.439      0.000      0.000
REMARK INTER + INTRA:          -8.352
REMARK INTER:                  -4.720
REMARK INTRA:                  -3.632
REMARK UNBOUND:                -3.632
REMARK SMILES CCCCCC=CCC=CCCCCCCCCOC(C)=O
REMARK SMILES IDX 12 1 11 2 10 3 9 4 8 5 7 6 6 7 5 8 4 9 3 10 2 11 1 12 13 13
REMARK SMILES IDX 14 14 15 15 16 16 17 17 18 18 19 19 20 20 22 21 21 22
REMARK H PARENT
REMARK Flexibility Score: inf
ROOT
ATOM      1  C   UNL     1       1.075   4.014  -2.231  1.00  0.00     0.004 C 
ENDROOT
BRANCH   1   2
ATOM      2  C   UNL     1       0.740   2.542  -1.959  1.00  0.00     0.027 C 
BRANCH   2   3
ATOM      3  C   UNL     1      -0.674   2.216  -2.351  1.00  0.00    -0.031 C 
ATOM      4  C   UNL     1      -1.449   1.418  -1.602  1.00  0.00    -0.027 C 
BRANCH   4   5
ATOM      5  C   UNL     1      -2.848   1.064  -2.022  1.00  0.00     0.054 C 
BRANCH   5   6
ATOM      6  C   UNL     1      -2.955   0.953  -3.518  1.00  0.00    -0.027 C 
ATOM      7  C   UNL     1      -3.633   1.856  -4.243  1.00  0.00    -0.031 C 
BRANCH   7   8
ATOM      8  C   UNL     1      -3.719   1.762  -5.745  1.00  0.00     0.027 C 
BRANCH   8   9
ATOM      9  C   UNL     1      -2.331   1.655  -6.393  1.00  0.00     0.004 C 
BRANCH   9  10
ATOM     10  C   UNL     1      -1.472   2.906  -6.155  1.00  0.00     0.000 C 
BRANCH  10  11
ATOM     11  C   UNL     1       0.014   2.541  -6.063  1.00  0.00    -0.003 C 
ATOM     12  C   UNL     1       0.197   1.068  -5.712  1.00  0.00     0.004 C 
ENDBRANCH  10  11
ENDBRANCH   9  10
ENDBRANCH   8   9
ENDBRANCH   7   8
ENDBRANCH   5   6
ENDBRANCH   4   5
ENDBRANCH   2   3
ENDBRANCH   1   2
BRANCH   1  13
ATOM     13  C   UNL     1       0.017   4.693  -3.119  1.00  0.00     0.000 C 
BRANCH  13  14
ATOM     14  C   UNL     1      -0.275   6.138  -2.686  1.00  0.00     0.000 C 
BRANCH  14  15
ATOM     15  C   UNL     1      -1.780   6.449  -2.619  1.00  0.00     0.000 C 
BRANCH  15  16
ATOM     16  C   UNL     1      -2.650   5.214  -2.894  1.00  0.00     0.003 C 
BRANCH  16  17
ATOM     17  C   UNL     1      -3.530   4.831  -1.691  1.00  0.00     0.042 C 
BRANCH  17  18
ATOM     18  C   UNL     1      -3.217   5.690  -0.460  1.00  0.00     0.233 C 
BRANCH  18  19
ATOM     19  O   UNL     1      -2.771   4.890   0.635  1.00  0.00    -0.466 OA
BRANCH  19  20
ATOM     20  C   UNL     1      -1.424   4.603   0.884  1.00  0.00     0.302 C 
ATOM     21  O   UNL     1      -0.519   5.430   0.586  1.00  0.00    -0.253 OA
ATOM     22  C   UNL     1      -1.065   3.317   1.547  1.00  0.00     0.139 C 
ENDBRANCH  19  20
ENDBRANCH  18  19
ENDBRANCH  17  18
ENDBRANCH  16  17
ENDBRANCH  15  16
ENDBRANCH  14  15
ENDBRANCH  13  14
ENDBRANCH   1  13
TORSDOF 16
ENDMDL
MODEL 2
REMARK VINA RESULT:    -2.374      1.538      3.252
REMARK INTER + INTRA:          -8.226
REMARK INTER:                  -4.929
REMARK INTRA:                  -3.297
REMARK UNBOUND:                -3.632
REMARK SMILES CCCCCC=CCC=CCCCCCCCCOC(C)=O
REMARK SMILES IDX 12 1 11 2 10 3 9 4 8 5 7 6 6 7 5 8 4 9 3 10 2 11 1 12 13 13
REMARK SMILES IDX 14 14 15 15 16 16 17 17 18 18 19 19 20 20 22 21 21 22
REMARK H PARENT
REMARK Flexibility Score: inf
ROOT
ATOM      1  C   UNL     1       0.508   3.815  -4.536  1.00  0.00     0.004 C 
ENDROOT
BRANCH   1   2
ATOM      2  C   UNL     1      -0.361   5.074  -4.642  1.00  0.00     0.027 C 
BRANCH   2   3
ATOM      3  C   UNL     1      -1.792   4.788  -4.280  1.00  0.00    -0.031 C 
ATOM      4  C   UNL     1      -2.486   5.590  -3.459  1.00  0.00    -0.027 C 
BRANCH   4   5
ATOM      5  C   UNL     1      -3.903   5.276  -3.069  1.00  0.00     0.054 C 
BRANCH   5   6
ATOM      6  C   UNL     1      -4.227   3.829  -3.318  1.00  0.00    -0.027 C 
ATOM      7  C   UNL     1      -4.192   2.921  -2.330  1.00  0.00    -0.031 C 
BRANCH   7   8
ATOM      8  C   UNL     1      -4.543   1.475  -2.571  1.00  0.00     0.027 C 
BRANCH   8   9
ATOM      9  C   UNL     1      -3.338   0.667  -3.073  1.00  0.00     0.004 C 
BRANCH   9  10
ATOM     10  C   UNL     1      -3.612  -0.025  -4.417  1.00  0.00     0.000 C 
BRANCH  10  11
ATOM     11  C   UNL     1      -2.613   0.435  -5.484  1.00  0.00    -0.003 C 
ATOM     12  C   UNL     1      -3.092   1.711  -6.170  1.00  0.00     0.004 C 
ENDBRANCH  10  11
ENDBRANCH   9  10
ENDBRANCH   8   9
ENDBRANCH   7   8
ENDBRANCH   5   6
ENDBRANCH   4   5
ENDBRANCH   2   3
ENDBRANCH   1   2
BRANCH   1  13
ATOM     13  C   UNL     1      -0.262   2.630  -3.929  1.00  0.00     0.000 C 
BRANCH  13  14
ATOM     14  C   UNL     1       0.528   1.920  -2.819  1.00  0.00     0.000 C 
BRANCH  14  15
ATOM     15  C   UNL     1       0.647   2.763  -1.537  1.00  0.00     0.000 C 
BRANCH  15  16
ATOM     16  C   UNL     1      -0.713   3.275  -1.040  1.00  0.00     0.003 C 
BRANCH  16  17
ATOM     17  C   UNL     1      -0.636   4.706  -0.480  1.00  0.00     0.042 C 
BRANCH  17  18
ATOM     18  C   UNL     1      -1.912   5.090   0.279  1.00  0.00     0.233 C 
BRANCH  18  19
ATOM     19  O   UNL     1      -2.190   4.167   1.333  1.00  0.00    -0.466 OA
BRANCH  19  20
ATOM     20  C   UNL     1      -1.381   4.021   2.465  1.00  0.00     0.302 C 
ATOM     21  O   UNL     1      -0.835   5.021   3.005  1.00  0.00    -0.253 OA
ATOM     22  C   UNL     1      -1.200   2.665   3.059  1.00  0.00     0.139 C 
ENDBRANCH  19  20
ENDBRANCH  18  19
ENDBRANCH  17  18
ENDBRANCH  16  17
ENDBRANCH  15  16
ENDBRANCH  14  15
ENDBRANCH  13  14
ENDBRANCH   1  13
TORSDOF 16
ENDMDL
MODEL 3
REMARK VINA RESULT:    -2.329      1.873      5.224
REMARK INTER + INTRA:          -8.140
REMARK INTER:                  -5.206
REMARK INTRA:                  -2.934
REMARK UNBOUND:                -3.632
REMARK SMILES CCCCCC=CCC=CCCCCCCCCOC(C)=O
REMARK SMILES IDX 12 1 11 2 10 3 9 4 8 5 7 6 6 7 5 8 4 9 3 10 2 11 1 12 13 13
REMARK SMILES IDX 14 14 15 15 16 16 17 17 18 18 19 19 20 20 22 21 21 22
REMARK H PARENT
REMARK Flexibility Score: inf
ROOT
ATOM      1  C   UNL     1      -4.550   0.731  -5.046  1.00  0.00     0.004 C 
ENDROOT
BRANCH   1   2
ATOM      2  C   UNL     1      -3.851   1.549  -6.139  1.00  0.00     0.027 C 
BRANCH   2   3
ATOM      3  C   UNL     1      -2.360   1.576  -5.939  1.00  0.00    -0.031 C 
ATOM      4  C   UNL     1      -1.638   2.685  -6.158  1.00  0.00    -0.027 C 
BRANCH   4   5
ATOM      5  C   UNL     1      -0.145   2.692  -5.995  1.00  0.00     0.054 C 
BRANCH   5   6
ATOM      6  C   UNL     1       0.264   2.053  -4.697  1.00  0.00    -0.027 C 
ATOM      7  C   UNL     1       0.615   2.790  -3.632  1.00  0.00    -0.031 C 
BRANCH   7   8
ATOM      8  C   UNL     1       0.999   2.153  -2.320  1.00  0.00     0.027 C 
BRANCH   8   9
ATOM      9  C   UNL     1       0.566   3.007  -1.119  1.00  0.00     0.004 C 
BRANCH   9  10
ATOM     10  C   UNL     1       0.657   4.514  -1.405  1.00  0.00     0.000 C 
BRANCH  10  11
ATOM     11  C   UNL     1      -0.518   5.265  -0.768  1.00  0.00    -0.003 C 
ATOM     12  C   UNL     1      -1.167   4.434   0.335  1.00  0.00     0.004 C 
ENDBRANCH  10  11
ENDBRANCH   9  10
ENDBRANCH   8   9
ENDBRANCH   7   8
ENDBRANCH   5   6
ENDBRANCH   4   5
ENDBRANCH   2   3
ENDBRANCH   1   2
BRANCH   1  13
ATOM     13  C   UNL     1      -3.551   0.138  -4.038  1.00  0.00     0.000 C 
BRANCH  13  14
ATOM     14  C   UNL     1      -3.782   0.650  -2.608  1.00  0.00     0.000 C 
BRANCH  14  15
ATOM     15  C   UNL     1      -2.701   1.643  -2.146  1.00  0.00     0.000 C 
BRANCH  15  16
ATOM     16  C   UNL     1      -2.979   3.078  -2.619  1.00  0.00     0.003 C 
BRANCH  16  17
ATOM     17  C   UNL     1      -4.367   3.583  -2.192  1.00  0.00     0.042 C 
BRANCH  17  18
ATOM     18  C   UNL     1      -4.314   5.023  -1.670  1.00  0.00     0.233 C 
BRANCH  18  19
ATOM     19  O   UNL     1      -5.076   5.173  -0.473  1.00  0.00    -0.466 OA
BRANCH  19  20
ATOM     20  C   UNL     1      -6.139   6.074  -0.340  1.00  0.00     0.302 C 
ATOM     21  O   UNL     1      -6.322   6.990  -1.188  1.00  0.00    -0.253 OA
ATOM     22  C   UNL     1      -7.086   5.919   0.801  1.00  0.00     0.139 C 
ENDBRANCH  19  20
ENDBRANCH  18  19
ENDBRANCH  17  18
ENDBRANCH  16  17
ENDBRANCH  15  16
ENDBRANCH  14  15
ENDBRANCH  13  14
ENDBRANCH   1  13
TORSDOF 16
ENDMDL
MODEL 4
REMARK VINA RESULT:    -2.328      4.093      6.413
REMARK INTER + INTRA:          -8.137
REMARK INTER:                  -5.439
REMARK INTRA:                  -2.699
REMARK UNBOUND:                -3.632
REMARK SMILES CCCCCC=CCC=CCCCCCCCCOC(C)=O
REMARK SMILES IDX 12 1 11 2 10 3 9 4 8 5 7 6 6 7 5 8 4 9 3 10 2 11 1 12 13 13
REMARK SMILES IDX 14 14 15 15 16 16 17 17 18 18 19 19 20 20 22 21 21 22
REMARK H PARENT
REMARK Flexibility Score: inf
ROOT
ATOM      1  C   UNL     1       1.689   4.016  -4.474  1.00  0.00     0.004 C 
ENDROOT
BRANCH   1   2
ATOM      2  C   UNL     1       1.997   3.419  -3.095  1.00  0.00     0.027 C 
BRANCH   2   3
ATOM      3  C   UNL     1       0.964   2.404  -2.690  1.00  0.00    -0.031 C 
ATOM      4  C   UNL     1      -0.085   2.731  -1.921  1.00  0.00    -0.027 C 
BRANCH   4   5
ATOM      5  C   UNL     1      -1.090   1.702  -1.488  1.00  0.00     0.054 C 
BRANCH   5   6
ATOM      6  C   UNL     1      -2.393   1.873  -2.218  1.00  0.00    -0.027 C 
ATOM      7  C   UNL     1      -3.044   0.826  -2.748  1.00  0.00    -0.031 C 
BRANCH   7   8
ATOM      8  C   UNL     1      -4.365   0.991  -3.456  1.00  0.00     0.027 C 
BRANCH   8   9
ATOM      9  C   UNL     1      -4.284   0.562  -4.929  1.00  0.00     0.004 C 
BRANCH   9  10
ATOM     10  C   UNL     1      -3.716  -0.855  -5.099  1.00  0.00     0.000 C 
BRANCH  10  11
ATOM     11  C   UNL     1      -3.846  -1.328  -6.551  1.00  0.00    -0.003 C 
ATOM     12  C   UNL     1      -4.203  -0.168  -7.476  1.00  0.00     0.004 C 
ENDBRANCH  10  11
ENDBRANCH   9  10
ENDBRANCH   8   9
ENDBRANCH   7   8
ENDBRANCH   5   6
ENDBRANCH   4   5
ENDBRANCH   2   3
ENDBRANCH   1   2
BRANCH   1  13
ATOM     13  C   UNL     1       1.117   2.968  -5.444  1.00  0.00     0.000 C 
BRANCH  13  14
ATOM     14  C   UNL     1      -0.387   3.155  -5.691  1.00  0.00     0.000 C 
BRANCH  14  15
ATOM     15  C   UNL     1      -1.122   1.826  -5.941  1.00  0.00     0.000 C 
BRANCH  15  16
ATOM     16  C   UNL     1      -0.197   0.607  -5.804  1.00  0.00     0.003 C 
BRANCH  16  17
ATOM     17  C   UNL     1      -0.301  -0.351  -7.003  1.00  0.00     0.042 C 
BRANCH  17  18
ATOM     18  C   UNL     1       0.913  -1.283  -7.095  1.00  0.00     0.233 C 
BRANCH  18  19
ATOM     19  O   UNL     1       0.542  -2.580  -7.563  1.00  0.00    -0.466 OA
BRANCH  19  20
ATOM     20  C   UNL     1      -0.023  -3.564  -6.745  1.00  0.00     0.302 C 
ATOM     21  O   UNL     1       0.541  -3.921  -5.675  1.00  0.00    -0.253 OA
ATOM     22  C   UNL     1      -1.331  -4.168  -7.131  1.00  0.00     0.139 C 
ENDBRANCH  19  20
ENDBRANCH  18  19
ENDBRANCH  17  18
ENDBRANCH  16  17
ENDBRANCH  15  16
ENDBRANCH  14  15
ENDBRANCH  13  14
ENDBRANCH   1  13
TORSDOF 16
ENDMDL
MODEL 5
REMARK VINA RESULT:    -2.274      3.011      6.045
REMARK INTER + INTRA:          -8.034
REMARK INTER:                  -5.052
REMARK INTRA:                  -2.982
REMARK UNBOUND:                -3.632
REMARK SMILES CCCCCC=CCC=CCCCCCCCCOC(C)=O
REMARK SMILES IDX 12 1 11 2 10 3 9 4 8 5 7 6 6 7 5 8 4 9 3 10 2 11 1 12 13 13
REMARK SMILES IDX 14 14 15 15 16 16 17 17 18 18 19 19 20 20 22 21 21 22
REMARK H PARENT
REMARK Flexibility Score: inf
ROOT
ATOM      1  C   UNL     1      -5.201   3.269  -2.266  1.00  0.00     0.004 C 
ENDROOT
BRANCH   1   2
ATOM      2  C   UNL     1      -4.237   4.238  -2.961  1.00  0.00     0.027 C 
BRANCH   2   3
ATOM      3  C   UNL     1      -3.093   4.618  -2.062  1.00  0.00    -0.031 C 
ATOM      4  C   UNL     1      -2.613   3.776  -1.135  1.00  0.00    -0.027 C 
BRANCH   4   5
ATOM      5  C   UNL     1      -1.496   4.179  -0.214  1.00  0.00     0.054 C 
BRANCH   5   6
ATOM      6  C   UNL     1      -0.163   3.731  -0.747  1.00  0.00    -0.027 C 
ATOM      7  C   UNL     1      -0.070   2.838  -1.744  1.00  0.00    -0.031 C 
BRANCH   7   8
ATOM      8  C   UNL     1       1.264   2.408  -2.300  1.00  0.00     0.027 C 
BRANCH   8   9
ATOM      9  C   UNL     1       1.748   3.342  -3.419  1.00  0.00     0.004 C 
BRANCH   9  10
ATOM     10  C   UNL     1       0.589   3.921  -4.244  1.00  0.00     0.000 C 
BRANCH  10  11
ATOM     11  C   UNL     1       0.774   5.426  -4.469  1.00  0.00    -0.003 C 
ATOM     12  C   UNL     1      -0.040   6.236  -3.464  1.00  0.00     0.004 C 
ENDBRANCH  10  11
ENDBRANCH   9  10
ENDBRANCH   8   9
ENDBRANCH   7   8
ENDBRANCH   5   6
ENDBRANCH   4   5
ENDBRANCH   2   3
ENDBRANCH   1   2
BRANCH   1  13
ATOM     13  C   UNL     1      -5.350   1.947  -3.039  1.00  0.00     0.000 C 
BRANCH  13  14
ATOM     14  C   UNL     1      -4.257   0.929  -2.680  1.00  0.00     0.000 C 
BRANCH  14  15
ATOM     15  C   UNL     1      -3.441   0.471  -3.901  1.00  0.00     0.000 C 
BRANCH  15  16
ATOM     16  C   UNL     1      -2.260   1.405  -4.205  1.00  0.00     0.003 C 
BRANCH  16  17
ATOM     17  C   UNL     1      -2.443   2.180  -5.521  1.00  0.00     0.042 C 
BRANCH  17  18
ATOM     18  C   UNL     1      -1.401   1.775  -6.570  1.00  0.00     0.233 C 
BRANCH  18  19
ATOM     19  O   UNL     1      -0.363   0.981  -5.995  1.00  0.00    -0.466 OA
BRANCH  19  20
ATOM     20  C   UNL     1      -0.034  -0.304  -6.443  1.00  0.00     0.302 C 
ATOM     21  O   UNL     1       1.162  -0.703  -6.445  1.00  0.00    -0.253 OA
ATOM     22  C   UNL     1      -1.124  -1.220  -6.885  1.00  0.00     0.139 C 
ENDBRANCH  19  20
ENDBRANCH  18  19
ENDBRANCH  17  18
ENDBRANCH  16  17
ENDBRANCH  15  16
ENDBRANCH  14  15
ENDBRANCH  13  14
ENDBRANCH   1  13
TORSDOF 16
ENDMDL
MODEL 6
REMARK VINA RESULT:    -2.270      1.712      3.237
REMARK INTER + INTRA:          -8.025
REMARK INTER:                  -4.741
REMARK INTRA:                  -3.284
REMARK UNBOUND:                -3.632
REMARK SMILES CCCCCC=CCC=CCCCCCCCCOC(C)=O
REMARK SMILES IDX 12 1 11 2 10 3 9 4 8 5 7 6 6 7 5 8 4 9 3 10 2 11 1 12 13 13
REMARK SMILES IDX 14 14 15 15 16 16 17 17 18 18 19 19 20 20 22 21 21 22
REMARK H PARENT
REMARK Flexibility Score: inf
ROOT
ATOM      1  C   UNL     1       1.027   2.407  -2.247  1.00  0.00     0.004 C 
ENDROOT
BRANCH   1   2
ATOM      2  C   UNL     1       0.090   3.116  -1.261  1.00  0.00     0.027 C 
BRANCH   2   3
ATOM      3  C   UNL     1      -1.275   2.485  -1.246  1.00  0.00    -0.031 C 
ATOM      4  C   UNL     1      -1.441   1.158  -1.336  1.00  0.00    -0.027 C 
BRANCH   4   5
ATOM      5  C   UNL     1      -2.810   0.539  -1.361  1.00  0.00     0.054 C 
BRANCH   5   6
ATOM      6  C   UNL     1      -3.428   0.641  -2.728  1.00  0.00    -0.027 C 
ATOM      7  C   UNL     1      -4.560   1.330  -2.937  1.00  0.00    -0.031 C 
BRANCH   7   8
ATOM      8  C   UNL     1      -5.167   1.458  -4.311  1.00  0.00     0.027 C 
BRANCH   8   9
ATOM      9  C   UNL     1      -4.521   0.493  -5.316  1.00  0.00     0.004 C 
BRANCH   9  10
ATOM     10  C   UNL     1      -4.337   1.125  -6.704  1.00  0.00     0.000 C 
BRANCH  10  11
ATOM     11  C   UNL     1      -5.157   2.413  -6.833  1.00  0.00    -0.003 C 
ATOM     12  C   UNL     1      -4.314   3.544  -7.416  1.00  0.00     0.004 C 
ENDBRANCH  10  11
ENDBRANCH   9  10
ENDBRANCH   8   9
ENDBRANCH   7   8
ENDBRANCH   5   6
ENDBRANCH   4   5
ENDBRANCH   2   3
ENDBRANCH   1   2
BRANCH   1  13
ATOM     13  C   UNL     1       0.844   2.917  -3.687  1.00  0.00     0.000 C 
BRANCH  13  14
ATOM     14  C   UNL     1       0.135   1.895  -4.588  1.00  0.00     0.000 C 
BRANCH  14  15
ATOM     15  C   UNL     1      -1.221   2.398  -5.111  1.00  0.00     0.000 C 
BRANCH  15  16
ATOM     16  C   UNL     1      -1.419   3.904  -4.882  1.00  0.00     0.003 C 
BRANCH  16  17
ATOM     17  C   UNL     1      -2.738   4.222  -4.157  1.00  0.00     0.042 C 
BRANCH  17  18
ATOM     18  C   UNL     1      -2.552   5.301  -3.083  1.00  0.00     0.233 C 
BRANCH  18  19
ATOM     19  O   UNL     1      -3.807   5.760  -2.581  1.00  0.00    -0.466 OA
BRANCH  19  20
ATOM     20  C   UNL     1      -4.285   5.456  -1.301  1.00  0.00     0.302 C 
ATOM     21  O   UNL     1      -3.515   4.999  -0.414  1.00  0.00    -0.253 OA
ATOM     22  C   UNL     1      -5.718   5.715  -0.981  1.00  0.00     0.139 C 
ENDBRANCH  19  20
ENDBRANCH  18  19
ENDBRANCH  17  18
ENDBRANCH  16  17
ENDBRANCH  15  16
ENDBRANCH  14  15
ENDBRANCH  13  14
ENDBRANCH   1  13
TORSDOF 16
ENDMDL
MODEL 7
REMARK VINA RESULT:    -2.270      1.267      3.456
REMARK INTER + INTRA:          -8.025
REMARK INTER:                  -4.687
REMARK INTRA:                  -3.338
REMARK UNBOUND:                -3.632
REMARK SMILES CCCCCC=CCC=CCCCCCCCCOC(C)=O
REMARK SMILES IDX 12 1 11 2 10 3 9 4 8 5 7 6 6 7 5 8 4 9 3 10 2 11 1 12 13 13
REMARK SMILES IDX 14 14 15 15 16 16 17 17 18 18 19 19 20 20 22 21 21 22
REMARK H PARENT
REMARK Flexibility Score: inf
ROOT
ATOM      1  C   UNL     1      -4.858   1.849  -5.054  1.00  0.00     0.004 C 
ENDROOT
BRANCH   1   2
ATOM      2  C   UNL     1      -4.572   0.831  -3.944  1.00  0.00     0.027 C 
BRANCH   2   3
ATOM      3  C   UNL     1      -3.276   1.129  -3.242  1.00  0.00    -0.031 C 
ATOM      4  C   UNL     1      -3.041   0.719  -1.986  1.00  0.00    -0.027 C 
BRANCH   4   5
ATOM      5  C   UNL     1      -1.760   1.057  -1.278  1.00  0.00     0.054 C 
BRANCH   5   6
ATOM      6  C   UNL     1      -0.976   2.092  -2.036  1.00  0.00    -0.027 C 
ATOM      7  C   UNL     1       0.323   1.916  -2.326  1.00  0.00    -0.031 C 
BRANCH   7   8
ATOM      8  C   UNL     1       1.105   2.938  -3.110  1.00  0.00     0.027 C 
BRANCH   8   9
ATOM      9  C   UNL     1       0.187   3.965  -3.790  1.00  0.00     0.004 C 
BRANCH   9  10
ATOM     10  C   UNL     1       0.135   3.790  -5.314  1.00  0.00     0.000 C 
BRANCH  10  11
ATOM     11  C   UNL     1      -1.229   3.251  -5.759  1.00  0.00    -0.003 C 
ATOM     12  C   UNL     1      -1.165   1.751  -6.028  1.00  0.00     0.004 C 
ENDBRANCH  10  11
ENDBRANCH   9  10
ENDBRANCH   8   9
ENDBRANCH   7   8
ENDBRANCH   5   6
ENDBRANCH   4   5
ENDBRANCH   2   3
ENDBRANCH   1   2
BRANCH   1  13
ATOM     13  C   UNL     1      -5.581   3.098  -4.521  1.00  0.00     0.000 C 
BRANCH  13  14
ATOM     14  C   UNL     1      -4.916   4.404  -4.981  1.00  0.00     0.000 C 
BRANCH  14  15
ATOM     15  C   UNL     1      -4.525   5.321  -3.809  1.00  0.00     0.000 C 
BRANCH  15  16
ATOM     16  C   UNL     1      -3.329   4.781  -3.012  1.00  0.00     0.003 C 
BRANCH  16  17
ATOM     17  C   UNL     1      -3.684   4.474  -1.547  1.00  0.00     0.042 C 
BRANCH  17  18
ATOM     18  C   UNL     1      -3.085   5.509  -0.587  1.00  0.00     0.233 C 
BRANCH  18  19
ATOM     19  O   UNL     1      -1.707   5.242  -0.326  1.00  0.00    -0.466 OA
BRANCH  19  20
ATOM     20  C   UNL     1      -1.206   4.943   0.946  1.00  0.00     0.302 C 
ATOM     21  O   UNL     1      -0.838   5.860   1.729  1.00  0.00    -0.253 OA
ATOM     22  C   UNL     1      -1.145   3.520   1.388  1.00  0.00     0.139 C 
ENDBRANCH  19  20
ENDBRANCH  18  19
ENDBRANCH  17  18
ENDBRANCH  16  17
ENDBRANCH  15  16
ENDBRANCH  14  15
ENDBRANCH  13  14
ENDBRANCH   1  13
TORSDOF 16
ENDMDL
MODEL 8
REMARK VINA RESULT:    -2.238      1.669      4.247
REMARK INTER + INTRA:          -7.963
REMARK INTER:                  -4.947
REMARK INTRA:                  -3.016
REMARK UNBOUND:                -3.632
REMARK SMILES CCCCCC=CCC=CCCCCCCCCOC(C)=O
REMARK SMILES IDX 12 1 11 2 10 3 9 4 8 5 7 6 6 7 5 8 4 9 3 10 2 11 1 12 13 13
REMARK SMILES IDX 14 14 15 15 16 16 17 17 18 18 19 19 20 20 22 21 21 22
REMARK H PARENT
REMARK Flexibility Score: inf
ROOT
ATOM      1  C   UNL     1      -5.336   2.350  -5.600  1.00  0.00     0.004 C 
ENDROOT
BRANCH   1   2
ATOM      2  C   UNL     1      -4.654   1.040  -5.189  1.00  0.00     0.027 C 
BRANCH   2   3
ATOM      3  C   UNL     1      -4.369   1.005  -3.713  1.00  0.00    -0.031 C 
ATOM      4  C   UNL     1      -3.129   0.819  -3.238  1.00  0.00    -0.027 C 
BRANCH   4   5
ATOM      5  C   UNL     1      -2.859   0.745  -1.761  1.00  0.00     0.054 C 
BRANCH   5   6
ATOM      6  C   UNL     1      -1.507   1.311  -1.427  1.00  0.00    -0.027 C 
ATOM      7  C   UNL     1      -0.683   1.773  -2.380  1.00  0.00    -0.031 C 
BRANCH   7   8
ATOM      8  C   UNL     1       0.662   2.367  -2.046  1.00  0.00     0.027 C 
BRANCH   8   9
ATOM      9  C   UNL     1       0.830   3.775  -2.635  1.00  0.00     0.004 C 
BRANCH   9  10
ATOM     10  C   UNL     1       1.375   4.780  -1.610  1.00  0.00     0.000 C 
BRANCH  10  11
ATOM     11  C   UNL     1       0.605   6.104  -1.677  1.00  0.00    -0.003 C 
ATOM     12  C   UNL     1       0.575   6.649  -3.102  1.00  0.00     0.004 C 
ENDBRANCH  10  11
ENDBRANCH   9  10
ENDBRANCH   8   9
ENDBRANCH   7   8
ENDBRANCH   5   6
ENDBRANCH   4   5
ENDBRANCH   2   3
ENDBRANCH   1   2
BRANCH   1  13
ATOM     13  C   UNL     1      -5.773   3.182  -4.382  1.00  0.00     0.000 C 
BRANCH  13  14
ATOM     14  C   UNL     1      -5.240   4.622  -4.430  1.00  0.00     0.000 C 
BRANCH  14  15
ATOM     15  C   UNL     1      -3.789   4.706  -4.932  1.00  0.00     0.000 C 
BRANCH  15  16
ATOM     16  C   UNL     1      -2.763   4.492  -3.809  1.00  0.00     0.003 C 
BRANCH  16  17
ATOM     17  C   UNL     1      -3.018   5.401  -2.594  1.00  0.00     0.042 C 
BRANCH  17  18
ATOM     18  C   UNL     1      -3.249   4.590  -1.314  1.00  0.00     0.233 C 
BRANCH  18  19
ATOM     19  O   UNL     1      -2.034   4.395  -0.592  1.00  0.00    -0.466 OA
BRANCH  19  20
ATOM     20  C   UNL     1      -1.957   4.388   0.806  1.00  0.00     0.302 C 
ATOM     21  O   UNL     1      -2.803   5.011   1.504  1.00  0.00    -0.253 OA
ATOM     22  C   UNL     1      -0.881   3.598   1.471  1.00  0.00     0.139 C 
ENDBRANCH  19  20
ENDBRANCH  18  19
ENDBRANCH  17  18
ENDBRANCH  16  17
ENDBRANCH  15  16
ENDBRANCH  14  15
ENDBRANCH  13  14
ENDBRANCH   1  13
TORSDOF 16
ENDMDL
MODEL 9
REMARK VINA RESULT:    -2.195      1.660      3.761
REMARK INTER + INTRA:          -7.880
REMARK INTER:                  -4.433
REMARK INTRA:                  -3.447
REMARK UNBOUND:                -3.632
REMARK SMILES CCCCCC=CCC=CCCCCCCCCOC(C)=O
REMARK SMILES IDX 12 1 11 2 10 3 9 4 8 5 7 6 6 7 5 8 4 9 3 10 2 11 1 12 13 13
REMARK SMILES IDX 14 14 15 15 16 16 17 17 18 18 19 19 20 20 22 21 21 22
REMARK H PARENT
REMARK Flexibility Score: inf
ROOT
ATOM      1  C   UNL     1      -5.077   3.125  -2.637  1.00  0.00     0.004 C 
ENDROOT
BRANCH   1   2
ATOM      2  C   UNL     1      -4.523   1.931  -3.423  1.00  0.00     0.027 C 
BRANCH   2   3
ATOM      3  C   UNL     1      -3.083   1.664  -3.080  1.00  0.00    -0.031 C 
ATOM      4  C   UNL     1      -2.692   1.411  -1.822  1.00  0.00    -0.027 C 
BRANCH   4   5
ATOM      5  C   UNL     1      -1.246   1.185  -1.482  1.00  0.00     0.054 C 
BRANCH   5   6
ATOM      6  C   UNL     1      -0.342   1.892  -2.453  1.00  0.00    -0.027 C 
ATOM      7  C   UNL     1       0.740   2.570  -2.040  1.00  0.00    -0.031 C 
BRANCH   7   8
ATOM      8  C   UNL     1       1.664   3.256  -3.014  1.00  0.00     0.027 C 
BRANCH   8   9
ATOM      9  C   UNL     1       0.949   3.622  -4.323  1.00  0.00     0.004 C 
BRANCH   9  10
ATOM     10  C   UNL     1       0.114   4.904  -4.198  1.00  0.00     0.000 C 
BRANCH  10  11
ATOM     11  C   UNL     1      -1.298   4.696  -4.758  1.00  0.00    -0.003 C 
ATOM     12  C   UNL     1      -1.341   3.503  -5.708  1.00  0.00     0.004 C 
ENDBRANCH  10  11
ENDBRANCH   9  10
ENDBRANCH   8   9
ENDBRANCH   7   8
ENDBRANCH   5   6
ENDBRANCH   4   5
ENDBRANCH   2   3
ENDBRANCH   1   2
BRANCH   1  13
ATOM     13  C   UNL     1      -4.874   4.454  -3.385  1.00  0.00     0.000 C 
BRANCH  13  14
ATOM     14  C   UNL     1      -4.084   5.480  -2.559  1.00  0.00     0.000 C 
BRANCH  14  15
ATOM     15  C   UNL     1      -3.554   4.902  -1.235  1.00  0.00     0.000 C 
BRANCH  15  16
ATOM     16  C   UNL     1      -2.025   4.991  -1.123  1.00  0.00     0.003 C 
BRANCH  16  17
ATOM     17  C   UNL     1      -1.501   4.483   0.231  1.00  0.00     0.042 C 
BRANCH  17  18
ATOM     18  C   UNL     1      -1.899   5.414   1.382  1.00  0.00     0.233 C 
BRANCH  18  19
ATOM     19  O   UNL     1      -0.810   6.245   1.783  1.00  0.00    -0.466 OA
BRANCH  19  20
ATOM     20  C   UNL     1      -0.551   7.502   1.225  1.00  0.00     0.302 C 
ATOM     21  O   UNL     1       0.632   7.909   1.065  1.00  0.00    -0.253 OA
ATOM     22  C   UNL     1      -1.694   8.349   0.780  1.00  0.00     0.139 C 
ENDBRANCH  19  20
ENDBRANCH  18  19
ENDBRANCH  17  18
ENDBRANCH  16  17
ENDBRANCH  15  16
ENDBRANCH  14  15
ENDBRANCH  13  14
ENDBRANCH   1  13
TORSDOF 16
ENDMDL
