MODEL 1
REMARK VINA RESULT:    -4.164      0.000      0.000
REMARK INTER + INTRA:          -6.304
REMARK INTER:                  -5.624
REMARK INTRA:                  -0.680
REMARK UNBOUND:                -0.680
REMARK SMILES CC(=O)CCC=C(C)CCC=C(C)C
REMARK SMILES IDX 7 1 6 2 8 3 9 4 10 5 11 6 13 7 12 8 14 9 5 10 4 11 2 12 3 13
REMARK SMILES IDX 1 14
REMARK H PARENT
REMARK Flexibility Score: inf
ROOT
ATOM      1  C   UNL     1      29.110  45.031  82.005  1.00  0.00    -0.077 C 
ATOM      2  C   UNL     1      29.736  44.304  82.959  1.00  0.00    -0.028 C 
ATOM      3  C   UNL     1      28.671  46.456  82.250  1.00  0.00     0.039 C 
ENDROOT
BRANCH   1   4
ATOM      4  C   UNL     1      28.854  44.403  80.653  1.00  0.00     0.034 C 
BRANCH   4   5
ATOM      5  C   UNL     1      28.997  45.439  79.533  1.00  0.00     0.032 C 
BRANCH   5   6
ATOM      6  C   UNL     1      30.383  45.408  78.933  1.00  0.00    -0.028 C 
ATOM      7  C   UNL     1      30.519  47.902  78.900  1.00  0.00     0.039 C 
ATOM      8  C   UNL     1      31.084  46.525  78.642  1.00  0.00    -0.080 C 
ATOM      9  C   UNL     1      32.460  46.381  78.046  1.00  0.00     0.039 C 
ENDBRANCH   5   6
ENDBRANCH   4   5
ENDBRANCH   1   4
BRANCH   2  10
ATOM     10  C   UNL     1      30.012  44.784  84.363  1.00  0.00     0.035 C 
BRANCH  10  11
ATOM     11  C   UNL     1      28.971  44.254  85.359  1.00  0.00     0.079 C 
BRANCH  11  12
ATOM     12  C   UNL     1      28.711  45.236  86.471  1.00  0.00     0.130 C 
ATOM     13  O   UNL     1      28.772  46.436  86.247  1.00  0.00    -0.300 OA
ATOM     14  C   UNL     1      28.362  44.751  87.845  1.00  0.00     0.087 C 
ENDBRANCH  11  12
ENDBRANCH  10  11
ENDBRANCH   2  10
TORSDOF 6
ENDMDL
MODEL 2
REMARK VINA RESULT:    -4.074      1.689      2.751
REMARK INTER + INTRA:          -6.182
REMARK INTER:                  -5.560
REMARK INTRA:                  -0.623
REMARK UNBOUND:                -0.680
REMARK SMILES CC(=O)CCC=C(C)CCC=C(C)C
REMARK SMILES IDX 7 1 6 2 8 3 9 4 10 5 11 6 13 7 12 8 14 9 5 10 4 11 2 12 3 13
REMARK SMILES IDX 1 14
REMARK H PARENT
REMARK Flexibility Score: inf
ROOT
ATOM      1  C   UNL     1      29.266  45.402  84.498  1.00  0.00    -0.077 C 
ATOM      2  C   UNL     1      28.956  44.856  85.695  1.00  0.00    -0.028 C 
ATOM      3  C   UNL     1      29.364  46.898  84.305  1.00  0.00     0.039 C 
ENDROOT
BRANCH   1   4
ATOM      4  C   UNL     1      29.534  44.489  83.321  1.00  0.00     0.034 C 
BRANCH   4   5
ATOM      5  C   UNL     1      28.569  44.785  82.168  1.00  0.00     0.032 C 
BRANCH   5   6
ATOM      6  C   UNL     1      29.265  44.686  80.832  1.00  0.00    -0.028 C 
ATOM      7  C   UNL     1      29.443  47.169  80.640  1.00  0.00     0.039 C 
ATOM      8  C   UNL     1      29.667  45.766  80.130  1.00  0.00    -0.080 C 
ATOM      9  C   UNL     1      30.355  45.553  78.806  1.00  0.00     0.039 C 
ENDBRANCH   5   6
ENDBRANCH   4   5
ENDBRANCH   1   4
BRANCH   2  10
ATOM     10  C   UNL     1      28.618  45.645  86.938  1.00  0.00     0.035 C 
BRANCH  10  11
ATOM     11  C   UNL     1      28.340  44.726  88.135  1.00  0.00     0.079 C 
BRANCH  11  12
ATOM     12  C   UNL     1      26.919  44.854  88.619  1.00  0.00     0.130 C 
ATOM     13  O   UNL     1      26.698  45.213  89.765  1.00  0.00    -0.300 OA
ATOM     14  C   UNL     1      25.775  44.560  87.697  1.00  0.00     0.087 C 
ENDBRANCH  11  12
ENDBRANCH  10  11
ENDBRANCH   2  10
TORSDOF 6
ENDMDL
MODEL 3
REMARK VINA RESULT:    -3.992     11.337     13.268
REMARK INTER + INTRA:          -6.072
REMARK INTER:                  -4.747
REMARK INTRA:                  -1.325
REMARK UNBOUND:                -0.680
REMARK SMILES CC(=O)CCC=C(C)CCC=C(C)C
REMARK SMILES IDX 7 1 6 2 8 3 9 4 10 5 11 6 13 7 12 8 14 9 5 10 4 11 2 12 3 13
REMARK SMILES IDX 1 14
REMARK H PARENT
REMARK Flexibility Score: inf
ROOT
ATOM      1  C   UNL     1      22.858  37.886  87.970  1.00  0.00    -0.077 C 
ATOM      2  C   UNL     1      21.926  37.362  88.798  1.00  0.00    -0.028 C 
ATOM      3  C   UNL     1      24.337  37.677  88.201  1.00  0.00     0.039 C 
ENDROOT
BRANCH   1   4
ATOM      4  C   UNL     1      22.406  38.694  86.773  1.00  0.00     0.034 C 
BRANCH   4   5
ATOM      5  C   UNL     1      22.782  37.989  85.465  1.00  0.00     0.032 C 
BRANCH   5   6
ATOM      6  C   UNL     1      21.801  36.888  85.135  1.00  0.00    -0.028 C 
ATOM      7  C   UNL     1      23.514  35.119  85.551  1.00  0.00     0.039 C 
ATOM      8  C   UNL     1      22.126  35.579  85.173  1.00  0.00    -0.080 C 
ATOM      9  C   UNL     1      21.070  34.561  84.825  1.00  0.00     0.039 C 
ENDBRANCH   5   6
ENDBRANCH   4   5
ENDBRANCH   1   4
BRANCH   2  10
ATOM     10  C   UNL     1      22.234  36.580  90.053  1.00  0.00     0.035 C 
BRANCH  10  11
ATOM     11  C   UNL     1      21.812  35.111  89.923  1.00  0.00     0.079 C 
BRANCH  11  12
ATOM     12  C   UNL     1      22.926  34.256  89.377  1.00  0.00     0.130 C 
ATOM     13  O   UNL     1      24.085  34.510  89.670  1.00  0.00    -0.300 OA
ATOM     14  C   UNL     1      22.621  33.088  88.490  1.00  0.00     0.087 C 
ENDBRANCH  11  12
ENDBRANCH  10  11
ENDBRANCH   2  10
TORSDOF 6
ENDMDL
MODEL 4
REMARK VINA RESULT:    -3.979     11.503     14.639
REMARK INTER + INTRA:          -6.055
REMARK INTER:                  -5.039
REMARK INTRA:                  -1.017
REMARK UNBOUND:                -0.680
REMARK SMILES CC(=O)CCC=C(C)CCC=C(C)C
REMARK SMILES IDX 7 1 6 2 8 3 9 4 10 5 11 6 13 7 12 8 14 9 5 10 4 11 2 12 3 13
REMARK SMILES IDX 1 14
REMARK H PARENT
REMARK Flexibility Score: inf
ROOT
ATOM      1  C   UNL     1      22.966  34.948  87.277  1.00  0.00    -0.077 C 
ATOM      2  C   UNL     1      23.243  35.853  88.244  1.00  0.00    -0.028 C 
ATOM      3  C   UNL     1      23.593  35.030  85.905  1.00  0.00     0.039 C 
ENDROOT
BRANCH   1   4
ATOM      4  C   UNL     1      22.011  33.816  87.584  1.00  0.00     0.034 C 
BRANCH   4   5
ATOM      5  C   UNL     1      22.163  33.350  89.036  1.00  0.00     0.032 C 
BRANCH   5   6
ATOM      6  C   UNL     1      22.837  32.000  89.110  1.00  0.00    -0.028 C 
ATOM      7  C   UNL     1      24.810  32.953  90.310  1.00  0.00     0.039 C 
ATOM      8  C   UNL     1      24.042  31.811  89.688  1.00  0.00    -0.080 C 
ATOM      9  C   UNL     1      24.625  30.421  89.707  1.00  0.00     0.039 C 
ENDBRANCH   5   6
ENDBRANCH   4   5
ENDBRANCH   1   4
BRANCH   2  10
ATOM     10  C   UNL     1      24.135  37.057  88.063  1.00  0.00     0.035 C 
BRANCH  10  11
ATOM     11  C   UNL     1      23.383  38.367  88.333  1.00  0.00     0.079 C 
BRANCH  11  12
ATOM     12  C   UNL     1      22.260  38.579  87.352  1.00  0.00     0.130 C 
ATOM     13  O   UNL     1      21.115  38.705  87.758  1.00  0.00    -0.300 OA
ATOM     14  C   UNL     1      22.541  38.651  85.882  1.00  0.00     0.087 C 
ENDBRANCH  11  12
ENDBRANCH  10  11
ENDBRANCH   2  10
TORSDOF 6
ENDMDL
MODEL 5
REMARK VINA RESULT:    -3.971      1.833      3.574
REMARK INTER + INTRA:          -6.044
REMARK INTER:                  -5.395
REMARK INTRA:                  -0.650
REMARK UNBOUND:                -0.680
REMARK SMILES CC(=O)CCC=C(C)CCC=C(C)C
REMARK SMILES IDX 7 1 6 2 8 3 9 4 10 5 11 6 13 7 12 8 14 9 5 10 4 11 2 12 3 13
REMARK SMILES IDX 1 14
REMARK H PARENT
REMARK Flexibility Score: inf
ROOT
ATOM      1  C   UNL     1      29.303  45.618  85.071  1.00  0.00    -0.077 C 
ATOM      2  C   UNL     1      28.658  45.817  86.243  1.00  0.00    -0.028 C 
ATOM      3  C   UNL     1      29.905  44.280  84.709  1.00  0.00     0.039 C 
ENDROOT
BRANCH   1   4
ATOM      4  C   UNL     1      29.413  46.764  84.090  1.00  0.00     0.034 C 
BRANCH   4   5
ATOM      5  C   UNL     1      28.443  46.576  82.917  1.00  0.00     0.032 C 
BRANCH   5   6
ATOM      6  C   UNL     1      29.156  46.705  81.592  1.00  0.00    -0.028 C 
ATOM      7  C   UNL     1      28.908  44.265  81.122  1.00  0.00     0.039 C 
ATOM      8  C   UNL     1      29.372  45.657  80.768  1.00  0.00    -0.080 C 
ATOM      9  C   UNL     1      30.094  45.897  79.467  1.00  0.00     0.039 C 
ENDBRANCH   5   6
ENDBRANCH   4   5
ENDBRANCH   1   4
BRANCH   2  10
ATOM     10  C   UNL     1      28.516  44.781  87.332  1.00  0.00     0.035 C 
BRANCH  10  11
ATOM     11  C   UNL     1      28.123  45.416  88.672  1.00  0.00     0.079 C 
BRANCH  11  12
ATOM     12  C   UNL     1      26.709  45.070  89.061  1.00  0.00     0.130 C 
ATOM     13  O   UNL     1      26.325  45.277  90.202  1.00  0.00    -0.300 OA
ATOM     14  C   UNL     1      25.767  44.488  88.052  1.00  0.00     0.087 C 
ENDBRANCH  11  12
ENDBRANCH  10  11
ENDBRANCH   2  10
TORSDOF 6
ENDMDL
MODEL 6
REMARK VINA RESULT:    -3.968     11.682     13.965
REMARK INTER + INTRA:          -6.040
REMARK INTER:                  -5.012
REMARK INTRA:                  -1.028
REMARK UNBOUND:                -0.680
REMARK SMILES CC(=O)CCC=C(C)CCC=C(C)C
REMARK SMILES IDX 7 1 6 2 8 3 9 4 10 5 11 6 13 7 12 8 14 9 5 10 4 11 2 12 3 13
REMARK SMILES IDX 1 14
REMARK H PARENT
REMARK Flexibility Score: inf
ROOT
ATOM      1  C   UNL     1      21.959  34.317  87.126  1.00  0.00    -0.077 C 
ATOM      2  C   UNL     1      23.014  33.897  87.862  1.00  0.00    -0.028 C 
ATOM      3  C   UNL     1      20.569  34.416  87.710  1.00  0.00     0.039 C 
ENDROOT
BRANCH   1   4
ATOM      4  C   UNL     1      22.182  34.708  85.682  1.00  0.00     0.034 C 
BRANCH   4   5
ATOM      5  C   UNL     1      23.240  35.811  85.571  1.00  0.00     0.032 C 
BRANCH   5   6
ATOM      6  C   UNL     1      22.655  37.165  85.896  1.00  0.00    -0.028 C 
ATOM      7  C   UNL     1      24.079  37.388  87.935  1.00  0.00     0.039 C 
ATOM      8  C   UNL     1      23.032  37.890  86.970  1.00  0.00    -0.080 C 
ATOM      9  C   UNL     1      22.384  39.231  87.201  1.00  0.00     0.039 C 
ENDBRANCH   5   6
ENDBRANCH   4   5
ENDBRANCH   1   4
BRANCH   2  10
ATOM     10  C   UNL     1      22.929  33.430  89.296  1.00  0.00     0.035 C 
BRANCH  10  11
ATOM     11  C   UNL     1      24.093  33.970  90.138  1.00  0.00     0.079 C 
BRANCH  11  12
ATOM     12  C   UNL     1      25.076  32.884  90.491  1.00  0.00     0.130 C 
ATOM     13  O   UNL     1      26.113  33.170  91.070  1.00  0.00    -0.300 OA
ATOM     14  C   UNL     1      24.782  31.455  90.151  1.00  0.00     0.087 C 
ENDBRANCH  11  12
ENDBRANCH  10  11
ENDBRANCH   2  10
TORSDOF 6
ENDMDL
MODEL 7
REMARK VINA RESULT:    -3.940      2.455      4.529
REMARK INTER + INTRA:          -6.002
REMARK INTER:                  -5.245
REMARK INTRA:                  -0.757
REMARK UNBOUND:                -0.680
REMARK SMILES CC(=O)CCC=C(C)CCC=C(C)C
REMARK SMILES IDX 7 1 6 2 8 3 9 4 10 5 11 6 13 7 12 8 14 9 5 10 4 11 2 12 3 13
REMARK SMILES IDX 1 14
REMARK H PARENT
REMARK Flexibility Score: inf
ROOT
ATOM      1  C   UNL     1      28.672  45.157  86.624  1.00  0.00    -0.077 C 
ATOM      2  C   UNL     1      28.414  44.659  87.855  1.00  0.00    -0.028 C 
ATOM      3  C   UNL     1      28.279  46.563  86.234  1.00  0.00     0.039 C 
ENDROOT
BRANCH   1   4
ATOM      4  C   UNL     1      29.384  44.284  85.613  1.00  0.00     0.034 C 
BRANCH   4   5
ATOM      5  C   UNL     1      29.768  45.091  84.368  1.00  0.00     0.032 C 
BRANCH   5   6
ATOM      6  C   UNL     1      29.439  44.334  83.103  1.00  0.00    -0.028 C 
ATOM      7  C   UNL     1      29.207  46.449  81.793  1.00  0.00     0.039 C 
ATOM      8  C   UNL     1      29.183  44.944  81.926  1.00  0.00    -0.080 C 
ATOM      9  C   UNL     1      28.866  44.093  80.724  1.00  0.00     0.039 C 
ENDBRANCH   5   6
ENDBRANCH   4   5
ENDBRANCH   1   4
BRANCH   2  10
ATOM     10  C   UNL     1      27.670  45.397  88.942  1.00  0.00     0.035 C 
BRANCH  10  11
ATOM     11  C   UNL     1      26.314  44.747  89.243  1.00  0.00     0.079 C 
BRANCH  11  12
ATOM     12  C   UNL     1      25.323  44.982  88.133  1.00  0.00     0.130 C 
ATOM     13  O   UNL     1      24.887  44.034  87.498  1.00  0.00    -0.300 OA
ATOM     14  C   UNL     1      24.858  46.370  87.812  1.00  0.00     0.087 C 
ENDBRANCH  11  12
ENDBRANCH  10  11
ENDBRANCH   2  10
TORSDOF 6
ENDMDL
MODEL 8
REMARK VINA RESULT:    -3.916     12.138     14.099
REMARK INTER + INTRA:          -5.969
REMARK INTER:                  -5.274
REMARK INTRA:                  -0.695
REMARK UNBOUND:                -0.680
REMARK SMILES CC(=O)CCC=C(C)CCC=C(C)C
REMARK SMILES IDX 7 1 6 2 8 3 9 4 10 5 11 6 13 7 12 8 14 9 5 10 4 11 2 12 3 13
REMARK SMILES IDX 1 14
REMARK H PARENT
REMARK Flexibility Score: inf
ROOT
ATOM      1  C   UNL     1      23.694  36.482  87.875  1.00  0.00    -0.077 C 
ATOM      2  C   UNL     1      23.539  35.349  88.597  1.00  0.00    -0.028 C 
ATOM      3  C   UNL     1      24.124  37.783  88.514  1.00  0.00     0.039 C 
ENDROOT
BRANCH   1   4
ATOM      4  C   UNL     1      23.441  36.443  86.384  1.00  0.00     0.034 C 
BRANCH   4   5
ATOM      5  C   UNL     1      23.354  34.997  85.882  1.00  0.00     0.032 C 
BRANCH   5   6
ATOM      6  C   UNL     1      22.450  34.889  84.677  1.00  0.00    -0.028 C 
ATOM      7  C   UNL     1      20.462  34.390  86.104  1.00  0.00     0.039 C 
ATOM      8  C   UNL     1      21.132  34.614  84.769  1.00  0.00    -0.080 C 
ATOM      9  C   UNL     1      20.320  34.530  83.502  1.00  0.00     0.039 C 
ENDBRANCH   5   6
ENDBRANCH   4   5
ENDBRANCH   1   4
BRANCH   2  10
ATOM     10  C   UNL     1      23.709  35.255  90.095  1.00  0.00     0.035 C 
BRANCH  10  11
ATOM     11  C   UNL     1      23.388  33.848  90.615  1.00  0.00     0.079 C 
BRANCH  11  12
ATOM     12  C   UNL     1      24.501  32.877  90.321  1.00  0.00     0.130 C 
ATOM     13  O   UNL     1      25.651  33.161  90.622  1.00  0.00    -0.300 OA
ATOM     14  C   UNL     1      24.206  31.557  89.675  1.00  0.00     0.087 C 
ENDBRANCH  11  12
ENDBRANCH  10  11
ENDBRANCH   2  10
TORSDOF 6
ENDMDL
MODEL 9
REMARK VINA RESULT:    -3.870     11.071     13.011
REMARK INTER + INTRA:          -5.907
REMARK INTER:                  -4.486
REMARK INTRA:                  -1.422
REMARK UNBOUND:                -0.680
REMARK SMILES CC(=O)CCC=C(C)CCC=C(C)C
REMARK SMILES IDX 7 1 6 2 8 3 9 4 10 5 11 6 13 7 12 8 14 9 5 10 4 11 2 12 3 13
REMARK SMILES IDX 1 14
REMARK H PARENT
REMARK Flexibility Score: inf
ROOT
ATOM      1  C   UNL     1      22.381  34.658  86.342  1.00  0.00    -0.077 C 
ATOM      2  C   UNL     1      22.346  34.464  87.681  1.00  0.00    -0.028 C 
ATOM      3  C   UNL     1      23.674  34.932  85.610  1.00  0.00     0.039 C 
ENDROOT
BRANCH   1   4
ATOM      4  C   UNL     1      21.090  34.587  85.557  1.00  0.00     0.034 C 
BRANCH   4   5
ATOM      5  C   UNL     1      20.866  35.873  84.754  1.00  0.00     0.032 C 
BRANCH   5   6
ATOM      6  C   UNL     1      20.468  37.018  85.655  1.00  0.00    -0.028 C 
ATOM      7  C   UNL     1      22.472  38.353  84.991  1.00  0.00     0.039 C 
ATOM      8  C   UNL     1      21.193  38.151  85.769  1.00  0.00    -0.080 C 
ATOM      9  C   UNL     1      20.705  39.232  86.698  1.00  0.00     0.039 C 
ENDBRANCH   5   6
ENDBRANCH   4   5
ENDBRANCH   1   4
BRANCH   2  10
ATOM     10  C   UNL     1      23.546  34.555  88.593  1.00  0.00     0.035 C 
BRANCH  10  11
ATOM     11  C   UNL     1      23.341  35.602  89.696  1.00  0.00     0.079 C 
BRANCH  11  12
ATOM     12  C   UNL     1      23.080  36.971  89.124  1.00  0.00     0.130 C 
ATOM     13  O   UNL     1      22.034  37.547  89.383  1.00  0.00    -0.300 OA
ATOM     14  C   UNL     1      24.101  37.636  88.253  1.00  0.00     0.087 C 
ENDBRANCH  11  12
ENDBRANCH  10  11
ENDBRANCH   2  10
TORSDOF 6
ENDMDL
