MODEL 1
REMARK VINA RESULT:    -3.698      0.000      0.000
REMARK INTER + INTRA:          -5.514
REMARK INTER:                  -5.212
REMARK INTRA:                  -0.302
REMARK UNBOUND:                -0.302
REMARK SMILES CCCCCCCCC(=O)[O-]
REMARK SMILES IDX 6 1 7 2 8 3 9 4 10 5 11 6 5 7 4 8 3 9 2 10 1 11
REMARK H PARENT
REMARK Flexibility Score: inf
ROOT
ATOM      1  C   UNL     1      57.523  28.205  50.174  1.00  0.00     0.000 C 
ENDROOT
BRANCH   1   2
ATOM      2  C   UNL     1      58.574  29.319  50.024  1.00  0.00     0.006 C 
BRANCH   2   3
ATOM      3  C   UNL     1      59.578  29.045  48.897  1.00  0.00     0.053 C 
BRANCH   3   4
ATOM      4  C   UNL     1      60.584  28.026  49.332  1.00  0.00     0.041 C 
ATOM      5  O   UNL     1      61.649  28.387  49.898  1.00  0.00    -0.550 OA
ATOM      6  O   UNL     1      60.368  26.679  49.068  1.00  0.00    -0.550 OA
ENDBRANCH   3   4
ENDBRANCH   2   3
ENDBRANCH   1   2
BRANCH   1   7
ATOM      7  C   UNL     1      56.094  28.695  50.475  1.00  0.00     0.000 C 
BRANCH   7   8
ATOM      8  C   UNL     1      55.011  27.792  49.867  1.00  0.00    -0.000 C 
BRANCH   8   9
ATOM      9  C   UNL     1      55.584  26.418  49.499  1.00  0.00    -0.000 C 
BRANCH   9  10
ATOM     10  C   UNL     1      54.483  25.480  48.992  1.00  0.00    -0.003 C 
ATOM     11  C   UNL     1      53.195  26.246  48.704  1.00  0.00     0.004 C 
ENDBRANCH   9  10
ENDBRANCH   8   9
ENDBRANCH   7   8
ENDBRANCH   1   7
TORSDOF 7
ENDMDL
MODEL 2
REMARK VINA RESULT:    -3.568     12.294     14.106
REMARK INTER + INTRA:          -5.329
REMARK INTER:                  -5.021
REMARK INTRA:                  -0.308
REMARK UNBOUND:                -0.302
REMARK SMILES CCCCCCCCC(=O)[O-]
REMARK SMILES IDX 6 1 7 2 8 3 9 4 10 5 11 6 5 7 4 8 3 9 2 10 1 11
REMARK H PARENT
REMARK Flexibility Score: inf
ROOT
ATOM      1  C   UNL     1      61.349  32.083  59.943  1.00  0.00     0.000 C 
ENDROOT
BRANCH   1   2
ATOM      2  C   UNL     1      61.152  31.111  61.120  1.00  0.00     0.006 C 
BRANCH   2   3
ATOM      3  C   UNL     1      61.253  29.639  60.703  1.00  0.00     0.053 C 
BRANCH   3   4
ATOM      4  C   UNL     1      62.587  29.078  61.087  1.00  0.00     0.041 C 
ATOM      5  O   UNL     1      62.748  27.833  61.179  1.00  0.00    -0.550 OA
ATOM      6  O   UNL     1      63.638  29.933  61.392  1.00  0.00    -0.550 OA
ENDBRANCH   3   4
ENDBRANCH   2   3
ENDBRANCH   1   2
BRANCH   1   7
ATOM      7  C   UNL     1      62.427  33.161  60.161  1.00  0.00     0.000 C 
BRANCH   7   8
ATOM      8  C   UNL     1      61.879  34.590  60.043  1.00  0.00    -0.000 C 
BRANCH   8   9
ATOM      9  C   UNL     1      62.875  35.609  60.609  1.00  0.00    -0.000 C 
BRANCH   9  10
ATOM     10  C   UNL     1      64.219  34.945  60.929  1.00  0.00    -0.003 C 
ATOM     11  C   UNL     1      65.145  35.903  61.672  1.00  0.00     0.004 C 
ENDBRANCH   9  10
ENDBRANCH   8   9
ENDBRANCH   7   8
ENDBRANCH   1   7
TORSDOF 7
ENDMDL
MODEL 3
REMARK VINA RESULT:    -3.506      1.015      1.789
REMARK INTER + INTRA:          -5.242
REMARK INTER:                  -4.923
REMARK INTRA:                  -0.319
REMARK UNBOUND:                -0.302
REMARK SMILES CCCCCCCCC(=O)[O-]
REMARK SMILES IDX 6 1 7 2 8 3 9 4 10 5 11 6 5 7 4 8 3 9 2 10 1 11
REMARK H PARENT
REMARK Flexibility Score: inf
ROOT
ATOM      1  C   UNL     1      58.750  29.050  49.965  1.00  0.00     0.000 C 
ENDROOT
BRANCH   1   2
ATOM      2  C   UNL     1      59.812  28.601  48.946  1.00  0.00     0.006 C 
BRANCH   2   3
ATOM      3  C   UNL     1      60.313  27.172  49.195  1.00  0.00     0.053 C 
BRANCH   3   4
ATOM      4  C   UNL     1      61.732  27.192  49.670  1.00  0.00     0.041 C 
ATOM      5  O   UNL     1      62.050  26.611  50.741  1.00  0.00    -0.550 OA
ATOM      6  O   UNL     1      62.694  27.895  48.957  1.00  0.00    -0.550 OA
ENDBRANCH   3   4
ENDBRANCH   2   3
ENDBRANCH   1   2
BRANCH   1   7
ATOM      7  C   UNL     1      57.601  28.049  50.192  1.00  0.00     0.000 C 
BRANCH   7   8
ATOM      8  C   UNL     1      56.241  28.733  50.393  1.00  0.00    -0.000 C 
BRANCH   8   9
ATOM      9  C   UNL     1      55.098  27.834  49.907  1.00  0.00    -0.000 C 
BRANCH   9  10
ATOM     10  C   UNL     1      55.613  26.440  49.535  1.00  0.00    -0.003 C 
ATOM     11  C   UNL     1      54.517  25.601  48.885  1.00  0.00     0.004 C 
ENDBRANCH   9  10
ENDBRANCH   8   9
ENDBRANCH   7   8
ENDBRANCH   1   7
TORSDOF 7
ENDMDL
MODEL 4
REMARK VINA RESULT:    -3.479      3.262      5.730
REMARK INTER + INTRA:          -5.205
REMARK INTER:                  -4.908
REMARK INTRA:                  -0.297
REMARK UNBOUND:                -0.302
REMARK SMILES CCCCCCCCC(=O)[O-]
REMARK SMILES IDX 6 1 7 2 8 3 9 4 10 5 11 6 5 7 4 8 3 9 2 10 1 11
REMARK H PARENT
REMARK Flexibility Score: inf
ROOT
ATOM      1  C   UNL     1      55.990  28.843  50.377  1.00  0.00     0.000 C 
ENDROOT
BRANCH   1   2
ATOM      2  C   UNL     1      54.864  27.905  49.906  1.00  0.00     0.006 C 
BRANCH   2   3
ATOM      3  C   UNL     1      55.373  26.514  49.506  1.00  0.00     0.053 C 
BRANCH   3   4
ATOM      4  C   UNL     1      54.229  25.636  49.105  1.00  0.00     0.041 C 
ATOM      5  O   UNL     1      54.196  24.431  49.472  1.00  0.00    -0.550 OA
ATOM      6  O   UNL     1      53.225  26.133  48.285  1.00  0.00    -0.550 OA
ENDBRANCH   3   4
ENDBRANCH   2   3
ENDBRANCH   1   2
BRANCH   1   7
ATOM      7  C   UNL     1      57.411  28.259  50.271  1.00  0.00     0.000 C 
BRANCH   7   8
ATOM      8  C   UNL     1      58.507  29.331  50.351  1.00  0.00    -0.000 C 
BRANCH   8   9
ATOM      9  C   UNL     1      59.411  29.286  49.114  1.00  0.00    -0.000 C 
BRANCH   9  10
ATOM     10  C   UNL     1      60.162  27.952  49.029  1.00  0.00    -0.003 C 
ATOM     11  C   UNL     1      61.318  27.906  50.024  1.00  0.00     0.004 C 
ENDBRANCH   9  10
ENDBRANCH   8   9
ENDBRANCH   7   8
ENDBRANCH   1   7
TORSDOF 7
ENDMDL
MODEL 5
REMARK VINA RESULT:    -3.383     12.265     13.671
REMARK INTER + INTRA:          -5.069
REMARK INTER:                  -4.394
REMARK INTRA:                  -0.675
REMARK UNBOUND:                -0.302
REMARK SMILES CCCCCCCCC(=O)[O-]
REMARK SMILES IDX 6 1 7 2 8 3 9 4 10 5 11 6 5 7 4 8 3 9 2 10 1 11
REMARK H PARENT
REMARK Flexibility Score: inf
ROOT
ATOM      1  C   UNL     1      64.514  32.457  59.834  1.00  0.00     0.000 C 
ENDROOT
BRANCH   1   2
ATOM      2  C   UNL     1      63.893  33.663  60.560  1.00  0.00     0.006 C 
BRANCH   2   3
ATOM      3  C   UNL     1      62.733  34.297  59.782  1.00  0.00     0.053 C 
BRANCH   3   4
ATOM      4  C   UNL     1      62.321  35.587  60.419  1.00  0.00     0.041 C 
ATOM      5  O   UNL     1      63.141  36.241  61.116  1.00  0.00    -0.550 OA
ATOM      6  O   UNL     1      61.016  36.042  60.284  1.00  0.00    -0.550 OA
ENDBRANCH   3   4
ENDBRANCH   2   3
ENDBRANCH   1   2
BRANCH   1   7
ATOM      7  C   UNL     1      64.505  31.140  60.633  1.00  0.00     0.000 C 
BRANCH   7   8
ATOM      8  C   UNL     1      63.349  30.209  60.240  1.00  0.00    -0.000 C 
BRANCH   8   9
ATOM      9  C   UNL     1      62.399  29.984  61.423  1.00  0.00    -0.000 C 
BRANCH   9  10
ATOM     10  C   UNL     1      61.145  30.855  61.296  1.00  0.00    -0.003 C 
ATOM     11  C   UNL     1      60.810  31.131  59.834  1.00  0.00     0.004 C 
ENDBRANCH   9  10
ENDBRANCH   8   9
ENDBRANCH   7   8
ENDBRANCH   1   7
TORSDOF 7
ENDMDL
MODEL 6
REMARK VINA RESULT:    -3.382     13.087     14.384
REMARK INTER + INTRA:          -5.068
REMARK INTER:                  -4.470
REMARK INTRA:                  -0.598
REMARK UNBOUND:                -0.302
REMARK SMILES CCCCCCCCC(=O)[O-]
REMARK SMILES IDX 6 1 7 2 8 3 9 4 10 5 11 6 5 7 4 8 3 9 2 10 1 11
REMARK H PARENT
REMARK Flexibility Score: inf
ROOT
ATOM      1  C   UNL     1      64.471  33.834  59.971  1.00  0.00     0.000 C 
ENDROOT
BRANCH   1   2
ATOM      2  C   UNL     1      64.009  32.421  60.369  1.00  0.00     0.006 C 
BRANCH   2   3
ATOM      3  C   UNL     1      62.485  32.252  60.306  1.00  0.00     0.053 C 
BRANCH   3   4
ATOM      4  C   UNL     1      62.066  31.025  61.054  1.00  0.00     0.041 C 
ATOM      5  O   UNL     1      62.891  30.097  61.265  1.00  0.00    -0.550 OA
ATOM      6  O   UNL     1      60.750  30.884  61.475  1.00  0.00    -0.550 OA
ENDBRANCH   3   4
ENDBRANCH   2   3
ENDBRANCH   1   2
BRANCH   1   7
ATOM      7  C   UNL     1      64.932  34.722  61.142  1.00  0.00     0.000 C 
BRANCH   7   8
ATOM      8  C   UNL     1      64.068  35.979  61.317  1.00  0.00    -0.000 C 
BRANCH   8   9
ATOM      9  C   UNL     1      63.220  36.241  60.066  1.00  0.00    -0.000 C 
BRANCH   9  10
ATOM     10  C   UNL     1      61.772  36.574  60.443  1.00  0.00    -0.003 C 
ATOM     11  C   UNL     1      60.798  35.575  59.827  1.00  0.00     0.004 C 
ENDBRANCH   9  10
ENDBRANCH   8   9
ENDBRANCH   7   8
ENDBRANCH   1   7
TORSDOF 7
ENDMDL
MODEL 7
REMARK VINA RESULT:    -3.367     12.590     13.903
REMARK INTER + INTRA:          -5.047
REMARK INTER:                  -4.639
REMARK INTRA:                  -0.407
REMARK UNBOUND:                -0.302
REMARK SMILES CCCCCCCCC(=O)[O-]
REMARK SMILES IDX 6 1 7 2 8 3 9 4 10 5 11 6 5 7 4 8 3 9 2 10 1 11
REMARK H PARENT
REMARK Flexibility Score: inf
ROOT
ATOM      1  C   UNL     1      61.383  32.839  59.739  1.00  0.00     0.000 C 
ENDROOT
BRANCH   1   2
ATOM      2  C   UNL     1      62.721  33.441  60.204  1.00  0.00     0.006 C 
BRANCH   2   3
ATOM      3  C   UNL     1      62.677  34.970  60.327  1.00  0.00     0.053 C 
BRANCH   3   4
ATOM      4  C   UNL     1      63.893  35.470  61.042  1.00  0.00     0.041 C 
ATOM      5  O   UNL     1      64.817  34.674  61.356  1.00  0.00    -0.550 OA
ATOM      6  O   UNL     1      63.985  36.807  61.405  1.00  0.00    -0.550 OA
ENDBRANCH   3   4
ENDBRANCH   2   3
ENDBRANCH   1   2
BRANCH   1   7
ATOM      7  C   UNL     1      61.279  31.308  59.868  1.00  0.00     0.000 C 
BRANCH   7   8
ATOM      8  C   UNL     1      61.397  30.819  61.319  1.00  0.00    -0.000 C 
BRANCH   8   9
ATOM      9  C   UNL     1      62.368  29.637  61.423  1.00  0.00    -0.000 C 
BRANCH   9  10
ATOM     10  C   UNL     1      63.813  30.088  61.182  1.00  0.00    -0.003 C 
ATOM     11  C   UNL     1      64.595  29.040  60.397  1.00  0.00     0.004 C 
ENDBRANCH   9  10
ENDBRANCH   8   9
ENDBRANCH   7   8
ENDBRANCH   1   7
TORSDOF 7
ENDMDL
MODEL 8
REMARK VINA RESULT:    -3.338      3.053      5.410
REMARK INTER + INTRA:          -5.006
REMARK INTER:                  -4.281
REMARK INTRA:                  -0.725
REMARK UNBOUND:                -0.302
REMARK SMILES CCCCCCCCC(=O)[O-]
REMARK SMILES IDX 6 1 7 2 8 3 9 4 10 5 11 6 5 7 4 8 3 9 2 10 1 11
REMARK H PARENT
REMARK Flexibility Score: inf
ROOT
ATOM      1  C   UNL     1      58.293  26.013  51.060  1.00  0.00     0.000 C 
ENDROOT
BRANCH   1   2
ATOM      2  C   UNL     1      57.228  26.051  49.950  1.00  0.00     0.006 C 
BRANCH   2   3
ATOM      3  C   UNL     1      56.226  27.199  50.122  1.00  0.00     0.053 C 
BRANCH   3   4
ATOM      4  C   UNL     1      54.948  26.888  49.407  1.00  0.00     0.041 C 
ATOM      5  O   UNL     1      54.022  27.740  49.364  1.00  0.00    -0.550 OA
ATOM      6  O   UNL     1      54.761  25.639  48.830  1.00  0.00    -0.550 OA
ENDBRANCH   3   4
ENDBRANCH   2   3
ENDBRANCH   1   2
BRANCH   1   7
ATOM      7  C   UNL     1      59.748  25.912  50.563  1.00  0.00     0.000 C 
BRANCH   7   8
ATOM      8  C   UNL     1      59.967  26.596  49.206  1.00  0.00    -0.000 C 
BRANCH   8   9
ATOM      9  C   UNL     1      60.582  27.989  49.387  1.00  0.00    -0.000 C 
BRANCH   9  10
ATOM     10  C   UNL     1      59.528  29.086  49.200  1.00  0.00    -0.003 C 
ATOM     11  C   UNL     1      59.052  29.628  50.544  1.00  0.00     0.004 C 
ENDBRANCH   9  10
ENDBRANCH   8   9
ENDBRANCH   7   8
ENDBRANCH   1   7
TORSDOF 7
ENDMDL
MODEL 9
REMARK VINA RESULT:    -3.247     12.264     14.028
REMARK INTER + INTRA:          -4.877
REMARK INTER:                  -4.373
REMARK INTRA:                  -0.505
REMARK UNBOUND:                -0.302
REMARK SMILES CCCCCCCCC(=O)[O-]
REMARK SMILES IDX 6 1 7 2 8 3 9 4 10 5 11 6 5 7 4 8 3 9 2 10 1 11
REMARK H PARENT
REMARK Flexibility Score: inf
ROOT
ATOM      1  C   UNL     1      63.872  30.550  59.559  1.00  0.00     0.000 C 
ENDROOT
BRANCH   1   2
ATOM      2  C   UNL     1      63.770  30.060  61.015  1.00  0.00     0.006 C 
BRANCH   2   3
ATOM      3  C   UNL     1      62.480  29.278  61.292  1.00  0.00     0.053 C 
BRANCH   3   4
ATOM      4  C   UNL     1      61.284  30.088  60.901  1.00  0.00     0.041 C 
ATOM      5  O   UNL     1      60.969  31.114  61.560  1.00  0.00    -0.550 OA
ATOM      6  O   UNL     1      60.487  29.683  59.838  1.00  0.00    -0.550 OA
ENDBRANCH   3   4
ENDBRANCH   2   3
ENDBRANCH   1   2
BRANCH   1   7
ATOM      7  C   UNL     1      64.528  31.932  59.382  1.00  0.00     0.000 C 
BRANCH   7   8
ATOM      8  C   UNL     1      64.310  32.857  60.588  1.00  0.00    -0.000 C 
BRANCH   8   9
ATOM      9  C   UNL     1      63.153  33.830  60.332  1.00  0.00    -0.000 C 
BRANCH   9  10
ATOM     10  C   UNL     1      63.548  35.265  60.699  1.00  0.00    -0.003 C 
ATOM     11  C   UNL     1      64.902  35.302  61.399  1.00  0.00     0.004 C 
ENDBRANCH   9  10
ENDBRANCH   8   9
ENDBRANCH   7   8
ENDBRANCH   1   7
TORSDOF 7
ENDMDL
