MODEL 1
REMARK VINA RESULT:    -3.166      0.000      0.000
REMARK INTER + INTRA:          -6.753
REMARK INTER:                  -6.127
REMARK INTRA:                  -0.625
REMARK UNBOUND:                -0.625
REMARK SMILES CCCCCCCCCCCCCCCCCC(=O)[O-]
REMARK SMILES IDX 10 1 11 2 12 3 13 4 14 5 15 6 16 7 17 8 18 9 19 10 20 11
REMARK SMILES IDX 9 12 8 13 7 14 6 15 5 16 4 17 3 18 2 19 1 20
REMARK H PARENT
REMARK Flexibility Score: inf
ROOT
ATOM      1  C   UNL     1      22.929  22.221  -9.773  1.00  0.00     0.000 C 
ENDROOT
BRANCH   1   2
ATOM      2  C   UNL     1      23.514  22.713 -11.107  1.00  0.00     0.000 C 
BRANCH   2   3
ATOM      3  C   UNL     1      24.594  23.794 -10.922  1.00  0.00     0.000 C 
BRANCH   3   4
ATOM      4  C   UNL     1      26.019  23.229 -11.102  1.00  0.00     0.000 C 
BRANCH   4   5
ATOM      5  C   UNL     1      27.083  23.968 -10.272  1.00  0.00     0.000 C 
BRANCH   5   6
ATOM      6  C   UNL     1      27.984  24.872 -11.125  1.00  0.00     0.000 C 
BRANCH   6   7
ATOM      7  C   UNL     1      27.494  26.325 -11.092  1.00  0.00     0.006 C 
BRANCH   7   8
ATOM      8  C   UNL     1      28.357  27.174 -10.153  1.00  0.00     0.053 C 
BRANCH   8   9
ATOM      9  C   UNL     1      27.660  28.454  -9.817  1.00  0.00     0.041 C 
ATOM     10  O   UNL     1      26.814  28.943 -10.612  1.00  0.00    -0.550 OA
ATOM     11  O   UNL     1      27.978  29.132  -8.647  1.00  0.00    -0.550 OA
ENDBRANCH   8   9
ENDBRANCH   7   8
ENDBRANCH   6   7
ENDBRANCH   5   6
ENDBRANCH   4   5
ENDBRANCH   3   4
ENDBRANCH   2   3
ENDBRANCH   1   2
BRANCH   1  12
ATOM     12  C   UNL     1      22.675  20.703  -9.764  1.00  0.00     0.000 C 
BRANCH  12  13
ATOM     13  C   UNL     1      22.059  20.201 -11.082  1.00  0.00    -0.000 C 
BRANCH  13  14
ATOM     14  C   UNL     1      20.531  20.378 -11.125  1.00  0.00    -0.000 C 
BRANCH  14  15
ATOM     15  C   UNL     1      19.768  19.054 -10.930  1.00  0.00    -0.000 C 
BRANCH  15  16
ATOM     16  C   UNL     1      18.240  19.188 -10.804  1.00  0.00    -0.000 C 
BRANCH  16  17
ATOM     17  C   UNL     1      17.535  17.841 -10.580  1.00  0.00    -0.000 C 
BRANCH  17  18
ATOM     18  C   UNL     1      16.018  17.989 -10.373  1.00  0.00    -0.000 C 
BRANCH  18  19
ATOM     19  C   UNL     1      15.594  17.994  -8.889  1.00  0.00    -0.003 C 
ATOM     20  C   UNL     1      14.141  18.433  -8.703  1.00  0.00     0.004 C 
ENDBRANCH  18  19
ENDBRANCH  17  18
ENDBRANCH  16  17
ENDBRANCH  15  16
ENDBRANCH  14  15
ENDBRANCH  13  14
ENDBRANCH  12  13
ENDBRANCH   1  12
TORSDOF 16
ENDMDL
MODEL 2
REMARK VINA RESULT:    -3.014     11.746     13.658
REMARK INTER + INTRA:          -6.458
REMARK INTER:                  -5.870
REMARK INTRA:                  -0.588
REMARK UNBOUND:                -0.625
REMARK SMILES CCCCCCCCCCCCCCCCCC(=O)[O-]
REMARK SMILES IDX 10 1 11 2 12 3 13 4 14 5 15 6 16 7 17 8 18 9 19 10 20 11
REMARK SMILES IDX 9 12 8 13 7 14 6 15 5 16 4 17 3 18 2 19 1 20
REMARK H PARENT
REMARK Flexibility Score: inf
ROOT
ATOM      1  C   UNL     1      27.236  24.406  -1.663  1.00  0.00     0.000 C 
ENDROOT
BRANCH   1   2
ATOM      2  C   UNL     1      27.418  24.710  -0.168  1.00  0.00     0.000 C 
BRANCH   2   3
ATOM      3  C   UNL     1      28.677  25.546   0.123  1.00  0.00     0.000 C 
BRANCH   3   4
ATOM      4  C   UNL     1      29.004  25.600   1.630  1.00  0.00     0.000 C 
BRANCH   4   5
ATOM      5  C   UNL     1      29.063  27.030   2.195  1.00  0.00     0.000 C 
BRANCH   5   6
ATOM      6  C   UNL     1      29.102  27.066   3.729  1.00  0.00     0.000 C 
BRANCH   6   7
ATOM      7  C   UNL     1      28.230  28.202   4.276  1.00  0.00     0.006 C 
BRANCH   7   8
ATOM      8  C   UNL     1      29.094  29.345   4.817  1.00  0.00     0.053 C 
BRANCH   8   9
ATOM      9  C   UNL     1      28.499  29.901   6.073  1.00  0.00     0.041 C 
ATOM     10  O   UNL     1      28.156  31.111   6.129  1.00  0.00    -0.550 OA
ATOM     11  O   UNL     1      28.369  29.094   7.196  1.00  0.00    -0.550 OA
ENDBRANCH   8   9
ENDBRANCH   7   8
ENDBRANCH   6   7
ENDBRANCH   5   6
ENDBRANCH   4   5
ENDBRANCH   3   4
ENDBRANCH   2   3
ENDBRANCH   1   2
BRANCH   1  12
ATOM     12  C   UNL     1      26.984  22.912  -1.935  1.00  0.00     0.000 C 
BRANCH  12  13
ATOM     13  C   UNL     1      28.280  22.142  -2.240  1.00  0.00    -0.000 C 
BRANCH  13  14
ATOM     14  C   UNL     1      28.219  21.391  -3.582  1.00  0.00    -0.000 C 
BRANCH  14  15
ATOM     15  C   UNL     1      28.477  19.879  -3.436  1.00  0.00    -0.000 C 
BRANCH  15  16
ATOM     16  C   UNL     1      28.604  19.369  -1.988  1.00  0.00    -0.000 C 
BRANCH  16  17
ATOM     17  C   UNL     1      28.007  17.968  -1.790  1.00  0.00    -0.000 C 
BRANCH  17  18
ATOM     18  C   UNL     1      28.059  17.500  -0.326  1.00  0.00    -0.000 C 
BRANCH  18  19
ATOM     19  C   UNL     1      26.738  16.878   0.173  1.00  0.00    -0.003 C 
ATOM     20  C   UNL     1      26.135  17.656   1.342  1.00  0.00     0.004 C 
ENDBRANCH  18  19
ENDBRANCH  17  18
ENDBRANCH  16  17
ENDBRANCH  15  16
ENDBRANCH  14  15
ENDBRANCH  13  14
ENDBRANCH  12  13
ENDBRANCH   1  12
TORSDOF 16
ENDMDL
MODEL 3
REMARK VINA RESULT:    -2.322     12.683     16.584
REMARK INTER + INTRA:          -5.120
REMARK INTER:                  -4.430
REMARK INTRA:                  -0.690
REMARK UNBOUND:                -0.625
REMARK SMILES CCCCCCCCCCCCCCCCCC(=O)[O-]
REMARK SMILES IDX 10 1 11 2 12 3 13 4 14 5 15 6 16 7 17 8 18 9 19 10 20 11
REMARK SMILES IDX 9 12 8 13 7 14 6 15 5 16 4 17 3 18 2 19 1 20
REMARK H PARENT
REMARK Flexibility Score: inf
ROOT
ATOM      1  C   UNL     1      28.223  26.350   1.092  1.00  0.00     0.000 C 
ENDROOT
BRANCH   1   2
ATOM      2  C   UNL     1      29.073  25.740  -0.033  1.00  0.00     0.000 C 
BRANCH   2   3
ATOM      3  C   UNL     1      28.222  25.163  -1.179  1.00  0.00     0.000 C 
BRANCH   3   4
ATOM      4  C   UNL     1      29.089  24.508  -2.275  1.00  0.00     0.000 C 
BRANCH   4   5
ATOM      5  C   UNL     1      28.932  22.980  -2.352  1.00  0.00     0.000 C 
BRANCH   5   6
ATOM      6  C   UNL     1      28.163  22.520  -3.598  1.00  0.00     0.000 C 
BRANCH   6   7
ATOM      7  C   UNL     1      28.458  21.049  -3.915  1.00  0.00     0.006 C 
BRANCH   7   8
ATOM      8  C   UNL     1      27.923  20.131  -2.811  1.00  0.00     0.053 C 
BRANCH   8   9
ATOM      9  C   UNL     1      28.619  18.807  -2.849  1.00  0.00     0.041 C 
ATOM     10  O   UNL     1      28.823  18.169  -1.783  1.00  0.00    -0.550 OA
ATOM     11  O   UNL     1      29.085  18.301  -4.056  1.00  0.00    -0.550 OA
ENDBRANCH   8   9
ENDBRANCH   7   8
ENDBRANCH   6   7
ENDBRANCH   5   6
ENDBRANCH   4   5
ENDBRANCH   3   4
ENDBRANCH   2   3
ENDBRANCH   1   2
BRANCH   1  12
ATOM     12  C   UNL     1      28.418  25.627   2.437  1.00  0.00     0.000 C 
BRANCH  12  13
ATOM     13  C   UNL     1      29.123  26.509   3.482  1.00  0.00    -0.000 C 
BRANCH  13  14
ATOM     14  C   UNL     1      28.708  27.987   3.385  1.00  0.00    -0.000 C 
BRANCH  14  15
ATOM     15  C   UNL     1      28.967  28.770   4.686  1.00  0.00    -0.000 C 
BRANCH  15  16
ATOM     16  C   UNL     1      27.711  29.335   5.376  1.00  0.00    -0.000 C 
BRANCH  16  17
ATOM     17  C   UNL     1      27.658  29.019   6.879  1.00  0.00    -0.000 C 
BRANCH  17  18
ATOM     18  C   UNL     1      29.003  29.260   7.586  1.00  0.00    -0.000 C 
BRANCH  18  19
ATOM     19  C   UNL     1      29.008  30.504   8.498  1.00  0.00    -0.003 C 
ATOM     20  C   UNL     1      29.124  31.805   7.704  1.00  0.00     0.004 C 
ENDBRANCH  18  19
ENDBRANCH  17  18
ENDBRANCH  16  17
ENDBRANCH  15  16
ENDBRANCH  14  15
ENDBRANCH  13  14
ENDBRANCH  12  13
ENDBRANCH   1  12
TORSDOF 16
ENDMDL
MODEL 4
REMARK VINA RESULT:    -2.246      1.469      1.975
REMARK INTER + INTRA:          -4.973
REMARK INTER:                  -4.712
REMARK INTRA:                  -0.260
REMARK UNBOUND:                -0.625
REMARK SMILES CCCCCCCCCCCCCCCCCC(=O)[O-]
REMARK SMILES IDX 10 1 11 2 12 3 13 4 14 5 15 6 16 7 17 8 18 9 19 10 20 11
REMARK SMILES IDX 9 12 8 13 7 14 6 15 5 16 4 17 3 18 2 19 1 20
REMARK H PARENT
REMARK Flexibility Score: inf
ROOT
ATOM      1  C   UNL     1      23.030  22.429  -9.239  1.00  0.00     0.000 C 
ENDROOT
BRANCH   1   2
ATOM      2  C   UNL     1      22.639  23.286 -10.454  1.00  0.00     0.000 C 
BRANCH   2   3
ATOM      3  C   UNL     1      23.851  23.958 -11.125  1.00  0.00     0.000 C 
BRANCH   3   4
ATOM      4  C   UNL     1      25.108  23.063 -11.086  1.00  0.00     0.000 C 
BRANCH   4   5
ATOM      5  C   UNL     1      26.402  23.833 -10.778  1.00  0.00     0.000 C 
BRANCH   5   6
ATOM      6  C   UNL     1      27.498  22.944 -10.174  1.00  0.00     0.000 C 
BRANCH   6   7
ATOM      7  C   UNL     1      28.893  23.467 -10.535  1.00  0.00     0.006 C 
BRANCH   7   8
ATOM      8  C   UNL     1      28.875  24.985 -10.738  1.00  0.00     0.053 C 
BRANCH   8   9
ATOM      9  C   UNL     1      28.429  25.674  -9.487  1.00  0.00     0.041 C 
ATOM     10  O   UNL     1      28.833  25.272  -8.364  1.00  0.00    -0.550 OA
ATOM     11  O   UNL     1      27.530  26.730  -9.558  1.00  0.00    -0.550 OA
ENDBRANCH   8   9
ENDBRANCH   7   8
ENDBRANCH   6   7
ENDBRANCH   5   6
ENDBRANCH   4   5
ENDBRANCH   3   4
ENDBRANCH   2   3
ENDBRANCH   1   2
BRANCH   1  12
ATOM     12  C   UNL     1      22.286  21.083  -9.203  1.00  0.00     0.000 C 
BRANCH  12  13
ATOM     13  C   UNL     1      22.363  20.330 -10.542  1.00  0.00    -0.000 C 
BRANCH  13  14
ATOM     14  C   UNL     1      22.117  18.819 -10.386  1.00  0.00    -0.000 C 
BRANCH  14  15
ATOM     15  C   UNL     1      20.854  18.338 -11.125  1.00  0.00    -0.000 C 
BRANCH  15  16
ATOM     16  C   UNL     1      19.565  19.118 -10.805  1.00  0.00    -0.000 C 
BRANCH  16  17
ATOM     17  C   UNL     1      18.315  18.226 -10.767  1.00  0.00    -0.000 C 
BRANCH  17  18
ATOM     18  C   UNL     1      17.018  19.027 -10.561  1.00  0.00    -0.000 C 
BRANCH  18  19
ATOM     19  C   UNL     1      15.855  18.185  -9.996  1.00  0.00    -0.003 C 
ATOM     20  C   UNL     1      14.768  19.052  -9.359  1.00  0.00     0.004 C 
ENDBRANCH  18  19
ENDBRANCH  17  18
ENDBRANCH  16  17
ENDBRANCH  15  16
ENDBRANCH  14  15
ENDBRANCH  13  14
ENDBRANCH  12  13
ENDBRANCH   1  12
TORSDOF 16
ENDMDL
MODEL 5
REMARK VINA RESULT:    -2.225     12.195     15.852
REMARK INTER + INTRA:          -4.932
REMARK INTER:                  -4.054
REMARK INTRA:                  -0.878
REMARK UNBOUND:                -0.625
REMARK SMILES CCCCCCCCCCCCCCCCCC(=O)[O-]
REMARK SMILES IDX 10 1 11 2 12 3 13 4 14 5 15 6 16 7 17 8 18 9 19 10 20 11
REMARK SMILES IDX 9 12 8 13 7 14 6 15 5 16 4 17 3 18 2 19 1 20
REMARK H PARENT
REMARK Flexibility Score: inf
ROOT
ATOM      1  C   UNL     1      28.791  24.753  -0.482  1.00  0.00     0.000 C 
ENDROOT
BRANCH   1   2
ATOM      2  C   UNL     1      27.593  24.819  -1.442  1.00  0.00     0.000 C 
BRANCH   2   3
ATOM      3  C   UNL     1      27.086  23.426  -1.860  1.00  0.00     0.000 C 
BRANCH   3   4
ATOM      4  C   UNL     1      27.652  22.988  -3.227  1.00  0.00     0.000 C 
BRANCH   4   5
ATOM      5  C   UNL     1      27.997  21.491  -3.299  1.00  0.00     0.000 C 
BRANCH   5   6
ATOM      6  C   UNL     1      29.075  21.077  -2.288  1.00  0.00     0.000 C 
BRANCH   6   7
ATOM      7  C   UNL     1      29.125  19.553  -2.129  1.00  0.00     0.006 C 
BRANCH   7   8
ATOM      8  C   UNL     1      27.808  19.016  -1.561  1.00  0.00     0.053 C 
BRANCH   8   9
ATOM      9  C   UNL     1      27.998  17.637  -1.014  1.00  0.00     0.041 C 
ATOM     10  O   UNL     1      28.970  16.933  -1.395  1.00  0.00    -0.550 OA
ATOM     11  O   UNL     1      27.075  17.111  -0.119  1.00  0.00    -0.550 OA
ENDBRANCH   8   9
ENDBRANCH   7   8
ENDBRANCH   6   7
ENDBRANCH   5   6
ENDBRANCH   4   5
ENDBRANCH   3   4
ENDBRANCH   2   3
ENDBRANCH   1   2
BRANCH   1  12
ATOM     12  C   UNL     1      28.947  26.036   0.355  1.00  0.00     0.000 C 
BRANCH  12  13
ATOM     13  C   UNL     1      28.008  26.063   1.572  1.00  0.00    -0.000 C 
BRANCH  13  14
ATOM     14  C   UNL     1      28.592  25.320   2.786  1.00  0.00    -0.000 C 
BRANCH  14  15
ATOM     15  C   UNL     1      29.055  26.270   3.906  1.00  0.00    -0.000 C 
BRANCH  15  16
ATOM     16  C   UNL     1      29.120  27.760   3.521  1.00  0.00    -0.000 C 
BRANCH  16  17
ATOM     17  C   UNL     1      28.087  28.619   4.266  1.00  0.00    -0.000 C 
BRANCH  17  18
ATOM     18  C   UNL     1      28.694  29.385   5.453  1.00  0.00    -0.000 C 
BRANCH  18  19
ATOM     19  C   UNL     1      28.196  28.890   6.828  1.00  0.00    -0.003 C 
ATOM     20  C   UNL     1      28.476  29.898   7.943  1.00  0.00     0.004 C 
ENDBRANCH  18  19
ENDBRANCH  17  18
ENDBRANCH  16  17
ENDBRANCH  15  16
ENDBRANCH  14  15
ENDBRANCH  13  14
ENDBRANCH  12  13
ENDBRANCH   1  12
TORSDOF 16
ENDMDL
MODEL 6
REMARK VINA RESULT:    -2.008     11.903     14.342
REMARK INTER + INTRA:          -4.511
REMARK INTER:                  -4.543
REMARK INTRA:                   0.033
REMARK UNBOUND:                -0.625
REMARK SMILES CCCCCCCCCCCCCCCCCC(=O)[O-]
REMARK SMILES IDX 10 1 11 2 12 3 13 4 14 5 15 6 16 7 17 8 18 9 19 10 20 11
REMARK SMILES IDX 9 12 8 13 7 14 6 15 5 16 4 17 3 18 2 19 1 20
REMARK H PARENT
REMARK Flexibility Score: inf
ROOT
ATOM      1  C   UNL     1      27.377  25.520   0.183  1.00  0.00     0.000 C 
ENDROOT
BRANCH   1   2
ATOM      2  C   UNL     1      28.567  25.874   1.088  1.00  0.00     0.000 C 
BRANCH   2   3
ATOM      3  C   UNL     1      28.576  25.075   2.404  1.00  0.00     0.000 C 
BRANCH   3   4
ATOM      4  C   UNL     1      29.111  25.910   3.587  1.00  0.00     0.000 C 
BRANCH   4   5
ATOM      5  C   UNL     1      29.055  27.427   3.344  1.00  0.00     0.000 C 
BRANCH   5   6
ATOM      6  C   UNL     1      29.000  28.240   4.645  1.00  0.00     0.000 C 
BRANCH   6   7
ATOM      7  C   UNL     1      28.991  29.745   4.354  1.00  0.00     0.006 C 
BRANCH   7   8
ATOM      8  C   UNL     1      28.046  30.483   5.306  1.00  0.00     0.053 C 
BRANCH   8   9
ATOM      9  C   UNL     1      28.703  30.698   6.633  1.00  0.00     0.041 C 
ATOM     10  O   UNL     1      29.125  31.841   6.952  1.00  0.00    -0.550 OA
ATOM     11  O   UNL     1      28.892  29.627   7.497  1.00  0.00    -0.550 OA
ENDBRANCH   8   9
ENDBRANCH   7   8
ENDBRANCH   6   7
ENDBRANCH   5   6
ENDBRANCH   4   5
ENDBRANCH   3   4
ENDBRANCH   2   3
ENDBRANCH   1   2
BRANCH   1  12
ATOM     12  C   UNL     1      27.745  24.492  -0.901  1.00  0.00     0.000 C 
BRANCH  12  13
ATOM     13  C   UNL     1      26.521  23.713  -1.415  1.00  0.00    -0.000 C 
BRANCH  13  14
ATOM     14  C   UNL     1      26.890  22.675  -2.489  1.00  0.00    -0.000 C 
BRANCH  14  15
ATOM     15  C   UNL     1      27.835  23.238  -3.568  1.00  0.00    -0.000 C 
BRANCH  15  16
ATOM     16  C   UNL     1      29.125  22.430  -3.801  1.00  0.00    -0.000 C 
BRANCH  16  17
ATOM     17  C   UNL     1      28.857  20.992  -4.272  1.00  0.00    -0.000 C 
BRANCH  17  18
ATOM     18  C   UNL     1      28.061  20.168  -3.247  1.00  0.00    -0.000 C 
BRANCH  18  19
ATOM     19  C   UNL     1      28.883  19.761  -2.007  1.00  0.00    -0.003 C 
ATOM     20  C   UNL     1      28.715  18.282  -1.659  1.00  0.00     0.004 C 
ENDBRANCH  18  19
ENDBRANCH  17  18
ENDBRANCH  16  17
ENDBRANCH  15  16
ENDBRANCH  14  15
ENDBRANCH  13  14
ENDBRANCH  12  13
ENDBRANCH   1  12
TORSDOF 16
ENDMDL
MODEL 7
REMARK VINA RESULT:    -1.891      5.172     11.296
REMARK INTER + INTRA:          -4.285
REMARK INTER:                  -3.653
REMARK INTRA:                  -0.632
REMARK UNBOUND:                -0.625
REMARK SMILES CCCCCCCCCCCCCCCCCC(=O)[O-]
REMARK SMILES IDX 10 1 11 2 12 3 13 4 14 5 15 6 16 7 17 8 18 9 19 10 20 11
REMARK SMILES IDX 9 12 8 13 7 14 6 15 5 16 4 17 3 18 2 19 1 20
REMARK H PARENT
REMARK Flexibility Score: inf
ROOT
ATOM      1  C   UNL     1      23.445  23.235  -9.874  1.00  0.00     0.000 C 
ENDROOT
BRANCH   1   2
ATOM      2  C   UNL     1      22.453  23.236 -11.048  1.00  0.00     0.000 C 
BRANCH   2   3
ATOM      3  C   UNL     1      21.607  21.952 -11.115  1.00  0.00     0.000 C 
BRANCH   3   4
ATOM      4  C   UNL     1      20.215  22.139 -10.475  1.00  0.00     0.000 C 
BRANCH   4   5
ATOM      5  C   UNL     1      19.118  21.279 -11.125  1.00  0.00     0.000 C 
BRANCH   5   6
ATOM      6  C   UNL     1      19.439  19.778 -11.095  1.00  0.00     0.000 C 
BRANCH   6   7
ATOM      7  C   UNL     1      18.299  18.984 -10.447  1.00  0.00     0.006 C 
BRANCH   7   8
ATOM      8  C   UNL     1      16.955  19.321 -11.099  1.00  0.00     0.053 C 
BRANCH   8   9
ATOM      9  C   UNL     1      15.824  18.891 -10.218  1.00  0.00     0.041 C 
ATOM     10  O   UNL     1      16.004  17.999  -9.347  1.00  0.00    -0.550 OA
ATOM     11  O   UNL     1      14.560  19.440 -10.391  1.00  0.00    -0.550 OA
ENDBRANCH   8   9
ENDBRANCH   7   8
ENDBRANCH   6   7
ENDBRANCH   5   6
ENDBRANCH   4   5
ENDBRANCH   3   4
ENDBRANCH   2   3
ENDBRANCH   1   2
BRANCH   1  12
ATOM     12  C   UNL     1      24.654  22.316 -10.123  1.00  0.00     0.000 C 
BRANCH  12  13
ATOM     13  C   UNL     1      25.711  22.967 -11.031  1.00  0.00    -0.000 C 
BRANCH  13  14
ATOM     14  C   UNL     1      26.696  23.854 -10.249  1.00  0.00    -0.000 C 
BRANCH  14  15
ATOM     15  C   UNL     1      27.950  24.222 -11.064  1.00  0.00    -0.000 C 
BRANCH  15  16
ATOM     16  C   UNL     1      28.455  25.665 -10.882  1.00  0.00    -0.000 C 
BRANCH  16  17
ATOM     17  C   UNL     1      27.350  26.716 -11.066  1.00  0.00    -0.000 C 
BRANCH  17  18
ATOM     18  C   UNL     1      26.762  27.203  -9.731  1.00  0.00    -0.000 C 
BRANCH  18  19
ATOM     19  C   UNL     1      27.296  28.579  -9.284  1.00  0.00    -0.003 C 
ATOM     20  C   UNL     1      27.743  29.440 -10.466  1.00  0.00     0.004 C 
ENDBRANCH  18  19
ENDBRANCH  17  18
ENDBRANCH  16  17
ENDBRANCH  15  16
ENDBRANCH  14  15
ENDBRANCH  13  14
ENDBRANCH  12  13
ENDBRANCH   1  12
TORSDOF 16
ENDMDL
MODEL 8
REMARK VINA RESULT:    -1.584     13.617     17.620
REMARK INTER + INTRA:          -3.690
REMARK INTER:                  -3.047
REMARK INTRA:                  -0.643
REMARK UNBOUND:                -0.625
REMARK SMILES CCCCCCCCCCCCCCCCCC(=O)[O-]
REMARK SMILES IDX 10 1 11 2 12 3 13 4 14 5 15 6 16 7 17 8 18 9 19 10 20 11
REMARK SMILES IDX 9 12 8 13 7 14 6 15 5 16 4 17 3 18 2 19 1 20
REMARK H PARENT
REMARK Flexibility Score: inf
ROOT
ATOM      1  C   UNL     1      29.124  26.342   3.249  1.00  0.00     0.000 C 
ENDROOT
BRANCH   1   2
ATOM      2  C   UNL     1      29.014  26.747   1.770  1.00  0.00     0.000 C 
BRANCH   2   3
ATOM      3  C   UNL     1      29.125  25.547   0.812  1.00  0.00     0.000 C 
BRANCH   3   4
ATOM      4  C   UNL     1      28.717  25.916  -0.630  1.00  0.00     0.000 C 
BRANCH   4   5
ATOM      5  C   UNL     1      28.288  24.705  -1.476  1.00  0.00     0.000 C 
BRANCH   5   6
ATOM      6  C   UNL     1      28.908  24.706  -2.880  1.00  0.00     0.000 C 
BRANCH   6   7
ATOM      7  C   UNL     1      29.084  23.276  -3.405  1.00  0.00     0.006 C 
BRANCH   7   8
ATOM      8  C   UNL     1      27.905  22.390  -2.990  1.00  0.00     0.053 C 
BRANCH   8   9
ATOM      9  C   UNL     1      28.349  20.971  -2.827  1.00  0.00     0.041 C 
ATOM     10  O   UNL     1      28.011  20.101  -3.673  1.00  0.00    -0.550 OA
ATOM     11  O   UNL     1      29.097  20.599  -1.718  1.00  0.00    -0.550 OA
ENDBRANCH   8   9
ENDBRANCH   7   8
ENDBRANCH   6   7
ENDBRANCH   5   6
ENDBRANCH   4   5
ENDBRANCH   3   4
ENDBRANCH   2   3
ENDBRANCH   1   2
BRANCH   1  12
ATOM     12  C   UNL     1      28.144  27.115   4.148  1.00  0.00     0.000 C 
BRANCH  12  13
ATOM     13  C   UNL     1      28.777  28.375   4.762  1.00  0.00    -0.000 C 
BRANCH  13  14
ATOM     14  C   UNL     1      27.726  29.408   5.207  1.00  0.00    -0.000 C 
BRANCH  14  15
ATOM     15  C   UNL     1      27.455  29.372   6.723  1.00  0.00    -0.000 C 
BRANCH  15  16
ATOM     16  C   UNL     1      28.708  29.321   7.616  1.00  0.00    -0.000 C 
BRANCH  16  17
ATOM     17  C   UNL     1      28.582  30.186   8.880  1.00  0.00    -0.000 C 
BRANCH  17  18
ATOM     18  C   UNL     1      29.125  31.611   8.683  1.00  0.00    -0.000 C 
BRANCH  18  19
ATOM     19  C   UNL     1      28.052  32.625   8.233  1.00  0.00    -0.003 C 
ATOM     20  C   UNL     1      28.474  34.071   8.496  1.00  0.00     0.004 C 
ENDBRANCH  18  19
ENDBRANCH  17  18
ENDBRANCH  16  17
ENDBRANCH  15  16
ENDBRANCH  14  15
ENDBRANCH  13  14
ENDBRANCH  12  13
ENDBRANCH   1  12
TORSDOF 16
ENDMDL
