MODEL 1
REMARK VINA RESULT:    -2.989      0.000      0.000
REMARK INTER + INTRA:          -3.608
REMARK INTER:                  -3.514
REMARK INTRA:                  -0.095
REMARK UNBOUND:                -0.095
REMARK SMILES O=C([O-])CCC(=O)[O-]
REMARK SMILES IDX 4 1 2 2 1 3 3 4 5 5 6 6 7 7 8 8
REMARK H PARENT
REMARK Flexibility Score: inf
ROOT
ATOM      1  C   UNL     1      -4.665  -3.480  -4.582  1.00  0.00     0.059 C 
ENDROOT
BRANCH   1   2
ATOM      2  C   UNL     1      -4.148  -2.094  -4.804  1.00  0.00     0.042 C 
ATOM      3  O   UNL     1      -4.705  -1.113  -4.245  1.00  0.00    -0.550 OA
ATOM      4  O   UNL     1      -3.021  -1.890  -5.590  1.00  0.00    -0.550 OA
ENDBRANCH   1   2
BRANCH   1   5
ATOM      5  C   UNL     1      -3.516  -4.432  -4.245  1.00  0.00     0.059 C 
BRANCH   5   6
ATOM      6  C   UNL     1      -3.453  -4.673  -2.770  1.00  0.00     0.042 C 
ATOM      7  O   UNL     1      -2.370  -5.025  -2.232  1.00  0.00    -0.550 OA
ATOM      8  O   UNL     1      -4.576  -4.462  -1.981  1.00  0.00    -0.550 OA
ENDBRANCH   5   6
ENDBRANCH   1   5
TORSDOF 3
ENDMDL
MODEL 2
REMARK VINA RESULT:    -2.982      0.084      3.877
REMARK INTER + INTRA:          -3.599
REMARK INTER:                  -3.500
REMARK INTRA:                  -0.100
REMARK UNBOUND:                -0.095
REMARK SMILES O=C([O-])CCC(=O)[O-]
REMARK SMILES IDX 4 1 2 2 1 3 3 4 5 5 6 6 7 7 8 8
REMARK H PARENT
REMARK Flexibility Score: inf
ROOT
ATOM      1  C   UNL     1      -3.626  -4.414  -4.282  1.00  0.00     0.059 C 
ENDROOT
BRANCH   1   2
ATOM      2  C   UNL     1      -3.514  -4.620  -2.804  1.00  0.00     0.042 C 
ATOM      3  O   UNL     1      -2.413  -4.954  -2.293  1.00  0.00    -0.550 OA
ATOM      4  O   UNL     1      -4.614  -4.397  -1.986  1.00  0.00    -0.550 OA
ENDBRANCH   1   2
BRANCH   1   5
ATOM      5  C   UNL     1      -4.747  -3.424  -4.600  1.00  0.00     0.059 C 
BRANCH   5   6
ATOM      6  C   UNL     1      -4.189  -2.053  -4.820  1.00  0.00     0.042 C 
ATOM      7  O   UNL     1      -4.728  -1.055  -4.274  1.00  0.00    -0.550 OA
ATOM      8  O   UNL     1      -3.043  -1.884  -5.586  1.00  0.00    -0.550 OA
ENDBRANCH   5   6
ENDBRANCH   1   5
TORSDOF 3
ENDMDL
MODEL 3
REMARK VINA RESULT:    -2.926      0.837      1.706
REMARK INTER + INTRA:          -3.534
REMARK INTER:                  -3.442
REMARK INTRA:                  -0.091
REMARK UNBOUND:                -0.095
REMARK SMILES O=C([O-])CCC(=O)[O-]
REMARK SMILES IDX 4 1 2 2 1 3 3 4 5 5 6 6 7 7 8 8
REMARK H PARENT
REMARK Flexibility Score: inf
ROOT
ATOM      1  C   UNL     1      -4.503  -3.471  -4.484  1.00  0.00     0.059 C 
ENDROOT
BRANCH   1   2
ATOM      2  C   UNL     1      -4.061  -2.084  -4.831  1.00  0.00     0.042 C 
ATOM      3  O   UNL     1      -3.071  -1.905  -5.587  1.00  0.00    -0.550 OA
ATOM      4  O   UNL     1      -4.772  -0.989  -4.357  1.00  0.00    -0.550 OA
ENDBRANCH   1   2
BRANCH   1   5
ATOM      5  C   UNL     1      -4.432  -3.692  -2.972  1.00  0.00     0.059 C 
BRANCH   5   6
ATOM      6  C   UNL     1      -3.414  -4.737  -2.643  1.00  0.00     0.042 C 
ATOM      7  O   UNL     1      -3.640  -5.578  -1.734  1.00  0.00    -0.550 OA
ATOM      8  O   UNL     1      -2.235  -4.814  -3.374  1.00  0.00    -0.550 OA
ENDBRANCH   5   6
ENDBRANCH   1   5
TORSDOF 3
ENDMDL
MODEL 4
REMARK VINA RESULT:    -2.900      5.426      5.976
REMARK INTER + INTRA:          -3.504
REMARK INTER:                  -3.440
REMARK INTRA:                  -0.064
REMARK UNBOUND:                -0.095
REMARK SMILES O=C([O-])CCC(=O)[O-]
REMARK SMILES IDX 4 1 2 2 1 3 3 4 5 5 6 6 7 7 8 8
REMARK H PARENT
REMARK Flexibility Score: inf
ROOT
ATOM      1  C   UNL     1       0.774  -2.417  -6.895  1.00  0.00     0.059 C 
ENDROOT
BRANCH   1   2
ATOM      2  C   UNL     1       0.140  -1.085  -7.146  1.00  0.00     0.042 C 
ATOM      3  O   UNL     1       0.420  -0.436  -8.188  1.00  0.00    -0.550 OA
ATOM      4  O   UNL     1      -0.796  -0.581  -6.252  1.00  0.00    -0.550 OA
ENDBRANCH   1   2
BRANCH   1   5
ATOM      5  C   UNL     1       2.196  -2.240  -6.359  1.00  0.00     0.059 C 
BRANCH   5   6
ATOM      6  C   UNL     1       2.333  -2.881  -5.015  1.00  0.00     0.042 C 
ATOM      7  O   UNL     1       2.157  -2.203  -3.969  1.00  0.00    -0.550 OA
ATOM      8  O   UNL     1       2.606  -4.239  -4.917  1.00  0.00    -0.550 OA
ENDBRANCH   5   6
ENDBRANCH   1   5
TORSDOF 3
ENDMDL
MODEL 5
REMARK VINA RESULT:    -2.875      0.854      3.633
REMARK INTER + INTRA:          -3.473
REMARK INTER:                  -3.387
REMARK INTRA:                  -0.086
REMARK UNBOUND:                -0.095
REMARK SMILES O=C([O-])CCC(=O)[O-]
REMARK SMILES IDX 4 1 2 2 1 3 3 4 5 5 6 6 7 7 8 8
REMARK H PARENT
REMARK Flexibility Score: inf
ROOT
ATOM      1  C   UNL     1      -4.524  -3.887  -3.242  1.00  0.00     0.059 C 
ENDROOT
BRANCH   1   2
ATOM      2  C   UNL     1      -3.384  -4.746  -2.791  1.00  0.00     0.042 C 
ATOM      3  O   UNL     1      -3.501  -5.465  -1.765  1.00  0.00    -0.550 OA
ATOM      4  O   UNL     1      -2.210  -4.788  -3.532  1.00  0.00    -0.550 OA
ENDBRANCH   1   2
BRANCH   1   5
ATOM      5  C   UNL     1      -4.386  -3.553  -4.729  1.00  0.00     0.059 C 
BRANCH   5   6
ATOM      6  C   UNL     1      -3.991  -2.123  -4.909  1.00  0.00     0.042 C 
ATOM      7  O   UNL     1      -3.008  -1.824  -5.639  1.00  0.00    -0.550 OA
ATOM      8  O   UNL     1      -4.736  -1.114  -4.313  1.00  0.00    -0.550 OA
ENDBRANCH   5   6
ENDBRANCH   1   5
TORSDOF 3
ENDMDL
MODEL 6
REMARK VINA RESULT:    -2.786      2.653      4.118
REMARK INTER + INTRA:          -3.369
REMARK INTER:                  -3.263
REMARK INTRA:                  -0.106
REMARK UNBOUND:                -0.095
REMARK SMILES O=C([O-])CCC(=O)[O-]
REMARK SMILES IDX 4 1 2 2 1 3 3 4 5 5 6 6 7 7 8 8
REMARK H PARENT
REMARK Flexibility Score: inf
ROOT
ATOM      1  C   UNL     1      -2.563  -1.679  -7.333  1.00  0.00     0.059 C 
ENDROOT
BRANCH   1   2
ATOM      2  C   UNL     1      -1.413  -0.728  -7.222  1.00  0.00     0.042 C 
ATOM      3  O   UNL     1      -0.735  -0.675  -6.163  1.00  0.00    -0.550 OA
ATOM      4  O   UNL     1      -1.060   0.066  -8.306  1.00  0.00    -0.550 OA
ENDBRANCH   1   2
BRANCH   1   5
ATOM      5  C   UNL     1      -3.802  -1.102  -6.646  1.00  0.00     0.059 C 
BRANCH   5   6
ATOM      6  C   UNL     1      -3.963  -1.688  -5.280  1.00  0.00     0.042 C 
ATOM      7  O   UNL     1      -4.633  -1.079  -4.404  1.00  0.00    -0.550 OA
ATOM      8  O   UNL     1      -3.417  -2.930  -4.986  1.00  0.00    -0.550 OA
ENDBRANCH   5   6
ENDBRANCH   1   5
TORSDOF 3
ENDMDL
MODEL 7
REMARK VINA RESULT:    -2.757      0.999      3.604
REMARK INTER + INTRA:          -3.335
REMARK INTER:                  -3.244
REMARK INTRA:                  -0.091
REMARK UNBOUND:                -0.095
REMARK SMILES O=C([O-])CCC(=O)[O-]
REMARK SMILES IDX 4 1 2 2 1 3 3 4 5 5 6 6 7 7 8 8
REMARK H PARENT
REMARK Flexibility Score: inf
ROOT
ATOM      1  C   UNL     1      -3.918  -4.087  -4.047  1.00  0.00     0.059 C 
ENDROOT
BRANCH   1   2
ATOM      2  C   UNL     1      -3.667  -4.657  -2.686  1.00  0.00     0.042 C 
ATOM      3  O   UNL     1      -4.626  -4.853  -1.895  1.00  0.00    -0.550 OA
ATOM      4  O   UNL     1      -2.379  -5.016  -2.310  1.00  0.00    -0.550 OA
ENDBRANCH   1   2
BRANCH   1   5
ATOM      5  C   UNL     1      -5.331  -3.506  -4.131  1.00  0.00     0.059 C 
BRANCH   5   6
ATOM      6  C   UNL     1      -5.318  -2.047  -3.802  1.00  0.00     0.042 C 
ATOM      7  O   UNL     1      -4.479  -1.283  -4.347  1.00  0.00    -0.550 OA
ATOM      8  O   UNL     1      -6.264  -1.522  -2.932  1.00  0.00    -0.550 OA
ENDBRANCH   5   6
ENDBRANCH   1   5
TORSDOF 3
ENDMDL
MODEL 8
REMARK VINA RESULT:    -2.692      8.512      9.138
REMARK INTER + INTRA:          -3.259
REMARK INTER:                  -3.165
REMARK INTRA:                  -0.094
REMARK UNBOUND:                -0.095
REMARK SMILES O=C([O-])CCC(=O)[O-]
REMARK SMILES IDX 4 1 2 2 1 3 3 4 5 5 6 6 7 7 8 8
REMARK H PARENT
REMARK Flexibility Score: inf
ROOT
ATOM      1  C   UNL     1       4.638  -2.877  -3.699  1.00  0.00     0.059 C 
ENDROOT
BRANCH   1   2
ATOM      2  C   UNL     1       3.406  -2.150  -3.258  1.00  0.00     0.042 C 
ATOM      3  O   UNL     1       3.446  -1.387  -2.258  1.00  0.00    -0.550 OA
ATOM      4  O   UNL     1       2.227  -2.279  -3.980  1.00  0.00    -0.550 OA
ENDBRANCH   1   2
BRANCH   1   5
ATOM      5  C   UNL     1       5.892  -2.106  -3.282  1.00  0.00     0.059 C 
BRANCH   5   6
ATOM      6  C   UNL     1       6.594  -2.814  -2.168  1.00  0.00     0.042 C 
ATOM      7  O   UNL     1       7.766  -2.483  -1.846  1.00  0.00    -0.550 OA
ATOM      8  O   UNL     1       5.938  -3.806  -1.451  1.00  0.00    -0.550 OA
ENDBRANCH   5   6
ENDBRANCH   1   5
TORSDOF 3
ENDMDL
MODEL 9
REMARK VINA RESULT:    -2.680      8.182      9.145
REMARK INTER + INTRA:          -3.244
REMARK INTER:                  -3.096
REMARK INTRA:                  -0.148
REMARK UNBOUND:                -0.095
REMARK SMILES O=C([O-])CCC(=O)[O-]
REMARK SMILES IDX 4 1 2 2 1 3 3 4 5 5 6 6 7 7 8 8
REMARK H PARENT
REMARK Flexibility Score: inf
ROOT
ATOM      1  C   UNL     1       4.661  -2.567  -3.985  1.00  0.00     0.059 C 
ENDROOT
BRANCH   1   2
ATOM      2  C   UNL     1       3.415  -2.097  -3.301  1.00  0.00     0.042 C 
ATOM      3  O   UNL     1       3.486  -1.509  -2.190  1.00  0.00    -0.550 OA
ATOM      4  O   UNL     1       2.180  -2.265  -3.914  1.00  0.00    -0.550 OA
ENDBRANCH   1   2
BRANCH   1   5
ATOM      5  C   UNL     1       5.723  -1.467  -3.977  1.00  0.00     0.059 C 
BRANCH   5   6
ATOM      6  C   UNL     1       5.384  -0.405  -4.975  1.00  0.00     0.042 C 
ATOM      7  O   UNL     1       5.611   0.806  -4.713  1.00  0.00    -0.550 OA
ATOM      8  O   UNL     1       4.863  -0.755  -6.214  1.00  0.00    -0.550 OA
ENDBRANCH   5   6
ENDBRANCH   1   5
TORSDOF 3
ENDMDL
