MODEL 1
REMARK VINA RESULT:    -4.744      0.000      0.000
REMARK INTER + INTRA:          -8.080
REMARK INTER:                  -7.240
REMARK INTRA:                  -0.840
REMARK UNBOUND:                -0.840
REMARK SMILES CCCCCCCCCCC(=O)[O-]
REMARK SMILES IDX 7 1 8 2 9 3 10 4 11 5 12 6 13 7 6 8 5 9 4 10 3 11 2 12 1 13
REMARK H PARENT
REMARK Flexibility Score: inf
ROOT
ATOM      1  C   UNL     1    -103.701 -86.008  38.702  1.00  0.00     0.000 C 
ENDROOT
BRANCH   1   2
ATOM      2  C   UNL     1    -104.059 -87.420  38.203  1.00  0.00     0.000 C 
BRANCH   2   3
ATOM      3  C   UNL     1    -105.230 -87.418  37.209  1.00  0.00     0.006 C 
BRANCH   3   4
ATOM      4  C   UNL     1    -105.180 -86.232  36.238  1.00  0.00     0.053 C 
BRANCH   4   5
ATOM      5  C   UNL     1    -105.457 -86.688  34.840  1.00  0.00     0.041 C 
ATOM      6  O   UNL     1    -104.739 -86.283  33.888  1.00  0.00    -0.550 OA
ATOM      7  O   UNL     1    -106.538 -87.519  34.582  1.00  0.00    -0.550 OA
ENDBRANCH   4   5
ENDBRANCH   3   4
ENDBRANCH   2   3
ENDBRANCH   1   2
BRANCH   1   8
ATOM      8  C   UNL     1    -104.591 -85.567  39.884  1.00  0.00     0.000 C 
BRANCH   8   9
ATOM      9  C   UNL     1    -105.522 -84.390  39.549  1.00  0.00    -0.000 C 
BRANCH   9  10
ATOM     10  C   UNL     1    -104.900 -83.404  38.546  1.00  0.00    -0.000 C 
BRANCH  10  11
ATOM     11  C   UNL     1    -104.991 -81.945  39.021  1.00  0.00    -0.000 C 
BRANCH  11  12
ATOM     12  C   UNL     1    -104.088 -81.658  40.230  1.00  0.00    -0.003 C 
ATOM     13  C   UNL     1    -102.652 -82.098  39.959  1.00  0.00     0.004 C 
ENDBRANCH  11  12
ENDBRANCH  10  11
ENDBRANCH   9  10
ENDBRANCH   8   9
ENDBRANCH   1   8
TORSDOF 9
ENDMDL
MODEL 2
REMARK VINA RESULT:    -4.686      3.176      5.334
REMARK INTER + INTRA:          -7.992
REMARK INTER:                  -7.098
REMARK INTRA:                  -0.895
REMARK UNBOUND:                -0.840
REMARK SMILES CCCCCCCCCCC(=O)[O-]
REMARK SMILES IDX 7 1 8 2 9 3 10 4 11 5 12 6 13 7 6 8 5 9 4 10 3 11 2 12 1 13
REMARK H PARENT
REMARK Flexibility Score: inf
ROOT
ATOM      1  C   UNL     1    -103.798 -86.214  38.501  1.00  0.00     0.000 C 
ENDROOT
BRANCH   1   2
ATOM      2  C   UNL     1    -104.473 -85.690  39.781  1.00  0.00     0.000 C 
BRANCH   2   3
ATOM      3  C   UNL     1    -105.393 -84.488  39.517  1.00  0.00     0.006 C 
BRANCH   3   4
ATOM      4  C   UNL     1    -104.684 -83.354  38.767  1.00  0.00     0.053 C 
BRANCH   4   5
ATOM      5  C   UNL     1    -103.865 -82.534  39.713  1.00  0.00     0.041 C 
ATOM      6  O   UNL     1    -104.360 -81.511  40.256  1.00  0.00    -0.550 OA
ATOM      7  O   UNL     1    -102.540 -82.869  39.956  1.00  0.00    -0.550 OA
ENDBRANCH   4   5
ENDBRANCH   3   4
ENDBRANCH   2   3
ENDBRANCH   1   2
BRANCH   1   8
ATOM      8  C   UNL     1    -104.354 -87.589  38.072  1.00  0.00     0.000 C 
BRANCH   8   9
ATOM      9  C   UNL     1    -105.173 -87.544  36.771  1.00  0.00    -0.000 C 
BRANCH   9  10
ATOM     10  C   UNL     1    -105.201 -86.146  36.132  1.00  0.00    -0.000 C 
BRANCH  10  11
ATOM     11  C   UNL     1    -105.211 -86.200  34.596  1.00  0.00    -0.000 C 
BRANCH  11  12
ATOM     12  C   UNL     1    -104.181 -85.253  33.962  1.00  0.00    -0.003 C 
ATOM     13  C   UNL     1    -103.074 -84.904  34.953  1.00  0.00     0.004 C 
ENDBRANCH  11  12
ENDBRANCH  10  11
ENDBRANCH   9  10
ENDBRANCH   8   9
ENDBRANCH   1   8
TORSDOF 9
ENDMDL
MODEL 3
REMARK VINA RESULT:    -4.660      2.752      5.122
REMARK INTER + INTRA:          -7.952
REMARK INTER:                  -7.205
REMARK INTRA:                  -0.747
REMARK UNBOUND:                -0.840
REMARK SMILES CCCCCCCCCCC(=O)[O-]
REMARK SMILES IDX 7 1 8 2 9 3 10 4 11 5 12 6 13 7 6 8 5 9 4 10 3 11 2 12 1 13
REMARK H PARENT
REMARK Flexibility Score: inf
ROOT
ATOM      1  C   UNL     1    -104.013 -86.879  38.502  1.00  0.00     0.000 C 
ENDROOT
BRANCH   1   2
ATOM      2  C   UNL     1    -104.086 -85.879  39.670  1.00  0.00     0.000 C 
BRANCH   2   3
ATOM      3  C   UNL     1    -105.175 -84.814  39.471  1.00  0.00     0.006 C 
BRANCH   3   4
ATOM      4  C   UNL     1    -104.661 -83.389  39.708  1.00  0.00     0.053 C 
BRANCH   4   5
ATOM      5  C   UNL     1    -103.360 -83.178  38.999  1.00  0.00     0.041 C 
ATOM      6  O   UNL     1    -103.317 -83.184  37.741  1.00  0.00    -0.550 OA
ATOM      7  O   UNL     1    -102.188 -83.026  39.728  1.00  0.00    -0.550 OA
ENDBRANCH   4   5
ENDBRANCH   3   4
ENDBRANCH   2   3
ENDBRANCH   1   2
BRANCH   1   8
ATOM      8  C   UNL     1    -105.097 -86.608  37.436  1.00  0.00     0.000 C 
BRANCH   8   9
ATOM      9  C   UNL     1    -105.121 -87.649  36.304  1.00  0.00    -0.000 C 
BRANCH   9  10
ATOM     10  C   UNL     1    -105.780 -87.117  35.020  1.00  0.00    -0.000 C 
BRANCH  10  11
ATOM     11  C   UNL     1    -105.513 -85.620  34.797  1.00  0.00    -0.000 C 
BRANCH  11  12
ATOM     12  C   UNL     1    -104.312 -85.363  33.874  1.00  0.00    -0.003 C 
ATOM     13  C   UNL     1    -103.104 -84.876  34.670  1.00  0.00     0.004 C 
ENDBRANCH  11  12
ENDBRANCH  10  11
ENDBRANCH   9  10
ENDBRANCH   8   9
ENDBRANCH   1   8
TORSDOF 9
ENDMDL
MODEL 4
REMARK VINA RESULT:    -4.632      2.091      3.291
REMARK INTER + INTRA:          -7.910
REMARK INTER:                  -6.845
REMARK INTRA:                  -1.065
REMARK UNBOUND:                -0.840
REMARK SMILES CCCCCCCCCCC(=O)[O-]
REMARK SMILES IDX 7 1 8 2 9 3 10 4 11 5 12 6 13 7 6 8 5 9 4 10 3 11 2 12 1 13
REMARK H PARENT
REMARK Flexibility Score: inf
ROOT
ATOM      1  C   UNL     1    -105.011 -87.600  36.284  1.00  0.00     0.000 C 
ENDROOT
BRANCH   1   2
ATOM      2  C   UNL     1    -105.497 -86.734  35.108  1.00  0.00     0.000 C 
BRANCH   2   3
ATOM      3  C   UNL     1    -104.443 -85.716  34.647  1.00  0.00     0.006 C 
BRANCH   3   4
ATOM      4  C   UNL     1    -104.825 -84.271  34.991  1.00  0.00     0.053 C 
BRANCH   4   5
ATOM      5  C   UNL     1    -103.816 -83.669  35.918  1.00  0.00     0.041 C 
ATOM      6  O   UNL     1    -102.865 -84.367  36.357  1.00  0.00    -0.550 OA
ATOM      7  O   UNL     1    -103.955 -82.353  36.336  1.00  0.00    -0.550 OA
ENDBRANCH   4   5
ENDBRANCH   3   4
ENDBRANCH   2   3
ENDBRANCH   1   2
BRANCH   1   8
ATOM      8  C   UNL     1    -105.156 -86.874  37.640  1.00  0.00     0.000 C 
BRANCH   8   9
ATOM      9  C   UNL     1    -103.877 -86.901  38.493  1.00  0.00    -0.000 C 
BRANCH   9  10
ATOM     10  C   UNL     1    -103.873 -85.830  39.596  1.00  0.00    -0.000 C 
BRANCH  10  11
ATOM     11  C   UNL     1    -105.126 -84.942  39.560  1.00  0.00    -0.000 C 
BRANCH  11  12
ATOM     12  C   UNL     1    -104.792 -83.443  39.594  1.00  0.00    -0.003 C 
ATOM     13  C   UNL     1    -103.289 -83.219  39.735  1.00  0.00     0.004 C 
ENDBRANCH  11  12
ENDBRANCH  10  11
ENDBRANCH   9  10
ENDBRANCH   8   9
ENDBRANCH   1   8
TORSDOF 9
ENDMDL
MODEL 5
REMARK VINA RESULT:    -4.627      3.322      5.774
REMARK INTER + INTRA:          -7.901
REMARK INTER:                  -7.178
REMARK INTRA:                  -0.723
REMARK UNBOUND:                -0.840
REMARK SMILES CCCCCCCCCCC(=O)[O-]
REMARK SMILES IDX 7 1 8 2 9 3 10 4 11 5 12 6 13 7 6 8 5 9 4 10 3 11 2 12 1 13
REMARK H PARENT
REMARK Flexibility Score: inf
ROOT
ATOM      1  C   UNL     1    -104.492 -85.804  39.805  1.00  0.00     0.000 C 
ENDROOT
BRANCH   1   2
ATOM      2  C   UNL     1    -105.416 -84.610  39.506  1.00  0.00     0.000 C 
BRANCH   2   3
ATOM      3  C   UNL     1    -104.678 -83.446  38.827  1.00  0.00     0.006 C 
BRANCH   3   4
ATOM      4  C   UNL     1    -104.644 -82.181  39.693  1.00  0.00     0.053 C 
BRANCH   4   5
ATOM      5  C   UNL     1    -103.241 -81.869  40.109  1.00  0.00     0.041 C 
ATOM      6  O   UNL     1    -102.418 -82.801  40.307  1.00  0.00    -0.550 OA
ATOM      7  O   UNL     1    -102.857 -80.553  40.326  1.00  0.00    -0.550 OA
ENDBRANCH   4   5
ENDBRANCH   3   4
ENDBRANCH   2   3
ENDBRANCH   1   2
BRANCH   1   8
ATOM      8  C   UNL     1    -103.779 -86.319  38.536  1.00  0.00     0.000 C 
BRANCH   8   9
ATOM      9  C   UNL     1    -104.411 -87.592  37.947  1.00  0.00    -0.000 C 
BRANCH   9  10
ATOM     10  C   UNL     1    -105.360 -87.298  36.773  1.00  0.00    -0.000 C 
BRANCH  10  11
ATOM     11  C   UNL     1    -105.065 -85.948  36.100  1.00  0.00    -0.000 C 
BRANCH  11  12
ATOM     12  C   UNL     1    -105.457 -85.928  34.615  1.00  0.00    -0.003 C 
ATOM     13  C   UNL     1    -104.371 -85.270  33.770  1.00  0.00     0.004 C 
ENDBRANCH  11  12
ENDBRANCH  10  11
ENDBRANCH   9  10
ENDBRANCH   8   9
ENDBRANCH   1   8
TORSDOF 9
ENDMDL
MODEL 6
REMARK VINA RESULT:    -4.605      3.028      5.017
REMARK INTER + INTRA:          -7.869
REMARK INTER:                  -6.974
REMARK INTRA:                  -0.895
REMARK UNBOUND:                -0.840
REMARK SMILES CCCCCCCCCCC(=O)[O-]
REMARK SMILES IDX 7 1 8 2 9 3 10 4 11 5 12 6 13 7 6 8 5 9 4 10 3 11 2 12 1 13
REMARK H PARENT
REMARK Flexibility Score: inf
ROOT
ATOM      1  C   UNL     1    -105.122 -86.343  37.491  1.00  0.00     0.000 C 
ENDROOT
BRANCH   1   2
ATOM      2  C   UNL     1    -104.116 -86.584  38.631  1.00  0.00     0.000 C 
BRANCH   2   3
ATOM      3  C   UNL     1    -104.329 -85.634  39.819  1.00  0.00     0.006 C 
BRANCH   3   4
ATOM      4  C   UNL     1    -105.342 -84.525  39.516  1.00  0.00     0.053 C 
BRANCH   4   5
ATOM      5  C   UNL     1    -104.667 -83.190  39.496  1.00  0.00     0.041 C 
ATOM      6  O   UNL     1    -105.311 -82.159  39.168  1.00  0.00    -0.550 OA
ATOM      7  O   UNL     1    -103.313 -83.092  39.790  1.00  0.00    -0.550 OA
ENDBRANCH   4   5
ENDBRANCH   3   4
ENDBRANCH   2   3
ENDBRANCH   1   2
BRANCH   1   8
ATOM      8  C   UNL     1    -105.121 -87.494  36.462  1.00  0.00     0.000 C 
BRANCH   8   9
ATOM      9  C   UNL     1    -105.711 -87.100  35.097  1.00  0.00    -0.000 C 
BRANCH   9  10
ATOM     10  C   UNL     1    -105.539 -85.605  34.781  1.00  0.00    -0.000 C 
BRANCH  10  11
ATOM     11  C   UNL     1    -104.271 -85.318  33.961  1.00  0.00    -0.000 C 
BRANCH  11  12
ATOM     12  C   UNL     1    -103.101 -84.832  34.829  1.00  0.00    -0.003 C 
ATOM     13  C   UNL     1    -103.521 -83.658  35.708  1.00  0.00     0.004 C 
ENDBRANCH  11  12
ENDBRANCH  10  11
ENDBRANCH   9  10
ENDBRANCH   8   9
ENDBRANCH   1   8
TORSDOF 9
ENDMDL
MODEL 7
REMARK VINA RESULT:    -4.591      2.214      3.012
REMARK INTER + INTRA:          -7.847
REMARK INTER:                  -6.534
REMARK INTRA:                  -1.313
REMARK UNBOUND:                -0.840
REMARK SMILES CCCCCCCCCCC(=O)[O-]
REMARK SMILES IDX 7 1 8 2 9 3 10 4 11 5 12 6 13 7 6 8 5 9 4 10 3 11 2 12 1 13
REMARK H PARENT
REMARK Flexibility Score: inf
ROOT
ATOM      1  C   UNL     1    -104.257 -87.361  37.924  1.00  0.00     0.000 C 
ENDROOT
BRANCH   1   2
ATOM      2  C   UNL     1    -105.057 -86.208  37.291  1.00  0.00     0.000 C 
BRANCH   2   3
ATOM      3  C   UNL     1    -104.455 -85.728  35.962  1.00  0.00     0.006 C 
BRANCH   3   4
ATOM      4  C   UNL     1    -104.492 -84.203  35.812  1.00  0.00     0.053 C 
BRANCH   4   5
ATOM      5  C   UNL     1    -103.118 -83.629  35.958  1.00  0.00     0.041 C 
ATOM      6  O   UNL     1    -102.917 -82.405  35.741  1.00  0.00    -0.550 OA
ATOM      7  O   UNL     1    -102.051 -84.455  36.286  1.00  0.00    -0.550 OA
ENDBRANCH   4   5
ENDBRANCH   3   4
ENDBRANCH   2   3
ENDBRANCH   1   2
BRANCH   1   8
ATOM      8  C   UNL     1    -103.352 -86.875  39.076  1.00  0.00     0.000 C 
BRANCH   8   9
ATOM      9  C   UNL     1    -103.846 -85.582  39.746  1.00  0.00    -0.000 C 
BRANCH   9  10
ATOM     10  C   UNL     1    -102.769 -84.486  39.794  1.00  0.00    -0.000 C 
BRANCH  10  11
ATOM     11  C   UNL     1    -103.352 -83.077  39.601  1.00  0.00    -0.000 C 
BRANCH  11  12
ATOM     12  C   UNL     1    -104.880 -83.084  39.448  1.00  0.00    -0.003 C 
ATOM     13  C   UNL     1    -105.378 -81.770  38.853  1.00  0.00     0.004 C 
ENDBRANCH  11  12
ENDBRANCH  10  11
ENDBRANCH   9  10
ENDBRANCH   8   9
ENDBRANCH   1   8
TORSDOF 9
ENDMDL
MODEL 8
REMARK VINA RESULT:    -4.488      2.459      5.084
REMARK INTER + INTRA:          -7.690
REMARK INTER:                  -6.587
REMARK INTRA:                  -1.103
REMARK UNBOUND:                -0.840
REMARK SMILES CCCCCCCCCCC(=O)[O-]
REMARK SMILES IDX 7 1 8 2 9 3 10 4 11 5 12 6 13 7 6 8 5 9 4 10 3 11 2 12 1 13
REMARK H PARENT
REMARK Flexibility Score: inf
ROOT
ATOM      1  C   UNL     1    -103.923 -82.730  38.426  1.00  0.00     0.000 C 
ENDROOT
BRANCH   1   2
ATOM      2  C   UNL     1    -104.821 -83.273  39.552  1.00  0.00     0.000 C 
BRANCH   2   3
ATOM      3  C   UNL     1    -105.214 -84.743  39.340  1.00  0.00     0.006 C 
BRANCH   3   4
ATOM      4  C   UNL     1    -104.314 -85.713  40.115  1.00  0.00     0.053 C 
BRANCH   4   5
ATOM      5  C   UNL     1    -103.345 -86.379  39.190  1.00  0.00     0.041 C 
ATOM      6  O   UNL     1    -103.596 -87.522  38.725  1.00  0.00    -0.550 OA
ATOM      7  O   UNL     1    -102.141 -85.760  38.880  1.00  0.00    -0.550 OA
ENDBRANCH   4   5
ENDBRANCH   3   4
ENDBRANCH   2   3
ENDBRANCH   1   2
BRANCH   1   8
ATOM      8  C   UNL     1    -104.392 -83.198  37.031  1.00  0.00     0.000 C 
BRANCH   8   9
ATOM      9  C   UNL     1    -103.273 -83.823  36.182  1.00  0.00    -0.000 C 
BRANCH   9  10
ATOM     10  C   UNL     1    -103.645 -85.210  35.632  1.00  0.00    -0.000 C 
BRANCH  10  11
ATOM     11  C   UNL     1    -105.101 -85.594  35.937  1.00  0.00    -0.000 C 
BRANCH  11  12
ATOM     12  C   UNL     1    -105.357 -87.103  35.805  1.00  0.00    -0.003 C 
ATOM     13  C   UNL     1    -106.284 -87.401  34.630  1.00  0.00     0.004 C 
ENDBRANCH  11  12
ENDBRANCH  10  11
ENDBRANCH   9  10
ENDBRANCH   8   9
ENDBRANCH   1   8
TORSDOF 9
ENDMDL
MODEL 9
REMARK VINA RESULT:    -4.456      1.690      2.637
REMARK INTER + INTRA:          -7.641
REMARK INTER:                  -6.433
REMARK INTRA:                  -1.208
REMARK UNBOUND:                -0.840
REMARK SMILES CCCCCCCCCCC(=O)[O-]
REMARK SMILES IDX 7 1 8 2 9 3 10 4 11 5 12 6 13 7 6 8 5 9 4 10 3 11 2 12 1 13
REMARK H PARENT
REMARK Flexibility Score: inf
ROOT
ATOM      1  C   UNL     1    -102.610 -84.366  39.134  1.00  0.00     0.000 C 
ENDROOT
BRANCH   1   2
ATOM      2  C   UNL     1    -103.466 -85.527  39.671  1.00  0.00     0.000 C 
BRANCH   2   3
ATOM      3  C   UNL     1    -104.884 -85.540  39.081  1.00  0.00     0.006 C 
BRANCH   3   4
ATOM      4  C   UNL     1    -104.892 -85.375  37.557  1.00  0.00     0.053 C 
BRANCH   4   5
ATOM      5  C   UNL     1    -105.143 -86.690  36.889  1.00  0.00     0.041 C 
ATOM      6  O   UNL     1    -105.585 -86.728  35.711  1.00  0.00    -0.550 OA
ATOM      7  O   UNL     1    -104.937 -87.874  37.586  1.00  0.00    -0.550 OA
ENDBRANCH   4   5
ENDBRANCH   3   4
ENDBRANCH   2   3
ENDBRANCH   1   2
BRANCH   1   8
ATOM      8  C   UNL     1    -102.301 -83.319  40.225  1.00  0.00     0.000 C 
BRANCH   8   9
ATOM      9  C   UNL     1    -102.910 -81.935  39.942  1.00  0.00    -0.000 C 
BRANCH   9  10
ATOM     10  C   UNL     1    -104.447 -81.940  39.982  1.00  0.00    -0.000 C 
BRANCH  10  11
ATOM     11  C   UNL     1    -105.073 -81.607  38.619  1.00  0.00    -0.000 C 
BRANCH  11  12
ATOM     12  C   UNL     1    -104.036 -81.133  37.590  1.00  0.00    -0.003 C 
ATOM     13  C   UNL     1    -104.038 -82.030  36.356  1.00  0.00     0.004 C 
ENDBRANCH  11  12
ENDBRANCH  10  11
ENDBRANCH   9  10
ENDBRANCH   8   9
ENDBRANCH   1   8
TORSDOF 9
ENDMDL
