MODEL 1
REMARK VINA RESULT:    -3.844      0.000      0.000
REMARK INTER + INTRA:          -5.356
REMARK INTER:                  -5.192
REMARK INTRA:                  -0.163
REMARK UNBOUND:                -0.163
REMARK SMILES [NH3+]CCCC[C@@H]([NH3+])C(=O)[O-]
REMARK SMILES IDX 4 1 3 2 2 3 1 4 5 8 6 9 7 10 8 14 9 15 10 16
REMARK H PARENT 1 5 1 6 1 7 7 11 7 12 7 13
REMARK Flexibility Score: inf
ROOT
ATOM      1  C   UNL     1      71.521  -6.867   4.828  1.00  0.00     0.012 C 
ENDROOT
BRANCH   1   2
ATOM      2  C   UNL     1      71.932  -8.115   4.038  1.00  0.00     0.061 C 
BRANCH   2   3
ATOM      3  C   UNL     1      70.704  -8.845   3.481  1.00  0.00     0.258 C 
BRANCH   3   4
ATOM      4  N   UNL     1      69.980  -8.003   2.529  1.00  0.00    -0.358 N 
ATOM      5  H   UNL     1      70.656  -7.444   1.958  1.00  0.00     0.344 HD
ATOM      6  H   UNL     1      69.392  -8.596   1.899  1.00  0.00     0.344 HD
ATOM      7  H   UNL     1      69.358  -7.347   3.055  1.00  0.00     0.344 HD
ENDBRANCH   3   4
ENDBRANCH   2   3
ENDBRANCH   1   2
BRANCH   1   8
ATOM      8  C   UNL     1      71.186  -7.226   6.286  1.00  0.00     0.072 C 
BRANCH   8   9
ATOM      9  C   UNL     1      69.686  -7.105   6.643  1.00  0.00     0.227 C 
BRANCH   9  10
ATOM     10  N   UNL     1      69.216  -8.240   7.449  1.00  0.00    -0.350 N 
ATOM     11  H   UNL     1      68.842  -7.896   8.363  1.00  0.00     0.345 HD
ATOM     12  H   UNL     1      68.470  -8.777   6.953  1.00  0.00     0.345 HD
ATOM     13  H   UNL     1      70.017  -8.883   7.645  1.00  0.00     0.345 HD
ENDBRANCH   9  10
BRANCH   9  14
ATOM     14  C   UNL     1      69.381  -5.790   7.316  1.00  0.00     0.099 C 
ATOM     15  O   UNL     1      69.224  -4.751   6.622  1.00  0.00    -0.544 OA
ATOM     16  O   UNL     1      69.319  -5.699   8.702  1.00  0.00    -0.544 OA
ENDBRANCH   9  14
ENDBRANCH   8   9
ENDBRANCH   1   8
TORSDOF 7
ENDMDL
MODEL 2
REMARK VINA RESULT:    -3.841     16.835     17.845
REMARK INTER + INTRA:          -5.351
REMARK INTER:                  -5.226
REMARK INTRA:                  -0.125
REMARK UNBOUND:                -0.163
REMARK SMILES [NH3+]CCCC[C@@H]([NH3+])C(=O)[O-]
REMARK SMILES IDX 4 1 3 2 2 3 1 4 5 8 6 9 7 10 8 14 9 15 10 16
REMARK H PARENT 1 5 1 6 1 7 7 11 7 12 7 13
REMARK Flexibility Score: inf
ROOT
ATOM      1  C   UNL     1      62.809   6.681   9.249  1.00  0.00     0.012 C 
ENDROOT
BRANCH   1   2
ATOM      2  C   UNL     1      61.470   6.622   9.993  1.00  0.00     0.061 C 
BRANCH   2   3
ATOM      3  C   UNL     1      60.396   7.438   9.264  1.00  0.00     0.258 C 
BRANCH   3   4
ATOM      4  N   UNL     1      59.920   8.542  10.099  1.00  0.00    -0.358 N 
ATOM      5  H   UNL     1      59.164   9.067   9.602  1.00  0.00     0.344 HD
ATOM      6  H   UNL     1      59.557   8.173  11.008  1.00  0.00     0.344 HD
ATOM      7  H   UNL     1      60.715   9.193  10.291  1.00  0.00     0.344 HD
ENDBRANCH   3   4
ENDBRANCH   2   3
ENDBRANCH   1   2
BRANCH   1   8
ATOM      8  C   UNL     1      62.912   7.964   8.406  1.00  0.00     0.072 C 
BRANCH   8   9
ATOM      9  C   UNL     1      63.856   9.038   8.994  1.00  0.00     0.227 C 
BRANCH   9  10
ATOM     10  N   UNL     1      64.923   8.446   9.814  1.00  0.00    -0.350 N 
ATOM     11  H   UNL     1      65.195   9.110  10.576  1.00  0.00     0.345 HD
ATOM     12  H   UNL     1      64.621   7.541  10.239  1.00  0.00     0.345 HD
ATOM     13  H   UNL     1      65.764   8.271   9.218  1.00  0.00     0.345 HD
ENDBRANCH   9  10
BRANCH   9  14
ATOM     14  C   UNL     1      64.422   9.929   7.916  1.00  0.00     0.099 C 
ATOM     15  O   UNL     1      63.935   9.896   6.756  1.00  0.00    -0.544 OA
ATOM     16  O   UNL     1      65.511  10.753   8.176  1.00  0.00    -0.544 OA
ENDBRANCH   9  14
ENDBRANCH   8   9
ENDBRANCH   1   8
TORSDOF 7
ENDMDL
MODEL 3
REMARK VINA RESULT:    -3.737      2.255      2.508
REMARK INTER + INTRA:          -5.211
REMARK INTER:                  -5.124
REMARK INTRA:                  -0.087
REMARK UNBOUND:                -0.163
REMARK SMILES [NH3+]CCCC[C@@H]([NH3+])C(=O)[O-]
REMARK SMILES IDX 4 1 3 2 2 3 1 4 5 8 6 9 7 10 8 14 9 15 10 16
REMARK H PARENT 1 5 1 6 1 7 7 11 7 12 7 13
REMARK Flexibility Score: inf
ROOT
ATOM      1  C   UNL     1      72.205  -7.561   3.466  1.00  0.00     0.012 C 
ENDROOT
BRANCH   1   2
ATOM      2  C   UNL     1      72.455  -8.899   2.762  1.00  0.00     0.061 C 
BRANCH   2   3
ATOM      3  C   UNL     1      73.584  -8.779   1.730  1.00  0.00     0.258 C 
BRANCH   3   4
ATOM      4  N   UNL     1      73.323  -7.685   0.794  1.00  0.00    -0.358 N 
ATOM      5  H   UNL     1      73.409  -6.765   1.284  1.00  0.00     0.344 HD
ATOM      6  H   UNL     1      73.999  -7.725  -0.003  1.00  0.00     0.344 HD
ATOM      7  H   UNL     1      72.351  -7.779   0.419  1.00  0.00     0.344 HD
ENDBRANCH   3   4
ENDBRANCH   2   3
ENDBRANCH   1   2
BRANCH   1   8
ATOM      8  C   UNL     1      71.091  -7.694   4.519  1.00  0.00     0.072 C 
BRANCH   8   9
ATOM      9  C   UNL     1      71.472  -7.160   5.919  1.00  0.00     0.227 C 
BRANCH   9  10
ATOM     10  N   UNL     1      72.595  -6.214   5.863  1.00  0.00    -0.350 N 
ATOM     11  H   UNL     1      73.380  -6.627   5.308  1.00  0.00     0.345 HD
ATOM     12  H   UNL     1      72.310  -5.307   5.431  1.00  0.00     0.345 HD
ATOM     13  H   UNL     1      72.943  -6.028   6.832  1.00  0.00     0.345 HD
ENDBRANCH   9  10
BRANCH   9  14
ATOM     14  C   UNL     1      70.282  -6.558   6.625  1.00  0.00     0.099 C 
ATOM     15  O   UNL     1      69.977  -5.353   6.423  1.00  0.00    -0.544 OA
ATOM     16  O   UNL     1      69.545  -7.304   7.536  1.00  0.00    -0.544 OA
ENDBRANCH   9  14
ENDBRANCH   8   9
ENDBRANCH   1   8
TORSDOF 7
ENDMDL
MODEL 4
REMARK VINA RESULT:    -3.709     16.502     17.334
REMARK INTER + INTRA:          -5.174
REMARK INTER:                  -5.080
REMARK INTRA:                  -0.094
REMARK UNBOUND:                -0.163
REMARK SMILES [NH3+]CCCC[C@@H]([NH3+])C(=O)[O-]
REMARK SMILES IDX 4 1 3 2 2 3 1 4 5 8 6 9 7 10 8 14 9 15 10 16
REMARK H PARENT 1 5 1 6 1 7 7 11 7 12 7 13
REMARK Flexibility Score: inf
ROOT
ATOM      1  C   UNL     1      63.931   8.759   8.913  1.00  0.00     0.012 C 
ENDROOT
BRANCH   1   2
ATOM      2  C   UNL     1      64.055   9.869   7.863  1.00  0.00     0.061 C 
BRANCH   2   3
ATOM      3  C   UNL     1      65.493  10.396   7.783  1.00  0.00     0.258 C 
BRANCH   3   4
ATOM      4  N   UNL     1      65.960  10.434   6.397  1.00  0.00    -0.358 N 
ATOM      5  H   UNL     1      66.986  10.235   6.359  1.00  0.00     0.344 HD
ATOM      6  H   UNL     1      65.441   9.730   5.824  1.00  0.00     0.344 HD
ATOM      7  H   UNL     1      65.785  11.387   6.003  1.00  0.00     0.344 HD
ENDBRANCH   3   4
ENDBRANCH   2   3
ENDBRANCH   1   2
BRANCH   1   8
ATOM      8  C   UNL     1      62.888   7.712   8.486  1.00  0.00     0.072 C 
BRANCH   8   9
ATOM      9  C   UNL     1      62.541   6.676   9.580  1.00  0.00     0.227 C 
BRANCH   9  10
ATOM     10  N   UNL     1      63.295   6.909  10.820  1.00  0.00    -0.350 N 
ATOM     11  H   UNL     1      63.808   7.818  10.759  1.00  0.00     0.345 HD
ATOM     12  H   UNL     1      62.664   6.925  11.653  1.00  0.00     0.345 HD
ATOM     13  H   UNL     1      63.999   6.146  10.948  1.00  0.00     0.345 HD
ENDBRANCH   9  10
BRANCH   9  14
ATOM     14  C   UNL     1      61.057   6.622   9.841  1.00  0.00     0.099 C 
ATOM     15  O   UNL     1      60.314   7.553   9.435  1.00  0.00    -0.544 OA
ATOM     16  O   UNL     1      60.502   5.577  10.571  1.00  0.00    -0.544 OA
ENDBRANCH   9  14
ENDBRANCH   8   9
ENDBRANCH   1   8
TORSDOF 7
ENDMDL
MODEL 5
REMARK VINA RESULT:    -3.690     16.979     17.787
REMARK INTER + INTRA:          -5.148
REMARK INTER:                  -5.055
REMARK INTRA:                  -0.094
REMARK UNBOUND:                -0.163
REMARK SMILES [NH3+]CCCC[C@@H]([NH3+])C(=O)[O-]
REMARK SMILES IDX 4 1 3 2 2 3 1 4 5 8 6 9 7 10 8 14 9 15 10 16
REMARK H PARENT 1 5 1 6 1 7 7 11 7 12 7 13
REMARK Flexibility Score: inf
ROOT
ATOM      1  C   UNL     1      62.890   7.993   8.558  1.00  0.00     0.012 C 
ENDROOT
BRANCH   1   2
ATOM      2  C   UNL     1      62.224   6.729   9.112  1.00  0.00     0.061 C 
BRANCH   2   3
ATOM      3  C   UNL     1      60.695   6.848   9.076  1.00  0.00     0.258 C 
BRANCH   3   4
ATOM      4  N   UNL     1      60.254   8.108   9.674  1.00  0.00    -0.358 N 
ATOM      5  H   UNL     1      59.980   8.784   8.925  1.00  0.00     0.344 HD
ATOM      6  H   UNL     1      59.441   7.938  10.311  1.00  0.00     0.344 HD
ATOM      7  H   UNL     1      61.039   8.517  10.230  1.00  0.00     0.344 HD
ENDBRANCH   3   4
ENDBRANCH   2   3
ENDBRANCH   1   2
BRANCH   1   8
ATOM      8  C   UNL     1      64.107   8.392   9.411  1.00  0.00     0.072 C 
BRANCH   8   9
ATOM      9  C   UNL     1      64.869   9.633   8.890  1.00  0.00     0.227 C 
BRANCH   9  10
ATOM     10  N   UNL     1      64.119  10.876   9.114  1.00  0.00    -0.350 N 
ATOM     11  H   UNL     1      63.679  10.861  10.063  1.00  0.00     0.345 HD
ATOM     12  H   UNL     1      64.737  11.715   9.036  1.00  0.00     0.345 HD
ATOM     13  H   UNL     1      63.356  10.956   8.403  1.00  0.00     0.345 HD
ENDBRANCH   9  10
BRANCH   9  14
ATOM     14  C   UNL     1      66.257   9.716   9.476  1.00  0.00     0.099 C 
ATOM     15  O   UNL     1      66.667  10.801   9.964  1.00  0.00    -0.544 OA
ATOM     16  O   UNL     1      67.110   8.620   9.438  1.00  0.00    -0.544 OA
ENDBRANCH   9  14
ENDBRANCH   8   9
ENDBRANCH   1   8
TORSDOF 7
ENDMDL
MODEL 6
REMARK VINA RESULT:    -3.609      2.369      4.117
REMARK INTER + INTRA:          -5.038
REMARK INTER:                  -4.462
REMARK INTRA:                  -0.576
REMARK UNBOUND:                -0.163
REMARK SMILES [NH3+]CCCC[C@@H]([NH3+])C(=O)[O-]
REMARK SMILES IDX 4 1 3 2 2 3 1 4 5 8 6 9 7 10 8 14 9 15 10 16
REMARK H PARENT 1 5 1 6 1 7 7 11 7 12 7 13
REMARK Flexibility Score: inf
ROOT
ATOM      1  C   UNL     1      68.894  -7.882   7.018  1.00  0.00     0.012 C 
ENDROOT
BRANCH   1   2
ATOM      2  C   UNL     1      68.905  -7.084   8.327  1.00  0.00     0.061 C 
BRANCH   2   3
ATOM      3  C   UNL     1      69.022  -5.579   8.055  1.00  0.00     0.258 C 
BRANCH   3   4
ATOM      4  N   UNL     1      69.124  -5.311   6.621  1.00  0.00    -0.358 N 
ATOM      5  H   UNL     1      69.274  -6.205   6.099  1.00  0.00     0.344 HD
ATOM      6  H   UNL     1      68.251  -4.845   6.280  1.00  0.00     0.344 HD
ATOM      7  H   UNL     1      69.937  -4.677   6.447  1.00  0.00     0.344 HD
ENDBRANCH   3   4
ENDBRANCH   2   3
ENDBRANCH   1   2
BRANCH   1   8
ATOM      8  C   UNL     1      70.121  -8.806   6.929  1.00  0.00     0.072 C 
BRANCH   8   9
ATOM      9  C   UNL     1      71.115  -8.437   5.803  1.00  0.00     0.227 C 
BRANCH   9  10
ATOM     10  N   UNL     1      70.428  -7.972   4.590  1.00  0.00    -0.350 N 
ATOM     11  H   UNL     1      70.714  -6.990   4.373  1.00  0.00     0.345 HD
ATOM     12  H   UNL     1      70.646  -8.582   3.770  1.00  0.00     0.345 HD
ATOM     13  H   UNL     1      69.394  -7.983   4.748  1.00  0.00     0.345 HD
ENDBRANCH   9  10
BRANCH   9  14
ATOM     14  C   UNL     1      72.137  -7.432   6.273  1.00  0.00     0.099 C 
ATOM     15  O   UNL     1      73.097  -7.807   6.997  1.00  0.00    -0.544 OA
ATOM     16  O   UNL     1      72.007  -6.085   5.958  1.00  0.00    -0.544 OA
ENDBRANCH   9  14
ENDBRANCH   8   9
ENDBRANCH   1   8
TORSDOF 7
ENDMDL
MODEL 7
REMARK VINA RESULT:    -3.485      2.795      3.242
REMARK INTER + INTRA:          -4.871
REMARK INTER:                  -4.767
REMARK INTRA:                  -0.104
REMARK UNBOUND:                -0.163
REMARK SMILES [NH3+]CCCC[C@@H]([NH3+])C(=O)[O-]
REMARK SMILES IDX 4 1 3 2 2 3 1 4 5 8 6 9 7 10 8 14 9 15 10 16
REMARK H PARENT 1 5 1 6 1 7 7 11 7 12 7 13
REMARK Flexibility Score: inf
ROOT
ATOM      1  C   UNL     1      72.378  -7.550   3.327  1.00  0.00     0.012 C 
ENDROOT
BRANCH   1   2
ATOM      2  C   UNL     1      72.399  -8.846   2.508  1.00  0.00     0.061 C 
BRANCH   2   3
ATOM      3  C   UNL     1      73.697  -8.970   1.701  1.00  0.00     0.258 C 
BRANCH   3   4
ATOM      4  N   UNL     1      73.494  -8.553   0.314  1.00  0.00    -0.358 N 
ATOM      5  H   UNL     1      72.593  -8.029   0.225  1.00  0.00     0.344 HD
ATOM      6  H   UNL     1      74.288  -7.948   0.002  1.00  0.00     0.344 HD
ATOM      7  H   UNL     1      73.454  -9.401  -0.296  1.00  0.00     0.344 HD
ENDBRANCH   3   4
ENDBRANCH   2   3
ENDBRANCH   1   2
BRANCH   1   8
ATOM      8  C   UNL     1      71.164  -7.516   4.271  1.00  0.00     0.072 C 
BRANCH   8   9
ATOM      9  C   UNL     1      71.444  -6.863   5.644  1.00  0.00     0.227 C 
BRANCH   9  10
ATOM     10  N   UNL     1      70.291  -6.098   6.138  1.00  0.00    -0.350 N 
ATOM     11  H   UNL     1      69.402  -6.564   5.842  1.00  0.00     0.345 HD
ATOM     12  H   UNL     1      70.304  -6.015   7.179  1.00  0.00     0.345 HD
ATOM     13  H   UNL     1      70.308  -5.137   5.725  1.00  0.00     0.345 HD
ENDBRANCH   9  10
BRANCH   9  14
ATOM     14  C   UNL     1      71.902  -7.881   6.659  1.00  0.00     0.099 C 
ATOM     15  O   UNL     1      71.073  -8.685   7.159  1.00  0.00    -0.544 OA
ATOM     16  O   UNL     1      73.224  -7.911   7.088  1.00  0.00    -0.544 OA
ENDBRANCH   9  14
ENDBRANCH   8   9
ENDBRANCH   1   8
TORSDOF 7
ENDMDL
MODEL 8
REMARK VINA RESULT:    -3.445     16.849     17.568
REMARK INTER + INTRA:          -4.817
REMARK INTER:                  -4.716
REMARK INTRA:                  -0.101
REMARK UNBOUND:                -0.163
REMARK SMILES [NH3+]CCCC[C@@H]([NH3+])C(=O)[O-]
REMARK SMILES IDX 4 1 3 2 2 3 1 4 5 8 6 9 7 10 8 14 9 15 10 16
REMARK H PARENT 1 5 1 6 1 7 7 11 7 12 7 13
REMARK Flexibility Score: inf
ROOT
ATOM      1  C   UNL     1      63.141   8.782   9.398  1.00  0.00     0.012 C 
ENDROOT
BRANCH   1   2
ATOM      2  C   UNL     1      62.915   7.276   9.227  1.00  0.00     0.061 C 
BRANCH   2   3
ATOM      3  C   UNL     1      62.675   6.596  10.582  1.00  0.00     0.258 C 
BRANCH   3   4
ATOM      4  N   UNL     1      61.470   5.767  10.545  1.00  0.00    -0.358 N 
ATOM      5  H   UNL     1      61.704   4.810  10.195  1.00  0.00     0.344 HD
ATOM      6  H   UNL     1      61.051   5.702  11.501  1.00  0.00     0.344 HD
ATOM      7  H   UNL     1      60.773   6.204   9.899  1.00  0.00     0.344 HD
ENDBRANCH   3   4
ENDBRANCH   2   3
ENDBRANCH   1   2
BRANCH   1   8
ATOM      8  C   UNL     1      64.132   9.311   8.347  1.00  0.00     0.072 C 
BRANCH   8   9
ATOM      9  C   UNL     1      65.466   9.827   8.933  1.00  0.00     0.227 C 
BRANCH   9  10
ATOM     10  N   UNL     1      66.136   8.813   9.759  1.00  0.00    -0.350 N 
ATOM     11  H   UNL     1      67.173   8.914   9.675  1.00  0.00     0.345 HD
ATOM     12  H   UNL     1      65.863   8.896  10.764  1.00  0.00     0.345 HD
ATOM     13  H   UNL     1      65.873   7.859   9.419  1.00  0.00     0.345 HD
ENDBRANCH   9  10
BRANCH   9  14
ATOM     14  C   UNL     1      66.381  10.349   7.854  1.00  0.00     0.099 C 
ATOM     15  O   UNL     1      65.992  10.369   6.657  1.00  0.00    -0.544 OA
ATOM     16  O   UNL     1      67.673  10.764   8.158  1.00  0.00    -0.544 OA
ENDBRANCH   9  14
ENDBRANCH   8   9
ENDBRANCH   1   8
TORSDOF 7
ENDMDL
MODEL 9
REMARK VINA RESULT:    -3.387      4.085      6.063
REMARK INTER + INTRA:          -4.739
REMARK INTER:                  -4.609
REMARK INTRA:                  -0.130
REMARK UNBOUND:                -0.163
REMARK SMILES [NH3+]CCCC[C@@H]([NH3+])C(=O)[O-]
REMARK SMILES IDX 4 1 3 2 2 3 1 4 5 8 6 9 7 10 8 14 9 15 10 16
REMARK H PARENT 1 5 1 6 1 7 7 11 7 12 7 13
REMARK Flexibility Score: inf
ROOT
ATOM      1  C   UNL     1      67.582  -6.792  10.958  1.00  0.00     0.012 C 
ENDROOT
BRANCH   1   2
ATOM      2  C   UNL     1      66.214  -7.483  10.999  1.00  0.00     0.061 C 
BRANCH   2   3
ATOM      3  C   UNL     1      65.075  -6.459  10.903  1.00  0.00     0.258 C 
BRANCH   3   4
ATOM      4  N   UNL     1      64.437  -6.508   9.588  1.00  0.00    -0.358 N 
ATOM      5  H   UNL     1      63.512  -6.022   9.619  1.00  0.00     0.344 HD
ATOM      6  H   UNL     1      65.051  -6.052   8.874  1.00  0.00     0.344 HD
ATOM      7  H   UNL     1      64.286  -7.506   9.316  1.00  0.00     0.344 HD
ENDBRANCH   3   4
ENDBRANCH   2   3
ENDBRANCH   1   2
BRANCH   1   8
ATOM      8  C   UNL     1      68.202  -6.884   9.553  1.00  0.00     0.072 C 
BRANCH   8   9
ATOM      9  C   UNL     1      68.545  -5.517   8.919  1.00  0.00     0.227 C 
BRANCH   9  10
ATOM     10  N   UNL     1      69.299  -4.654   9.840  1.00  0.00    -0.350 N 
ATOM     11  H   UNL     1      68.739  -3.801  10.067  1.00  0.00     0.345 HD
ATOM     12  H   UNL     1      69.536  -5.156  10.725  1.00  0.00     0.345 HD
ATOM     13  H   UNL     1      70.188  -4.348   9.382  1.00  0.00     0.345 HD
ENDBRANCH   9  10
BRANCH   9  14
ATOM     14  C   UNL     1      69.268  -5.681   7.605  1.00  0.00     0.099 C 
ATOM     15  O   UNL     1      70.011  -6.680   7.418  1.00  0.00    -0.544 OA
ATOM     16  O   UNL     1      69.162  -4.715   6.611  1.00  0.00    -0.544 OA
ENDBRANCH   9  14
ENDBRANCH   8   9
ENDBRANCH   1   8
TORSDOF 7
ENDMDL
