MODEL 1
REMARK VINA RESULT:    -6.423      0.000      0.000
REMARK INTER + INTRA:          -7.093
REMARK INTER:                  -6.986
REMARK INTRA:                  -0.107
REMARK UNBOUND:                -0.107
REMARK SMILES CC(=O)[C@H]1CC[C@@H]2[C@H]3CC=C4C[C@@H](O)CC[C@]4(C)[C@H]3CC[C@@]12C
REMARK SMILES IDX 4 1 5 2 6 3 7 4 22 5 21 6 20 7 19 8 8 9 9 10 10 11 11 12
REMARK SMILES IDX 17 13 16 14 15 15 13 16 12 17 18 18 23 19 2 20 1 21 3 22
REMARK SMILES IDX 14 23
REMARK H PARENT 14 24
REMARK Flexibility Score: inf
ROOT
ATOM      1  C   UNL     1      10.809 -19.587 -25.907  1.00  0.00     0.062 C 
ATOM      2  C   UNL     1       9.708 -19.642 -26.997  1.00  0.00     0.012 C 
ATOM      3  C   UNL     1       9.027 -18.265 -27.029  1.00  0.00     0.005 C 
ATOM      4  C   UNL     1       9.578 -17.528 -25.813  1.00  0.00    -0.001 C 
ATOM      5  C   UNL     1      11.006 -18.068 -25.621  1.00  0.00    -0.020 C 
ATOM      6  C   UNL     1      11.540 -17.667 -24.204  1.00  0.00     0.008 C 
ATOM      7  C   UNL     1      10.788 -16.461 -23.580  1.00  0.00     0.005 C 
ATOM      8  C   UNL     1      10.351 -15.378 -24.620  1.00  0.00     0.003 C 
ATOM      9  C   UNL     1       9.530 -15.982 -25.827  1.00  0.00     0.000 C 
ATOM     10  C   UNL     1       8.082 -15.481 -25.873  1.00  0.00     0.031 C 
ATOM     11  C   UNL     1       8.060 -13.987 -25.808  1.00  0.00    -0.027 C 
ATOM     12  C   UNL     1       8.844 -13.312 -24.948  1.00  0.00    -0.065 C 
ATOM     13  C   UNL     1       9.717 -14.082 -23.941  1.00  0.00    -0.008 C 
ATOM     14  C   UNL     1      10.886 -13.173 -23.435  1.00  0.00     0.014 C 
ATOM     15  C   UNL     1      10.451 -11.749 -23.076  1.00  0.00     0.033 C 
ATOM     16  C   UNL     1       9.839 -11.068 -24.303  1.00  0.00     0.118 C 
ATOM     17  C   UNL     1       8.595 -11.823 -24.787  1.00  0.00     0.063 C 
ATOM     18  C   UNL     1       8.812 -14.442 -22.730  1.00  0.00     0.016 C 
ATOM     19  C   UNL     1      11.999 -17.519 -26.696  1.00  0.00     0.012 C 
ENDROOT
BRANCH   1  20
ATOM     20  C   UNL     1      10.406 -20.416 -24.698  1.00  0.00     0.133 C 
ATOM     21  C   UNL     1       8.957 -20.695 -24.429  1.00  0.00     0.088 C 
ATOM     22  O   UNL     1      11.252 -20.856 -23.934  1.00  0.00    -0.300 OA
ENDBRANCH   1  20
BRANCH  16  23
ATOM     23  O   UNL     1       9.524  -9.726 -24.023  1.00  0.00    -0.393 OA
ATOM     24  H   UNL     1       8.703  -9.495 -24.531  1.00  0.00     0.210 HD
ENDBRANCH  16  23
TORSDOF 2
ENDMDL
MODEL 2
REMARK VINA RESULT:    -5.310     18.660     20.805
REMARK INTER + INTRA:          -5.882
REMARK INTER:                  -5.764
REMARK INTRA:                  -0.119
REMARK UNBOUND:                -0.107
REMARK SMILES CC(=O)[C@H]1CC[C@@H]2[C@H]3CC=C4C[C@@H](O)CC[C@]4(C)[C@H]3CC[C@@]12C
REMARK SMILES IDX 4 1 5 2 6 3 7 4 22 5 21 6 20 7 19 8 8 9 9 10 10 11 11 12
REMARK SMILES IDX 17 13 16 14 15 15 13 16 12 17 18 18 23 19 2 20 1 21 3 22
REMARK SMILES IDX 14 23
REMARK H PARENT 14 24
REMARK Flexibility Score: inf
ROOT
ATOM      1  C   UNL     1      23.045  -3.986 -33.298  1.00  0.00     0.062 C 
ATOM      2  C   UNL     1      24.165  -3.305 -34.125  1.00  0.00     0.012 C 
ATOM      3  C   UNL     1      25.142  -2.661 -33.129  1.00  0.00     0.005 C 
ATOM      4  C   UNL     1      24.451  -2.776 -31.774  1.00  0.00    -0.001 C 
ATOM      5  C   UNL     1      23.616  -4.066 -31.851  1.00  0.00    -0.020 C 
ATOM      6  C   UNL     1      22.584  -4.102 -30.672  1.00  0.00     0.008 C 
ATOM      7  C   UNL     1      22.969  -3.177 -29.487  1.00  0.00     0.005 C 
ATOM      8  C   UNL     1      24.507  -3.096 -29.217  1.00  0.00     0.003 C 
ATOM      9  C   UNL     1      25.338  -2.722 -30.508  1.00  0.00     0.000 C 
ATOM     10  C   UNL     1      26.042  -1.366 -30.392  1.00  0.00     0.031 C 
ATOM     11  C   UNL     1      26.832  -1.311 -29.123  1.00  0.00    -0.027 C 
ATOM     12  C   UNL     1      26.323  -1.764 -27.962  1.00  0.00    -0.065 C 
ATOM     13  C   UNL     1      24.869  -2.263 -27.907  1.00  0.00    -0.008 C 
ATOM     14  C   UNL     1      24.665  -3.194 -26.664  1.00  0.00     0.014 C 
ATOM     15  C   UNL     1      25.295  -2.653 -25.377  1.00  0.00     0.033 C 
ATOM     16  C   UNL     1      26.803  -2.473 -25.573  1.00  0.00     0.118 C 
ATOM     17  C   UNL     1      27.094  -1.463 -26.689  1.00  0.00     0.063 C 
ATOM     18  C   UNL     1      23.959  -1.014 -27.741  1.00  0.00     0.016 C 
ATOM     19  C   UNL     1      24.500  -5.353 -31.770  1.00  0.00     0.012 C 
ENDROOT
BRANCH   1  20
ATOM     20  C   UNL     1      21.741  -3.215 -33.427  1.00  0.00     0.133 C 
ATOM     21  C   UNL     1      21.763  -1.724 -33.577  1.00  0.00     0.088 C 
ATOM     22  O   UNL     1      20.667  -3.799 -33.403  1.00  0.00    -0.300 OA
ENDBRANCH   1  20
BRANCH  16  23
ATOM     23  O   UNL     1      27.416  -2.072 -24.373  1.00  0.00    -0.393 OA
ATOM     24  H   UNL     1      27.633  -1.106 -24.450  1.00  0.00     0.210 HD
ENDBRANCH  16  23
TORSDOF 2
ENDMDL
MODEL 3
REMARK VINA RESULT:    -5.183      2.035      3.326
REMARK INTER + INTRA:          -5.744
REMARK INTER:                  -5.562
REMARK INTRA:                  -0.182
REMARK UNBOUND:                -0.107
REMARK SMILES CC(=O)[C@H]1CC[C@@H]2[C@H]3CC=C4C[C@@H](O)CC[C@]4(C)[C@H]3CC[C@@]12C
REMARK SMILES IDX 4 1 5 2 6 3 7 4 22 5 21 6 20 7 19 8 8 9 9 10 10 11 11 12
REMARK SMILES IDX 17 13 16 14 15 15 13 16 12 17 18 18 23 19 2 20 1 21 3 22
REMARK SMILES IDX 14 23
REMARK H PARENT 14 24
REMARK Flexibility Score: inf
ROOT
ATOM      1  C   UNL     1       9.426 -19.824 -27.675  1.00  0.00     0.062 C 
ATOM      2  C   UNL     1       8.797 -20.885 -26.736  1.00  0.00     0.012 C 
ATOM      3  C   UNL     1       8.731 -20.269 -25.330  1.00  0.00     0.005 C 
ATOM      4  C   UNL     1       9.529 -18.973 -25.433  1.00  0.00    -0.001 C 
ATOM      5  C   UNL     1       9.334 -18.488 -26.880  1.00  0.00    -0.020 C 
ATOM      6  C   UNL     1      10.387 -17.377 -27.214  1.00  0.00     0.008 C 
ATOM      7  C   UNL     1      10.983 -16.693 -25.956  1.00  0.00     0.005 C 
ATOM      8  C   UNL     1       9.962 -16.516 -24.785  1.00  0.00     0.003 C 
ATOM      9  C   UNL     1       9.237 -17.865 -24.394  1.00  0.00     0.000 C 
ATOM     10  C   UNL     1       9.582 -18.339 -22.978  1.00  0.00     0.031 C 
ATOM     11  C   UNL     1       9.363 -17.225 -22.003  1.00  0.00    -0.027 C 
ATOM     12  C   UNL     1       9.766 -15.970 -22.273  1.00  0.00    -0.065 C 
ATOM     13  C   UNL     1      10.552 -15.679 -23.563  1.00  0.00    -0.008 C 
ATOM     14  C   UNL     1      10.456 -14.158 -23.921  1.00  0.00     0.014 C 
ATOM     15  C   UNL     1      10.660 -13.227 -22.723  1.00  0.00     0.033 C 
ATOM     16  C   UNL     1       9.601 -13.514 -21.655  1.00  0.00     0.118 C 
ATOM     17  C   UNL     1       9.713 -14.955 -21.145  1.00  0.00     0.063 C 
ATOM     18  C   UNL     1      12.041 -16.026 -23.284  1.00  0.00     0.016 C 
ATOM     19  C   UNL     1       7.906 -17.901 -27.122  1.00  0.00     0.012 C 
ENDROOT
BRANCH   1  20
ATOM     20  C   UNL     1      10.835 -20.232 -28.074  1.00  0.00     0.133 C 
ATOM     21  C   UNL     1      11.297 -20.047 -29.489  1.00  0.00     0.088 C 
ATOM     22  O   UNL     1      11.600 -20.718 -27.254  1.00  0.00    -0.300 OA
ENDBRANCH   1  20
BRANCH  16  23
ATOM     23  O   UNL     1       9.708 -12.603 -20.589  1.00  0.00    -0.393 OA
ATOM     24  H   UNL     1       9.408 -13.066 -19.763  1.00  0.00     0.210 HD
ENDBRANCH  16  23
TORSDOF 2
ENDMDL
MODEL 4
REMARK VINA RESULT:    -5.178      2.612      4.287
REMARK INTER + INTRA:          -5.739
REMARK INTER:                  -5.558
REMARK INTRA:                  -0.181
REMARK UNBOUND:                -0.107
REMARK SMILES CC(=O)[C@H]1CC[C@@H]2[C@H]3CC=C4C[C@@H](O)CC[C@]4(C)[C@H]3CC[C@@]12C
REMARK SMILES IDX 4 1 5 2 6 3 7 4 22 5 21 6 20 7 19 8 8 9 9 10 10 11 11 12
REMARK SMILES IDX 17 13 16 14 15 15 13 16 12 17 18 18 23 19 2 20 1 21 3 22
REMARK SMILES IDX 14 23
REMARK H PARENT 14 24
REMARK Flexibility Score: inf
ROOT
ATOM      1  C   UNL     1      11.930 -19.596 -29.592  1.00  0.00     0.062 C 
ATOM      2  C   UNL     1      11.021 -20.834 -29.386  1.00  0.00     0.012 C 
ATOM      3  C   UNL     1      10.292 -20.648 -28.047  1.00  0.00     0.005 C 
ATOM      4  C   UNL     1      10.963 -19.440 -27.401  1.00  0.00    -0.001 C 
ATOM      5  C   UNL     1      11.403 -18.544 -28.572  1.00  0.00    -0.020 C 
ATOM      6  C   UNL     1      12.418 -17.465 -28.062  1.00  0.00     0.008 C 
ATOM      7  C   UNL     1      12.341 -17.219 -26.531  1.00  0.00     0.005 C 
ATOM      8  C   UNL     1      10.894 -17.314 -25.945  1.00  0.00     0.003 C 
ATOM      9  C   UNL     1      10.163 -18.661 -26.330  1.00  0.00     0.000 C 
ATOM     10  C   UNL     1       9.869 -19.548 -25.115  1.00  0.00     0.031 C 
ATOM     11  C   UNL     1       9.163 -18.751 -24.065  1.00  0.00    -0.027 C 
ATOM     12  C   UNL     1       9.559 -17.505 -23.747  1.00  0.00    -0.065 C 
ATOM     13  C   UNL     1      10.818 -16.911 -24.404  1.00  0.00    -0.008 C 
ATOM     14  C   UNL     1      10.791 -15.349 -24.308  1.00  0.00     0.014 C 
ATOM     15  C   UNL     1      10.375 -14.822 -22.932  1.00  0.00     0.033 C 
ATOM     16  C   UNL     1       8.971 -15.327 -22.584  1.00  0.00     0.118 C 
ATOM     17  C   UNL     1       8.940 -16.859 -22.521  1.00  0.00     0.063 C 
ATOM     18  C   UNL     1      12.044 -17.433 -23.604  1.00  0.00     0.016 C 
ATOM     19  C   UNL     1      10.199 -17.809 -29.243  1.00  0.00     0.012 C 
ENDROOT
BRANCH   1  20
ATOM     20  C   UNL     1      13.394 -19.973 -29.419  1.00  0.00     0.133 C 
ATOM     21  C   UNL     1      14.423 -19.437 -30.368  1.00  0.00     0.088 C 
ATOM     22  O   UNL     1      13.742 -20.718 -28.515  1.00  0.00    -0.300 OA
ENDBRANCH   1  20
BRANCH  16  23
ATOM     23  O   UNL     1       8.529 -14.773 -21.370  1.00  0.00    -0.393 OA
ATOM     24  H   UNL     1       8.495 -13.787 -21.481  1.00  0.00     0.210 HD
ENDBRANCH  16  23
TORSDOF 2
ENDMDL
MODEL 5
REMARK VINA RESULT:    -5.161      1.931      2.485
REMARK INTER + INTRA:          -5.721
REMARK INTER:                  -5.754
REMARK INTRA:                   0.033
REMARK UNBOUND:                -0.107
REMARK SMILES CC(=O)[C@H]1CC[C@@H]2[C@H]3CC=C4C[C@@H](O)CC[C@]4(C)[C@H]3CC[C@@]12C
REMARK SMILES IDX 4 1 5 2 6 3 7 4 22 5 21 6 20 7 19 8 8 9 9 10 10 11 11 12
REMARK SMILES IDX 17 13 16 14 15 15 13 16 12 17 18 18 23 19 2 20 1 21 3 22
REMARK SMILES IDX 14 23
REMARK H PARENT 14 24
REMARK Flexibility Score: inf
ROOT
ATOM      1  C   UNL     1      11.142 -18.976 -28.410  1.00  0.00     0.062 C 
ATOM      2  C   UNL     1      10.230 -18.199 -29.392  1.00  0.00     0.012 C 
ATOM      3  C   UNL     1       9.598 -17.038 -28.608  1.00  0.00     0.005 C 
ATOM      4  C   UNL     1       9.964 -17.305 -27.152  1.00  0.00    -0.001 C 
ATOM      5  C   UNL     1      11.329 -18.015 -27.199  1.00  0.00    -0.020 C 
ATOM      6  C   UNL     1      11.638 -18.664 -25.807  1.00  0.00     0.008 C 
ATOM      7  C   UNL     1      10.826 -18.040 -24.641  1.00  0.00     0.005 C 
ATOM      8  C   UNL     1      10.589 -16.501 -24.784  1.00  0.00     0.003 C 
ATOM      9  C   UNL     1       9.958 -16.104 -26.178  1.00  0.00     0.000 C 
ATOM     10  C   UNL     1       8.549 -15.515 -26.047  1.00  0.00     0.031 C 
ATOM     11  C   UNL     1       8.554 -14.406 -25.043  1.00  0.00    -0.027 C 
ATOM     12  C   UNL     1       9.207 -14.524 -23.872  1.00  0.00    -0.065 C 
ATOM     13  C   UNL     1       9.886 -15.856 -23.507  1.00  0.00    -0.008 C 
ATOM     14  C   UNL     1      10.981 -15.620 -22.413  1.00  0.00     0.014 C 
ATOM     15  C   UNL     1      10.530 -14.700 -21.275  1.00  0.00     0.033 C 
ATOM     16  C   UNL     1      10.141 -13.330 -21.837  1.00  0.00     0.118 C 
ATOM     17  C   UNL     1       8.972 -13.453 -22.823  1.00  0.00     0.063 C 
ATOM     18  C   UNL     1       8.790 -16.785 -22.914  1.00  0.00     0.016 C 
ATOM     19  C   UNL     1      12.495 -17.039 -27.556  1.00  0.00     0.012 C 
ENDROOT
BRANCH   1  20
ATOM     20  C   UNL     1      10.529 -20.325 -28.065  1.00  0.00     0.133 C 
ATOM     21  C   UNL     1       9.167 -20.683 -28.580  1.00  0.00     0.088 C 
ATOM     22  O   UNL     1      11.133 -21.123 -27.364  1.00  0.00    -0.300 OA
ENDBRANCH   1  20
BRANCH  16  23
ATOM     23  O   UNL     1       9.819 -12.439 -20.798  1.00  0.00    -0.393 OA
ATOM     24  H   UNL     1      10.618 -12.351 -20.216  1.00  0.00     0.210 HD
ENDBRANCH  16  23
TORSDOF 2
ENDMDL
MODEL 6
REMARK VINA RESULT:    -5.122     15.134     16.697
REMARK INTER + INTRA:          -5.678
REMARK INTER:                  -5.514
REMARK INTRA:                  -0.164
REMARK UNBOUND:                -0.107
REMARK SMILES CC(=O)[C@H]1CC[C@@H]2[C@H]3CC=C4C[C@@H](O)CC[C@]4(C)[C@H]3CC[C@@]12C
REMARK SMILES IDX 4 1 5 2 6 3 7 4 22 5 21 6 20 7 19 8 8 9 9 10 10 11 11 12
REMARK SMILES IDX 17 13 16 14 15 15 13 16 12 17 18 18 23 19 2 20 1 21 3 22
REMARK SMILES IDX 14 23
REMARK H PARENT 14 24
REMARK Flexibility Score: inf
ROOT
ATOM      1  C   UNL     1      23.824 -11.586 -30.589  1.00  0.00     0.062 C 
ATOM      2  C   UNL     1      22.465 -11.697 -31.326  1.00  0.00     0.012 C 
ATOM      3  C   UNL     1      21.884 -10.278 -31.429  1.00  0.00     0.005 C 
ATOM      4  C   UNL     1      22.790  -9.420 -30.553  1.00  0.00    -0.001 C 
ATOM      5  C   UNL     1      24.181 -10.071 -30.645  1.00  0.00    -0.020 C 
ATOM      6  C   UNL     1      25.107  -9.508 -29.513  1.00  0.00     0.008 C 
ATOM      7  C   UNL     1      24.628  -8.146 -28.944  1.00  0.00     0.005 C 
ATOM      8  C   UNL     1      23.987  -7.202 -30.013  1.00  0.00     0.003 C 
ATOM      9  C   UNL     1      22.831  -7.900 -30.835  1.00  0.00     0.000 C 
ATOM     10  C   UNL     1      21.459  -7.262 -30.592  1.00  0.00     0.031 C 
ATOM     11  C   UNL     1      21.543  -5.783 -30.796  1.00  0.00    -0.027 C 
ATOM     12  C   UNL     1      22.572  -5.066 -30.307  1.00  0.00    -0.065 C 
ATOM     13  C   UNL     1      23.640  -5.755 -29.440  1.00  0.00    -0.008 C 
ATOM     14  C   UNL     1      24.955  -4.906 -29.429  1.00  0.00     0.014 C 
ATOM     15  C   UNL     1      24.721  -3.405 -29.233  1.00  0.00     0.033 C 
ATOM     16  C   UNL     1      23.836  -2.866 -30.362  1.00  0.00     0.118 C 
ATOM     17  C   UNL     1      22.465  -3.553 -30.360  1.00  0.00     0.063 C 
ATOM     18  C   UNL     1      23.084  -5.820 -27.990  1.00  0.00     0.016 C 
ATOM     19  C   UNL     1      24.872  -9.807 -32.022  1.00  0.00     0.012 C 
ENDROOT
BRANCH   1  20
ATOM     20  C   UNL     1      23.720 -12.165 -29.187  1.00  0.00     0.133 C 
ATOM     21  C   UNL     1      24.909 -12.831 -28.561  1.00  0.00     0.088 C 
ATOM     22  O   UNL     1      22.672 -12.100 -28.562  1.00  0.00    -0.300 OA
ENDBRANCH   1  20
BRANCH  16  23
ATOM     23  O   UNL     1      23.690  -1.472 -30.257  1.00  0.00    -0.393 OA
ATOM     24  H   UNL     1      23.321  -1.140 -31.117  1.00  0.00     0.210 HD
ENDBRANCH  16  23
TORSDOF 2
ENDMDL
MODEL 7
REMARK VINA RESULT:    -5.017     16.731     19.698
REMARK INTER + INTRA:          -5.563
REMARK INTER:                  -5.417
REMARK INTRA:                  -0.146
REMARK UNBOUND:                -0.107
REMARK SMILES CC(=O)[C@H]1CC[C@@H]2[C@H]3CC=C4C[C@@H](O)CC[C@]4(C)[C@H]3CC[C@@]12C
REMARK SMILES IDX 4 1 5 2 6 3 7 4 22 5 21 6 20 7 19 8 8 9 9 10 10 11 11 12
REMARK SMILES IDX 17 13 16 14 15 15 13 16 12 17 18 18 23 19 2 20 1 21 3 22
REMARK SMILES IDX 14 23
REMARK H PARENT 14 24
REMARK Flexibility Score: inf
ROOT
ATOM      1  C   UNL     1      24.439  -1.492 -31.816  1.00  0.00     0.062 C 
ATOM      2  C   UNL     1      24.479  -0.875 -30.395  1.00  0.00     0.012 C 
ATOM      3  C   UNL     1      24.313  -2.027 -29.392  1.00  0.00     0.005 C 
ATOM      4  C   UNL     1      23.947  -3.238 -30.244  1.00  0.00    -0.001 C 
ATOM      5  C   UNL     1      24.657  -3.017 -31.592  1.00  0.00    -0.020 C 
ATOM      6  C   UNL     1      24.070  -3.994 -32.667  1.00  0.00     0.008 C 
ATOM      7  C   UNL     1      23.351  -5.226 -32.055  1.00  0.00     0.005 C 
ATOM      8  C   UNL     1      24.017  -5.765 -30.747  1.00  0.00     0.003 C 
ATOM      9  C   UNL     1      24.222  -4.641 -29.655  1.00  0.00     0.000 C 
ATOM     10  C   UNL     1      23.386  -4.877 -28.393  1.00  0.00     0.031 C 
ATOM     11  C   UNL     1      23.613  -6.266 -27.887  1.00  0.00    -0.027 C 
ATOM     12  C   UNL     1      23.647  -7.319 -28.724  1.00  0.00    -0.065 C 
ATOM     13  C   UNL     1      23.355  -7.116 -30.221  1.00  0.00    -0.008 C 
ATOM     14  C   UNL     1      23.945  -8.305 -31.051  1.00  0.00     0.014 C 
ATOM     15  C   UNL     1      23.670  -9.682 -30.440  1.00  0.00     0.033 C 
ATOM     16  C   UNL     1      24.277  -9.758 -29.036  1.00  0.00     0.118 C 
ATOM     17  C   UNL     1      23.651  -8.708 -28.110  1.00  0.00     0.063 C 
ATOM     18  C   UNL     1      21.810  -7.114 -30.393  1.00  0.00     0.016 C 
ATOM     19  C   UNL     1      26.198  -3.257 -31.498  1.00  0.00     0.012 C 
ENDROOT
BRANCH   1  20
ATOM     20  C   UNL     1      23.140  -1.130 -32.519  1.00  0.00     0.133 C 
ATOM     21  C   UNL     1      23.103  -1.011 -34.013  1.00  0.00     0.088 C 
ATOM     22  O   UNL     1      22.119  -0.928 -31.877  1.00  0.00    -0.300 OA
ENDBRANCH   1  20
BRANCH  16  23
ATOM     23  O   UNL     1      24.124 -11.047 -28.496  1.00  0.00    -0.393 OA
ATOM     24  H   UNL     1      23.192 -11.126 -28.162  1.00  0.00     0.210 HD
ENDBRANCH  16  23
TORSDOF 2
ENDMDL
MODEL 8
REMARK VINA RESULT:    -4.909      2.880      6.276
REMARK INTER + INTRA:          -5.447
REMARK INTER:                  -5.271
REMARK INTRA:                  -0.176
REMARK UNBOUND:                -0.107
REMARK SMILES CC(=O)[C@H]1CC[C@@H]2[C@H]3CC=C4C[C@@H](O)CC[C@]4(C)[C@H]3CC[C@@]12C
REMARK SMILES IDX 4 1 5 2 6 3 7 4 22 5 21 6 20 7 19 8 8 9 9 10 10 11 11 12
REMARK SMILES IDX 17 13 16 14 15 15 13 16 12 17 18 18 23 19 2 20 1 21 3 22
REMARK SMILES IDX 14 23
REMARK H PARENT 14 24
REMARK Flexibility Score: inf
ROOT
ATOM      1  C   UNL     1      10.247 -16.811 -21.962  1.00  0.00     0.062 C 
ATOM      2  C   UNL     1       9.416 -18.014 -21.448  1.00  0.00     0.012 C 
ATOM      3  C   UNL     1       9.003 -18.842 -22.675  1.00  0.00     0.005 C 
ATOM      4  C   UNL     1       9.394 -17.985 -23.874  1.00  0.00    -0.001 C 
ATOM      5  C   UNL     1      10.633 -17.192 -23.422  1.00  0.00    -0.020 C 
ATOM      6  C   UNL     1      10.908 -16.019 -24.423  1.00  0.00     0.008 C 
ATOM      7  C   UNL     1      10.255 -16.230 -25.815  1.00  0.00     0.005 C 
ATOM      8  C   UNL     1      10.245 -17.719 -26.293  1.00  0.00     0.003 C 
ATOM      9  C   UNL     1       9.614 -18.701 -25.227  1.00  0.00     0.000 C 
ATOM     10  C   UNL     1       8.317 -19.356 -25.716  1.00  0.00     0.031 C 
ATOM     11  C   UNL     1       8.537 -19.975 -27.059  1.00  0.00    -0.027 C 
ATOM     12  C   UNL     1       9.219 -19.331 -28.024  1.00  0.00    -0.065 C 
ATOM     13  C   UNL     1       9.708 -17.892 -27.784  1.00  0.00    -0.008 C 
ATOM     14  C   UNL     1      10.877 -17.549 -28.767  1.00  0.00     0.014 C 
ATOM     15  C   UNL     1      10.624 -17.997 -30.209  1.00  0.00     0.033 C 
ATOM     16  C   UNL     1      10.418 -19.514 -30.253  1.00  0.00     0.118 C 
ATOM     17  C   UNL     1       9.199 -19.926 -29.420  1.00  0.00     0.063 C 
ATOM     18  C   UNL     1       8.515 -16.943 -28.088  1.00  0.00     0.016 C 
ATOM     19  C   UNL     1      11.914 -18.084 -23.345  1.00  0.00     0.012 C 
ENDROOT
BRANCH   1  20
ATOM     20  C   UNL     1       9.456 -15.519 -21.829  1.00  0.00     0.133 C 
ATOM     21  C   UNL     1      10.116 -14.289 -21.282  1.00  0.00     0.088 C 
ATOM     22  O   UNL     1       8.280 -15.472 -22.157  1.00  0.00    -0.300 OA
ENDBRANCH   1  20
BRANCH  16  23
ATOM     23  O   UNL     1      10.283 -19.960 -31.580  1.00  0.00    -0.393 OA
ATOM     24  H   UNL     1       9.386 -20.376 -31.670  1.00  0.00     0.210 HD
ENDBRANCH  16  23
TORSDOF 2
ENDMDL
MODEL 9
REMARK VINA RESULT:    -4.851     15.537     18.221
REMARK INTER + INTRA:          -5.384
REMARK INTER:                  -5.202
REMARK INTRA:                  -0.182
REMARK UNBOUND:                -0.107
REMARK SMILES CC(=O)[C@H]1CC[C@@H]2[C@H]3CC=C4C[C@@H](O)CC[C@]4(C)[C@H]3CC[C@@]12C
REMARK SMILES IDX 4 1 5 2 6 3 7 4 22 5 21 6 20 7 19 8 8 9 9 10 10 11 11 12
REMARK SMILES IDX 17 13 16 14 15 15 13 16 12 17 18 18 23 19 2 20 1 21 3 22
REMARK SMILES IDX 14 23
REMARK H PARENT 14 24
REMARK Flexibility Score: inf
ROOT
ATOM      1  C   UNL     1      22.962  -4.216 -30.477  1.00  0.00     0.062 C 
ATOM      2  C   UNL     1      21.536  -4.525 -30.998  1.00  0.00     0.012 C 
ATOM      3  C   UNL     1      21.374  -6.054 -31.007  1.00  0.00     0.005 C 
ATOM      4  C   UNL     1      22.770  -6.597 -30.721  1.00  0.00    -0.001 C 
ATOM      5  C   UNL     1      23.439  -5.545 -29.819  1.00  0.00    -0.020 C 
ATOM      6  C   UNL     1      24.983  -5.804 -29.757  1.00  0.00     0.008 C 
ATOM      7  C   UNL     1      25.382  -7.252 -30.144  1.00  0.00     0.005 C 
ATOM      8  C   UNL     1      24.358  -8.339 -29.680  1.00  0.00     0.003 C 
ATOM      9  C   UNL     1      22.880  -8.026 -30.142  1.00  0.00     0.000 C 
ATOM     10  C   UNL     1      22.334  -9.060 -31.133  1.00  0.00     0.031 C 
ATOM     11  C   UNL     1      22.521 -10.439 -30.583  1.00  0.00    -0.027 C 
ATOM     12  C   UNL     1      23.672 -10.805 -29.990  1.00  0.00    -0.065 C 
ATOM     13  C   UNL     1      24.860  -9.827 -29.955  1.00  0.00    -0.008 C 
ATOM     14  C   UNL     1      25.853 -10.227 -28.813  1.00  0.00     0.014 C 
ATOM     15  C   UNL     1      26.149 -11.728 -28.747  1.00  0.00     0.033 C 
ATOM     16  C   UNL     1      24.849 -12.504 -28.517  1.00  0.00     0.118 C 
ATOM     17  C   UNL     1      23.863 -12.277 -29.668  1.00  0.00     0.063 C 
ATOM     18  C   UNL     1      25.599  -9.951 -31.316  1.00  0.00     0.016 C 
ATOM     19  C   UNL     1      22.877  -5.569 -28.360  1.00  0.00     0.012 C 
ENDROOT
BRANCH   1  20
ATOM     20  C   UNL     1      23.847  -3.711 -31.606  1.00  0.00     0.133 C 
ATOM     21  C   UNL     1      24.801  -2.581 -31.362  1.00  0.00     0.088 C 
ATOM     22  O   UNL     1      23.785  -4.213 -32.718  1.00  0.00    -0.300 OA
ENDBRANCH   1  20
BRANCH  16  23
ATOM     23  O   UNL     1      25.110 -13.876 -28.354  1.00  0.00    -0.393 OA
ATOM     24  H   UNL     1      24.654 -14.175 -27.524  1.00  0.00     0.210 HD
ENDBRANCH  16  23
TORSDOF 2
ENDMDL
