MODEL 1
REMARK VINA RESULT:    -5.093      0.000      0.000
REMARK INTER + INTRA:          -5.093
REMARK INTER:                  -5.093
REMARK INTRA:                   0.000
REMARK UNBOUND:                 0.000
REMARK SMILES O=c1ccc2ccccc2o1
REMARK SMILES IDX 7 1 8 2 9 3 10 4 5 5 6 6 4 7 3 8 2 9 1 10 11 11
REMARK H PARENT
REMARK Flexibility Score: inf
ROOT
ATOM      1  C   UNL     1      23.925  28.927  14.411  1.00  0.00     0.001 A 
ATOM      2  C   UNL     1      24.125  27.934  15.376  1.00  0.00     0.004 A 
ATOM      3  C   UNL     1      23.431  27.982  16.589  1.00  0.00     0.048 A 
ATOM      4  C   UNL     1      22.531  29.024  16.843  1.00  0.00     0.138 A 
ATOM      5  C   UNL     1      22.329  30.027  15.868  1.00  0.00     0.018 A 
ATOM      6  C   UNL     1      23.029  29.974  14.654  1.00  0.00     0.012 A 
ATOM      7  C   UNL     1      21.425  31.055  16.149  1.00  0.00     0.019 A 
ATOM      8  C   UNL     1      20.754  31.063  17.372  1.00  0.00     0.094 A 
ATOM      9  C   UNL     1      21.005  30.035  18.289  1.00  0.00     0.336 A 
ATOM     10  O   UNL     1      20.409  30.024  19.398  1.00  0.00    -0.246 OA
ATOM     11  O   UNL     1      21.870  29.068  17.997  1.00  0.00    -0.423 OA
ENDROOT
TORSDOF 0
ENDMDL
MODEL 2
REMARK VINA RESULT:    -5.036      1.447      3.620
REMARK INTER + INTRA:          -5.036
REMARK INTER:                  -5.036
REMARK INTRA:                   0.000
REMARK UNBOUND:                 0.000
REMARK SMILES O=c1ccc2ccccc2o1
REMARK SMILES IDX 7 1 8 2 9 3 10 4 5 5 6 6 4 7 3 8 2 9 1 10 11 11
REMARK H PARENT
REMARK Flexibility Score: inf
ROOT
ATOM      1  C   UNL     1      21.105  31.108  16.499  1.00  0.00     0.001 A 
ATOM      2  C   UNL     1      20.801  30.962  17.856  1.00  0.00     0.004 A 
ATOM      3  C   UNL     1      21.373  29.923  18.598  1.00  0.00     0.048 A 
ATOM      4  C   UNL     1      22.254  29.025  17.984  1.00  0.00     0.138 A 
ATOM      5  C   UNL     1      22.561  29.173  16.612  1.00  0.00     0.018 A 
ATOM      6  C   UNL     1      21.983  30.216  15.874  1.00  0.00     0.012 A 
ATOM      7  C   UNL     1      23.443  28.261  16.026  1.00  0.00     0.019 A 
ATOM      8  C   UNL     1      23.991  27.241  16.803  1.00  0.00     0.094 A 
ATOM      9  C   UNL     1      23.640  27.157  18.156  1.00  0.00     0.336 A 
ATOM     10  O   UNL     1      24.125  26.243  18.874  1.00  0.00    -0.246 OA
ATOM     11  O   UNL     1      22.799  28.038  18.690  1.00  0.00    -0.423 OA
ENDROOT
TORSDOF 0
ENDMDL
MODEL 3
REMARK VINA RESULT:    -5.010      2.072      4.361
REMARK INTER + INTRA:          -5.010
REMARK INTER:                  -5.010
REMARK INTRA:                   0.000
REMARK UNBOUND:                 0.000
REMARK SMILES O=c1ccc2ccccc2o1
REMARK SMILES IDX 7 1 8 2 9 3 10 4 5 5 6 6 4 7 3 8 2 9 1 10 11 11
REMARK H PARENT
REMARK Flexibility Score: inf
ROOT
ATOM      1  C   UNL     1      21.231  29.653  18.519  1.00  0.00     0.001 A 
ATOM      2  C   UNL     1      20.751  30.747  17.792  1.00  0.00     0.004 A 
ATOM      3  C   UNL     1      21.224  30.996  16.499  1.00  0.00     0.048 A 
ATOM      4  C   UNL     1      22.179  30.148  15.927  1.00  0.00     0.138 A 
ATOM      5  C   UNL     1      22.664  29.041  16.661  1.00  0.00     0.018 A 
ATOM      6  C   UNL     1      22.187  28.799  17.957  1.00  0.00     0.012 A 
ATOM      7  C   UNL     1      23.618  28.213  16.063  1.00  0.00     0.019 A 
ATOM      8  C   UNL     1      24.061  28.498  14.772  1.00  0.00     0.094 A 
ATOM      9  C   UNL     1      23.535  29.612  14.105  1.00  0.00     0.336 A 
ATOM     10  O   UNL     1      23.921  29.885  12.939  1.00  0.00    -0.246 OA
ATOM     11  O   UNL     1      22.627  30.384  14.696  1.00  0.00    -0.423 OA
ENDROOT
TORSDOF 0
ENDMDL
MODEL 4
REMARK VINA RESULT:    -4.969      1.841      2.870
REMARK INTER + INTRA:          -4.969
REMARK INTER:                  -4.969
REMARK INTRA:                   0.000
REMARK UNBOUND:                 0.000
REMARK SMILES O=c1ccc2ccccc2o1
REMARK SMILES IDX 7 1 8 2 9 3 10 4 5 5 6 6 4 7 3 8 2 9 1 10 11 11
REMARK H PARENT
REMARK Flexibility Score: inf
ROOT
ATOM      1  C   UNL     1      21.501  30.763  15.808  1.00  0.00     0.001 A 
ATOM      2  C   UNL     1      22.633  29.967  15.601  1.00  0.00     0.004 A 
ATOM      3  C   UNL     1      23.288  29.378  16.687  1.00  0.00     0.048 A 
ATOM      4  C   UNL     1      22.812  29.582  17.988  1.00  0.00     0.138 A 
ATOM      5  C   UNL     1      21.668  30.385  18.198  1.00  0.00     0.018 A 
ATOM      6  C   UNL     1      21.017  30.974  17.104  1.00  0.00     0.012 A 
ATOM      7  C   UNL     1      21.216  30.571  19.507  1.00  0.00     0.019 A 
ATOM      8  C   UNL     1      21.900  29.964  20.560  1.00  0.00     0.094 A 
ATOM      9  C   UNL     1      23.025  29.181  20.276  1.00  0.00     0.336 A 
ATOM     10  O   UNL     1      23.655  28.624  21.214  1.00  0.00    -0.246 OA
ATOM     11  O   UNL     1      23.435  29.020  19.021  1.00  0.00    -0.423 OA
ENDROOT
TORSDOF 0
ENDMDL
MODEL 5
REMARK VINA RESULT:    -4.969      1.995      3.846
REMARK INTER + INTRA:          -4.969
REMARK INTER:                  -4.969
REMARK INTRA:                   0.000
REMARK UNBOUND:                 0.000
REMARK SMILES O=c1ccc2ccccc2o1
REMARK SMILES IDX 7 1 8 2 9 3 10 4 5 5 6 6 4 7 3 8 2 9 1 10 11 11
REMARK H PARENT
REMARK Flexibility Score: inf
ROOT
ATOM      1  C   UNL     1      21.886  29.993  20.594  1.00  0.00     0.001 A 
ATOM      2  C   UNL     1      23.047  29.248  20.359  1.00  0.00     0.004 A 
ATOM      3  C   UNL     1      23.522  29.078  19.055  1.00  0.00     0.048 A 
ATOM      4  C   UNL     1      22.837  29.654  17.978  1.00  0.00     0.138 A 
ATOM      5  C   UNL     1      21.664  30.407  18.215  1.00  0.00     0.018 A 
ATOM      6  C   UNL     1      21.193  30.572  19.526  1.00  0.00     0.012 A 
ATOM      7  C   UNL     1      21.001  30.969  17.121  1.00  0.00     0.019 A 
ATOM      8  C   UNL     1      21.511  30.774  15.837  1.00  0.00     0.094 A 
ATOM      9  C   UNL     1      22.678  30.017  15.679  1.00  0.00     0.336 A 
ATOM     10  O   UNL     1      23.154  29.831  14.528  1.00  0.00    -0.246 OA
ATOM     11  O   UNL     1      23.290  29.493  16.737  1.00  0.00    -0.423 OA
ENDROOT
TORSDOF 0
ENDMDL
MODEL 6
REMARK VINA RESULT:    -4.561      1.948      3.280
REMARK INTER + INTRA:          -4.561
REMARK INTER:                  -4.561
REMARK INTRA:                   0.000
REMARK UNBOUND:                 0.000
REMARK SMILES O=c1ccc2ccccc2o1
REMARK SMILES IDX 7 1 8 2 9 3 10 4 5 5 6 6 4 7 3 8 2 9 1 10 11 11
REMARK H PARENT
REMARK Flexibility Score: inf
ROOT
ATOM      1  C   UNL     1      22.225  30.348  15.806  1.00  0.00     0.001 A 
ATOM      2  C   UNL     1      21.104  30.968  16.367  1.00  0.00     0.004 A 
ATOM      3  C   UNL     1      20.902  30.936  17.751  1.00  0.00     0.048 A 
ATOM      4  C   UNL     1      21.822  30.284  18.580  1.00  0.00     0.138 A 
ATOM      5  C   UNL     1      22.955  29.658  18.013  1.00  0.00     0.018 A 
ATOM      6  C   UNL     1      23.151  29.693  16.625  1.00  0.00     0.012 A 
ATOM      7  C   UNL     1      23.856  29.014  18.865  1.00  0.00     0.019 A 
ATOM      8  C   UNL     1      23.615  29.008  20.239  1.00  0.00     0.094 A 
ATOM      9  C   UNL     1      22.471  29.650  20.729  1.00  0.00     0.336 A 
ATOM     10  O   UNL     1      22.236  29.656  21.966  1.00  0.00    -0.246 OA
ATOM     11  O   UNL     1      21.629  30.256  19.896  1.00  0.00    -0.423 OA
ENDROOT
TORSDOF 0
ENDMDL
MODEL 7
REMARK VINA RESULT:    -4.558      1.977      4.198
REMARK INTER + INTRA:          -4.558
REMARK INTER:                  -4.558
REMARK INTRA:                   0.000
REMARK UNBOUND:                 0.000
REMARK SMILES O=c1ccc2ccccc2o1
REMARK SMILES IDX 7 1 8 2 9 3 10 4 5 5 6 6 4 7 3 8 2 9 1 10 11 11
REMARK H PARENT
REMARK Flexibility Score: inf
ROOT
ATOM      1  C   UNL     1      21.052  31.133  18.391  1.00  0.00     0.001 A 
ATOM      2  C   UNL     1      21.045  31.280  17.000  1.00  0.00     0.004 A 
ATOM      3  C   UNL     1      21.683  30.336  16.190  1.00  0.00     0.048 A 
ATOM      4  C   UNL     1      22.332  29.238  16.768  1.00  0.00     0.138 A 
ATOM      5  C   UNL     1      22.339  29.089  18.174  1.00  0.00     0.018 A 
ATOM      6  C   UNL     1      21.697  30.041  18.980  1.00  0.00     0.012 A 
ATOM      7  C   UNL     1      22.994  27.984  18.723  1.00  0.00     0.019 A 
ATOM      8  C   UNL     1      23.617  27.067  17.876  1.00  0.00     0.094 A 
ATOM      9  C   UNL     1      23.569  27.280  16.493  1.00  0.00     0.336 A 
ATOM     10  O   UNL     1      24.125  26.462  15.713  1.00  0.00    -0.246 OA
ATOM     11  O   UNL     1      22.938  28.340  15.996  1.00  0.00    -0.423 OA
ENDROOT
TORSDOF 0
ENDMDL
MODEL 8
REMARK VINA RESULT:    -4.347      2.244      3.807
REMARK INTER + INTRA:          -4.347
REMARK INTER:                  -4.347
REMARK INTRA:                   0.000
REMARK UNBOUND:                 0.000
REMARK SMILES O=c1ccc2ccccc2o1
REMARK SMILES IDX 7 1 8 2 9 3 10 4 5 5 6 6 4 7 3 8 2 9 1 10 11 11
REMARK H PARENT
REMARK Flexibility Score: inf
ROOT
ATOM      1  C   UNL     1      23.548  28.550  20.429  1.00  0.00     0.001 A 
ATOM      2  C   UNL     1      22.779  29.548  21.038  1.00  0.00     0.004 A 
ATOM      3  C   UNL     1      21.978  30.392  20.261  1.00  0.00     0.048 A 
ATOM      4  C   UNL     1      21.943  30.240  18.870  1.00  0.00     0.138 A 
ATOM      5  C   UNL     1      22.719  29.231  18.255  1.00  0.00     0.018 A 
ATOM      6  C   UNL     1      23.520  28.389  19.040  1.00  0.00     0.012 A 
ATOM      7  C   UNL     1      22.663  29.103  16.864  1.00  0.00     0.019 A 
ATOM      8  C   UNL     1      21.850  29.965  16.129  1.00  0.00     0.094 A 
ATOM      9  C   UNL     1      21.109  30.941  16.807  1.00  0.00     0.336 A 
ATOM     10  O   UNL     1      20.369  31.728  16.160  1.00  0.00    -0.246 OA
ATOM     11  O   UNL     1      21.179  31.042  18.131  1.00  0.00    -0.423 OA
ENDROOT
TORSDOF 0
ENDMDL
MODEL 9
REMARK VINA RESULT:    -4.344      8.866     10.881
REMARK INTER + INTRA:          -4.344
REMARK INTER:                  -4.344
REMARK INTRA:                   0.000
REMARK UNBOUND:                 0.000
REMARK SMILES O=c1ccc2ccccc2o1
REMARK SMILES IDX 7 1 8 2 9 3 10 4 5 5 6 6 4 7 3 8 2 9 1 10 11 11
REMARK H PARENT
REMARK Flexibility Score: inf
ROOT
ATOM      1  C   UNL     1      21.985  28.201  29.538  1.00  0.00     0.001 A 
ATOM      2  C   UNL     1      22.237  26.991  28.882  1.00  0.00     0.004 A 
ATOM      3  C   UNL     1      21.857  26.823  27.547  1.00  0.00     0.048 A 
ATOM      4  C   UNL     1      21.223  27.865  26.861  1.00  0.00     0.138 A 
ATOM      5  C   UNL     1      20.969  29.088  27.523  1.00  0.00     0.018 A 
ATOM      6  C   UNL     1      21.352  29.249  28.863  1.00  0.00     0.012 A 
ATOM      7  C   UNL     1      20.334  30.111  26.813  1.00  0.00     0.019 A 
ATOM      8  C   UNL     1      19.974  29.899  25.482  1.00  0.00     0.094 A 
ATOM      9  C   UNL     1      20.258  28.662  24.892  1.00  0.00     0.336 A 
ATOM     10  O   UNL     1      19.940  28.452  23.691  1.00  0.00    -0.246 OA
ATOM     11  O   UNL     1      20.863  27.704  25.590  1.00  0.00    -0.423 OA
ENDROOT
TORSDOF 0
ENDMDL
