MODEL 1
REMARK VINA RESULT:    -4.181      0.000      0.000
REMARK INTER + INTRA:          -6.357
REMARK INTER:                  -6.136
REMARK INTRA:                  -0.221
REMARK UNBOUND:                -0.221
REMARK SMILES O=C([O-])CCCCCCCC(=O)[O-]
REMARK SMILES IDX 7 1 6 2 5 3 4 4 2 5 1 6 3 7 8 8 9 9 10 10 11 11 12 12 13 13
REMARK H PARENT
REMARK Flexibility Score: inf
ROOT
ATOM      1  C   UNL     1     -22.416  -1.068  -9.773  1.00  0.00     0.000 C 
ENDROOT
BRANCH   1   2
ATOM      2  C   UNL     1     -23.367   0.114 -10.019  1.00  0.00     0.000 C 
BRANCH   2   3
ATOM      3  C   UNL     1     -23.982   0.661  -8.721  1.00  0.00     0.006 C 
BRANCH   3   4
ATOM      4  C   UNL     1     -24.982   1.783  -9.019  1.00  0.00     0.053 C 
BRANCH   4   5
ATOM      5  C   UNL     1     -24.269   3.085  -9.202  1.00  0.00     0.041 C 
ATOM      6  O   UNL     1     -23.965   3.483 -10.357  1.00  0.00    -0.550 OA
ATOM      7  O   UNL     1     -23.897   3.837  -8.095  1.00  0.00    -0.550 OA
ENDBRANCH   4   5
ENDBRANCH   3   4
ENDBRANCH   2   3
ENDBRANCH   1   2
BRANCH   1   8
ATOM      8  C   UNL     1     -22.866  -2.348 -10.498  1.00  0.00     0.000 C 
BRANCH   8   9
ATOM      9  C   UNL     1     -22.878  -3.576  -9.573  1.00  0.00     0.006 C 
BRANCH   9  10
ATOM     10  C   UNL     1     -24.166  -4.400  -9.698  1.00  0.00     0.053 C 
BRANCH  10  11
ATOM     11  C   UNL     1     -24.191  -5.488  -8.671  1.00  0.00     0.041 C 
ATOM     12  O   UNL     1     -25.285  -5.862  -8.172  1.00  0.00    -0.550 OA
ATOM     13  O   UNL     1     -23.013  -6.122  -8.301  1.00  0.00    -0.550 OA
ENDBRANCH  10  11
ENDBRANCH   9  10
ENDBRANCH   8   9
ENDBRANCH   1   8
TORSDOF 8
ENDMDL
MODEL 2
REMARK VINA RESULT:    -3.663     14.462     16.937
REMARK INTER + INTRA:          -5.597
REMARK INTER:                  -5.157
REMARK INTRA:                  -0.440
REMARK UNBOUND:                -0.221
REMARK SMILES O=C([O-])CCCCCCCC(=O)[O-]
REMARK SMILES IDX 7 1 6 2 5 3 4 4 2 5 1 6 3 7 8 8 9 9 10 10 11 11 12 12 13 13
REMARK H PARENT
REMARK Flexibility Score: inf
ROOT
ATOM      1  C   UNL     1     -35.469   6.973  -1.307  1.00  0.00     0.000 C 
ENDROOT
BRANCH   1   2
ATOM      2  C   UNL     1     -33.939   6.986  -1.163  1.00  0.00     0.000 C 
BRANCH   2   3
ATOM      3  C   UNL     1     -33.359   5.596  -0.860  1.00  0.00     0.006 C 
BRANCH   3   4
ATOM      4  C   UNL     1     -34.457   4.528  -0.880  1.00  0.00     0.053 C 
BRANCH   4   5
ATOM      5  C   UNL     1     -34.010   3.303  -0.147  1.00  0.00     0.041 C 
ATOM      6  O   UNL     1     -33.517   2.332  -0.780  1.00  0.00    -0.550 OA
ATOM      7  O   UNL     1     -34.181   3.212   1.228  1.00  0.00    -0.550 OA
ENDBRANCH   4   5
ENDBRANCH   3   4
ENDBRANCH   2   3
ENDBRANCH   1   2
BRANCH   1   8
ATOM      8  C   UNL     1     -35.950   7.710  -2.569  1.00  0.00     0.000 C 
BRANCH   8   9
ATOM      9  C   UNL     1     -34.788   8.283  -3.396  1.00  0.00     0.006 C 
BRANCH   9  10
ATOM     10  C   UNL     1     -34.859   9.809  -3.540  1.00  0.00     0.053 C 
BRANCH  10  11
ATOM     11  C   UNL     1     -36.100  10.206  -4.275  1.00  0.00     0.041 C 
ATOM     12  O   UNL     1     -36.862  11.089  -3.799  1.00  0.00    -0.550 OA
ATOM     13  O   UNL     1     -36.390   9.638  -5.508  1.00  0.00    -0.550 OA
ENDBRANCH  10  11
ENDBRANCH   9  10
ENDBRANCH   8   9
ENDBRANCH   1   8
TORSDOF 8
ENDMDL
MODEL 3
REMARK VINA RESULT:    -3.623     13.833     16.427
REMARK INTER + INTRA:          -5.538
REMARK INTER:                  -5.187
REMARK INTRA:                  -0.351
REMARK UNBOUND:                -0.221
REMARK SMILES O=C([O-])CCCCCCCC(=O)[O-]
REMARK SMILES IDX 7 1 6 2 5 3 4 4 2 5 1 6 3 7 8 8 9 9 10 10 11 11 12 12 13 13
REMARK H PARENT
REMARK Flexibility Score: inf
ROOT
ATOM      1  C   UNL     1     -35.751   5.857  -1.323  1.00  0.00     0.000 C 
ENDROOT
BRANCH   1   2
ATOM      2  C   UNL     1     -34.257   5.497  -1.378  1.00  0.00     0.000 C 
BRANCH   2   3
ATOM      3  C   UNL     1     -33.354   6.629  -0.863  1.00  0.00     0.006 C 
BRANCH   3   4
ATOM      4  C   UNL     1     -32.105   6.064  -0.181  1.00  0.00     0.053 C 
BRANCH   4   5
ATOM      5  C   UNL     1     -30.870   6.686  -0.751  1.00  0.00     0.041 C 
ATOM      6  O   UNL     1     -29.778   6.059  -0.733  1.00  0.00    -0.550 OA
ATOM      7  O   UNL     1     -30.912   7.978  -1.259  1.00  0.00    -0.550 OA
ENDBRANCH   4   5
ENDBRANCH   3   4
ENDBRANCH   2   3
ENDBRANCH   1   2
BRANCH   1   8
ATOM      8  C   UNL     1     -36.014   7.337  -1.651  1.00  0.00     0.000 C 
BRANCH   8   9
ATOM      9  C   UNL     1     -35.873   7.642  -3.151  1.00  0.00     0.006 C 
BRANCH   9  10
ATOM     10  C   UNL     1     -35.135   8.960  -3.421  1.00  0.00     0.053 C 
BRANCH  10  11
ATOM     11  C   UNL     1     -36.027   9.919  -4.144  1.00  0.00     0.041 C 
ATOM     12  O   UNL     1     -36.422  10.969  -3.574  1.00  0.00    -0.550 OA
ATOM     13  O   UNL     1     -36.381   9.677  -5.465  1.00  0.00    -0.550 OA
ENDBRANCH  10  11
ENDBRANCH   9  10
ENDBRANCH   8   9
ENDBRANCH   1   8
TORSDOF 8
ENDMDL
MODEL 4
REMARK VINA RESULT:    -3.603     13.818     15.759
REMARK INTER + INTRA:          -5.508
REMARK INTER:                  -5.097
REMARK INTRA:                  -0.411
REMARK UNBOUND:                -0.221
REMARK SMILES O=C([O-])CCCCCCCC(=O)[O-]
REMARK SMILES IDX 7 1 6 2 5 3 4 4 2 5 1 6 3 7 8 8 9 9 10 10 11 11 12 12 13 13
REMARK H PARENT
REMARK Flexibility Score: inf
ROOT
ATOM      1  C   UNL     1     -35.516   5.946  -1.382  1.00  0.00     0.000 C 
ENDROOT
BRANCH   1   2
ATOM      2  C   UNL     1     -36.023   7.365  -1.685  1.00  0.00     0.000 C 
BRANCH   2   3
ATOM      3  C   UNL     1     -35.941   7.720  -3.178  1.00  0.00     0.006 C 
BRANCH   3   4
ATOM      4  C   UNL     1     -35.079   8.966  -3.399  1.00  0.00     0.053 C 
BRANCH   4   5
ATOM      5  C   UNL     1     -35.794   9.950  -4.269  1.00  0.00     0.041 C 
ATOM      6  O   UNL     1     -35.585   9.966  -5.511  1.00  0.00    -0.550 OA
ATOM      7  O   UNL     1     -36.654  10.883  -3.705  1.00  0.00    -0.550 OA
ENDBRANCH   4   5
ENDBRANCH   3   4
ENDBRANCH   2   3
ENDBRANCH   1   2
BRANCH   1   8
ATOM      8  C   UNL     1     -33.991   5.817  -1.544  1.00  0.00     0.000 C 
BRANCH   8   9
ATOM      9  C   UNL     1     -33.226   6.956  -0.852  1.00  0.00     0.006 C 
BRANCH   9  10
ATOM     10  C   UNL     1     -31.941   6.476  -0.164  1.00  0.00     0.053 C 
BRANCH  10  11
ATOM     11  C   UNL     1     -30.738   6.953  -0.915  1.00  0.00     0.041 C 
ATOM     12  O   UNL     1     -30.805   7.989  -1.626  1.00  0.00    -0.550 OA
ATOM     13  O   UNL     1     -29.530   6.280  -0.789  1.00  0.00    -0.550 OA
ENDBRANCH  10  11
ENDBRANCH   9  10
ENDBRANCH   8   9
ENDBRANCH   1   8
TORSDOF 8
ENDMDL
MODEL 5
REMARK VINA RESULT:    -3.543     14.072     15.419
REMARK INTER + INTRA:          -5.421
REMARK INTER:                  -4.699
REMARK INTRA:                  -0.722
REMARK UNBOUND:                -0.221
REMARK SMILES O=C([O-])CCCCCCCC(=O)[O-]
REMARK SMILES IDX 7 1 6 2 5 3 4 4 2 5 1 6 3 7 8 8 9 9 10 10 11 11 12 12 13 13
REMARK H PARENT
REMARK Flexibility Score: inf
ROOT
ATOM      1  C   UNL     1     -35.101   5.352  -1.157  1.00  0.00     0.000 C 
ENDROOT
BRANCH   1   2
ATOM      2  C   UNL     1     -35.809   6.698  -1.378  1.00  0.00     0.000 C 
BRANCH   2   3
ATOM      3  C   UNL     1     -36.110   6.974  -2.859  1.00  0.00     0.006 C 
BRANCH   3   4
ATOM      4  C   UNL     1     -35.789   8.427  -3.222  1.00  0.00     0.053 C 
BRANCH   4   5
ATOM      5  C   UNL     1     -34.337   8.577  -3.550  1.00  0.00     0.041 C 
ATOM      6  O   UNL     1     -33.771   7.747  -4.310  1.00  0.00    -0.550 OA
ATOM      7  O   UNL     1     -33.597   9.604  -2.980  1.00  0.00    -0.550 OA
ENDBRANCH   4   5
ENDBRANCH   3   4
ENDBRANCH   2   3
ENDBRANCH   1   2
BRANCH   1   8
ATOM      8  C   UNL     1     -33.568   5.473  -1.222  1.00  0.00     0.000 C 
BRANCH   8   9
ATOM      9  C   UNL     1     -33.059   6.817  -0.677  1.00  0.00     0.006 C 
BRANCH   9  10
ATOM     10  C   UNL     1     -31.560   6.793  -0.349  1.00  0.00     0.053 C 
BRANCH  10  11
ATOM     11  C   UNL     1     -30.809   7.697  -1.274  1.00  0.00     0.041 C 
ATOM     12  O   UNL     1     -30.129   8.651  -0.814  1.00  0.00    -0.550 OA
ATOM     13  O   UNL     1     -30.819   7.455  -2.641  1.00  0.00    -0.550 OA
ENDBRANCH  10  11
ENDBRANCH   9  10
ENDBRANCH   8   9
ENDBRANCH   1   8
TORSDOF 8
ENDMDL
MODEL 6
REMARK VINA RESULT:    -3.537      8.843     11.495
REMARK INTER + INTRA:          -5.412
REMARK INTER:                  -5.036
REMARK INTRA:                  -0.376
REMARK UNBOUND:                -0.221
REMARK SMILES O=C([O-])CCCCCCCC(=O)[O-]
REMARK SMILES IDX 7 1 6 2 5 3 4 4 2 5 1 6 3 7 8 8 9 9 10 10 11 11 12 12 13 13
REMARK H PARENT
REMARK Flexibility Score: inf
ROOT
ATOM      1  C   UNL     1     -28.046   4.982  -0.775  1.00  0.00     0.000 C 
ENDROOT
BRANCH   1   2
ATOM      2  C   UNL     1     -28.168   5.025  -2.307  1.00  0.00     0.000 C 
BRANCH   2   3
ATOM      3  C   UNL     1     -29.006   3.866  -2.869  1.00  0.00     0.006 C 
BRANCH   3   4
ATOM      4  C   UNL     1     -28.278   3.173  -4.025  1.00  0.00     0.053 C 
BRANCH   4   5
ATOM      5  C   UNL     1     -28.491   3.923  -5.302  1.00  0.00     0.041 C 
ATOM      6  O   UNL     1     -29.632   4.370  -5.591  1.00  0.00    -0.550 OA
ATOM      7  O   UNL     1     -27.440   4.088  -6.195  1.00  0.00    -0.550 OA
ENDBRANCH   4   5
ENDBRANCH   3   4
ENDBRANCH   2   3
ENDBRANCH   1   2
BRANCH   1   8
ATOM      8  C   UNL     1     -27.868   3.552  -0.237  1.00  0.00     0.000 C 
BRANCH   8   9
ATOM      9  C   UNL     1     -27.028   3.506   1.050  1.00  0.00     0.006 C 
BRANCH   9  10
ATOM     10  C   UNL     1     -25.679   4.223   0.903  1.00  0.00     0.053 C 
BRANCH  10  11
ATOM     11  C   UNL     1     -25.240   4.783   2.219  1.00  0.00     0.041 C 
ATOM     12  O   UNL     1     -25.853   4.475   3.275  1.00  0.00    -0.550 OA
ATOM     13  O   UNL     1     -24.123   5.605   2.286  1.00  0.00    -0.550 OA
ENDBRANCH  10  11
ENDBRANCH   9  10
ENDBRANCH   8   9
ENDBRANCH   1   8
TORSDOF 8
ENDMDL
MODEL 7
REMARK VINA RESULT:    -3.526     15.226     16.047
REMARK INTER + INTRA:          -5.396
REMARK INTER:                  -4.594
REMARK INTRA:                  -0.802
REMARK UNBOUND:                -0.221
REMARK SMILES O=C([O-])CCCCCCCC(=O)[O-]
REMARK SMILES IDX 7 1 6 2 5 3 4 4 2 5 1 6 3 7 8 8 9 9 10 10 11 11 12 12 13 13
REMARK H PARENT
REMARK Flexibility Score: inf
ROOT
ATOM      1  C   UNL     1     -33.454   7.914  -3.356  1.00  0.00     0.000 C 
ENDROOT
BRANCH   1   2
ATOM      2  C   UNL     1     -34.159   9.273  -3.214  1.00  0.00     0.000 C 
BRANCH   2   3
ATOM      3  C   UNL     1     -35.604   9.250  -3.737  1.00  0.00     0.006 C 
BRANCH   3   4
ATOM      4  C   UNL     1     -35.797   8.130  -4.764  1.00  0.00     0.053 C 
BRANCH   4   5
ATOM      5  C   UNL     1     -36.088   8.702  -6.115  1.00  0.00     0.041 C 
ATOM      6  O   UNL     1     -36.994   8.201  -6.833  1.00  0.00    -0.550 OA
ATOM      7  O   UNL     1     -35.328   9.757  -6.602  1.00  0.00    -0.550 OA
ENDBRANCH   4   5
ENDBRANCH   3   4
ENDBRANCH   2   3
ENDBRANCH   1   2
BRANCH   1   8
ATOM      8  C   UNL     1     -32.897   7.396  -2.019  1.00  0.00     0.000 C 
BRANCH   8   9
ATOM      9  C   UNL     1     -34.005   6.941  -1.055  1.00  0.00     0.006 C 
BRANCH   9  10
ATOM     10  C   UNL     1     -34.782   5.725  -1.576  1.00  0.00     0.053 C 
BRANCH  10  11
ATOM     11  C   UNL     1     -36.232   6.059  -1.729  1.00  0.00     0.041 C 
ATOM     12  O   UNL     1     -36.991   5.299  -2.386  1.00  0.00    -0.550 OA
ATOM     13  O   UNL     1     -36.755   7.184  -1.105  1.00  0.00    -0.550 OA
ENDBRANCH  10  11
ENDBRANCH   9  10
ENDBRANCH   8   9
ENDBRANCH   1   8
TORSDOF 8
ENDMDL
MODEL 8
REMARK VINA RESULT:    -3.515     13.292     15.870
REMARK INTER + INTRA:          -5.380
REMARK INTER:                  -4.885
REMARK INTRA:                  -0.496
REMARK UNBOUND:                -0.221
REMARK SMILES O=C([O-])CCCCCCCC(=O)[O-]
REMARK SMILES IDX 7 1 6 2 5 3 4 4 2 5 1 6 3 7 8 8 9 9 10 10 11 11 12 12 13 13
REMARK H PARENT
REMARK Flexibility Score: inf
ROOT
ATOM      1  C   UNL     1     -34.820   5.315  -1.811  1.00  0.00     0.000 C 
ENDROOT
BRANCH   1   2
ATOM      2  C   UNL     1     -33.538   5.362  -0.964  1.00  0.00     0.000 C 
BRANCH   2   3
ATOM      3  C   UNL     1     -32.885   6.753  -0.954  1.00  0.00     0.006 C 
BRANCH   3   4
ATOM      4  C   UNL     1     -31.591   6.744  -0.133  1.00  0.00     0.053 C 
BRANCH   4   5
ATOM      5  C   UNL     1     -30.436   6.313  -0.981  1.00  0.00     0.041 C 
ATOM      6  O   UNL     1     -30.382   6.647  -2.194  1.00  0.00    -0.550 OA
ATOM      7  O   UNL     1     -29.444   5.502  -0.445  1.00  0.00    -0.550 OA
ENDBRANCH   4   5
ENDBRANCH   3   4
ENDBRANCH   2   3
ENDBRANCH   1   2
BRANCH   1   8
ATOM      8  C   UNL     1     -36.011   6.002  -1.119  1.00  0.00     0.000 C 
BRANCH   8   9
ATOM      9  C   UNL     1     -36.363   7.355  -1.757  1.00  0.00     0.006 C 
BRANCH   9  10
ATOM     10  C   UNL     1     -35.800   7.506  -3.177  1.00  0.00     0.053 C 
BRANCH  10  11
ATOM     11  C   UNL     1     -35.354   8.914  -3.415  1.00  0.00     0.041 C 
ATOM     12  O   UNL     1     -34.146   9.231  -3.251  1.00  0.00    -0.550 OA
ATOM     13  O   UNL     1     -36.261   9.863  -3.865  1.00  0.00    -0.550 OA
ENDBRANCH  10  11
ENDBRANCH   9  10
ENDBRANCH   8   9
ENDBRANCH   1   8
TORSDOF 8
ENDMDL
MODEL 9
REMARK VINA RESULT:    -3.507     13.828     15.836
REMARK INTER + INTRA:          -5.368
REMARK INTER:                  -4.765
REMARK INTRA:                  -0.603
REMARK UNBOUND:                -0.221
REMARK SMILES O=C([O-])CCCCCCCC(=O)[O-]
REMARK SMILES IDX 7 1 6 2 5 3 4 4 2 5 1 6 3 7 8 8 9 9 10 10 11 11 12 12 13 13
REMARK H PARENT
REMARK Flexibility Score: inf
ROOT
ATOM      1  C   UNL     1     -34.837  -3.324   1.784  1.00  0.00     0.000 C 
ENDROOT
BRANCH   1   2
ATOM      2  C   UNL     1     -36.030  -3.573   0.848  1.00  0.00     0.000 C 
BRANCH   2   3
ATOM      3  C   UNL     1     -35.622  -4.263  -0.463  1.00  0.00     0.006 C 
BRANCH   3   4
ATOM      4  C   UNL     1     -34.528  -3.469  -1.183  1.00  0.00     0.053 C 
BRANCH   4   5
ATOM      5  C   UNL     1     -33.658  -4.383  -1.985  1.00  0.00     0.041 C 
ATOM      6  O   UNL     1     -33.369  -5.528  -1.547  1.00  0.00    -0.550 OA
ATOM      7  O   UNL     1     -33.126  -3.955  -3.194  1.00  0.00    -0.550 OA
ENDBRANCH   4   5
ENDBRANCH   3   4
ENDBRANCH   2   3
ENDBRANCH   1   2
BRANCH   1   8
ATOM      8  C   UNL     1     -34.762  -1.866   2.269  1.00  0.00     0.000 C 
BRANCH   8   9
ATOM      9  C   UNL     1     -35.877  -0.989   1.678  1.00  0.00     0.006 C 
BRANCH   9  10
ATOM     10  C   UNL     1     -35.337   0.132   0.781  1.00  0.00     0.053 C 
BRANCH  10  11
ATOM     11  C   UNL     1     -34.670   1.186   1.608  1.00  0.00     0.041 C 
ATOM     12  O   UNL     1     -35.343   1.875   2.418  1.00  0.00    -0.550 OA
ATOM     13  O   UNL     1     -33.296   1.372   1.520  1.00  0.00    -0.550 OA
ENDBRANCH  10  11
ENDBRANCH   9  10
ENDBRANCH   8   9
ENDBRANCH   1   8
TORSDOF 8
ENDMDL
