MODEL 1
REMARK VINA RESULT:     4.116      0.000      0.000
REMARK INTER + INTRA:           4.116
REMARK INTER:                   4.116
REMARK INTRA:                   0.000
REMARK UNBOUND:                 0.000
REMARK SMILES C=C1CCC[C@]2(C)CC(=O)C(=C(C)C)C[C@@H]12
REMARK SMILES IDX 13 1 12 2 11 3 15 4 16 5 2 6 1 7 3 8 4 9 5 10 6 11 8 12 9 13
REMARK SMILES IDX 10 14 7 15 14 16
REMARK H PARENT
REMARK Flexibility Score: inf
ROOT
ATOM      1  C   UNL     1      36.411  24.768  33.155  1.00  0.00     0.039 C 
ATOM      2  C   UNL     1      34.986  24.787  32.655  1.00  0.00    -0.070 C 
ATOM      3  C   UNL     1      34.675  24.510  31.354  1.00  0.00    -0.006 C 
ATOM      4  C   UNL     1      33.228  24.474  30.879  1.00  0.00     0.047 C 
ATOM      5  C   UNL     1      33.005  23.483  29.710  1.00  0.00     0.025 C 
ATOM      6  C   UNL     1      31.577  23.433  29.165  1.00  0.00    -0.073 C 
ATOM      7  C   UNL     1      30.564  24.187  29.633  1.00  0.00     0.008 C 
ATOM      8  C   UNL     1      31.317  22.432  28.065  1.00  0.00     0.031 C 
ATOM      9  C   UNL     1      32.320  22.623  26.923  1.00  0.00     0.005 C 
ATOM     10  C   UNL     1      33.771  22.632  27.437  1.00  0.00     0.008 C 
ATOM     11  C   UNL     1      34.020  23.701  28.544  1.00  0.00    -0.018 C 
ATOM     12  C   UNL     1      35.453  23.502  29.093  1.00  0.00     0.088 C 
ATOM     13  C   UNL     1      35.721  24.352  30.301  1.00  0.00     0.159 C 
ATOM     14  O   UNL     1      36.835  24.933  30.394  1.00  0.00    -0.295 OA
ATOM     15  C   UNL     1      33.897  25.124  27.930  1.00  0.00     0.012 C 
ATOM     16  C   UNL     1      33.908  25.090  33.672  1.00  0.00     0.039 C 
ENDROOT
TORSDOF 0
ENDMDL
