MODEL 1
REMARK VINA RESULT:     1.549      0.000      0.000
REMARK INTER + INTRA:           2.103
REMARK INTER:                   2.365
REMARK INTRA:                  -0.262
REMARK UNBOUND:                -0.262
REMARK SMILES O=C([O-])CCCCCCCCC(=O)[O-]
REMARK SMILES IDX 7 1 6 2 5 3 4 4 2 5 1 6 3 7 8 8 9 9 10 10 11 11 12 12 13 13
REMARK SMILES IDX 14 14
REMARK H PARENT
REMARK Flexibility Score: inf
ROOT
ATOM      1  C   UNL     1      21.983  22.706  45.655  1.00  0.00     0.000 C 
ENDROOT
BRANCH   1   2
ATOM      2  C   UNL     1      20.931  21.677  46.117  1.00  0.00     0.000 C 
BRANCH   2   3
ATOM      3  C   UNL     1      19.627  22.279  46.672  1.00  0.00     0.006 C 
BRANCH   3   4
ATOM      4  C   UNL     1      19.368  23.704  46.166  1.00  0.00     0.053 C 
BRANCH   4   5
ATOM      5  C   UNL     1      18.092  23.757  45.387  1.00  0.00     0.041 C 
ATOM      6  O   UNL     1      18.105  23.597  44.138  1.00  0.00    -0.550 OA
ATOM      7  O   UNL     1      16.893  24.032  46.034  1.00  0.00    -0.550 OA
ENDBRANCH   4   5
ENDBRANCH   3   4
ENDBRANCH   2   3
ENDBRANCH   1   2
BRANCH   1   8
ATOM      8  C   UNL     1      23.337  22.635  46.384  1.00  0.00     0.000 C 
BRANCH   8   9
ATOM      9  C   UNL     1      24.482  23.274  45.581  1.00  0.00     0.000 C 
BRANCH   9  10
ATOM     10  C   UNL     1      25.867  22.933  46.154  1.00  0.00     0.006 C 
BRANCH  10  11
ATOM     11  C   UNL     1      26.905  24.030  45.888  1.00  0.00     0.053 C 
BRANCH  11  12
ATOM     12  C   UNL     1      28.290  23.469  45.975  1.00  0.00     0.041 C 
ATOM     13  O   UNL     1      28.592  22.428  45.334  1.00  0.00    -0.550 OA
ATOM     14  O   UNL     1      29.259  24.122  46.725  1.00  0.00    -0.550 OA
ENDBRANCH  11  12
ENDBRANCH  10  11
ENDBRANCH   9  10
ENDBRANCH   8   9
ENDBRANCH   1   8
TORSDOF 9
ENDMDL
MODEL 2
REMARK VINA RESULT:     2.817     17.927     20.003
REMARK INTER + INTRA:           4.037
REMARK INTER:                   4.106
REMARK INTRA:                  -0.069
REMARK UNBOUND:                -0.262
REMARK SMILES O=C([O-])CCCCCCCCC(=O)[O-]
REMARK SMILES IDX 7 1 6 2 5 3 4 4 2 5 1 6 3 7 8 8 9 9 10 10 11 11 12 12 13 13
REMARK SMILES IDX 14 14
REMARK H PARENT
REMARK Flexibility Score: inf
ROOT
ATOM      1  C   UNL     1      31.880  21.676  28.365  1.00  0.00     0.000 C 
ENDROOT
BRANCH   1   2
ATOM      2  C   UNL     1      30.401  22.098  28.479  1.00  0.00     0.000 C 
BRANCH   2   3
ATOM      3  C   UNL     1      30.155  23.617  28.489  1.00  0.00     0.006 C 
BRANCH   3   4
ATOM      4  C   UNL     1      29.623  24.125  29.836  1.00  0.00     0.053 C 
BRANCH   4   5
ATOM      5  C   UNL     1      30.667  23.979  30.897  1.00  0.00     0.041 C 
ATOM      6  O   UNL     1      30.331  23.770  32.092  1.00  0.00    -0.550 OA
ATOM      7  O   UNL     1      32.011  24.122  30.575  1.00  0.00    -0.550 OA
ENDBRANCH   4   5
ENDBRANCH   3   4
ENDBRANCH   2   3
ENDBRANCH   1   2
BRANCH   1   8
ATOM      8  C   UNL     1      32.566  22.033  27.034  1.00  0.00     0.000 C 
BRANCH   8   9
ATOM      9  C   UNL     1      32.826  23.541  26.883  1.00  0.00     0.000 C 
BRANCH   9  10
ATOM     10  C   UNL     1      34.323  23.888  26.918  1.00  0.00     0.006 C 
BRANCH  10  11
ATOM     11  C   UNL     1      34.936  23.729  28.316  1.00  0.00     0.053 C 
BRANCH  11  12
ATOM     12  C   UNL     1      36.412  23.508  28.216  1.00  0.00     0.041 C 
ATOM     13  O   UNL     1      37.014  22.843  29.100  1.00  0.00    -0.550 OA
ATOM     14  O   UNL     1      37.116  23.994  27.121  1.00  0.00    -0.550 OA
ENDBRANCH  11  12
ENDBRANCH  10  11
ENDBRANCH   9  10
ENDBRANCH   8   9
ENDBRANCH   1   8
TORSDOF 9
ENDMDL
MODEL 3
REMARK VINA RESULT:     3.079     16.049     17.953
REMARK INTER + INTRA:           4.437
REMARK INTER:                   4.785
REMARK INTRA:                  -0.348
REMARK UNBOUND:                -0.262
REMARK SMILES O=C([O-])CCCCCCCCC(=O)[O-]
REMARK SMILES IDX 7 1 6 2 5 3 4 4 2 5 1 6 3 7 8 8 9 9 10 10 11 11 12 12 13 13
REMARK SMILES IDX 14 14
REMARK H PARENT
REMARK Flexibility Score: inf
ROOT
ATOM      1  C   UNL     1      30.499  23.320  31.949  1.00  0.00     0.000 C 
ENDROOT
BRANCH   1   2
ATOM      2  C   UNL     1      29.934  23.947  30.658  1.00  0.00     0.000 C 
BRANCH   2   3
ATOM      3  C   UNL     1      30.514  23.382  29.349  1.00  0.00     0.006 C 
BRANCH   3   4
ATOM      4  C   UNL     1      31.908  23.937  29.028  1.00  0.00     0.053 C 
BRANCH   4   5
ATOM      5  C   UNL     1      32.631  23.020  28.093  1.00  0.00     0.041 C 
ATOM      6  O   UNL     1      33.786  23.312  27.686  1.00  0.00    -0.550 OA
ATOM      7  O   UNL     1      32.010  21.865  27.632  1.00  0.00    -0.550 OA
ENDBRANCH   4   5
ENDBRANCH   3   4
ENDBRANCH   2   3
ENDBRANCH   1   2
BRANCH   1   8
ATOM      8  C   UNL     1      31.618  24.125  32.636  1.00  0.00     0.000 C 
BRANCH   8   9
ATOM      9  C   UNL     1      32.047  23.520  33.983  1.00  0.00     0.000 C 
BRANCH   9  10
ATOM     10  C   UNL     1      33.378  24.098  34.491  1.00  0.00     0.006 C 
BRANCH  10  11
ATOM     11  C   UNL     1      34.470  24.109  33.413  1.00  0.00     0.053 C 
BRANCH  11  12
ATOM     12  C   UNL     1      35.821  23.954  34.038  1.00  0.00     0.041 C 
ATOM     13  O   UNL     1      35.942  23.953  35.291  1.00  0.00    -0.550 OA
ATOM     14  O   UNL     1      36.939  23.760  33.237  1.00  0.00    -0.550 OA
ENDBRANCH  11  12
ENDBRANCH  10  11
ENDBRANCH   9  10
ENDBRANCH   8   9
ENDBRANCH   1   8
TORSDOF 9
ENDMDL
