MODEL 1
REMARK VINA RESULT:    -6.566      0.000      0.000
REMARK INTER + INTRA:          -7.516
REMARK INTER:                  -7.525
REMARK INTRA:                   0.009
REMARK UNBOUND:                 0.009
REMARK SMILES C=C(C)[C@@H]1CC[C@]2(C(=O)[O-])CC[C@]3(C)[C@@H](CC[C@H]4[C@@]5(C)CC[C@@H](O)C(C)(C)[C@H]5CC[C@]43C)[C@@H]12
REMARK SMILES IDX 7 1 6 2 33 3 11 4 5 5 15 6 4 7 12 8 16 9 13 10 17 11 31 12
REMARK SMILES IDX 14 13 18 14 30 15 32 16 19 17 29 18 21 19 20 20 28 21 22 22
REMARK SMILES IDX 25 23 23 24 26 25 27 26 8 27 9 28 10 29 2 30 3 31 1 32 24 33
REMARK H PARENT 24 34
REMARK Flexibility Score: inf
ROOT
ATOM      1  C   UNL     1      33.663   9.333 -50.966  1.00  0.00     0.014 C 
ATOM      2  C   UNL     1      34.547   8.468 -50.044  1.00  0.00     0.014 C 
ATOM      3  C   UNL     1      33.022  10.257 -49.926  1.00  0.00     0.012 C 
ATOM      4  C   UNL     1      34.461  10.200 -51.996  1.00  0.00     0.014 C 
ATOM      5  C   UNL     1      33.723   8.260 -48.755  1.00  0.00     0.009 C 
ATOM      6  C   UNL     1      32.034  11.318 -50.468  1.00  0.00     0.000 C 
ATOM      7  C   UNL     1      32.643   9.369 -48.734  1.00  0.00     0.018 C 
ATOM      8  C   UNL     1      34.145  11.727 -51.976  1.00  0.00     0.008 C 
ATOM      9  C   UNL     1      30.607  10.842 -50.719  1.00  0.00     0.005 C 
ATOM     10  C   UNL     1      32.656  12.200 -51.647  1.00  0.00    -0.024 C 
ATOM     11  C   UNL     1      29.779  12.003 -51.264  1.00  0.00     0.005 C 
ATOM     12  C   UNL     1      31.721  12.296 -53.005  1.00  0.00    -0.024 C 
ATOM     13  C   UNL     1      32.853  13.612 -51.006  1.00  0.00     0.012 C 
ATOM     14  C   UNL     1      30.132  12.248 -52.750  1.00  0.00     0.002 C 
ATOM     15  C   UNL     1      32.082  13.548 -53.870  1.00  0.00     0.008 C 
ATOM     16  C   UNL     1      32.046  11.082 -53.931  1.00  0.00     0.012 C 
ATOM     17  C   UNL     1      29.185  13.284 -53.559  1.00  0.00    -0.026 C 
ATOM     18  C   UNL     1      31.319  14.822 -53.506  1.00  0.00     0.005 C 
ATOM     19  C   UNL     1      27.792  13.416 -52.848  1.00  0.00     0.010 C 
ATOM     20  C   UNL     1      28.879  12.644 -54.954  1.00  0.00     0.012 C 
ATOM     21  C   UNL     1      29.825  14.720 -53.837  1.00  0.00     0.003 C 
ATOM     22  C   UNL     1      26.848  14.469 -53.435  1.00  0.00     0.033 C 
ATOM     23  C   UNL     1      28.998  15.954 -53.301  1.00  0.00    -0.006 C 
ATOM     24  C   UNL     1      27.524  15.808 -53.801  1.00  0.00     0.120 C 
ATOM     25  C   UNL     1      29.082  16.094 -51.749  1.00  0.00     0.014 C 
ATOM     26  C   UNL     1      29.550  17.270 -53.920  1.00  0.00     0.014 C 
ENDROOT
BRANCH   1  27
ATOM     27  C   UNL     1      32.719   8.362 -51.683  1.00  0.00     0.048 C 
ATOM     28  O   UNL     1      31.734   7.848 -51.094  1.00  0.00    -0.550 OA
ATOM     29  O   UNL     1      33.037   7.887 -52.949  1.00  0.00    -0.550 OA
ENDBRANCH   1  27
BRANCH   7  30
ATOM     30  C   UNL     1      32.566  10.134 -47.414  1.00  0.00    -0.077 C 
ATOM     31  C   UNL     1      31.261  10.753 -46.983  1.00  0.00     0.039 C 
ATOM     32  C   UNL     1      33.640  10.278 -46.618  1.00  0.00     0.008 C 
ENDBRANCH   7  30
BRANCH  24  33
ATOM     33  O   UNL     1      26.738  16.877 -53.330  1.00  0.00    -0.393 OA
ATOM     34  H   UNL     1      25.800  16.683 -53.594  1.00  0.00     0.210 HD
ENDBRANCH  24  33
TORSDOF 3
ENDMDL
MODEL 2
REMARK VINA RESULT:    -6.245      1.843      3.776
REMARK INTER + INTRA:          -7.148
REMARK INTER:                  -7.126
REMARK INTRA:                  -0.021
REMARK UNBOUND:                 0.009
REMARK SMILES C=C(C)[C@@H]1CC[C@]2(C(=O)[O-])CC[C@]3(C)[C@@H](CC[C@H]4[C@@]5(C)CC[C@@H](O)C(C)(C)[C@H]5CC[C@]43C)[C@@H]12
REMARK SMILES IDX 7 1 6 2 33 3 11 4 5 5 15 6 4 7 12 8 16 9 13 10 17 11 31 12
REMARK SMILES IDX 14 13 18 14 30 15 32 16 19 17 29 18 21 19 20 20 28 21 22 22
REMARK SMILES IDX 25 23 23 24 26 25 27 26 8 27 9 28 10 29 2 30 3 31 1 32 24 33
REMARK H PARENT 24 34
REMARK Flexibility Score: inf
ROOT
ATOM      1  C   UNL     1      33.965   9.552 -51.843  1.00  0.00     0.014 C 
ATOM      2  C   UNL     1      34.570   8.133 -51.832  1.00  0.00     0.014 C 
ATOM      3  C   UNL     1      32.567   9.239 -52.385  1.00  0.00     0.012 C 
ATOM      4  C   UNL     1      33.829  10.206 -50.428  1.00  0.00     0.014 C 
ATOM      5  C   UNL     1      34.016   7.436 -53.093  1.00  0.00     0.009 C 
ATOM      6  C   UNL     1      31.607  10.443 -52.546  1.00  0.00     0.000 C 
ATOM      7  C   UNL     1      32.762   8.232 -53.526  1.00  0.00     0.018 C 
ATOM      8  C   UNL     1      32.402  10.715 -50.057  1.00  0.00     0.008 C 
ATOM      9  C   UNL     1      31.766  11.262 -53.822  1.00  0.00     0.005 C 
ATOM     10  C   UNL     1      31.475  11.313 -51.211  1.00  0.00    -0.024 C 
ATOM     11  C   UNL     1      30.761  12.411 -53.809  1.00  0.00     0.005 C 
ATOM     12  C   UNL     1      31.709  12.935 -51.418  1.00  0.00    -0.024 C 
ATOM     13  C   UNL     1      30.025  11.019 -50.707  1.00  0.00     0.012 C 
ATOM     14  C   UNL     1      31.243  13.520 -52.844  1.00  0.00     0.002 C 
ATOM     15  C   UNL     1      31.057  13.766 -50.265  1.00  0.00     0.008 C 
ATOM     16  C   UNL     1      33.234  13.245 -51.302  1.00  0.00     0.012 C 
ATOM     17  C   UNL     1      30.426  14.918 -52.879  1.00  0.00    -0.026 C 
ATOM     18  C   UNL     1      29.598  14.156 -50.501  1.00  0.00     0.005 C 
ATOM     19  C   UNL     1      29.666  15.069 -54.244  1.00  0.00     0.010 C 
ATOM     20  C   UNL     1      31.479  16.075 -52.862  1.00  0.00     0.012 C 
ATOM     21  C   UNL     1      29.443  15.166 -51.646  1.00  0.00     0.003 C 
ATOM     22  C   UNL     1      28.743  16.286 -54.356  1.00  0.00     0.033 C 
ATOM     23  C   UNL     1      27.932  15.437 -52.017  1.00  0.00    -0.006 C 
ATOM     24  C   UNL     1      27.891  16.565 -53.099  1.00  0.00     0.120 C 
ATOM     25  C   UNL     1      27.196  14.144 -52.487  1.00  0.00     0.014 C 
ATOM     26  C   UNL     1      27.172  15.983 -50.774  1.00  0.00     0.014 C 
ENDROOT
BRANCH   1  27
ATOM     27  C   UNL     1      34.869  10.394 -52.750  1.00  0.00     0.048 C 
ATOM     28  O   UNL     1      34.893  10.222 -53.995  1.00  0.00    -0.550 OA
ATOM     29  O   UNL     1      35.820  11.241 -52.194  1.00  0.00    -0.550 OA
ENDBRANCH   1  27
BRANCH   7  30
ATOM     30  C   UNL     1      31.532   7.362 -53.778  1.00  0.00    -0.077 C 
ATOM     31  C   UNL     1      30.925   7.305 -55.156  1.00  0.00     0.039 C 
ATOM     32  C   UNL     1      30.964   6.642 -52.795  1.00  0.00     0.008 C 
ENDBRANCH   7  30
BRANCH  24  33
ATOM     33  O   UNL     1      26.562  16.830 -53.480  1.00  0.00    -0.393 OA
ATOM     34  H   UNL     1      26.298  16.117 -54.119  1.00  0.00     0.210 HD
ENDBRANCH  24  33
TORSDOF 3
ENDMDL
MODEL 3
REMARK VINA RESULT:    -5.945      4.074      7.519
REMARK INTER + INTRA:          -6.805
REMARK INTER:                  -6.930
REMARK INTRA:                   0.125
REMARK UNBOUND:                 0.009
REMARK SMILES C=C(C)[C@@H]1CC[C@]2(C(=O)[O-])CC[C@]3(C)[C@@H](CC[C@H]4[C@@]5(C)CC[C@@H](O)C(C)(C)[C@H]5CC[C@]43C)[C@@H]12
REMARK SMILES IDX 7 1 6 2 33 3 11 4 5 5 15 6 4 7 12 8 16 9 13 10 17 11 31 12
REMARK SMILES IDX 14 13 18 14 30 15 32 16 19 17 29 18 21 19 20 20 28 21 22 22
REMARK SMILES IDX 25 23 23 24 26 25 27 26 8 27 9 28 10 29 2 30 3 31 1 32 24 33
REMARK H PARENT 24 34
REMARK Flexibility Score: inf
ROOT
ATOM      1  C   UNL     1      26.130  16.569 -47.595  1.00  0.00     0.014 C 
ATOM      2  C   UNL     1      25.279  16.621 -46.309  1.00  0.00     0.014 C 
ATOM      3  C   UNL     1      26.015  15.079 -47.929  1.00  0.00     0.012 C 
ATOM      4  C   UNL     1      25.553  17.405 -48.785  1.00  0.00     0.014 C 
ATOM      5  C   UNL     1      25.579  15.305 -45.560  1.00  0.00     0.009 C 
ATOM      6  C   UNL     1      26.754  14.602 -49.203  1.00  0.00     0.000 C 
ATOM      7  C   UNL     1      26.171  14.325 -46.602  1.00  0.00     0.018 C 
ATOM      8  C   UNL     1      25.350  16.624 -50.119  1.00  0.00     0.008 C 
ATOM      9  C   UNL     1      28.241  14.307 -49.046  1.00  0.00     0.005 C 
ATOM     10  C   UNL     1      26.380  15.465 -50.496  1.00  0.00    -0.024 C 
ATOM     11  C   UNL     1      28.811  13.869 -50.393  1.00  0.00     0.005 C 
ATOM     12  C   UNL     1      27.678  16.038 -51.341  1.00  0.00    -0.024 C 
ATOM     13  C   UNL     1      25.531  14.489 -51.374  1.00  0.00     0.012 C 
ATOM     14  C   UNL     1      28.985  15.099 -51.315  1.00  0.00     0.002 C 
ATOM     15  C   UNL     1      27.301  16.382 -52.820  1.00  0.00     0.008 C 
ATOM     16  C   UNL     1      28.117  17.405 -50.729  1.00  0.00     0.012 C 
ATOM     17  C   UNL     1      29.796  14.860 -52.696  1.00  0.00    -0.026 C 
ATOM     18  C   UNL     1      27.437  15.219 -53.803  1.00  0.00     0.005 C 
ATOM     19  C   UNL     1      30.705  13.585 -52.580  1.00  0.00     0.010 C 
ATOM     20  C   UNL     1      30.786  16.059 -52.870  1.00  0.00     0.012 C 
ATOM     21  C   UNL     1      28.898  14.804 -54.015  1.00  0.00     0.003 C 
ATOM     22  C   UNL     1      31.425  13.167 -53.865  1.00  0.00     0.033 C 
ATOM     23  C   UNL     1      29.038  13.494 -54.884  1.00  0.00    -0.006 C 
ATOM     24  C   UNL     1      30.559  13.238 -55.141  1.00  0.00     0.120 C 
ATOM     25  C   UNL     1      28.338  12.266 -54.222  1.00  0.00     0.014 C 
ATOM     26  C   UNL     1      28.381  13.711 -56.279  1.00  0.00     0.014 C 
ENDROOT
BRANCH   1  27
ATOM     27  C   UNL     1      27.525  17.068 -47.201  1.00  0.00     0.048 C 
ATOM     28  O   UNL     1      28.005  18.125 -47.684  1.00  0.00    -0.550 OA
ATOM     29  O   UNL     1      28.364  16.263 -46.441  1.00  0.00    -0.550 OA
ENDBRANCH   1  27
BRANCH   7  30
ATOM     30  C   UNL     1      25.506  12.950 -46.609  1.00  0.00    -0.077 C 
ATOM     31  C   UNL     1      24.126  12.789 -47.193  1.00  0.00     0.039 C 
ATOM     32  C   UNL     1      26.119  11.868 -46.099  1.00  0.00     0.008 C 
ENDBRANCH   7  30
BRANCH  24  33
ATOM     33  O   UNL     1      30.738  12.064 -55.897  1.00  0.00    -0.393 OA
ATOM     34  H   UNL     1      29.963  11.998 -56.515  1.00  0.00     0.210 HD
ENDBRANCH  24  33
TORSDOF 3
ENDMDL
MODEL 4
REMARK VINA RESULT:    -5.874      1.547      7.741
REMARK INTER + INTRA:          -6.723
REMARK INTER:                  -6.730
REMARK INTRA:                   0.007
REMARK UNBOUND:                 0.009
REMARK SMILES C=C(C)[C@@H]1CC[C@]2(C(=O)[O-])CC[C@]3(C)[C@@H](CC[C@H]4[C@@]5(C)CC[C@@H](O)C(C)(C)[C@H]5CC[C@]43C)[C@@H]12
REMARK SMILES IDX 7 1 6 2 33 3 11 4 5 5 15 6 4 7 12 8 16 9 13 10 17 11 31 12
REMARK SMILES IDX 14 13 18 14 30 15 32 16 19 17 29 18 21 19 20 20 28 21 22 22
REMARK SMILES IDX 25 23 23 24 26 25 27 26 8 27 9 28 10 29 2 30 3 31 1 32 24 33
REMARK H PARENT 24 34
REMARK Flexibility Score: inf
ROOT
ATOM      1  C   UNL     1      29.573  15.337 -53.187  1.00  0.00     0.014 C 
ATOM      2  C   UNL     1      28.859  16.349 -54.107  1.00  0.00     0.014 C 
ATOM      3  C   UNL     1      29.464  14.075 -54.047  1.00  0.00     0.012 C 
ATOM      4  C   UNL     1      31.084  15.653 -52.932  1.00  0.00     0.014 C 
ATOM      5  C   UNL     1      27.700  15.567 -54.762  1.00  0.00     0.009 C 
ATOM      6  C   UNL     1      30.090  12.787 -53.459  1.00  0.00     0.000 C 
ATOM      7  C   UNL     1      28.042  14.064 -54.621  1.00  0.00     0.018 C 
ATOM      8  C   UNL     1      32.076  14.494 -53.257  1.00  0.00     0.008 C 
ATOM      9  C   UNL     1      29.230  12.014 -52.466  1.00  0.00     0.005 C 
ATOM     10  C   UNL     1      31.610  12.989 -53.004  1.00  0.00    -0.024 C 
ATOM     11  C   UNL     1      30.002  10.792 -51.976  1.00  0.00     0.005 C 
ATOM     12  C   UNL     1      31.943  12.484 -51.467  1.00  0.00    -0.024 C 
ATOM     13  C   UNL     1      32.433  12.168 -54.049  1.00  0.00     0.012 C 
ATOM     14  C   UNL     1      31.079  11.227 -50.954  1.00  0.00     0.002 C 
ATOM     15  C   UNL     1      33.467  12.197 -51.268  1.00  0.00     0.008 C 
ATOM     16  C   UNL     1      31.638  13.650 -50.475  1.00  0.00     0.012 C 
ATOM     17  C   UNL     1      31.837  10.041 -50.151  1.00  0.00    -0.026 C 
ATOM     18  C   UNL     1      33.902  10.772 -51.608  1.00  0.00     0.005 C 
ATOM     19  C   UNL     1      30.968   8.734 -50.164  1.00  0.00     0.010 C 
ATOM     20  C   UNL     1      31.915  10.471 -48.649  1.00  0.00     0.012 C 
ATOM     21  C   UNL     1      33.331   9.740 -50.627  1.00  0.00     0.003 C 
ATOM     22  C   UNL     1      31.629   7.494 -49.555  1.00  0.00     0.033 C 
ATOM     23  C   UNL     1      33.622   8.253 -51.071  1.00  0.00    -0.006 C 
ATOM     24  C   UNL     1      33.110   7.298 -49.944  1.00  0.00     0.120 C 
ATOM     25  C   UNL     1      32.993   7.915 -52.459  1.00  0.00     0.014 C 
ATOM     26  C   UNL     1      35.157   8.026 -51.185  1.00  0.00     0.014 C 
ENDROOT
BRANCH   1  27
ATOM     27  C   UNL     1      28.786  15.329 -51.872  1.00  0.00     0.048 C 
ATOM     28  O   UNL     1      27.698  14.708 -51.761  1.00  0.00    -0.550 OA
ATOM     29  O   UNL     1      29.167  16.161 -50.826  1.00  0.00    -0.550 OA
ENDBRANCH   1  27
BRANCH   7  30
ATOM     30  C   UNL     1      27.924  13.277 -55.925  1.00  0.00    -0.077 C 
ATOM     31  C   UNL     1      26.687  12.460 -56.197  1.00  0.00     0.039 C 
ATOM     32  C   UNL     1      28.904  13.286 -56.846  1.00  0.00     0.008 C 
ENDBRANCH   7  30
BRANCH  24  33
ATOM     33  O   UNL     1      33.329   5.955 -50.303  1.00  0.00    -0.393 OA
ATOM     34  H   UNL     1      34.097   5.946 -50.932  1.00  0.00     0.210 HD
ENDBRANCH  24  33
TORSDOF 3
ENDMDL
MODEL 5
REMARK VINA RESULT:    -5.806      2.110      7.535
REMARK INTER + INTRA:          -6.645
REMARK INTER:                  -6.647
REMARK INTRA:                   0.002
REMARK UNBOUND:                 0.009
REMARK SMILES C=C(C)[C@@H]1CC[C@]2(C(=O)[O-])CC[C@]3(C)[C@@H](CC[C@H]4[C@@]5(C)CC[C@@H](O)C(C)(C)[C@H]5CC[C@]43C)[C@@H]12
REMARK SMILES IDX 7 1 6 2 33 3 11 4 5 5 15 6 4 7 12 8 16 9 13 10 17 11 31 12
REMARK SMILES IDX 14 13 18 14 30 15 32 16 19 17 29 18 21 19 20 20 28 21 22 22
REMARK SMILES IDX 25 23 23 24 26 25 27 26 8 27 9 28 10 29 2 30 3 31 1 32 24 33
REMARK H PARENT 24 34
REMARK Flexibility Score: inf
ROOT
ATOM      1  C   UNL     1      28.417  13.163 -54.331  1.00  0.00     0.014 C 
ATOM      2  C   UNL     1      27.618  14.278 -55.038  1.00  0.00     0.014 C 
ATOM      3  C   UNL     1      29.140  13.992 -53.264  1.00  0.00     0.012 C 
ATOM      4  C   UNL     1      27.532  12.083 -53.626  1.00  0.00     0.014 C 
ATOM      5  C   UNL     1      28.549  15.510 -55.052  1.00  0.00     0.009 C 
ATOM      6  C   UNL     1      30.073  13.212 -52.306  1.00  0.00     0.000 C 
ATOM      7  C   UNL     1      29.621  15.270 -53.962  1.00  0.00     0.018 C 
ATOM      8  C   UNL     1      27.841  11.842 -52.117  1.00  0.00     0.008 C 
ATOM      9  C   UNL     1      31.476  12.919 -52.827  1.00  0.00     0.005 C 
ATOM     10  C   UNL     1      29.349  11.968 -51.611  1.00  0.00    -0.024 C 
ATOM     11  C   UNL     1      32.250  12.135 -51.770  1.00  0.00     0.005 C 
ATOM     12  C   UNL     1      30.167  10.538 -51.731  1.00  0.00    -0.024 C 
ATOM     13  C   UNL     1      29.201  12.400 -50.116  1.00  0.00     0.012 C 
ATOM     14  C   UNL     1      31.772  10.664 -51.753  1.00  0.00     0.002 C 
ATOM     15  C   UNL     1      29.729   9.525 -50.624  1.00  0.00     0.008 C 
ATOM     16  C   UNL     1      29.771   9.840 -53.070  1.00  0.00     0.012 C 
ATOM     17  C   UNL     1      32.642   9.629 -50.861  1.00  0.00    -0.026 C 
ATOM     18  C   UNL     1      30.513   9.625 -49.316  1.00  0.00     0.005 C 
ATOM     19  C   UNL     1      34.090  10.192 -50.633  1.00  0.00     0.010 C 
ATOM     20  C   UNL     1      32.834   8.328 -51.709  1.00  0.00     0.012 C 
ATOM     21  C   UNL     1      31.974   9.188 -49.479  1.00  0.00     0.003 C 
ATOM     22  C   UNL     1      34.976   9.374 -49.689  1.00  0.00     0.033 C 
ATOM     23  C   UNL     1      32.837   9.458 -48.184  1.00  0.00    -0.006 C 
ATOM     24  C   UNL     1      34.265   8.864 -48.418  1.00  0.00     0.120 C 
ATOM     25  C   UNL     1      32.884  10.972 -47.807  1.00  0.00     0.014 C 
ATOM     26  C   UNL     1      32.229   8.692 -46.974  1.00  0.00     0.014 C 
ENDROOT
BRANCH   1  27
ATOM     27  C   UNL     1      29.303  12.527 -55.408  1.00  0.00     0.048 C 
ATOM     28  O   UNL     1      30.353  13.088 -55.811  1.00  0.00    -0.550 OA
ATOM     29  O   UNL     1      28.866  11.401 -56.095  1.00  0.00    -0.550 OA
ENDBRANCH   1  27
BRANCH   7  30
ATOM     30  C   UNL     1      29.805  16.445 -53.005  1.00  0.00    -0.077 C 
ATOM     31  C   UNL     1      30.940  17.414 -53.218  1.00  0.00     0.039 C 
ATOM     32  C   UNL     1      28.979  16.643 -51.962  1.00  0.00     0.008 C 
ENDBRANCH   7  30
BRANCH  24  33
ATOM     33  O   UNL     1      35.082   9.098 -47.295  1.00  0.00    -0.393 OA
ATOM     34  H   UNL     1      34.528   8.913 -46.492  1.00  0.00     0.210 HD
ENDBRANCH  24  33
TORSDOF 3
ENDMDL
MODEL 6
REMARK VINA RESULT:    -5.730      7.873     11.700
REMARK INTER + INTRA:          -6.558
REMARK INTER:                  -6.545
REMARK INTRA:                  -0.013
REMARK UNBOUND:                 0.009
REMARK SMILES C=C(C)[C@@H]1CC[C@]2(C(=O)[O-])CC[C@]3(C)[C@@H](CC[C@H]4[C@@]5(C)CC[C@@H](O)C(C)(C)[C@H]5CC[C@]43C)[C@@H]12
REMARK SMILES IDX 7 1 6 2 33 3 11 4 5 5 15 6 4 7 12 8 16 9 13 10 17 11 31 12
REMARK SMILES IDX 14 13 18 14 30 15 32 16 19 17 29 18 21 19 20 20 28 21 22 22
REMARK SMILES IDX 25 23 23 24 26 25 27 26 8 27 9 28 10 29 2 30 3 31 1 32 24 33
REMARK H PARENT 24 34
REMARK Flexibility Score: inf
ROOT
ATOM      1  C   UNL     1      32.569   8.431 -40.260  1.00  0.00     0.014 C 
ATOM      2  C   UNL     1      32.473   8.813 -38.768  1.00  0.00     0.014 C 
ATOM      3  C   UNL     1      34.058   8.083 -40.349  1.00  0.00     0.012 C 
ATOM      4  C   UNL     1      31.726   7.174 -40.659  1.00  0.00     0.014 C 
ATOM      5  C   UNL     1      33.791   9.549 -38.444  1.00  0.00     0.009 C 
ATOM      6  C   UNL     1      34.574   7.627 -41.736  1.00  0.00     0.000 C 
ATOM      7  C   UNL     1      34.802   9.159 -39.550  1.00  0.00     0.018 C 
ATOM      8  C   UNL     1      32.514   6.037 -41.378  1.00  0.00     0.008 C 
ATOM      9  C   UNL     1      34.919   8.737 -42.722  1.00  0.00     0.005 C 
ATOM     10  C   UNL     1      33.712   6.431 -42.356  1.00  0.00    -0.024 C 
ATOM     11  C   UNL     1      35.391   8.115 -44.034  1.00  0.00     0.005 C 
ATOM     12  C   UNL     1      33.194   6.685 -43.904  1.00  0.00    -0.024 C 
ATOM     13  C   UNL     1      34.667   5.196 -42.284  1.00  0.00     0.012 C 
ATOM     14  C   UNL     1      34.178   7.567 -44.822  1.00  0.00     0.002 C 
ATOM     15  C   UNL     1      32.854   5.341 -44.628  1.00  0.00     0.008 C 
ATOM     16  C   UNL     1      31.837   7.455 -43.863  1.00  0.00     0.012 C 
ATOM     17  C   UNL     1      34.460   7.084 -46.342  1.00  0.00    -0.026 C 
ATOM     18  C   UNL     1      34.030   4.686 -45.350  1.00  0.00     0.005 C 
ATOM     19  C   UNL     1      35.764   7.761 -46.895  1.00  0.00     0.010 C 
ATOM     20  C   UNL     1      33.298   7.639 -47.232  1.00  0.00     0.012 C 
ATOM     21  C   UNL     1      34.499   5.503 -46.561  1.00  0.00     0.003 C 
ATOM     22  C   UNL     1      36.221   7.285 -48.277  1.00  0.00     0.033 C 
ATOM     23  C   UNL     1      35.823   4.932 -47.204  1.00  0.00    -0.006 C 
ATOM     24  C   UNL     1      36.134   5.759 -48.494  1.00  0.00     0.120 C 
ATOM     25  C   UNL     1      37.018   4.934 -46.201  1.00  0.00     0.014 C 
ATOM     26  C   UNL     1      35.598   3.462 -47.661  1.00  0.00     0.014 C 
ENDROOT
BRANCH   1  27
ATOM     27  C   UNL     1      32.115   9.666 -41.045  1.00  0.00     0.048 C 
ATOM     28  O   UNL     1      32.882  10.645 -41.231  1.00  0.00    -0.550 OA
ATOM     29  O   UNL     1      30.782   9.808 -41.413  1.00  0.00    -0.550 OA
ENDBRANCH   1  27
BRANCH   7  30
ATOM     30  C   UNL     1      36.153   8.687 -39.016  1.00  0.00    -0.077 C 
ATOM     31  C   UNL     1      37.414   9.021 -39.770  1.00  0.00     0.039 C 
ATOM     32  C   UNL     1      36.252   7.969 -37.883  1.00  0.00     0.008 C 
ENDBRANCH   7  30
BRANCH  24  33
ATOM     33  O   UNL     1      37.322   5.301 -49.096  1.00  0.00    -0.393 OA
ATOM     34  H   UNL     1      37.337   4.313 -48.987  1.00  0.00     0.210 HD
ENDBRANCH  24  33
TORSDOF 3
ENDMDL
MODEL 7
REMARK VINA RESULT:    -5.665      2.298      7.607
REMARK INTER + INTRA:          -6.483
REMARK INTER:                  -6.446
REMARK INTRA:                  -0.037
REMARK UNBOUND:                 0.009
REMARK SMILES C=C(C)[C@@H]1CC[C@]2(C(=O)[O-])CC[C@]3(C)[C@@H](CC[C@H]4[C@@]5(C)CC[C@@H](O)C(C)(C)[C@H]5CC[C@]43C)[C@@H]12
REMARK SMILES IDX 7 1 6 2 33 3 11 4 5 5 15 6 4 7 12 8 16 9 13 10 17 11 31 12
REMARK SMILES IDX 14 13 18 14 30 15 32 16 19 17 29 18 21 19 20 20 28 21 22 22
REMARK SMILES IDX 25 23 23 24 26 25 27 26 8 27 9 28 10 29 2 30 3 31 1 32 24 33
REMARK H PARENT 24 34
REMARK Flexibility Score: inf
ROOT
ATOM      1  C   UNL     1      28.837  12.480 -55.054  1.00  0.00     0.014 C 
ATOM      2  C   UNL     1      27.740  13.465 -55.509  1.00  0.00     0.014 C 
ATOM      3  C   UNL     1      29.415  13.258 -53.868  1.00  0.00     0.012 C 
ATOM      4  C   UNL     1      28.297  11.102 -54.548  1.00  0.00     0.014 C 
ATOM      5  C   UNL     1      28.339  14.874 -55.310  1.00  0.00     0.009 C 
ATOM      6  C   UNL     1      30.580  12.580 -53.105  1.00  0.00     0.000 C 
ATOM      7  C   UNL     1      29.516  14.720 -54.317  1.00  0.00     0.018 C 
ATOM      8  C   UNL     1      28.769  10.678 -53.123  1.00  0.00     0.008 C 
ATOM      9  C   UNL     1      31.968  12.750 -53.712  1.00  0.00     0.005 C 
ATOM     10  C   UNL     1      30.235  11.088 -52.645  1.00  0.00    -0.024 C 
ATOM     11  C   UNL     1      32.987  12.010 -52.849  1.00  0.00     0.005 C 
ATOM     12  C   UNL     1      31.364   9.958 -53.063  1.00  0.00    -0.024 C 
ATOM     13  C   UNL     1      30.099  11.191 -51.091  1.00  0.00     0.012 C 
ATOM     14  C   UNL     1      32.884  10.488 -53.104  1.00  0.00     0.002 C 
ATOM     15  C   UNL     1      31.271   8.684 -52.162  1.00  0.00     0.008 C 
ATOM     16  C   UNL     1      31.050   9.437 -54.501  1.00  0.00     0.012 C 
ATOM     17  C   UNL     1      34.045   9.563 -52.455  1.00  0.00    -0.026 C 
ATOM     18  C   UNL     1      32.103   8.741 -50.882  1.00  0.00     0.005 C 
ATOM     19  C   UNL     1      35.325  10.424 -52.162  1.00  0.00     0.010 C 
ATOM     20  C   UNL     1      34.482   8.529 -53.545  1.00  0.00     0.012 C 
ATOM     21  C   UNL     1      33.611   8.726 -51.167  1.00  0.00     0.003 C 
ATOM     22  C   UNL     1      36.452   9.700 -51.420  1.00  0.00     0.033 C 
ATOM     23  C   UNL     1      34.477   8.966 -49.869  1.00  0.00    -0.006 C 
ATOM     24  C   UNL     1      35.985   8.806 -50.253  1.00  0.00     0.120 C 
ATOM     25  C   UNL     1      34.182  10.348 -49.207  1.00  0.00     0.014 C 
ATOM     26  C   UNL     1      34.166   7.865 -48.814  1.00  0.00     0.014 C 
ENDROOT
BRANCH   1  27
ATOM     27  C   UNL     1      29.767  12.295 -56.259  1.00  0.00     0.048 C 
ATOM     28  O   UNL     1      30.601  13.177 -56.587  1.00  0.00    -0.550 OA
ATOM     29  O   UNL     1      29.581  11.225 -57.125  1.00  0.00    -0.550 OA
ENDBRANCH   1  27
BRANCH   7  30
ATOM     30  C   UNL     1      29.481  15.711 -53.155  1.00  0.00    -0.077 C 
ATOM     31  C   UNL     1      28.533  15.482 -52.005  1.00  0.00     0.039 C 
ATOM     32  C   UNL     1      30.274  16.796 -53.128  1.00  0.00     0.008 C 
ENDBRANCH   7  30
BRANCH  24  33
ATOM     33  O   UNL     1      36.803   9.032 -49.129  1.00  0.00    -0.393 OA
ATOM     34  H   UNL     1      36.830   8.181 -48.617  1.00  0.00     0.210 HD
ENDBRANCH  24  33
TORSDOF 3
ENDMDL
MODEL 8
REMARK VINA RESULT:    -5.655      4.248      7.825
REMARK INTER + INTRA:          -6.472
REMARK INTER:                  -6.554
REMARK INTRA:                   0.081
REMARK UNBOUND:                 0.009
REMARK SMILES C=C(C)[C@@H]1CC[C@]2(C(=O)[O-])CC[C@]3(C)[C@@H](CC[C@H]4[C@@]5(C)CC[C@@H](O)C(C)(C)[C@H]5CC[C@]43C)[C@@H]12
REMARK SMILES IDX 7 1 6 2 33 3 11 4 5 5 15 6 4 7 12 8 16 9 13 10 17 11 31 12
REMARK SMILES IDX 14 13 18 14 30 15 32 16 19 17 29 18 21 19 20 20 28 21 22 22
REMARK SMILES IDX 25 23 23 24 26 25 27 26 8 27 9 28 10 29 2 30 3 31 1 32 24 33
REMARK H PARENT 24 34
REMARK Flexibility Score: inf
ROOT
ATOM      1  C   UNL     1      27.617  13.910 -53.607  1.00  0.00     0.014 C 
ATOM      2  C   UNL     1      27.948  14.271 -55.070  1.00  0.00     0.014 C 
ATOM      3  C   UNL     1      28.468  14.955 -52.878  1.00  0.00     0.012 C 
ATOM      4  C   UNL     1      26.116  14.111 -53.217  1.00  0.00     0.014 C 
ATOM      5  C   UNL     1      29.441  14.663 -55.073  1.00  0.00     0.009 C 
ATOM      6  C   UNL     1      28.407  14.932 -51.332  1.00  0.00     0.000 C 
ATOM      7  C   UNL     1      29.814  15.003 -53.610  1.00  0.00     0.018 C 
ATOM      8  C   UNL     1      25.860  15.013 -51.970  1.00  0.00     0.008 C 
ATOM      9  C   UNL     1      29.311  13.919 -50.639  1.00  0.00     0.005 C 
ATOM     10  C   UNL     1      26.911  14.980 -50.769  1.00  0.00    -0.024 C 
ATOM     11  C   UNL     1      29.114  14.020 -49.128  1.00  0.00     0.005 C 
ATOM     12  C   UNL     1      26.552  13.809 -49.661  1.00  0.00    -0.024 C 
ATOM     13  C   UNL     1      26.788  16.403 -50.134  1.00  0.00     0.012 C 
ATOM     14  C   UNL     1      27.779  13.347 -48.728  1.00  0.00     0.002 C 
ATOM     15  C   UNL     1      25.329  14.208 -48.771  1.00  0.00     0.008 C 
ATOM     16  C   UNL     1      26.077  12.528 -50.416  1.00  0.00     0.012 C 
ATOM     17  C   UNL     1      27.515  13.149 -47.142  1.00  0.00    -0.026 C 
ATOM     18  C   UNL     1      25.683  14.999 -47.513  1.00  0.00     0.005 C 
ATOM     19  C   UNL     1      28.874  13.176 -46.357  1.00  0.00     0.010 C 
ATOM     20  C   UNL     1      26.950  11.704 -46.940  1.00  0.00     0.012 C 
ATOM     21  C   UNL     1      26.459  14.156 -46.494  1.00  0.00     0.003 C 
ATOM     22  C   UNL     1      28.757  13.135 -44.830  1.00  0.00     0.033 C 
ATOM     23  C   UNL     1      26.986  15.009 -45.274  1.00  0.00    -0.006 C 
ATOM     24  C   UNL     1      27.646  14.033 -44.246  1.00  0.00     0.120 C 
ATOM     25  C   UNL     1      27.961  16.143 -45.720  1.00  0.00     0.014 C 
ATOM     26  C   UNL     1      25.788  15.682 -44.543  1.00  0.00     0.014 C 
ENDROOT
BRANCH   1  27
ATOM     27  C   UNL     1      28.040  12.448 -53.424  1.00  0.00     0.048 C 
ATOM     28  O   UNL     1      27.192  11.520 -53.380  1.00  0.00    -0.550 OA
ATOM     29  O   UNL     1      29.358  12.136 -53.117  1.00  0.00    -0.550 OA
ENDBRANCH   1  27
BRANCH   7  30
ATOM     30  C   UNL     1      30.539  16.338 -53.450  1.00  0.00    -0.077 C 
ATOM     31  C   UNL     1      29.788  17.628 -53.659  1.00  0.00     0.039 C 
ATOM     32  C   UNL     1      31.844  16.399 -53.130  1.00  0.00     0.008 C 
ENDBRANCH   7  30
BRANCH  24  33
ATOM     33  O   UNL     1      28.152  14.750 -43.144  1.00  0.00    -0.393 OA
ATOM     34  H   UNL     1      28.799  15.413 -43.505  1.00  0.00     0.210 HD
ENDBRANCH  24  33
TORSDOF 3
ENDMDL
MODEL 9
REMARK VINA RESULT:    -5.516      1.801      3.860
REMARK INTER + INTRA:          -6.312
REMARK INTER:                  -6.824
REMARK INTRA:                   0.512
REMARK UNBOUND:                 0.009
REMARK SMILES C=C(C)[C@@H]1CC[C@]2(C(=O)[O-])CC[C@]3(C)[C@@H](CC[C@H]4[C@@]5(C)CC[C@@H](O)C(C)(C)[C@H]5CC[C@]43C)[C@@H]12
REMARK SMILES IDX 7 1 6 2 33 3 11 4 5 5 15 6 4 7 12 8 16 9 13 10 17 11 31 12
REMARK SMILES IDX 14 13 18 14 30 15 32 16 19 17 29 18 21 19 20 20 28 21 22 22
REMARK SMILES IDX 25 23 23 24 26 25 27 26 8 27 9 28 10 29 2 30 3 31 1 32 24 33
REMARK H PARENT 24 34
REMARK Flexibility Score: inf
ROOT
ATOM      1  C   UNL     1      33.673   9.026 -50.573  1.00  0.00     0.014 C 
ATOM      2  C   UNL     1      34.926   8.126 -50.569  1.00  0.00     0.014 C 
ATOM      3  C   UNL     1      33.963   9.878 -51.812  1.00  0.00     0.012 C 
ATOM      4  C   UNL     1      32.328   8.256 -50.785  1.00  0.00     0.014 C 
ATOM      5  C   UNL     1      36.089   9.033 -51.027  1.00  0.00     0.009 C 
ATOM      6  C   UNL     1      32.899  10.942 -52.177  1.00  0.00     0.000 C 
ATOM      7  C   UNL     1      35.450  10.246 -51.745  1.00  0.00     0.018 C 
ATOM      8  C   UNL     1      31.438   8.771 -51.958  1.00  0.00     0.008 C 
ATOM      9  C   UNL     1      32.984  12.263 -51.422  1.00  0.00     0.005 C 
ATOM     10  C   UNL     1      31.425  10.333 -52.286  1.00  0.00    -0.024 C 
ATOM     11  C   UNL     1      31.859  13.183 -51.890  1.00  0.00     0.005 C 
ATOM     12  C   UNL     1      30.278  11.142 -51.415  1.00  0.00    -0.024 C 
ATOM     13  C   UNL     1      31.103  10.385 -53.814  1.00  0.00     0.012 C 
ATOM     14  C   UNL     1      30.517  12.727 -51.270  1.00  0.00     0.002 C 
ATOM     15  C   UNL     1      28.838  10.869 -51.960  1.00  0.00     0.008 C 
ATOM     16  C   UNL     1      30.253  10.574 -49.961  1.00  0.00     0.012 C 
ATOM     17  C   UNL     1      29.253  13.722 -51.465  1.00  0.00    -0.026 C 
ATOM     18  C   UNL     1      28.377  11.823 -53.061  1.00  0.00     0.005 C 
ATOM     19  C   UNL     1      29.751  15.181 -51.762  1.00  0.00     0.010 C 
ATOM     20  C   UNL     1      28.512  13.810 -50.090  1.00  0.00     0.012 C 
ATOM     21  C   UNL     1      28.175  13.253 -52.545  1.00  0.00     0.003 C 
ATOM     22  C   UNL     1      28.656  16.196 -52.102  1.00  0.00     0.033 C 
ATOM     23  C   UNL     1      27.876  14.282 -53.706  1.00  0.00    -0.006 C 
ATOM     24  C   UNL     1      27.564  15.671 -53.058  1.00  0.00     0.120 C 
ATOM     25  C   UNL     1      29.041  14.363 -54.741  1.00  0.00     0.014 C 
ATOM     26  C   UNL     1      26.594  13.852 -54.476  1.00  0.00     0.014 C 
ENDROOT
BRANCH   1  27
ATOM     27  C   UNL     1      33.676   9.763 -49.229  1.00  0.00     0.048 C 
ATOM     28  O   UNL     1      34.525   9.504 -48.339  1.00  0.00    -0.550 OA
ATOM     29  O   UNL     1      32.624  10.608 -48.895  1.00  0.00    -0.550 OA
ENDBRANCH   1  27
BRANCH   7  30
ATOM     30  C   UNL     1      36.058  10.546 -53.114  1.00  0.00    -0.077 C 
ATOM     31  C   UNL     1      35.951   9.528 -54.220  1.00  0.00     0.039 C 
ATOM     32  C   UNL     1      36.698  11.702 -53.364  1.00  0.00     0.008 C 
ENDBRANCH   7  30
BRANCH  24  33
ATOM     33  O   UNL     1      27.311  16.631 -54.056  1.00  0.00    -0.393 OA
ATOM     34  H   UNL     1      26.738  16.192 -54.740  1.00  0.00     0.210 HD
ENDBRANCH  24  33
TORSDOF 3
ENDMDL
