MODEL 1
REMARK VINA RESULT:    -4.176      0.000      0.000
REMARK INTER + INTRA:          -5.374
REMARK INTER:                  -5.153
REMARK INTRA:                  -0.221
REMARK UNBOUND:                -0.221
REMARK SMILES COC(=O)c1ccccc1C(=O)OC
REMARK SMILES IDX 5 1 6 2 7 3 8 4 9 5 10 6 3 7 4 8 2 9 1 10 11 11 12 12 13 13
REMARK SMILES IDX 14 14
REMARK H PARENT
REMARK Flexibility Score: inf
ROOT
ATOM      1  C   UNL     1      77.671  34.168  51.774  1.00  0.00     0.074 A 
ATOM      2  C   UNL     1      76.921  33.031  52.126  1.00  0.00     0.016 A 
ATOM      3  C   UNL     1      77.552  31.822  52.420  1.00  0.00     0.001 A 
ATOM      4  C   UNL     1      78.941  31.728  52.364  1.00  0.00     0.001 A 
ATOM      5  C   UNL     1      79.706  32.848  52.039  1.00  0.00     0.016 A 
ATOM      6  C   UNL     1      79.091  34.083  51.762  1.00  0.00     0.074 A 
ENDROOT
BRANCH   1   7
ATOM      7  C   UNL     1      76.942  35.388  51.359  1.00  0.00     0.338 C 
ATOM      8  O   UNL     1      77.021  35.790  50.166  1.00  0.00    -0.246 OA
BRANCH   7   9
ATOM      9  O   UNL     1      76.212  36.122  52.300  1.00  0.00    -0.465 OA
ATOM     10  C   UNL     1      74.790  36.123  52.338  1.00  0.00     0.282 C 
ENDBRANCH   7   9
ENDBRANCH   1   7
BRANCH   6  11
ATOM     11  C   UNL     1      79.966  35.256  51.536  1.00  0.00     0.338 C 
ATOM     12  O   UNL     1      80.481  35.864  52.515  1.00  0.00    -0.246 OA
BRANCH  11  13
ATOM     13  O   UNL     1      80.263  35.653  50.228  1.00  0.00    -0.465 OA
ATOM     14  C   UNL     1      80.249  34.749  49.131  1.00  0.00     0.282 C 
ENDBRANCH  11  13
ENDBRANCH   6  11
TORSDOF 4
ENDMDL
MODEL 2
REMARK VINA RESULT:    -4.076      0.113      3.800
REMARK INTER + INTRA:          -5.250
REMARK INTER:                  -5.001
REMARK INTRA:                  -0.249
REMARK UNBOUND:                -0.221
REMARK SMILES COC(=O)c1ccccc1C(=O)OC
REMARK SMILES IDX 5 1 6 2 7 3 8 4 9 5 10 6 3 7 4 8 2 9 1 10 11 11 12 12 13 13
REMARK SMILES IDX 14 14
REMARK H PARENT
REMARK Flexibility Score: inf
ROOT
ATOM      1  C   UNL     1      79.086  34.000  51.701  1.00  0.00     0.074 A 
ATOM      2  C   UNL     1      79.647  32.744  52.001  1.00  0.00     0.016 A 
ATOM      3  C   UNL     1      78.835  31.662  52.338  1.00  0.00     0.001 A 
ATOM      4  C   UNL     1      77.451  31.815  52.384  1.00  0.00     0.001 A 
ATOM      5  C   UNL     1      76.872  33.045  52.069  1.00  0.00     0.016 A 
ATOM      6  C   UNL     1      77.671  34.144  51.704  1.00  0.00     0.074 A 
ENDROOT
BRANCH   1   7
ATOM      7  C   UNL     1      80.003  35.139  51.466  1.00  0.00     0.338 C 
ATOM      8  O   UNL     1      80.522  35.738  52.447  1.00  0.00    -0.246 OA
BRANCH   7   9
ATOM      9  O   UNL     1      80.249  35.582  50.162  1.00  0.00    -0.465 OA
ATOM     10  C   UNL     1      80.244  34.707  49.040  1.00  0.00     0.282 C 
ENDBRANCH   7   9
ENDBRANCH   1   7
BRANCH   6  11
ATOM     11  C   UNL     1      76.987  35.384  51.272  1.00  0.00     0.338 C 
ATOM     12  O   UNL     1      77.039  35.753  50.067  1.00  0.00    -0.246 OA
BRANCH  11  13
ATOM     13  O   UNL     1      76.237  36.115  52.199  1.00  0.00    -0.465 OA
ATOM     14  C   UNL     1      74.815  36.125  52.196  1.00  0.00     0.282 C 
ENDBRANCH  11  13
ENDBRANCH   6  11
TORSDOF 4
ENDMDL
MODEL 3
REMARK VINA RESULT:    -3.672     14.906     16.349
REMARK INTER + INTRA:          -4.751
REMARK INTER:                  -4.879
REMARK INTRA:                   0.128
REMARK UNBOUND:                -0.221
REMARK SMILES COC(=O)c1ccccc1C(=O)OC
REMARK SMILES IDX 5 1 6 2 7 3 8 4 9 5 10 6 3 7 4 8 2 9 1 10 11 11 12 12 13 13
REMARK SMILES IDX 14 14
REMARK H PARENT
REMARK Flexibility Score: inf
ROOT
ATOM      1  C   UNL     1      85.073  31.023  65.190  1.00  0.00     0.074 A 
ATOM      2  C   UNL     1      83.676  31.141  65.061  1.00  0.00     0.016 A 
ATOM      3  C   UNL     1      82.898  30.047  64.682  1.00  0.00     0.001 A 
ATOM      4  C   UNL     1      83.501  28.818  64.423  1.00  0.00     0.001 A 
ATOM      5  C   UNL     1      84.881  28.672  64.566  1.00  0.00     0.016 A 
ATOM      6  C   UNL     1      85.682  29.756  64.969  1.00  0.00     0.074 A 
ENDROOT
BRANCH   1   7
ATOM      7  C   UNL     1      85.856  32.245  65.479  1.00  0.00     0.338 C 
ATOM      8  O   UNL     1      86.251  32.976  64.529  1.00  0.00    -0.246 OA
BRANCH   7   9
ATOM      9  O   UNL     1      86.204  32.558  66.797  1.00  0.00    -0.465 OA
ATOM     10  C   UNL     1      85.542  31.991  67.921  1.00  0.00     0.282 C 
ENDBRANCH   7   9
ENDBRANCH   1   7
BRANCH   6  11
ATOM     11  C   UNL     1      87.121  29.502  65.211  1.00  0.00     0.338 C 
ATOM     12  O   UNL     1      87.666  29.893  66.279  1.00  0.00    -0.246 OA
BRANCH  11  13
ATOM     13  O   UNL     1      87.860  28.776  64.271  1.00  0.00    -0.465 OA
ATOM     14  C   UNL     1      88.125  27.386  64.412  1.00  0.00     0.282 C 
ENDBRANCH  11  13
ENDBRANCH   6  11
TORSDOF 4
ENDMDL
MODEL 4
REMARK VINA RESULT:    -3.653      1.948      3.724
REMARK INTER + INTRA:          -4.728
REMARK INTER:                  -5.079
REMARK INTRA:                   0.351
REMARK UNBOUND:                -0.221
REMARK SMILES COC(=O)c1ccccc1C(=O)OC
REMARK SMILES IDX 5 1 6 2 7 3 8 4 9 5 10 6 3 7 4 8 2 9 1 10 11 11 12 12 13 13
REMARK SMILES IDX 14 14
REMARK H PARENT
REMARK Flexibility Score: inf
ROOT
ATOM      1  C   UNL     1      76.384  33.727  52.190  1.00  0.00     0.074 A 
ATOM      2  C   UNL     1      75.029  33.535  52.519  1.00  0.00     0.016 A 
ATOM      3  C   UNL     1      74.157  34.620  52.615  1.00  0.00     0.001 A 
ATOM      4  C   UNL     1      74.624  35.913  52.388  1.00  0.00     0.001 A 
ATOM      5  C   UNL     1      75.958  36.124  52.039  1.00  0.00     0.016 A 
ATOM      6  C   UNL     1      76.849  35.043  51.914  1.00  0.00     0.074 A 
ENDROOT
BRANCH   1   7
ATOM      7  C   UNL     1      77.285  32.552  52.218  1.00  0.00     0.338 C 
ATOM      8  O   UNL     1      76.798  31.389  52.207  1.00  0.00    -0.246 OA
BRANCH   7   9
ATOM      9  O   UNL     1      78.669  32.734  52.312  1.00  0.00    -0.465 OA
ATOM     10  C   UNL     1      79.585  31.646  52.347  1.00  0.00     0.282 C 
ENDBRANCH   7   9
ENDBRANCH   1   7
BRANCH   6  11
ATOM     11  C   UNL     1      78.219  35.328  51.431  1.00  0.00     0.338 C 
ATOM     12  O   UNL     1      79.093  35.776  52.223  1.00  0.00    -0.246 OA
BRANCH  11  13
ATOM     13  O   UNL     1      78.555  35.044  50.103  1.00  0.00    -0.465 OA
ATOM     14  C   UNL     1      79.901  34.908  49.665  1.00  0.00     0.282 C 
ENDBRANCH  11  13
ENDBRANCH   6  11
TORSDOF 4
ENDMDL
MODEL 5
REMARK VINA RESULT:    -3.597      1.952      4.124
REMARK INTER + INTRA:          -4.658
REMARK INTER:                  -4.948
REMARK INTRA:                   0.290
REMARK UNBOUND:                -0.221
REMARK SMILES COC(=O)c1ccccc1C(=O)OC
REMARK SMILES IDX 5 1 6 2 7 3 8 4 9 5 10 6 3 7 4 8 2 9 1 10 11 11 12 12 13 13
REMARK SMILES IDX 14 14
REMARK H PARENT
REMARK Flexibility Score: inf
ROOT
ATOM      1  C   UNL     1      76.829  35.041  51.952  1.00  0.00     0.074 A 
ATOM      2  C   UNL     1      75.928  36.110  52.113  1.00  0.00     0.016 A 
ATOM      3  C   UNL     1      74.599  35.877  52.466  1.00  0.00     0.001 A 
ATOM      4  C   UNL     1      74.147  34.574  52.661  1.00  0.00     0.001 A 
ATOM      5  C   UNL     1      75.028  33.500  52.528  1.00  0.00     0.016 A 
ATOM      6  C   UNL     1      76.378  33.714  52.196  1.00  0.00     0.074 A 
ENDROOT
BRANCH   1   7
ATOM      7  C   UNL     1      78.194  35.342  51.463  1.00  0.00     0.338 C 
ATOM      8  O   UNL     1      79.040  35.858  52.244  1.00  0.00    -0.246 OA
BRANCH   7   9
ATOM      9  O   UNL     1      78.526  35.105  50.125  1.00  0.00    -0.465 OA
ATOM     10  C   UNL     1      79.872  35.024  49.671  1.00  0.00     0.282 C 
ENDBRANCH   7   9
ENDBRANCH   1   7
BRANCH   6  11
ATOM     11  C   UNL     1      77.282  32.541  52.183  1.00  0.00     0.338 C 
ATOM     12  O   UNL     1      76.818  31.383  51.999  1.00  0.00    -0.246 OA
BRANCH  11  13
ATOM     13  O   UNL     1      78.660  32.732  52.322  1.00  0.00    -0.465 OA
ATOM     14  C   UNL     1      79.588  31.655  52.311  1.00  0.00     0.282 C 
ENDBRANCH  11  13
ENDBRANCH   6  11
TORSDOF 4
ENDMDL
MODEL 6
REMARK VINA RESULT:    -3.577     15.362     16.792
REMARK INTER + INTRA:          -4.634
REMARK INTER:                  -4.434
REMARK INTRA:                  -0.200
REMARK UNBOUND:                -0.221
REMARK SMILES COC(=O)c1ccccc1C(=O)OC
REMARK SMILES IDX 5 1 6 2 7 3 8 4 9 5 10 6 3 7 4 8 2 9 1 10 11 11 12 12 13 13
REMARK SMILES IDX 14 14
REMARK H PARENT
REMARK Flexibility Score: inf
ROOT
ATOM      1  C   UNL     1      85.762  31.594  66.242  1.00  0.00     0.074 A 
ATOM      2  C   UNL     1      84.501  31.952  66.754  1.00  0.00     0.016 A 
ATOM      3  C   UNL     1      83.330  31.462  66.176  1.00  0.00     0.001 A 
ATOM      4  C   UNL     1      83.398  30.609  65.076  1.00  0.00     0.001 A 
ATOM      5  C   UNL     1      84.638  30.223  64.566  1.00  0.00     0.016 A 
ATOM      6  C   UNL     1      85.832  30.688  65.147  1.00  0.00     0.074 A 
ENDROOT
BRANCH   1   7
ATOM      7  C   UNL     1      86.963  32.238  66.822  1.00  0.00     0.338 C 
ATOM      8  O   UNL     1      87.169  32.173  68.065  1.00  0.00    -0.246 OA
BRANCH   7   9
ATOM      9  O   UNL     1      87.834  32.961  66.001  1.00  0.00    -0.465 OA
ATOM     10  C   UNL     1      87.380  33.934  65.068  1.00  0.00     0.282 C 
ENDBRANCH   7   9
ENDBRANCH   1   7
BRANCH   6  11
ATOM     11  C   UNL     1      87.110  30.150  64.628  1.00  0.00     0.338 C 
ATOM     12  O   UNL     1      87.707  30.731  63.681  1.00  0.00    -0.246 OA
BRANCH  11  13
ATOM     13  O   UNL     1      87.679  29.024  65.231  1.00  0.00    -0.465 OA
ATOM     14  C   UNL     1      88.045  27.862  64.496  1.00  0.00     0.282 C 
ENDBRANCH  11  13
ENDBRANCH   6  11
TORSDOF 4
ENDMDL
MODEL 7
REMARK VINA RESULT:    -3.546     15.153     16.257
REMARK INTER + INTRA:          -4.595
REMARK INTER:                  -4.363
REMARK INTRA:                  -0.232
REMARK UNBOUND:                -0.221
REMARK SMILES COC(=O)c1ccccc1C(=O)OC
REMARK SMILES IDX 5 1 6 2 7 3 8 4 9 5 10 6 3 7 4 8 2 9 1 10 11 11 12 12 13 13
REMARK SMILES IDX 14 14
REMARK H PARENT
REMARK Flexibility Score: inf
ROOT
ATOM      1  C   UNL     1      86.654  31.638  64.511  1.00  0.00     0.074 A 
ATOM      2  C   UNL     1      87.858  31.083  64.039  1.00  0.00     0.016 A 
ATOM      3  C   UNL     1      88.111  29.717  64.162  1.00  0.00     0.001 A 
ATOM      4  C   UNL     1      87.168  28.884  64.761  1.00  0.00     0.001 A 
ATOM      5  C   UNL     1      85.959  29.409  65.217  1.00  0.00     0.016 A 
ATOM      6  C   UNL     1      85.673  30.780  65.082  1.00  0.00     0.074 A 
ENDROOT
BRANCH   1   7
ATOM      7  C   UNL     1      86.493  33.109  64.459  1.00  0.00     0.338 C 
ATOM      8  O   UNL     1      85.640  33.619  63.680  1.00  0.00    -0.246 OA
BRANCH   7   9
ATOM      9  O   UNL     1      87.320  33.932  65.230  1.00  0.00    -0.465 OA
ATOM     10  C   UNL     1      88.125  34.959  64.663  1.00  0.00     0.282 C 
ENDBRANCH   7   9
ENDBRANCH   1   7
BRANCH   6  11
ATOM     11  C   UNL     1      84.327  31.249  65.482  1.00  0.00     0.338 C 
ATOM     12  O   UNL     1      83.402  31.330  64.629  1.00  0.00    -0.246 OA
BRANCH  11  13
ATOM     13  O   UNL     1      84.073  31.550  66.824  1.00  0.00    -0.465 OA
ATOM     14  C   UNL     1      85.100  31.932  67.731  1.00  0.00     0.282 C 
ENDBRANCH  11  13
ENDBRANCH   6  11
TORSDOF 4
ENDMDL
MODEL 8
REMARK VINA RESULT:    -3.530     15.144     16.596
REMARK INTER + INTRA:          -4.576
REMARK INTER:                  -4.708
REMARK INTRA:                   0.132
REMARK UNBOUND:                -0.221
REMARK SMILES COC(=O)c1ccccc1C(=O)OC
REMARK SMILES IDX 5 1 6 2 7 3 8 4 9 5 10 6 3 7 4 8 2 9 1 10 11 11 12 12 13 13
REMARK SMILES IDX 14 14
REMARK H PARENT
REMARK Flexibility Score: inf
ROOT
ATOM      1  C   UNL     1      85.700  29.811  65.069  1.00  0.00     0.074 A 
ATOM      2  C   UNL     1      84.863  28.830  64.504  1.00  0.00     0.016 A 
ATOM      3  C   UNL     1      83.490  29.046  64.383  1.00  0.00     0.001 A 
ATOM      4  C   UNL     1      82.930  30.242  64.827  1.00  0.00     0.001 A 
ATOM      5  C   UNL     1      83.743  31.237  65.371  1.00  0.00     0.016 A 
ATOM      6  C   UNL     1      85.133  31.049  65.480  1.00  0.00     0.074 A 
ENDROOT
BRANCH   1   7
ATOM      7  C   UNL     1      87.127  29.478  65.278  1.00  0.00     0.338 C 
ATOM      8  O   UNL     1      87.713  29.862  66.328  1.00  0.00    -0.246 OA
BRANCH   7   9
ATOM      9  O   UNL     1      87.837  28.788  64.290  1.00  0.00    -0.465 OA
ATOM     10  C   UNL     1      88.125  27.398  64.382  1.00  0.00     0.282 C 
ENDBRANCH   7   9
ENDBRANCH   1   7
BRANCH   6  11
ATOM     11  C   UNL     1      85.950  32.188  65.960  1.00  0.00     0.338 C 
ATOM     12  O   UNL     1      86.105  32.383  67.197  1.00  0.00    -0.246 OA
BRANCH  11  13
ATOM     13  O   UNL     1      86.594  33.013  65.033  1.00  0.00    -0.465 OA
ATOM     14  C   UNL     1      87.964  33.376  65.152  1.00  0.00     0.282 C 
ENDBRANCH  11  13
ENDBRANCH   6  11
TORSDOF 4
ENDMDL
MODEL 9
REMARK VINA RESULT:    -3.514     15.412     16.922
REMARK INTER + INTRA:          -4.557
REMARK INTER:                  -4.580
REMARK INTRA:                   0.023
REMARK UNBOUND:                -0.221
REMARK SMILES COC(=O)c1ccccc1C(=O)OC
REMARK SMILES IDX 5 1 6 2 7 3 8 4 9 5 10 6 3 7 4 8 2 9 1 10 11 11 12 12 13 13
REMARK SMILES IDX 14 14
REMARK H PARENT
REMARK Flexibility Score: inf
ROOT
ATOM      1  C   UNL     1      85.976  30.784  65.170  1.00  0.00     0.074 A 
ATOM      2  C   UNL     1      84.776  30.322  64.597  1.00  0.00     0.016 A 
ATOM      3  C   UNL     1      83.542  30.682  65.136  1.00  0.00     0.001 A 
ATOM      4  C   UNL     1      83.484  31.507  66.258  1.00  0.00     0.001 A 
ATOM      5  C   UNL     1      84.659  31.995  66.829  1.00  0.00     0.016 A 
ATOM      6  C   UNL     1      85.914  31.663  66.287  1.00  0.00     0.074 A 
ENDROOT
BRANCH   1   7
ATOM      7  C   UNL     1      87.255  30.274  64.626  1.00  0.00     0.338 C 
ATOM      8  O   UNL     1      87.791  30.851  63.641  1.00  0.00    -0.246 OA
BRANCH   7   9
ATOM      9  O   UNL     1      87.838  29.124  65.169  1.00  0.00    -0.465 OA
ATOM     10  C   UNL     1      88.125  27.969  64.391  1.00  0.00     0.282 C 
ENDBRANCH   7   9
ENDBRANCH   1   7
BRANCH   6  11
ATOM     11  C   UNL     1      87.113  32.305  66.873  1.00  0.00     0.338 C 
ATOM     12  O   UNL     1      87.250  32.376  68.125  1.00  0.00    -0.246 OA
BRANCH  11  13
ATOM     13  O   UNL     1      88.120  32.785  66.028  1.00  0.00    -0.465 OA
ATOM     14  C   UNL     1      87.951  33.938  65.213  1.00  0.00     0.282 C 
ENDBRANCH  11  13
ENDBRANCH   6  11
TORSDOF 4
ENDMDL
