MODEL 1
REMARK VINA RESULT:    -3.800      0.000      0.000
REMARK INTER + INTRA:          -7.337
REMARK INTER:                  -6.022
REMARK INTRA:                  -1.315
REMARK UNBOUND:                -1.315
REMARK SMILES CCCCCCCCCCCC(=O)[O-]
REMARK SMILES IDX 7 1 8 2 9 3 10 4 11 5 12 6 13 7 14 8 6 9 5 10 4 11 3 12 2 13
REMARK SMILES IDX 1 14
REMARK H PARENT
REMARK Flexibility Score: inf
ROOT
ATOM      1  C   UNL     1     302.500 323.987 644.867  1.00  0.00     0.000 C 
ENDROOT
BRANCH   1   2
ATOM      2  C   UNL     1     303.618 324.578 645.735  1.00  0.00     0.000 C 
BRANCH   2   3
ATOM      3  C   UNL     1     303.237 324.540 647.223  1.00  0.00     0.000 C 
BRANCH   3   4
ATOM      4  C   UNL     1     302.838 323.131 647.700  1.00  0.00     0.006 C 
BRANCH   4   5
ATOM      5  C   UNL     1     304.026 322.223 648.052  1.00  0.00     0.053 C 
BRANCH   5   6
ATOM      6  C   UNL     1     304.928 322.845 649.072  1.00  0.00     0.041 C 
ATOM      7  O   UNL     1     306.112 323.149 648.770  1.00  0.00    -0.550 OA
ATOM      8  O   UNL     1     304.472 323.058 650.368  1.00  0.00    -0.550 OA
ENDBRANCH   5   6
ENDBRANCH   4   5
ENDBRANCH   3   4
ENDBRANCH   2   3
ENDBRANCH   1   2
BRANCH   1   9
ATOM      9  C   UNL     1     301.394 325.019 644.614  1.00  0.00     0.000 C 
BRANCH   9  10
ATOM     10  C   UNL     1     300.037 324.332 644.407  1.00  0.00    -0.000 C 
BRANCH  10  11
ATOM     11  C   UNL     1     299.007 324.696 645.491  1.00  0.00    -0.000 C 
BRANCH  11  12
ATOM     12  C   UNL     1     299.538 325.607 646.612  1.00  0.00    -0.000 C 
BRANCH  12  13
ATOM     13  C   UNL     1     299.658 324.885 647.962  1.00  0.00    -0.003 C 
ATOM     14  C   UNL     1     299.146 323.451 647.866  1.00  0.00     0.004 C 
ENDBRANCH  12  13
ENDBRANCH  11  12
ENDBRANCH  10  11
ENDBRANCH   9  10
ENDBRANCH   1   9
TORSDOF 10
ENDMDL
MODEL 2
REMARK VINA RESULT:    -3.725      1.176      2.878
REMARK INTER + INTRA:          -7.218
REMARK INTER:                  -6.032
REMARK INTRA:                  -1.185
REMARK UNBOUND:                -1.315
REMARK SMILES CCCCCCCCCCCC(=O)[O-]
REMARK SMILES IDX 7 1 8 2 9 3 10 4 11 5 12 6 13 7 14 8 6 9 5 10 4 11 3 12 2 13
REMARK SMILES IDX 1 14
REMARK H PARENT
REMARK Flexibility Score: inf
ROOT
ATOM      1  C   UNL     1     299.569 324.293 647.871  1.00  0.00     0.000 C 
ENDROOT
BRANCH   1   2
ATOM      2  C   UNL     1     301.065 324.628 647.843  1.00  0.00     0.000 C 
BRANCH   2   3
ATOM      3  C   UNL     1     301.901 323.380 647.520  1.00  0.00     0.000 C 
BRANCH   3   4
ATOM      4  C   UNL     1     303.357 323.493 648.010  1.00  0.00     0.006 C 
BRANCH   4   5
ATOM      5  C   UNL     1     304.164 322.190 647.902  1.00  0.00     0.053 C 
BRANCH   5   6
ATOM      6  C   UNL     1     304.753 321.783 649.217  1.00  0.00     0.041 C 
ATOM      7  O   UNL     1     305.066 320.581 649.425  1.00  0.00    -0.550 OA
ATOM      8  O   UNL     1     304.923 322.724 650.225  1.00  0.00    -0.550 OA
ENDBRANCH   5   6
ENDBRANCH   4   5
ENDBRANCH   3   4
ENDBRANCH   2   3
ENDBRANCH   1   2
BRANCH   1   9
ATOM      9  C   UNL     1     299.014 324.125 646.451  1.00  0.00     0.000 C 
BRANCH   9  10
ATOM     10  C   UNL     1     298.917 325.480 645.735  1.00  0.00    -0.000 C 
BRANCH  10  11
ATOM     11  C   UNL     1     299.721 325.525 644.423  1.00  0.00    -0.000 C 
BRANCH  11  12
ATOM     12  C   UNL     1     300.519 324.248 644.105  1.00  0.00    -0.000 C 
BRANCH  12  13
ATOM     13  C   UNL     1     302.035 324.487 644.055  1.00  0.00    -0.003 C 
ATOM     14  C   UNL     1     302.390 325.876 644.580  1.00  0.00     0.004 C 
ENDBRANCH  12  13
ENDBRANCH  11  12
ENDBRANCH  10  11
ENDBRANCH   9  10
ENDBRANCH   1   9
TORSDOF 10
ENDMDL
MODEL 3
REMARK VINA RESULT:    -3.723      1.306      2.841
REMARK INTER + INTRA:          -7.214
REMARK INTER:                  -6.366
REMARK INTRA:                  -0.848
REMARK UNBOUND:                -1.315
REMARK SMILES CCCCCCCCCCCC(=O)[O-]
REMARK SMILES IDX 7 1 8 2 9 3 10 4 11 5 12 6 13 7 14 8 6 9 5 10 4 11 3 12 2 13
REMARK SMILES IDX 1 14
REMARK H PARENT
REMARK Flexibility Score: inf
ROOT
ATOM      1  C   UNL     1     302.301 324.714 647.590  1.00  0.00     0.000 C 
ENDROOT
BRANCH   1   2
ATOM      2  C   UNL     1     303.688 324.075 647.728  1.00  0.00     0.000 C 
BRANCH   2   3
ATOM      3  C   UNL     1     303.596 322.543 647.667  1.00  0.00     0.000 C 
BRANCH   3   4
ATOM      4  C   UNL     1     304.656 321.847 648.542  1.00  0.00     0.006 C 
BRANCH   4   5
ATOM      5  C   UNL     1     304.848 322.481 649.928  1.00  0.00     0.053 C 
BRANCH   5   6
ATOM      6  C   UNL     1     306.172 322.128 650.530  1.00  0.00     0.041 C 
ATOM      7  O   UNL     1     306.258 321.855 651.756  1.00  0.00    -0.550 OA
ATOM      8  O   UNL     1     307.319 322.134 649.744  1.00  0.00    -0.550 OA
ENDBRANCH   5   6
ENDBRANCH   4   5
ENDBRANCH   3   4
ENDBRANCH   2   3
ENDBRANCH   1   2
BRANCH   1   9
ATOM      9  C   UNL     1     301.204 323.642 647.538  1.00  0.00     0.000 C 
BRANCH   9  10
ATOM     10  C   UNL     1     299.824 324.253 647.821  1.00  0.00    -0.000 C 
BRANCH  10  11
ATOM     11  C   UNL     1     299.299 325.115 646.659  1.00  0.00    -0.000 C 
BRANCH  11  12
ATOM     12  C   UNL     1     299.297 324.422 645.285  1.00  0.00    -0.000 C 
BRANCH  12  13
ATOM     13  C   UNL     1     300.241 325.092 644.277  1.00  0.00    -0.003 C 
ATOM     14  C   UNL     1     301.364 324.145 643.863  1.00  0.00     0.004 C 
ENDBRANCH  12  13
ENDBRANCH  11  12
ENDBRANCH  10  11
ENDBRANCH   9  10
ENDBRANCH   1   9
TORSDOF 10
ENDMDL
MODEL 4
REMARK VINA RESULT:    -3.723      1.301      2.027
REMARK INTER + INTRA:          -7.213
REMARK INTER:                  -6.414
REMARK INTRA:                  -0.799
REMARK UNBOUND:                -1.315
REMARK SMILES CCCCCCCCCCCC(=O)[O-]
REMARK SMILES IDX 7 1 8 2 9 3 10 4 11 5 12 6 13 7 14 8 6 9 5 10 4 11 3 12 2 13
REMARK SMILES IDX 1 14
REMARK H PARENT
REMARK Flexibility Score: inf
ROOT
ATOM      1  C   UNL     1     303.688 323.625 645.859  1.00  0.00     0.000 C 
ENDROOT
BRANCH   1   2
ATOM      2  C   UNL     1     302.888 323.549 647.165  1.00  0.00     0.000 C 
BRANCH   2   3
ATOM      3  C   UNL     1     303.484 322.499 648.115  1.00  0.00     0.000 C 
BRANCH   3   4
ATOM      4  C   UNL     1     304.542 323.088 649.067  1.00  0.00     0.006 C 
BRANCH   4   5
ATOM      5  C   UNL     1     305.767 322.187 649.286  1.00  0.00     0.053 C 
BRANCH   5   6
ATOM      6  C   UNL     1     305.660 321.389 650.548  1.00  0.00     0.041 C 
ATOM      7  O   UNL     1     304.997 320.319 650.567  1.00  0.00    -0.550 OA
ATOM      8  O   UNL     1     306.264 321.846 651.714  1.00  0.00    -0.550 OA
ENDBRANCH   5   6
ENDBRANCH   4   5
ENDBRANCH   3   4
ENDBRANCH   2   3
ENDBRANCH   1   2
BRANCH   1   9
ATOM      9  C   UNL     1     302.784 324.006 644.680  1.00  0.00     0.000 C 
BRANCH   9  10
ATOM     10  C   UNL     1     301.592 324.851 645.152  1.00  0.00    -0.000 C 
BRANCH  10  11
ATOM     11  C   UNL     1     300.266 324.443 644.487  1.00  0.00    -0.000 C 
BRANCH  11  12
ATOM     12  C   UNL     1     299.044 324.439 645.423  1.00  0.00    -0.000 C 
BRANCH  12  13
ATOM     13  C   UNL     1     299.398 324.805 646.871  1.00  0.00    -0.003 C 
ATOM     14  C   UNL     1     299.206 323.611 647.802  1.00  0.00     0.004 C 
ENDBRANCH  12  13
ENDBRANCH  11  12
ENDBRANCH  10  11
ENDBRANCH   9  10
ENDBRANCH   1   9
TORSDOF 10
ENDMDL
MODEL 5
REMARK VINA RESULT:    -3.687      3.177      5.968
REMARK INTER + INTRA:          -7.157
REMARK INTER:                  -6.370
REMARK INTRA:                  -0.787
REMARK UNBOUND:                -1.315
REMARK SMILES CCCCCCCCCCCC(=O)[O-]
REMARK SMILES IDX 7 1 8 2 9 3 10 4 11 5 12 6 13 7 14 8 6 9 5 10 4 11 3 12 2 13
REMARK SMILES IDX 1 14
REMARK H PARENT
REMARK Flexibility Score: inf
ROOT
ATOM      1  C   UNL     1     301.667 323.739 647.624  1.00  0.00     0.000 C 
ENDROOT
BRANCH   1   2
ATOM      2  C   UNL     1     300.327 324.391 647.986  1.00  0.00     0.000 C 
BRANCH   2   3
ATOM      3  C   UNL     1     299.233 323.990 646.985  1.00  0.00     0.000 C 
BRANCH   3   4
ATOM      4  C   UNL     1     298.962 325.077 645.928  1.00  0.00     0.006 C 
BRANCH   4   5
ATOM      5  C   UNL     1     299.211 326.512 646.419  1.00  0.00     0.053 C 
BRANCH   5   6
ATOM      6  C   UNL     1     300.245 327.216 645.597  1.00  0.00     0.041 C 
ATOM      7  O   UNL     1     301.152 326.560 645.023  1.00  0.00    -0.550 OA
ATOM      8  O   UNL     1     300.227 328.602 645.494  1.00  0.00    -0.550 OA
ENDBRANCH   5   6
ENDBRANCH   4   5
ENDBRANCH   3   4
ENDBRANCH   2   3
ENDBRANCH   1   2
BRANCH   1   9
ATOM      9  C   UNL     1     302.799 324.774 647.612  1.00  0.00     0.000 C 
BRANCH   9  10
ATOM     10  C   UNL     1     304.168 324.095 647.759  1.00  0.00    -0.000 C 
BRANCH  10  11
ATOM     11  C   UNL     1     304.110 322.573 647.538  1.00  0.00    -0.000 C 
BRANCH  11  12
ATOM     12  C   UNL     1     304.525 321.723 648.752  1.00  0.00    -0.000 C 
BRANCH  12  13
ATOM     13  C   UNL     1     305.241 322.539 649.837  1.00  0.00    -0.003 C 
ATOM     14  C   UNL     1     305.803 321.631 650.927  1.00  0.00     0.004 C 
ENDBRANCH  12  13
ENDBRANCH  11  12
ENDBRANCH  10  11
ENDBRANCH   9  10
ENDBRANCH   1   9
TORSDOF 10
ENDMDL
MODEL 6
REMARK VINA RESULT:    -3.625      3.569      6.565
REMARK INTER + INTRA:          -7.059
REMARK INTER:                  -6.600
REMARK INTRA:                  -0.460
REMARK UNBOUND:                -1.315
REMARK SMILES CCCCCCCCCCCC(=O)[O-]
REMARK SMILES IDX 7 1 8 2 9 3 10 4 11 5 12 6 13 7 14 8 6 9 5 10 4 11 3 12 2 13
REMARK SMILES IDX 1 14
REMARK H PARENT
REMARK Flexibility Score: inf
ROOT
ATOM      1  C   UNL     1     303.089 324.341 647.858  1.00  0.00     0.000 C 
ENDROOT
BRANCH   1   2
ATOM      2  C   UNL     1     301.827 324.721 647.074  1.00  0.00     0.000 C 
BRANCH   2   3
ATOM      3  C   UNL     1     300.712 323.687 647.292  1.00  0.00     0.000 C 
BRANCH   3   4
ATOM      4  C   UNL     1     299.303 324.283 647.117  1.00  0.00     0.006 C 
BRANCH   4   5
ATOM      5  C   UNL     1     298.886 324.500 645.655  1.00  0.00     0.053 C 
BRANCH   5   6
ATOM      6  C   UNL     1     298.961 325.941 645.256  1.00  0.00     0.041 C 
ATOM      7  O   UNL     1     298.877 326.269 644.044  1.00  0.00    -0.550 OA
ATOM      8  O   UNL     1     299.159 326.921 646.222  1.00  0.00    -0.550 OA
ENDBRANCH   5   6
ENDBRANCH   4   5
ENDBRANCH   3   4
ENDBRANCH   2   3
ENDBRANCH   1   2
BRANCH   1   9
ATOM      9  C   UNL     1     303.217 322.818 647.992  1.00  0.00     0.000 C 
BRANCH   9  10
ATOM     10  C   UNL     1     304.578 322.430 648.587  1.00  0.00    -0.000 C 
BRANCH  10  11
ATOM     11  C   UNL     1     304.726 322.837 650.064  1.00  0.00    -0.000 C 
BRANCH  11  12
ATOM     12  C   UNL     1     305.894 322.166 650.809  1.00  0.00    -0.000 C 
BRANCH  12  13
ATOM     13  C   UNL     1     305.705 320.652 650.978  1.00  0.00    -0.003 C 
ATOM     14  C   UNL     1     306.652 319.875 650.068  1.00  0.00     0.004 C 
ENDBRANCH  12  13
ENDBRANCH  11  12
ENDBRANCH  10  11
ENDBRANCH   9  10
ENDBRANCH   1   9
TORSDOF 10
ENDMDL
MODEL 7
REMARK VINA RESULT:    -3.619      1.680      2.622
REMARK INTER + INTRA:          -7.049
REMARK INTER:                  -6.267
REMARK INTRA:                  -0.781
REMARK UNBOUND:                -1.315
REMARK SMILES CCCCCCCCCCCC(=O)[O-]
REMARK SMILES IDX 7 1 8 2 9 3 10 4 11 5 12 6 13 7 14 8 6 9 5 10 4 11 3 12 2 13
REMARK SMILES IDX 1 14
REMARK H PARENT
REMARK Flexibility Score: inf
ROOT
ATOM      1  C   UNL     1     303.177 324.507 646.352  1.00  0.00     0.000 C 
ENDROOT
BRANCH   1   2
ATOM      2  C   UNL     1     304.461 324.079 647.072  1.00  0.00     0.000 C 
BRANCH   2   3
ATOM      3  C   UNL     1     304.628 322.552 647.035  1.00  0.00     0.000 C 
BRANCH   3   4
ATOM      4  C   UNL     1     304.185 321.871 648.344  1.00  0.00     0.006 C 
BRANCH   4   5
ATOM      5  C   UNL     1     305.056 322.216 649.562  1.00  0.00     0.053 C 
BRANCH   5   6
ATOM      6  C   UNL     1     305.351 321.012 650.401  1.00  0.00     0.041 C 
ATOM      7  O   UNL     1     304.917 319.881 650.061  1.00  0.00    -0.550 OA
ATOM      8  O   UNL     1     306.077 321.145 651.579  1.00  0.00    -0.550 OA
ENDBRANCH   5   6
ENDBRANCH   4   5
ENDBRANCH   3   4
ENDBRANCH   2   3
ENDBRANCH   1   2
BRANCH   1   9
ATOM      9  C   UNL     1     302.063 324.829 647.357  1.00  0.00     0.000 C 
BRANCH   9  10
ATOM     10  C   UNL     1     301.106 323.639 647.518  1.00  0.00    -0.000 C 
BRANCH  10  11
ATOM     11  C   UNL     1     299.623 324.049 647.468  1.00  0.00    -0.000 C 
BRANCH  11  12
ATOM     12  C   UNL     1     299.096 324.414 646.069  1.00  0.00    -0.000 C 
BRANCH  12  13
ATOM     13  C   UNL     1     298.875 325.922 645.888  1.00  0.00    -0.003 C 
ATOM     14  C   UNL     1     299.852 326.503 644.869  1.00  0.00     0.004 C 
ENDBRANCH  12  13
ENDBRANCH  11  12
ENDBRANCH  10  11
ENDBRANCH   9  10
ENDBRANCH   1   9
TORSDOF 10
ENDMDL
MODEL 8
REMARK VINA RESULT:    -3.507      1.597      3.180
REMARK INTER + INTRA:          -6.872
REMARK INTER:                  -6.246
REMARK INTRA:                  -0.626
REMARK UNBOUND:                -1.315
REMARK SMILES CCCCCCCCCCCC(=O)[O-]
REMARK SMILES IDX 7 1 8 2 9 3 10 4 11 5 12 6 13 7 14 8 6 9 5 10 4 11 3 12 2 13
REMARK SMILES IDX 1 14
REMARK H PARENT
REMARK Flexibility Score: inf
ROOT
ATOM      1  C   UNL     1     304.240 323.770 647.402  1.00  0.00     0.000 C 
ENDROOT
BRANCH   1   2
ATOM      2  C   UNL     1     304.203 322.553 648.334  1.00  0.00     0.000 C 
BRANCH   2   3
ATOM      3  C   UNL     1     304.647 322.935 649.755  1.00  0.00     0.000 C 
BRANCH   3   4
ATOM      4  C   UNL     1     305.360 321.783 650.487  1.00  0.00     0.006 C 
BRANCH   4   5
ATOM      5  C   UNL     1     306.815 322.087 650.878  1.00  0.00     0.053 C 
BRANCH   5   6
ATOM      6  C   UNL     1     307.644 322.484 649.696  1.00  0.00     0.041 C 
ATOM      7  O   UNL     1     308.244 323.590 649.686  1.00  0.00    -0.550 OA
ATOM      8  O   UNL     1     307.725 321.646 648.590  1.00  0.00    -0.550 OA
ENDBRANCH   5   6
ENDBRANCH   4   5
ENDBRANCH   3   4
ENDBRANCH   2   3
ENDBRANCH   1   2
BRANCH   1   9
ATOM      9  C   UNL     1     302.875 323.996 646.738  1.00  0.00     0.000 C 
BRANCH   9  10
ATOM     10  C   UNL     1     301.739 323.454 647.617  1.00  0.00    -0.000 C 
BRANCH  10  11
ATOM     11  C   UNL     1     300.561 324.435 647.751  1.00  0.00    -0.000 C 
BRANCH  11  12
ATOM     12  C   UNL     1     299.249 323.969 647.095  1.00  0.00    -0.000 C 
BRANCH  12  13
ATOM     13  C   UNL     1     298.876 324.791 645.853  1.00  0.00    -0.003 C 
ATOM     14  C   UNL     1     299.799 324.466 644.682  1.00  0.00     0.004 C 
ENDBRANCH  12  13
ENDBRANCH  11  12
ENDBRANCH  10  11
ENDBRANCH   9  10
ENDBRANCH   1   9
TORSDOF 10
ENDMDL
MODEL 9
REMARK VINA RESULT:    -3.449      2.477      5.348
REMARK INTER + INTRA:          -6.780
REMARK INTER:                  -5.890
REMARK INTRA:                  -0.890
REMARK UNBOUND:                -1.315
REMARK SMILES CCCCCCCCCCCC(=O)[O-]
REMARK SMILES IDX 7 1 8 2 9 3 10 4 11 5 12 6 13 7 14 8 6 9 5 10 4 11 3 12 2 13
REMARK SMILES IDX 1 14
REMARK H PARENT
REMARK Flexibility Score: inf
ROOT
ATOM      1  C   UNL     1     299.683 324.260 647.852  1.00  0.00     0.000 C 
ENDROOT
BRANCH   1   2
ATOM      2  C   UNL     1     299.273 325.207 646.718  1.00  0.00     0.000 C 
BRANCH   2   3
ATOM      3  C   UNL     1     299.208 324.462 645.376  1.00  0.00     0.000 C 
BRANCH   3   4
ATOM      4  C   UNL     1     299.631 325.341 644.184  1.00  0.00     0.006 C 
BRANCH   4   5
ATOM      5  C   UNL     1     300.785 324.764 643.350  1.00  0.00     0.053 C 
BRANCH   5   6
ATOM      6  C   UNL     1     302.063 324.698 644.127  1.00  0.00     0.041 C 
ATOM      7  O   UNL     1     302.604 323.586 644.363  1.00  0.00    -0.550 OA
ATOM      8  O   UNL     1     302.638 325.863 644.621  1.00  0.00    -0.550 OA
ENDBRANCH   5   6
ENDBRANCH   4   5
ENDBRANCH   3   4
ENDBRANCH   2   3
ENDBRANCH   1   2
BRANCH   1   9
ATOM      9  C   UNL     1     301.015 323.567 647.538  1.00  0.00     0.000 C 
BRANCH   9  10
ATOM     10  C   UNL     1     302.202 324.493 647.844  1.00  0.00    -0.000 C 
BRANCH  10  11
ATOM     11  C   UNL     1     303.374 323.762 648.522  1.00  0.00    -0.000 C 
BRANCH  11  12
ATOM     12  C   UNL     1     303.691 322.369 647.949  1.00  0.00    -0.000 C 
BRANCH  12  13
ATOM     13  C   UNL     1     304.781 321.631 648.739  1.00  0.00    -0.003 C 
ATOM     14  C   UNL     1     305.090 322.348 650.050  1.00  0.00     0.004 C 
ENDBRANCH  12  13
ENDBRANCH  11  12
ENDBRANCH  10  11
ENDBRANCH   9  10
ENDBRANCH   1   9
TORSDOF 10
ENDMDL
