MODEL 1
REMARK VINA RESULT:    -1.835      0.000      0.000
REMARK INTER + INTRA:          -2.268
REMARK INTER:                  -2.156
REMARK INTRA:                  -0.112
REMARK UNBOUND:                -0.112
REMARK SMILES O=C([O-])CCC(=O)[O-]
REMARK SMILES IDX 4 1 2 2 1 3 3 4 5 5 6 6 7 7 8 8
REMARK H PARENT
REMARK Flexibility Score: inf
ROOT
ATOM      1  C   UNL     1     -16.697 -22.976  32.027  1.00  0.00     0.059 C 
ENDROOT
BRANCH   1   2
ATOM      2  C   UNL     1     -16.649 -21.653  31.325  1.00  0.00     0.042 C 
ATOM      3  O   UNL     1     -15.818 -21.456  30.401  1.00  0.00    -0.550 OA
ATOM      4  O   UNL     1     -17.551 -20.653  31.667  1.00  0.00    -0.550 OA
ENDBRANCH   1   2
BRANCH   1   5
ATOM      5  C   UNL     1     -15.307 -23.613  32.124  1.00  0.00     0.059 C 
BRANCH   5   6
ATOM      6  C   UNL     1     -15.268 -24.958  31.467  1.00  0.00     0.042 C 
ATOM      7  O   UNL     1     -14.917 -25.975  32.122  1.00  0.00    -0.550 OA
ATOM      8  O   UNL     1     -15.659 -25.096  30.140  1.00  0.00    -0.550 OA
ENDBRANCH   5   6
ENDBRANCH   1   5
TORSDOF 3
ENDMDL
MODEL 2
REMARK VINA RESULT:    -1.801      2.031      4.477
REMARK INTER + INTRA:          -2.228
REMARK INTER:                  -2.113
REMARK INTRA:                  -0.115
REMARK UNBOUND:                -0.112
REMARK SMILES O=C([O-])CCC(=O)[O-]
REMARK SMILES IDX 4 1 2 2 1 3 3 4 5 5 6 6 7 7 8 8
REMARK H PARENT
REMARK Flexibility Score: inf
ROOT
ATOM      1  C   UNL     1     -16.923 -21.459  30.749  1.00  0.00     0.059 C 
ENDROOT
BRANCH   1   2
ATOM      2  C   UNL     1     -16.079 -22.641  31.116  1.00  0.00     0.042 C 
ATOM      3  O   UNL     1     -16.367 -23.338  32.125  1.00  0.00    -0.550 OA
ATOM      4  O   UNL     1     -14.997 -22.996  30.321  1.00  0.00    -0.550 OA
ENDBRANCH   1   2
BRANCH   1   5
ATOM      5  C   UNL     1     -17.534 -20.798  31.989  1.00  0.00     0.059 C 
BRANCH   5   6
ATOM      6  C   UNL     1     -19.031 -20.816  31.942  1.00  0.00     0.042 C 
ATOM      7  O   UNL     1     -19.683 -19.746  32.072  1.00  0.00    -0.550 OA
ATOM      8  O   UNL     1     -19.706 -22.010  31.716  1.00  0.00    -0.550 OA
ENDBRANCH   5   6
ENDBRANCH   1   5
TORSDOF 3
ENDMDL
MODEL 3
REMARK VINA RESULT:    -1.792      1.210      1.862
REMARK INTER + INTRA:          -2.218
REMARK INTER:                  -2.119
REMARK INTRA:                  -0.099
REMARK UNBOUND:                -0.112
REMARK SMILES O=C([O-])CCC(=O)[O-]
REMARK SMILES IDX 4 1 2 2 1 3 3 4 5 5 6 6 7 7 8 8
REMARK H PARENT
REMARK Flexibility Score: inf
ROOT
ATOM      1  C   UNL     1     -16.322 -21.710  31.321  1.00  0.00     0.059 C 
ENDROOT
BRANCH   1   2
ATOM      2  C   UNL     1     -17.722 -21.241  31.578  1.00  0.00     0.042 C 
ATOM      3  O   UNL     1     -18.699 -21.997  31.335  1.00  0.00    -0.550 OA
ATOM      4  O   UNL     1     -17.943 -19.984  32.125  1.00  0.00    -0.550 OA
ENDBRANCH   1   2
BRANCH   1   5
ATOM      5  C   UNL     1     -15.996 -22.975  32.122  1.00  0.00     0.059 C 
BRANCH   5   6
ATOM      6  C   UNL     1     -15.662 -24.127  31.224  1.00  0.00     0.042 C 
ATOM      7  O   UNL     1     -15.681 -23.983  29.973  1.00  0.00    -0.550 OA
ATOM      8  O   UNL     1     -15.290 -25.349  31.770  1.00  0.00    -0.550 OA
ENDBRANCH   5   6
ENDBRANCH   1   5
TORSDOF 3
ENDMDL
MODEL 4
REMARK VINA RESULT:    -1.762      0.819      3.979
REMARK INTER + INTRA:          -2.183
REMARK INTER:                  -2.059
REMARK INTRA:                  -0.123
REMARK UNBOUND:                -0.112
REMARK SMILES O=C([O-])CCC(=O)[O-]
REMARK SMILES IDX 4 1 2 2 1 3 3 4 5 5 6 6 7 7 8 8
REMARK H PARENT
REMARK Flexibility Score: inf
ROOT
ATOM      1  C   UNL     1     -16.626 -23.806  31.764  1.00  0.00     0.059 C 
ENDROOT
BRANCH   1   2
ATOM      2  C   UNL     1     -15.438 -24.571  31.267  1.00  0.00     0.042 C 
ATOM      3  O   UNL     1     -14.876 -24.240  30.189  1.00  0.00    -0.550 OA
ATOM      4  O   UNL     1     -14.926 -25.624  32.014  1.00  0.00    -0.550 OA
ENDBRANCH   1   2
BRANCH   1   5
ATOM      5  C   UNL     1     -16.265 -22.352  32.085  1.00  0.00     0.059 C 
BRANCH   5   6
ATOM      6  C   UNL     1     -16.961 -21.395  31.167  1.00  0.00     0.042 C 
ATOM      7  O   UNL     1     -16.748 -21.436  29.926  1.00  0.00    -0.550 OA
ATOM      8  O   UNL     1     -17.877 -20.483  31.678  1.00  0.00    -0.550 OA
ENDBRANCH   5   6
ENDBRANCH   1   5
TORSDOF 3
ENDMDL
MODEL 5
REMARK VINA RESULT:    -1.726      1.222      3.972
REMARK INTER + INTRA:          -2.140
REMARK INTER:                  -2.060
REMARK INTRA:                  -0.080
REMARK UNBOUND:                -0.112
REMARK SMILES O=C([O-])CCC(=O)[O-]
REMARK SMILES IDX 4 1 2 2 1 3 3 4 5 5 6 6 7 7 8 8
REMARK H PARENT
REMARK Flexibility Score: inf
ROOT
ATOM      1  C   UNL     1     -15.985 -22.901  32.125  1.00  0.00     0.059 C 
ENDROOT
BRANCH   1   2
ATOM      2  C   UNL     1     -15.347 -23.872  31.178  1.00  0.00     0.042 C 
ATOM      3  O   UNL     1     -14.895 -23.474  30.072  1.00  0.00    -0.550 OA
ATOM      4  O   UNL     1     -15.217 -25.207  31.535  1.00  0.00    -0.550 OA
ENDBRANCH   1   2
BRANCH   1   5
ATOM      5  C   UNL     1     -16.286 -21.563  31.441  1.00  0.00     0.059 C 
BRANCH   5   6
ATOM      6  C   UNL     1     -17.749 -21.243  31.475  1.00  0.00     0.042 C 
ATOM      7  O   UNL     1     -18.162 -20.227  32.093  1.00  0.00    -0.550 OA
ATOM      8  O   UNL     1     -18.652 -22.047  30.790  1.00  0.00    -0.550 OA
ENDBRANCH   5   6
ENDBRANCH   1   5
TORSDOF 3
ENDMDL
MODEL 6
REMARK VINA RESULT:    -1.714      1.807      2.800
REMARK INTER + INTRA:          -2.126
REMARK INTER:                  -2.027
REMARK INTRA:                  -0.099
REMARK UNBOUND:                -0.112
REMARK SMILES O=C([O-])CCC(=O)[O-]
REMARK SMILES IDX 4 1 2 2 1 3 3 4 5 5 6 6 7 7 8 8
REMARK H PARENT
REMARK Flexibility Score: inf
ROOT
ATOM      1  C   UNL     1     -17.105 -20.812  32.018  1.00  0.00     0.059 C 
ENDROOT
BRANCH   1   2
ATOM      2  C   UNL     1     -18.585 -20.956  31.838  1.00  0.00     0.042 C 
ATOM      3  O   UNL     1     -19.075 -22.053  31.462  1.00  0.00    -0.550 OA
ATOM      4  O   UNL     1     -19.427 -19.889  32.125  1.00  0.00    -0.550 OA
ENDBRANCH   1   2
BRANCH   1   5
ATOM      5  C   UNL     1     -16.414 -22.177  32.105  1.00  0.00     0.059 C 
BRANCH   5   6
ATOM      6  C   UNL     1     -15.633 -22.480  30.864  1.00  0.00     0.042 C 
ATOM      7  O   UNL     1     -15.602 -21.652  29.915  1.00  0.00    -0.550 OA
ATOM      8  O   UNL     1     -14.905 -23.661  30.771  1.00  0.00    -0.550 OA
ENDBRANCH   5   6
ENDBRANCH   1   5
TORSDOF 3
ENDMDL
MODEL 7
REMARK VINA RESULT:    -1.698      1.271      1.707
REMARK INTER + INTRA:          -2.108
REMARK INTER:                  -1.985
REMARK INTRA:                  -0.122
REMARK UNBOUND:                -0.112
REMARK SMILES O=C([O-])CCC(=O)[O-]
REMARK SMILES IDX 4 1 2 2 1 3 3 4 5 5 6 6 7 7 8 8
REMARK H PARENT
REMARK Flexibility Score: inf
ROOT
ATOM      1  C   UNL     1     -16.322 -21.669  31.659  1.00  0.00     0.059 C 
ENDROOT
BRANCH   1   2
ATOM      2  C   UNL     1     -17.716 -21.123  31.719  1.00  0.00     0.042 C 
ATOM      3  O   UNL     1     -17.920 -19.948  32.124  1.00  0.00    -0.550 OA
ATOM      4  O   UNL     1     -18.785 -21.899  31.290  1.00  0.00    -0.550 OA
ENDBRANCH   1   2
BRANCH   1   5
ATOM      5  C   UNL     1     -16.273 -23.135  32.102  1.00  0.00     0.059 C 
BRANCH   5   6
ATOM      6  C   UNL     1     -15.897 -24.041  30.970  1.00  0.00     0.042 C 
ATOM      7  O   UNL     1     -15.245 -25.096  31.191  1.00  0.00    -0.550 OA
ATOM      8  O   UNL     1     -16.302 -23.741  29.675  1.00  0.00    -0.550 OA
ENDBRANCH   5   6
ENDBRANCH   1   5
TORSDOF 3
ENDMDL
MODEL 8
REMARK VINA RESULT:    -1.646      2.005      3.469
REMARK INTER + INTRA:          -2.046
REMARK INTER:                  -1.864
REMARK INTRA:                  -0.182
REMARK UNBOUND:                -0.112
REMARK SMILES O=C([O-])CCC(=O)[O-]
REMARK SMILES IDX 4 1 2 2 1 3 3 4 5 5 6 6 7 7 8 8
REMARK H PARENT
REMARK Flexibility Score: inf
ROOT
ATOM      1  C   UNL     1     -16.549 -24.195  31.259  1.00  0.00     0.059 C 
ENDROOT
BRANCH   1   2
ATOM      2  C   UNL     1     -17.926 -24.141  30.671  1.00  0.00     0.042 C 
ATOM      3  O   UNL     1     -18.081 -24.122  29.421  1.00  0.00    -0.550 OA
ATOM      4  O   UNL     1     -19.038 -24.153  31.502  1.00  0.00    -0.550 OA
ENDBRANCH   1   2
BRANCH   1   5
ATOM      5  C   UNL     1     -16.259 -22.965  32.125  1.00  0.00     0.059 C 
BRANCH   5   6
ATOM      6  C   UNL     1     -16.389 -21.695  31.341  1.00  0.00     0.042 C 
ATOM      7  O   UNL     1     -17.141 -20.771  31.749  1.00  0.00    -0.550 OA
ATOM      8  O   UNL     1     -15.647 -21.516  30.180  1.00  0.00    -0.550 OA
ENDBRANCH   5   6
ENDBRANCH   1   5
TORSDOF 3
ENDMDL
MODEL 9
REMARK VINA RESULT:    -1.639      1.906      2.113
REMARK INTER + INTRA:          -2.038
REMARK INTER:                  -1.856
REMARK INTRA:                  -0.182
REMARK UNBOUND:                -0.112
REMARK SMILES O=C([O-])CCC(=O)[O-]
REMARK SMILES IDX 4 1 2 2 1 3 3 4 5 5 6 6 7 7 8 8
REMARK H PARENT
REMARK Flexibility Score: inf
ROOT
ATOM      1  C   UNL     1     -16.295 -22.978  32.125  1.00  0.00     0.059 C 
ENDROOT
BRANCH   1   2
ATOM      2  C   UNL     1     -16.415 -21.754  31.268  1.00  0.00     0.042 C 
ATOM      3  O   UNL     1     -15.637 -21.586  30.291  1.00  0.00    -0.550 OA
ATOM      4  O   UNL     1     -17.410 -20.820  31.524  1.00  0.00    -0.550 OA
ENDBRANCH   1   2
BRANCH   1   5
ATOM      5  C   UNL     1     -16.467 -24.259  31.302  1.00  0.00     0.059 C 
BRANCH   5   6
ATOM      6  C   UNL     1     -17.821 -24.330  30.667  1.00  0.00     0.042 C 
ATOM      7  O   UNL     1     -18.860 -24.284  31.378  1.00  0.00    -0.550 OA
ATOM      8  O   UNL     1     -17.937 -24.407  29.284  1.00  0.00    -0.550 OA
ENDBRANCH   5   6
ENDBRANCH   1   5
TORSDOF 3
ENDMDL
