MODEL 1
REMARK VINA RESULT:    -3.476      0.000      0.000
REMARK INTER + INTRA:          -7.896
REMARK INTER:                  -6.525
REMARK INTRA:                  -1.371
REMARK UNBOUND:                -1.371
REMARK SMILES O=C([O-])CCCCCCCCCCCCCCC(=O)[O-]
REMARK SMILES IDX 10 1 9 2 8 3 7 4 6 5 5 6 4 7 2 8 1 9 3 10 11 11 12 12 13 13
REMARK SMILES IDX 14 14 15 15 16 16 17 17 18 18 19 19 20 20
REMARK H PARENT
REMARK Flexibility Score: inf
ROOT
ATOM      1  C   UNL     1     -44.721 -37.737  15.468  1.00  0.00     0.000 C 
ENDROOT
BRANCH   1   2
ATOM      2  C   UNL     1     -45.795 -37.595  16.569  1.00  0.00     0.000 C 
BRANCH   2   3
ATOM      3  C   UNL     1     -45.396 -38.323  17.866  1.00  0.00     0.000 C 
BRANCH   3   4
ATOM      4  C   UNL     1     -45.680 -37.475  19.124  1.00  0.00     0.000 C 
BRANCH   4   5
ATOM      5  C   UNL     1     -44.570 -36.460  19.446  1.00  0.00     0.000 C 
BRANCH   5   6
ATOM      6  C   UNL     1     -44.500 -36.105  20.937  1.00  0.00     0.006 C 
BRANCH   6   7
ATOM      7  C   UNL     1     -45.190 -34.766  21.217  1.00  0.00     0.053 C 
BRANCH   7   8
ATOM      8  C   UNL     1     -44.631 -34.138  22.455  1.00  0.00     0.041 C 
ATOM      9  O   UNL     1     -45.403 -33.673  23.334  1.00  0.00    -0.550 OA
ATOM     10  O   UNL     1     -43.257 -34.110  22.660  1.00  0.00    -0.550 OA
ENDBRANCH   7   8
ENDBRANCH   6   7
ENDBRANCH   5   6
ENDBRANCH   4   5
ENDBRANCH   3   4
ENDBRANCH   2   3
ENDBRANCH   1   2
BRANCH   1  11
ATOM     11  C   UNL     1     -45.308 -37.852  14.052  1.00  0.00     0.000 C 
BRANCH  11  12
ATOM     12  C   UNL     1     -44.310 -37.437  12.958  1.00  0.00     0.000 C 
BRANCH  12  13
ATOM     13  C   UNL     1     -44.702 -36.100  12.291  1.00  0.00     0.000 C 
BRANCH  13  14
ATOM     14  C   UNL     1     -45.924 -35.423  12.933  1.00  0.00     0.000 C 
BRANCH  14  15
ATOM     15  C   UNL     1     -45.829 -33.888  12.924  1.00  0.00     0.000 C 
BRANCH  15  16
ATOM     16  C   UNL     1     -45.518 -33.303  14.314  1.00  0.00     0.006 C 
BRANCH  16  17
ATOM     17  C   UNL     1     -46.125 -34.095  15.483  1.00  0.00     0.053 C 
BRANCH  17  18
ATOM     18  C   UNL     1     -45.342 -33.917  16.747  1.00  0.00     0.041 C 
ATOM     19  O   UNL     1     -45.926 -33.596  17.815  1.00  0.00    -0.550 OA
ATOM     20  O   UNL     1     -43.970 -34.133  16.752  1.00  0.00    -0.550 OA
ENDBRANCH  17  18
ENDBRANCH  16  17
ENDBRANCH  15  16
ENDBRANCH  14  15
ENDBRANCH  13  14
ENDBRANCH  12  13
ENDBRANCH  11  12
ENDBRANCH   1  11
TORSDOF 15
ENDMDL
MODEL 2
REMARK VINA RESULT:    -3.458      5.579     10.215
REMARK INTER + INTRA:          -7.861
REMARK INTER:                  -6.799
REMARK INTRA:                  -1.062
REMARK UNBOUND:                -1.371
REMARK SMILES O=C([O-])CCCCCCCCCCCCCCC(=O)[O-]
REMARK SMILES IDX 10 1 9 2 8 3 7 4 6 5 5 6 4 7 2 8 1 9 3 10 11 11 12 12 13 13
REMARK SMILES IDX 14 14 15 15 16 16 17 17 18 18 19 19 20 20
REMARK H PARENT
REMARK Flexibility Score: inf
ROOT
ATOM      1  C   UNL     1     -41.106 -32.505  26.889  1.00  0.00     0.000 C 
ENDROOT
BRANCH   1   2
ATOM      2  C   UNL     1     -40.907 -31.958  28.319  1.00  0.00     0.000 C 
BRANCH   2   3
ATOM      3  C   UNL     1     -39.449 -32.093  28.795  1.00  0.00     0.000 C 
BRANCH   3   4
ATOM      4  C   UNL     1     -38.763 -33.355  28.231  1.00  0.00     0.000 C 
BRANCH   4   5
ATOM      5  C   UNL     1     -37.369 -33.087  27.639  1.00  0.00     0.000 C 
BRANCH   5   6
ATOM      6  C   UNL     1     -37.424 -32.467  26.237  1.00  0.00     0.006 C 
BRANCH   6   7
ATOM      7  C   UNL     1     -37.949 -33.475  25.210  1.00  0.00     0.053 C 
BRANCH   7   8
ATOM      8  C   UNL     1     -38.294 -32.784  23.928  1.00  0.00     0.041 C 
ATOM      9  O   UNL     1     -39.303 -32.035  23.863  1.00  0.00    -0.550 OA
ATOM     10  O   UNL     1     -37.471 -32.929  22.818  1.00  0.00    -0.550 OA
ENDBRANCH   7   8
ENDBRANCH   6   7
ENDBRANCH   5   6
ENDBRANCH   4   5
ENDBRANCH   3   4
ENDBRANCH   2   3
ENDBRANCH   1   2
BRANCH   1  11
ATOM     11  C   UNL     1     -42.478 -33.162  26.670  1.00  0.00     0.000 C 
BRANCH  11  12
ATOM     12  C   UNL     1     -43.186 -32.656  25.402  1.00  0.00     0.000 C 
BRANCH  12  13
ATOM     13  C   UNL     1     -44.722 -32.776  25.505  1.00  0.00     0.000 C 
BRANCH  13  14
ATOM     14  C   UNL     1     -45.379 -33.382  24.253  1.00  0.00     0.000 C 
BRANCH  14  15
ATOM     15  C   UNL     1     -44.377 -33.635  23.115  1.00  0.00     0.000 C 
BRANCH  15  16
ATOM     16  C   UNL     1     -45.052 -34.149  21.831  1.00  0.00     0.006 C 
BRANCH  16  17
ATOM     17  C   UNL     1     -45.721 -35.526  21.977  1.00  0.00     0.053 C 
BRANCH  17  18
ATOM     18  C   UNL     1     -44.979 -36.591  21.229  1.00  0.00     0.041 C 
ATOM     19  O   UNL     1     -45.387 -37.782  21.251  1.00  0.00    -0.550 OA
ATOM     20  O   UNL     1     -43.853 -36.263  20.486  1.00  0.00    -0.550 OA
ENDBRANCH  17  18
ENDBRANCH  16  17
ENDBRANCH  15  16
ENDBRANCH  14  15
ENDBRANCH  13  14
ENDBRANCH  12  13
ENDBRANCH  11  12
ENDBRANCH   1  11
TORSDOF 15
ENDMDL
MODEL 3
REMARK VINA RESULT:    -3.394      1.169      6.168
REMARK INTER + INTRA:          -7.742
REMARK INTER:                  -6.666
REMARK INTRA:                  -1.075
REMARK UNBOUND:                -1.371
REMARK SMILES O=C([O-])CCCCCCCCCCCCCCC(=O)[O-]
REMARK SMILES IDX 10 1 9 2 8 3 7 4 6 5 5 6 4 7 2 8 1 9 3 10 11 11 12 12 13 13
REMARK SMILES IDX 14 14 15 15 16 16 17 17 18 18 19 19 20 20
REMARK H PARENT
REMARK Flexibility Score: inf
ROOT
ATOM      1  C   UNL     1     -44.065 -37.530  15.247  1.00  0.00     0.000 C 
ENDROOT
BRANCH   1   2
ATOM      2  C   UNL     1     -44.487 -38.266  13.957  1.00  0.00     0.000 C 
BRANCH   2   3
ATOM      3  C   UNL     1     -45.568 -37.496  13.177  1.00  0.00     0.000 C 
BRANCH   3   4
ATOM      4  C   UNL     1     -45.047 -36.153  12.623  1.00  0.00     0.000 C 
BRANCH   4   5
ATOM      5  C   UNL     1     -46.067 -35.007  12.726  1.00  0.00     0.000 C 
BRANCH   5   6
ATOM      6  C   UNL     1     -45.425 -33.669  13.116  1.00  0.00     0.006 C 
BRANCH   6   7
ATOM      7  C   UNL     1     -46.122 -33.059  14.335  1.00  0.00     0.053 C 
BRANCH   7   8
ATOM      8  C   UNL     1     -45.203 -33.055  15.516  1.00  0.00     0.041 C 
ATOM      9  O   UNL     1     -44.746 -31.970  15.960  1.00  0.00    -0.550 OA
ATOM     10  O   UNL     1     -44.892 -34.247  16.158  1.00  0.00    -0.550 OA
ENDBRANCH   7   8
ENDBRANCH   6   7
ENDBRANCH   5   6
ENDBRANCH   4   5
ENDBRANCH   3   4
ENDBRANCH   2   3
ENDBRANCH   1   2
BRANCH   1  11
ATOM     11  C   UNL     1     -44.575 -38.206  16.530  1.00  0.00     0.000 C 
BRANCH  11  12
ATOM     12  C   UNL     1     -46.007 -37.782  16.898  1.00  0.00     0.000 C 
BRANCH  12  13
ATOM     13  C   UNL     1     -46.044 -36.890  18.158  1.00  0.00     0.000 C 
BRANCH  13  14
ATOM     14  C   UNL     1     -44.729 -36.892  18.955  1.00  0.00     0.000 C 
BRANCH  14  15
ATOM     15  C   UNL     1     -44.938 -37.188  20.450  1.00  0.00     0.000 C 
BRANCH  15  16
ATOM     16  C   UNL     1     -45.618 -36.025  21.197  1.00  0.00     0.006 C 
BRANCH  16  17
ATOM     17  C   UNL     1     -44.652 -34.927  21.668  1.00  0.00     0.053 C 
BRANCH  17  18
ATOM     18  C   UNL     1     -45.358 -33.850  22.434  1.00  0.00     0.041 C 
ATOM     19  O   UNL     1     -45.765 -34.068  23.605  1.00  0.00    -0.550 OA
ATOM     20  O   UNL     1     -45.541 -32.598  21.864  1.00  0.00    -0.550 OA
ENDBRANCH  17  18
ENDBRANCH  16  17
ENDBRANCH  15  16
ENDBRANCH  14  15
ENDBRANCH  13  14
ENDBRANCH  12  13
ENDBRANCH  11  12
ENDBRANCH   1  11
TORSDOF 15
ENDMDL
MODEL 4
REMARK VINA RESULT:    -3.381      3.073      8.856
REMARK INTER + INTRA:          -7.717
REMARK INTER:                  -6.917
REMARK INTRA:                  -0.801
REMARK UNBOUND:                -1.371
REMARK SMILES O=C([O-])CCCCCCCCCCCCCCC(=O)[O-]
REMARK SMILES IDX 10 1 9 2 8 3 7 4 6 5 5 6 4 7 2 8 1 9 3 10 11 11 12 12 13 13
REMARK SMILES IDX 14 14 15 15 16 16 17 17 18 18 19 19 20 20
REMARK H PARENT
REMARK Flexibility Score: inf
ROOT
ATOM      1  C   UNL     1     -45.203 -37.292  20.937  1.00  0.00     0.000 C 
ENDROOT
BRANCH   1   2
ATOM      2  C   UNL     1     -45.739 -36.900  19.542  1.00  0.00     0.000 C 
BRANCH   2   3
ATOM      3  C   UNL     1     -44.623 -36.862  18.482  1.00  0.00     0.000 C 
BRANCH   3   4
ATOM      4  C   UNL     1     -44.980 -35.950  17.289  1.00  0.00     0.000 C 
BRANCH   4   5
ATOM      5  C   UNL     1     -45.456 -36.720  16.045  1.00  0.00     0.000 C 
BRANCH   5   6
ATOM      6  C   UNL     1     -44.804 -38.102  15.911  1.00  0.00     0.006 C 
BRANCH   6   7
ATOM      7  C   UNL     1     -43.850 -38.145  14.713  1.00  0.00     0.053 C 
BRANCH   7   8
ATOM      8  C   UNL     1     -44.597 -37.893  13.440  1.00  0.00     0.041 C 
ATOM      9  O   UNL     1     -45.467 -38.711  13.043  1.00  0.00    -0.550 OA
ATOM     10  O   UNL     1     -44.366 -36.728  12.719  1.00  0.00    -0.550 OA
ENDBRANCH   7   8
ENDBRANCH   6   7
ENDBRANCH   5   6
ENDBRANCH   4   5
ENDBRANCH   3   4
ENDBRANCH   2   3
ENDBRANCH   1   2
BRANCH   1  11
ATOM     11  C   UNL     1     -45.932 -36.587  22.092  1.00  0.00     0.000 C 
BRANCH  11  12
ATOM     12  C   UNL     1     -45.956 -35.057  21.935  1.00  0.00     0.000 C 
BRANCH  12  13
ATOM     13  C   UNL     1     -44.559 -34.431  22.139  1.00  0.00     0.000 C 
BRANCH  13  14
ATOM     14  C   UNL     1     -44.496 -33.426  23.301  1.00  0.00     0.000 C 
BRANCH  14  15
ATOM     15  C   UNL     1     -43.066 -32.942  23.595  1.00  0.00     0.000 C 
BRANCH  15  16
ATOM     16  C   UNL     1     -42.884 -32.472  25.050  1.00  0.00     0.006 C 
BRANCH  16  17
ATOM     17  C   UNL     1     -43.706 -33.265  26.078  1.00  0.00     0.053 C 
BRANCH  17  18
ATOM     18  C   UNL     1     -42.864 -33.745  27.219  1.00  0.00     0.041 C 
ATOM     19  O   UNL     1     -41.663 -33.379  27.319  1.00  0.00    -0.550 OA
ATOM     20  O   UNL     1     -43.413 -34.574  28.189  1.00  0.00    -0.550 OA
ENDBRANCH  17  18
ENDBRANCH  16  17
ENDBRANCH  15  16
ENDBRANCH  14  15
ENDBRANCH  13  14
ENDBRANCH  12  13
ENDBRANCH  11  12
ENDBRANCH   1  11
TORSDOF 15
ENDMDL
MODEL 5
REMARK VINA RESULT:    -3.377      3.001      8.671
REMARK INTER + INTRA:          -7.709
REMARK INTER:                  -6.874
REMARK INTRA:                  -0.834
REMARK UNBOUND:                -1.371
REMARK SMILES O=C([O-])CCCCCCCCCCCCCCC(=O)[O-]
REMARK SMILES IDX 10 1 9 2 8 3 7 4 6 5 5 6 4 7 2 8 1 9 3 10 11 11 12 12 13 13
REMARK SMILES IDX 14 14 15 15 16 16 17 17 18 18 19 19 20 20
REMARK H PARENT
REMARK Flexibility Score: inf
ROOT
ATOM      1  C   UNL     1     -44.995 -37.184  20.860  1.00  0.00     0.000 C 
ENDROOT
BRANCH   1   2
ATOM      2  C   UNL     1     -43.912 -36.783  19.835  1.00  0.00     0.000 C 
BRANCH   2   3
ATOM      3  C   UNL     1     -44.503 -36.527  18.436  1.00  0.00     0.000 C 
BRANCH   3   4
ATOM      4  C   UNL     1     -45.533 -37.602  18.030  1.00  0.00     0.000 C 
BRANCH   4   5
ATOM      5  C   UNL     1     -45.244 -38.248  16.665  1.00  0.00     0.000 C 
BRANCH   5   6
ATOM      6  C   UNL     1     -44.305 -37.406  15.791  1.00  0.00     0.006 C 
BRANCH   6   7
ATOM      7  C   UNL     1     -45.091 -36.623  14.735  1.00  0.00     0.053 C 
BRANCH   7   8
ATOM      8  C   UNL     1     -44.674 -37.038  13.359  1.00  0.00     0.041 C 
ATOM      9  O   UNL     1     -44.382 -38.238  13.120  1.00  0.00    -0.550 OA
ATOM     10  O   UNL     1     -44.658 -36.106  12.328  1.00  0.00    -0.550 OA
ENDBRANCH   7   8
ENDBRANCH   6   7
ENDBRANCH   5   6
ENDBRANCH   4   5
ENDBRANCH   3   4
ENDBRANCH   2   3
ENDBRANCH   1   2
BRANCH   1  11
ATOM     11  C   UNL     1     -45.658 -35.981  21.550  1.00  0.00     0.000 C 
BRANCH  11  12
ATOM     12  C   UNL     1     -44.721 -34.766  21.659  1.00  0.00     0.000 C 
BRANCH  12  13
ATOM     13  C   UNL     1     -45.463 -33.501  22.141  1.00  0.00     0.000 C 
BRANCH  13  14
ATOM     14  C   UNL     1     -44.644 -32.636  23.115  1.00  0.00     0.000 C 
BRANCH  14  15
ATOM     15  C   UNL     1     -43.296 -33.275  23.490  1.00  0.00     0.000 C 
BRANCH  15  16
ATOM     16  C   UNL     1     -42.364 -32.302  24.235  1.00  0.00     0.006 C 
BRANCH  16  17
ATOM     17  C   UNL     1     -42.634 -32.200  25.745  1.00  0.00     0.053 C 
BRANCH  17  18
ATOM     18  C   UNL     1     -41.520 -32.789  26.554  1.00  0.00     0.041 C 
ATOM     19  O   UNL     1     -41.774 -33.450  27.595  1.00  0.00    -0.550 OA
ATOM     20  O   UNL     1     -40.203 -32.631  26.144  1.00  0.00    -0.550 OA
ENDBRANCH  17  18
ENDBRANCH  16  17
ENDBRANCH  15  16
ENDBRANCH  14  15
ENDBRANCH  13  14
ENDBRANCH  12  13
ENDBRANCH  11  12
ENDBRANCH   1  11
TORSDOF 15
ENDMDL
MODEL 6
REMARK VINA RESULT:    -3.337      2.188      7.881
REMARK INTER + INTRA:          -7.633
REMARK INTER:                  -6.758
REMARK INTRA:                  -0.875
REMARK UNBOUND:                -1.371
REMARK SMILES O=C([O-])CCCCCCCCCCCCCCC(=O)[O-]
REMARK SMILES IDX 10 1 9 2 8 3 7 4 6 5 5 6 4 7 2 8 1 9 3 10 11 11 12 12 13 13
REMARK SMILES IDX 14 14 15 15 16 16 17 17 18 18 19 19 20 20
REMARK H PARENT
REMARK Flexibility Score: inf
ROOT
ATOM      1  C   UNL     1     -44.740 -36.029  18.523  1.00  0.00     0.000 C 
ENDROOT
BRANCH   1   2
ATOM      2  C   UNL     1     -45.665 -37.083  17.875  1.00  0.00     0.000 C 
BRANCH   2   3
ATOM      3  C   UNL     1     -44.872 -38.172  17.130  1.00  0.00     0.000 C 
BRANCH   3   4
ATOM      4  C   UNL     1     -45.236 -38.240  15.632  1.00  0.00     0.000 C 
BRANCH   4   5
ATOM      5  C   UNL     1     -44.031 -38.047  14.696  1.00  0.00     0.000 C 
BRANCH   5   6
ATOM      6  C   UNL     1     -44.436 -37.902  13.223  1.00  0.00     0.006 C 
BRANCH   6   7
ATOM      7  C   UNL     1     -45.887 -37.430  13.095  1.00  0.00     0.053 C 
BRANCH   7   8
ATOM      8  C   UNL     1     -45.936 -35.979  12.734  1.00  0.00     0.041 C 
ATOM      9  O   UNL     1     -46.069 -35.628  11.532  1.00  0.00    -0.550 OA
ATOM     10  O   UNL     1     -45.885 -35.012  13.731  1.00  0.00    -0.550 OA
ENDBRANCH   7   8
ENDBRANCH   6   7
ENDBRANCH   5   6
ENDBRANCH   4   5
ENDBRANCH   3   4
ENDBRANCH   2   3
ENDBRANCH   1   2
BRANCH   1  11
ATOM     11  C   UNL     1     -44.020 -36.540  19.782  1.00  0.00     0.000 C 
BRANCH  11  12
ATOM     12  C   UNL     1     -44.969 -37.246  20.765  1.00  0.00     0.000 C 
BRANCH  12  13
ATOM     13  C   UNL     1     -45.790 -36.242  21.603  1.00  0.00     0.000 C 
BRANCH  13  14
ATOM     14  C   UNL     1     -45.008 -34.977  21.994  1.00  0.00     0.000 C 
BRANCH  14  15
ATOM     15  C   UNL     1     -45.909 -33.874  22.573  1.00  0.00     0.000 C 
BRANCH  15  16
ATOM     16  C   UNL     1     -45.122 -32.610  22.968  1.00  0.00     0.006 C 
BRANCH  16  17
ATOM     17  C   UNL     1     -44.851 -32.480  24.475  1.00  0.00     0.053 C 
BRANCH  17  18
ATOM     18  C   UNL     1     -43.431 -32.808  24.819  1.00  0.00     0.041 C 
ATOM     19  O   UNL     1     -43.149 -33.301  25.943  1.00  0.00    -0.550 OA
ATOM     20  O   UNL     1     -42.423 -32.595  23.889  1.00  0.00    -0.550 OA
ENDBRANCH  17  18
ENDBRANCH  16  17
ENDBRANCH  15  16
ENDBRANCH  14  15
ENDBRANCH  13  14
ENDBRANCH  12  13
ENDBRANCH  11  12
ENDBRANCH   1  11
TORSDOF 15
ENDMDL
MODEL 7
REMARK VINA RESULT:    -3.325      2.565      4.511
REMARK INTER + INTRA:          -7.612
REMARK INTER:                  -6.403
REMARK INTRA:                  -1.210
REMARK UNBOUND:                -1.371
REMARK SMILES O=C([O-])CCCCCCCCCCCCCCC(=O)[O-]
REMARK SMILES IDX 10 1 9 2 8 3 7 4 6 5 5 6 4 7 2 8 1 9 3 10 11 11 12 12 13 13
REMARK SMILES IDX 14 14 15 15 16 16 17 17 18 18 19 19 20 20
REMARK H PARENT
REMARK Flexibility Score: inf
ROOT
ATOM      1  C   UNL     1     -43.891 -37.032  19.680  1.00  0.00     0.000 C 
ENDROOT
BRANCH   1   2
ATOM      2  C   UNL     1     -44.648 -36.567  20.944  1.00  0.00     0.000 C 
BRANCH   2   3
ATOM      3  C   UNL     1     -44.136 -35.209  21.459  1.00  0.00     0.000 C 
BRANCH   3   4
ATOM      4  C   UNL     1     -45.197 -34.462  22.295  1.00  0.00     0.000 C 
BRANCH   4   5
ATOM      5  C   UNL     1     -44.652 -33.212  23.007  1.00  0.00     0.000 C 
BRANCH   5   6
ATOM      6  C   UNL     1     -43.194 -33.367  23.457  1.00  0.00     0.006 C 
BRANCH   6   7
ATOM      7  C   UNL     1     -42.751 -32.173  24.307  1.00  0.00     0.053 C 
BRANCH   7   8
ATOM      8  C   UNL     1     -42.619 -32.573  25.743  1.00  0.00     0.041 C 
ATOM      9  O   UNL     1     -43.445 -33.371  26.257  1.00  0.00    -0.550 OA
ATOM     10  O   UNL     1     -41.553 -32.103  26.500  1.00  0.00    -0.550 OA
ENDBRANCH   7   8
ENDBRANCH   6   7
ENDBRANCH   5   6
ENDBRANCH   4   5
ENDBRANCH   3   4
ENDBRANCH   2   3
ENDBRANCH   1   2
BRANCH   1  11
ATOM     11  C   UNL     1     -44.790 -37.152  18.439  1.00  0.00     0.000 C 
BRANCH  11  12
ATOM     12  C   UNL     1     -45.947 -36.138  18.442  1.00  0.00     0.000 C 
BRANCH  12  13
ATOM     13  C   UNL     1     -45.511 -34.757  17.906  1.00  0.00     0.000 C 
BRANCH  13  14
ATOM     14  C   UNL     1     -44.679 -34.829  16.615  1.00  0.00     0.000 C 
BRANCH  14  15
ATOM     15  C   UNL     1     -45.484 -34.438  15.364  1.00  0.00     0.000 C 
BRANCH  15  16
ATOM     16  C   UNL     1     -45.453 -35.524  14.273  1.00  0.00     0.006 C 
BRANCH  16  17
ATOM     17  C   UNL     1     -45.535 -36.962  14.811  1.00  0.00     0.053 C 
BRANCH  17  18
ATOM     18  C   UNL     1     -44.388 -37.802  14.340  1.00  0.00     0.041 C 
ATOM     19  O   UNL     1     -43.518 -38.204  15.157  1.00  0.00    -0.550 OA
ATOM     20  O   UNL     1     -44.295 -38.165  13.003  1.00  0.00    -0.550 OA
ENDBRANCH  17  18
ENDBRANCH  16  17
ENDBRANCH  15  16
ENDBRANCH  14  15
ENDBRANCH  13  14
ENDBRANCH  12  13
ENDBRANCH  11  12
ENDBRANCH   1  11
TORSDOF 15
ENDMDL
MODEL 8
REMARK VINA RESULT:    -3.324      1.787      3.495
REMARK INTER + INTRA:          -7.610
REMARK INTER:                  -6.743
REMARK INTRA:                  -0.867
REMARK UNBOUND:                -1.371
REMARK SMILES O=C([O-])CCCCCCCCCCCCCCC(=O)[O-]
REMARK SMILES IDX 10 1 9 2 8 3 7 4 6 5 5 6 4 7 2 8 1 9 3 10 11 11 12 12 13 13
REMARK SMILES IDX 14 14 15 15 16 16 17 17 18 18 19 19 20 20
REMARK H PARENT
REMARK Flexibility Score: inf
ROOT
ATOM      1  C   UNL     1     -44.551 -36.572  19.024  1.00  0.00     0.000 C 
ENDROOT
BRANCH   1   2
ATOM      2  C   UNL     1     -44.786 -37.169  20.429  1.00  0.00     0.000 C 
BRANCH   2   3
ATOM      3  C   UNL     1     -45.625 -36.236  21.322  1.00  0.00     0.000 C 
BRANCH   3   4
ATOM      4  C   UNL     1     -45.989 -34.915  20.611  1.00  0.00     0.000 C 
BRANCH   4   5
ATOM      5  C   UNL     1     -45.734 -33.663  21.467  1.00  0.00     0.000 C 
BRANCH   5   6
ATOM      6  C   UNL     1     -45.116 -33.989  22.833  1.00  0.00     0.006 C 
BRANCH   6   7
ATOM      7  C   UNL     1     -43.607 -33.730  22.830  1.00  0.00     0.053 C 
BRANCH   7   8
ATOM      8  C   UNL     1     -43.210 -32.936  24.035  1.00  0.00     0.041 C 
ATOM      9  O   UNL     1     -43.807 -33.104  25.130  1.00  0.00    -0.550 OA
ATOM     10  O   UNL     1     -42.144 -32.048  23.961  1.00  0.00    -0.550 OA
ENDBRANCH   7   8
ENDBRANCH   6   7
ENDBRANCH   5   6
ENDBRANCH   4   5
ENDBRANCH   3   4
ENDBRANCH   2   3
ENDBRANCH   1   2
BRANCH   1  11
ATOM     11  C   UNL     1     -44.734 -37.592  17.889  1.00  0.00     0.000 C 
BRANCH  11  12
ATOM     12  C   UNL     1     -44.609 -36.959  16.493  1.00  0.00     0.000 C 
BRANCH  12  13
ATOM     13  C   UNL     1     -45.300 -37.809  15.404  1.00  0.00     0.000 C 
BRANCH  13  14
ATOM     14  C   UNL     1     -44.374 -38.192  14.238  1.00  0.00     0.000 C 
BRANCH  14  15
ATOM     15  C   UNL     1     -44.507 -37.244  13.034  1.00  0.00     0.000 C 
BRANCH  15  16
ATOM     16  C   UNL     1     -45.903 -36.602  12.934  1.00  0.00     0.006 C 
BRANCH  16  17
ATOM     17  C   UNL     1     -45.938 -35.285  12.144  1.00  0.00     0.053 C 
BRANCH  17  18
ATOM     18  C   UNL     1     -45.791 -34.091  13.038  1.00  0.00     0.041 C 
ATOM     19  O   UNL     1     -45.784 -32.931  12.550  1.00  0.00    -0.550 OA
ATOM     20  O   UNL     1     -45.691 -34.260  14.412  1.00  0.00    -0.550 OA
ENDBRANCH  17  18
ENDBRANCH  16  17
ENDBRANCH  15  16
ENDBRANCH  14  15
ENDBRANCH  13  14
ENDBRANCH  12  13
ENDBRANCH  11  12
ENDBRANCH   1  11
TORSDOF 15
ENDMDL
MODEL 9
REMARK VINA RESULT:    -3.284      2.944      5.650
REMARK INTER + INTRA:          -7.535
REMARK INTER:                  -6.706
REMARK INTRA:                  -0.829
REMARK UNBOUND:                -1.371
REMARK SMILES O=C([O-])CCCCCCCCCCCCCCC(=O)[O-]
REMARK SMILES IDX 10 1 9 2 8 3 7 4 6 5 5 6 4 7 2 8 1 9 3 10 11 11 12 12 13 13
REMARK SMILES IDX 14 14 15 15 16 16 17 17 18 18 19 19 20 20
REMARK H PARENT
REMARK Flexibility Score: inf
ROOT
ATOM      1  C   UNL     1     -45.738 -36.056  21.590  1.00  0.00     0.000 C 
ENDROOT
BRANCH   1   2
ATOM      2  C   UNL     1     -45.053 -34.675  21.684  1.00  0.00     0.000 C 
BRANCH   2   3
ATOM      3  C   UNL     1     -45.720 -33.767  22.732  1.00  0.00     0.000 C 
BRANCH   3   4
ATOM      4  C   UNL     1     -44.782 -33.450  23.916  1.00  0.00     0.000 C 
BRANCH   4   5
ATOM      5  C   UNL     1     -43.349 -33.090  23.487  1.00  0.00     0.000 C 
BRANCH   5   6
ATOM      6  C   UNL     1     -42.562 -32.359  24.583  1.00  0.00     0.006 C 
BRANCH   6   7
ATOM      7  C   UNL     1     -43.254 -32.500  25.942  1.00  0.00     0.053 C 
BRANCH   7   8
ATOM      8  C   UNL     1     -42.412 -33.311  26.877  1.00  0.00     0.041 C 
ATOM      9  O   UNL     1     -42.922 -34.261  27.526  1.00  0.00    -0.550 OA
ATOM     10  O   UNL     1     -41.053 -33.050  26.992  1.00  0.00    -0.550 OA
ENDBRANCH   7   8
ENDBRANCH   6   7
ENDBRANCH   5   6
ENDBRANCH   4   5
ENDBRANCH   3   4
ENDBRANCH   2   3
ENDBRANCH   1   2
BRANCH   1  11
ATOM     11  C   UNL     1     -44.898 -37.105  20.843  1.00  0.00     0.000 C 
BRANCH  11  12
ATOM     12  C   UNL     1     -44.001 -36.486  19.757  1.00  0.00     0.000 C 
BRANCH  12  13
ATOM     13  C   UNL     1     -44.671 -36.511  18.366  1.00  0.00     0.000 C 
BRANCH  13  14
ATOM     14  C   UNL     1     -45.268 -37.878  17.991  1.00  0.00     0.000 C 
BRANCH  14  15
ATOM     15  C   UNL     1     -45.744 -37.941  16.530  1.00  0.00     0.000 C 
BRANCH  15  16
ATOM     16  C   UNL     1     -44.919 -37.036  15.597  1.00  0.00     0.006 C 
BRANCH  16  17
ATOM     17  C   UNL     1     -45.614 -36.700  14.267  1.00  0.00     0.053 C 
BRANCH  17  18
ATOM     18  C   UNL     1     -44.731 -36.976  13.089  1.00  0.00     0.041 C 
ATOM     19  O   UNL     1     -44.314 -38.144  12.868  1.00  0.00    -0.550 OA
ATOM     20  O   UNL     1     -44.393 -35.949  12.218  1.00  0.00    -0.550 OA
ENDBRANCH  17  18
ENDBRANCH  16  17
ENDBRANCH  15  16
ENDBRANCH  14  15
ENDBRANCH  13  14
ENDBRANCH  12  13
ENDBRANCH  11  12
ENDBRANCH   1  11
TORSDOF 15
ENDMDL
