MODEL 1
REMARK VINA RESULT:    -3.118      0.000      0.000
REMARK INTER + INTRA:          -4.029
REMARK INTER:                  -4.576
REMARK INTRA:                   0.548
REMARK UNBOUND:                 0.548
REMARK SMILES C=C1CC=CC(C)(C)CC=C(C)CCC1
REMARK SMILES IDX 2 1 1 2 15 3 14 4 13 5 11 6 12 7 10 8 3 10 4 11 5 12 6 13
REMARK SMILES IDX 7 14 8 15 9 16
REMARK H PARENT
REMARK Flexibility Score: 60.00
ROOT
ATOM      1  C   UNL     1      56.412  27.495  26.554  1.00  0.00    -0.074 C 
ATOM      2  C   UNL     1      57.328  26.945  25.738  1.00  0.00     0.008 C 
ENDROOT
BRANCH   1   3
ATOM      3  C   UNL     1      56.781  28.739  27.348  1.00  0.00     0.031 C 
BRANCH   3   4
ATOM      4  C   UNL     1      56.607  30.045  26.540  1.00  0.00     0.009 C 
BRANCH   4   5
ATOM      5  C   UNL     1      55.131  30.499  26.496  1.00  0.00     0.030 C 
BRANCH   5   6
ATOM      6  C   UNL     1      54.478  30.375  25.127  1.00  0.00    -0.077 C 
ATOM      7  C   UNL     1      55.318  30.606  23.897  1.00  0.00     0.039 C 
ATOM      8  C   UNL     1      53.196  29.965  24.955  1.00  0.00    -0.027 CG0
ATOM      9  G   UNL     1      52.197  29.774  26.072  1.00  0.00     0.000 G0
ENDBRANCH   5   6
ENDBRANCH   4   5
ENDBRANCH   3   4
ENDBRANCH   1   3
BRANCH   1  10
ATOM     10  C   UNL     1      54.986  26.963  26.599  1.00  0.00     0.057 C 
BRANCH  10  11
ATOM     11  C   UNL     1      54.133  27.471  27.754  1.00  0.00    -0.026 C 
ATOM     12  C   UNL     1      52.882  28.007  27.746  1.00  0.00    -0.024 C 
BRANCH  12  13
ATOM     13  C   UNL     1      51.958  28.326  26.560  1.00  0.00    -0.014 C 
ATOM     14  C   UNL     1      52.115  27.259  25.451  1.00  0.00     0.016 C 
ATOM     15  C   UNL     1      50.494  28.231  27.055  1.00  0.00     0.016 C 
BRANCH  13  16
ATOM     16  C   UNL     1      52.202  29.789  26.090  1.00  0.00     0.038 CG0
ATOM     17  G   UNL     1      53.194  29.978  24.967  1.00  0.00     0.000 G0
ENDBRANCH  13  16
ENDBRANCH  12  13
ENDBRANCH  10  11
ENDBRANCH   1  10
TORSDOF 0
ENDMDL
MODEL 2
REMARK VINA RESULT:    -2.749      3.931      6.401
REMARK INTER + INTRA:          -3.487
REMARK INTER:                  -3.891
REMARK INTRA:                   0.404
REMARK UNBOUND:                 0.548
REMARK SMILES C=C1CC=CC(C)(C)CC=C(C)CCC1
REMARK SMILES IDX 2 1 1 2 15 3 14 4 13 5 11 6 12 7 10 8 3 10 4 11 5 12 6 13
REMARK SMILES IDX 7 14 8 15 9 16
REMARK H PARENT
REMARK Flexibility Score: 60.00
ROOT
ATOM      1  C   UNL     1      50.924  33.855  28.069  1.00  0.00    -0.074 C 
ATOM      2  C   UNL     1      51.898  34.781  28.113  1.00  0.00     0.008 C 
ENDROOT
BRANCH   1   3
ATOM      3  C   UNL     1      49.833  33.879  29.129  1.00  0.00     0.031 C 
BRANCH   3   4
ATOM      4  C   UNL     1      50.341  33.467  30.529  1.00  0.00     0.009 C 
BRANCH   4   5
ATOM      5  C   UNL     1      50.480  31.934  30.661  1.00  0.00     0.030 C 
BRANCH   5   6
ATOM      6  C   UNL     1      49.275  31.151  30.160  1.00  0.00    -0.077 C 
ATOM      7  C   UNL     1      47.900  31.558  30.621  1.00  0.00     0.039 C 
ATOM      8  C   UNL     1      49.370  30.164  29.234  1.00  0.00    -0.027 CG0
ATOM      9  G   UNL     1      50.669  29.577  28.732  1.00  0.00     0.000 G0
ENDBRANCH   5   6
ENDBRANCH   4   5
ENDBRANCH   3   4
ENDBRANCH   1   3
BRANCH   1  10
ATOM     10  C   UNL     1      50.835  32.869  26.913  1.00  0.00     0.057 C 
BRANCH  10  11
ATOM     11  C   UNL     1      52.014  31.914  26.774  1.00  0.00    -0.026 C 
ATOM     12  C   UNL     1      52.054  30.558  26.870  1.00  0.00    -0.024 C 
BRANCH  12  13
ATOM     13  C   UNL     1      50.933  29.564  27.210  1.00  0.00    -0.014 C 
ATOM     14  C   UNL     1      49.683  29.841  26.343  1.00  0.00     0.016 C 
ATOM     15  C   UNL     1      51.422  28.143  26.832  1.00  0.00     0.016 C 
BRANCH  13  16
ATOM     16  C   UNL     1      50.673  29.579  28.744  1.00  0.00     0.038 CG0
ATOM     17  G   UNL     1      49.356  30.164  29.197  1.00  0.00     0.000 G0
ENDBRANCH  13  16
ENDBRANCH  12  13
ENDBRANCH  10  11
ENDBRANCH   1  10
TORSDOF 0
ENDMDL
MODEL 3
REMARK VINA RESULT:    -2.594      4.587      6.865
REMARK INTER + INTRA:          -3.260
REMARK INTER:                  -3.723
REMARK INTRA:                   0.463
REMARK UNBOUND:                 0.548
REMARK SMILES C=C1CC=CC(C)(C)CC=C(C)CCC1
REMARK SMILES IDX 2 1 1 2 15 3 14 4 13 5 11 6 12 7 10 8 3 10 4 11 5 12 6 13
REMARK SMILES IDX 7 14 8 15 9 16
REMARK H PARENT
REMARK Flexibility Score: 60.00
ROOT
ATOM      1  C   UNL     1      50.283  33.711  29.432  1.00  0.00    -0.074 C 
ATOM      2  C   UNL     1      50.974  34.114  30.512  1.00  0.00     0.008 C 
ENDROOT
BRANCH   1   3
ATOM      3  C   UNL     1      48.905  33.097  29.622  1.00  0.00     0.031 C 
BRANCH   3   4
ATOM      4  C   UNL     1      48.925  31.831  30.510  1.00  0.00     0.009 C 
BRANCH   4   5
ATOM      5  C   UNL     1      49.865  30.746  29.940  1.00  0.00     0.030 C 
BRANCH   5   6
ATOM      6  C   UNL     1      49.244  29.893  28.844  1.00  0.00    -0.077 C 
ATOM      7  C   UNL     1      48.188  28.885  29.216  1.00  0.00     0.039 C 
ATOM      8  C   UNL     1      49.523  30.066  27.527  1.00  0.00    -0.027 CG0
ATOM      9  G   UNL     1      50.611  30.967  26.989  1.00  0.00     0.000 G0
ENDBRANCH   5   6
ENDBRANCH   4   5
ENDBRANCH   3   4
ENDBRANCH   1   3
BRANCH   1  10
ATOM     10  C   UNL     1      50.809  33.972  28.027  1.00  0.00     0.057 C 
BRANCH  10  11
ATOM     11  C   UNL     1      49.763  33.938  26.919  1.00  0.00    -0.026 C 
ATOM     12  C   UNL     1      49.541  33.001  25.958  1.00  0.00    -0.024 C 
BRANCH  12  13
ATOM     13  C   UNL     1      50.314  31.711  25.646  1.00  0.00    -0.014 C 
ATOM     14  C   UNL     1      49.557  30.868  24.593  1.00  0.00     0.016 C 
ATOM     15  C   UNL     1      51.666  32.106  25.002  1.00  0.00     0.016 C 
BRANCH  13  16
ATOM     16  C   UNL     1      50.627  30.959  26.973  1.00  0.00     0.038 CG0
ATOM     17  G   UNL     1      49.534  30.069  27.515  1.00  0.00     0.000 G0
ENDBRANCH  13  16
ENDBRANCH  12  13
ENDBRANCH  10  11
ENDBRANCH   1  10
TORSDOF 0
ENDMDL
MODEL 4
REMARK VINA RESULT:    -2.532      4.113      6.167
REMARK INTER + INTRA:          -3.169
REMARK INTER:                  -3.613
REMARK INTRA:                   0.444
REMARK UNBOUND:                 0.548
REMARK SMILES C=C1CC=CC(C)(C)CC=C(C)CCC1
REMARK SMILES IDX 2 1 1 2 15 3 14 4 13 5 11 6 12 7 10 8 3 10 4 11 5 12 6 13
REMARK SMILES IDX 7 14 8 15 9 16
REMARK H PARENT
REMARK Flexibility Score: 60.00
ROOT
ATOM      1  C   UNL     1      49.660  31.355  30.404  1.00  0.00    -0.074 C 
ATOM      2  C   UNL     1      48.562  31.284  31.177  1.00  0.00     0.008 C 
ENDROOT
BRANCH   1   3
ATOM      3  C   UNL     1      50.605  32.536  30.569  1.00  0.00     0.031 C 
BRANCH   3   4
ATOM      4  C   UNL     1      49.953  33.888  30.202  1.00  0.00     0.009 C 
BRANCH   4   5
ATOM      5  C   UNL     1      49.765  34.038  28.676  1.00  0.00     0.030 C 
BRANCH   5   6
ATOM      6  C   UNL     1      51.065  34.093  27.887  1.00  0.00    -0.077 C 
ATOM      7  C   UNL     1      52.178  34.981  28.379  1.00  0.00     0.039 C 
ATOM      8  C   UNL     1      51.311  33.300  26.813  1.00  0.00    -0.027 CG0
ATOM      9  G   UNL     1      50.283  32.420  26.141  1.00  0.00     0.000 G0
ENDBRANCH   5   6
ENDBRANCH   4   5
ENDBRANCH   3   4
ENDBRANCH   1   3
BRANCH   1  10
ATOM     10  C   UNL     1      50.026  30.217  29.461  1.00  0.00     0.057 C 
BRANCH  10  11
ATOM     11  C   UNL     1      49.083  30.012  28.283  1.00  0.00    -0.026 C 
ATOM     12  C   UNL     1      49.273  30.260  26.959  1.00  0.00    -0.024 C 
BRANCH  12  13
ATOM     13  C   UNL     1      50.479  30.883  26.240  1.00  0.00    -0.014 C 
ATOM     14  C   UNL     1      51.798  30.450  26.922  1.00  0.00     0.016 C 
ATOM     15  C   UNL     1      50.524  30.315  24.800  1.00  0.00     0.016 C 
BRANCH  13  16
ATOM     16  C   UNL     1      50.281  32.423  26.132  1.00  0.00     0.038 CG0
ATOM     17  G   UNL     1      51.314  33.283  26.821  1.00  0.00     0.000 G0
ENDBRANCH  13  16
ENDBRANCH  12  13
ENDBRANCH  10  11
ENDBRANCH   1  10
TORSDOF 0
ENDMDL
MODEL 5
REMARK VINA RESULT:    -2.503      3.986      6.198
REMARK INTER + INTRA:          -3.125
REMARK INTER:                  -3.309
REMARK INTRA:                   0.184
REMARK UNBOUND:                 0.548
REMARK SMILES C=C1CC=CC(C)(C)CC=C(C)CCC1
REMARK SMILES IDX 2 1 1 2 15 3 14 4 13 5 11 6 12 7 10 8 3 10 4 11 5 12 6 13
REMARK SMILES IDX 7 14 8 15 9 16
REMARK H PARENT
REMARK Flexibility Score: 60.00
ROOT
ATOM      1  C   UNL     1      52.243  32.455  26.391  1.00  0.00    -0.074 C 
ATOM      2  C   UNL     1      53.461  31.888  26.336  1.00  0.00     0.008 C 
ENDROOT
BRANCH   1   3
ATOM      3  C   UNL     1      51.130  31.902  25.513  1.00  0.00     0.031 C 
BRANCH   3   4
ATOM      4  C   UNL     1      50.991  30.366  25.610  1.00  0.00     0.009 C 
BRANCH   4   5
ATOM      5  C   UNL     1      49.901  29.952  26.623  1.00  0.00     0.030 C 
BRANCH   5   6
ATOM      6  C   UNL     1      50.403  29.783  28.049  1.00  0.00    -0.077 C 
ATOM      7  C   UNL     1      51.441  28.728  28.335  1.00  0.00     0.039 C 
ATOM      8  C   UNL     1      50.037  30.607  29.063  1.00  0.00    -0.027 CG0
ATOM      9  G   UNL     1      48.952  31.654  28.971  1.00  0.00     0.000 G0
ENDBRANCH   5   6
ENDBRANCH   4   5
ENDBRANCH   3   4
ENDBRANCH   1   3
BRANCH   1  10
ATOM     10  C   UNL     1      51.937  33.553  27.400  1.00  0.00     0.057 C 
BRANCH  10  11
ATOM     11  C   UNL     1      50.536  34.145  27.320  1.00  0.00    -0.026 C 
ATOM     12  C   UNL     1      49.472  33.986  28.152  1.00  0.00    -0.024 C 
BRANCH  12  13
ATOM     13  C   UNL     1      49.328  33.108  29.405  1.00  0.00    -0.014 C 
ATOM     14  C   UNL     1      50.597  33.207  30.283  1.00  0.00     0.016 C 
ATOM     15  C   UNL     1      48.163  33.673  30.255  1.00  0.00     0.016 C 
BRANCH  13  16
ATOM     16  C   UNL     1      48.945  31.660  28.984  1.00  0.00     0.038 CG0
ATOM     17  G   UNL     1      50.041  30.624  29.064  1.00  0.00     0.000 G0
ENDBRANCH  13  16
ENDBRANCH  12  13
ENDBRANCH  10  11
ENDBRANCH   1  10
TORSDOF 0
ENDMDL
MODEL 6
REMARK VINA RESULT:    -2.500      4.565      6.177
REMARK INTER + INTRA:          -3.122
REMARK INTER:                  -3.715
REMARK INTRA:                   0.593
REMARK UNBOUND:                 0.548
REMARK SMILES C=C1CC=CC(C)(C)CC=C(C)CCC1
REMARK SMILES IDX 2 1 1 2 15 3 14 4 13 5 11 6 12 7 10 8 3 10 4 11 5 12 6 13
REMARK SMILES IDX 7 14 8 15 9 16
REMARK H PARENT
REMARK Flexibility Score: 60.00
ROOT
ATOM      1  C   UNL     1      50.114  33.560  29.809  1.00  0.00    -0.074 C 
ATOM      2  C   UNL     1      48.849  34.013  29.775  1.00  0.00     0.008 C 
ENDROOT
BRANCH   1   3
ATOM      3  C   UNL     1      51.208  34.367  29.126  1.00  0.00     0.031 C 
BRANCH   3   4
ATOM      4  C   UNL     1      51.583  33.819  27.731  1.00  0.00     0.009 C 
BRANCH   4   5
ATOM      5  C   UNL     1      50.330  33.498  26.885  1.00  0.00     0.030 C 
BRANCH   5   6
ATOM      6  C   UNL     1      50.401  32.174  26.138  1.00  0.00    -0.077 C 
ATOM      7  C   UNL     1      51.245  32.085  24.893  1.00  0.00     0.039 C 
ATOM      8  C   UNL     1      49.820  31.037  26.596  1.00  0.00    -0.027 CG0
ATOM      9  G   UNL     1      48.876  30.967  27.774  1.00  0.00     0.000 G0
ENDBRANCH   5   6
ENDBRANCH   4   5
ENDBRANCH   3   4
ENDBRANCH   1   3
BRANCH   1  10
ATOM     10  C   UNL     1      50.479  32.323  30.618  1.00  0.00     0.057 C 
BRANCH  10  11
ATOM     11  C   UNL     1      49.320  31.391  30.950  1.00  0.00    -0.026 C 
ATOM     12  C   UNL     1      48.798  30.358  30.235  1.00  0.00    -0.024 C 
BRANCH  12  13
ATOM     13  C   UNL     1      49.173  29.842  28.838  1.00  0.00    -0.014 C 
ATOM     14  C   UNL     1      50.630  29.324  28.826  1.00  0.00     0.016 C 
ATOM     15  C   UNL     1      48.273  28.623  28.519  1.00  0.00     0.016 C 
BRANCH  13  16
ATOM     16  C   UNL     1      48.869  30.941  27.779  1.00  0.00     0.038 CG0
ATOM     17  G   UNL     1      49.817  31.026  26.606  1.00  0.00     0.000 G0
ENDBRANCH  13  16
ENDBRANCH  12  13
ENDBRANCH  10  11
ENDBRANCH   1  10
TORSDOF 0
ENDMDL
MODEL 7
REMARK VINA RESULT:    -2.496      1.489      4.001
REMARK INTER + INTRA:          -3.116
REMARK INTER:                  -3.642
REMARK INTRA:                   0.526
REMARK UNBOUND:                 0.548
REMARK SMILES C=C1CC=CC(C)(C)CC=C(C)CCC1
REMARK SMILES IDX 2 1 1 2 15 3 14 4 13 5 11 6 12 7 10 8 3 10 4 11 5 12 6 13
REMARK SMILES IDX 7 14 8 15 9 16
REMARK H PARENT
REMARK Flexibility Score: 60.00
ROOT
ATOM      1  C   UNL     1      52.497  27.554  25.144  1.00  0.00    -0.074 C 
ATOM      2  C   UNL     1      51.311  27.336  25.738  1.00  0.00     0.008 C 
ENDROOT
BRANCH   1   3
ATOM      3  C   UNL     1      52.574  28.532  23.981  1.00  0.00     0.031 C 
BRANCH   3   4
ATOM      4  C   UNL     1      51.880  29.880  24.279  1.00  0.00     0.009 C 
BRANCH   4   5
ATOM      5  C   UNL     1      52.882  31.056  24.267  1.00  0.00     0.030 C 
BRANCH   5   6
ATOM      6  C   UNL     1      53.307  31.532  25.648  1.00  0.00    -0.077 C 
ATOM      7  C   UNL     1      52.502  32.610  26.326  1.00  0.00     0.039 C 
ATOM      8  C   UNL     1      54.319  30.959  26.347  1.00  0.00    -0.027 CG0
ATOM      9  G   UNL     1      55.276  29.931  25.789  1.00  0.00     0.000 G0
ENDBRANCH   5   6
ENDBRANCH   4   5
ENDBRANCH   3   4
ENDBRANCH   1   3
BRANCH   1  10
ATOM     10  C   UNL     1      53.772  26.932  25.697  1.00  0.00     0.057 C 
BRANCH  10  11
ATOM     11  C   UNL     1      54.105  27.291  27.140  1.00  0.00    -0.026 C 
ATOM     12  C   UNL     1      55.009  28.179  27.632  1.00  0.00    -0.024 C 
BRANCH  12  13
ATOM     13  C   UNL     1      56.027  29.058  26.889  1.00  0.00    -0.014 C 
ATOM     14  C   UNL     1      56.874  29.873  27.894  1.00  0.00     0.016 C 
ATOM     15  C   UNL     1      57.012  28.125  26.143  1.00  0.00     0.016 C 
BRANCH  13  16
ATOM     16  C   UNL     1      55.290  29.916  25.819  1.00  0.00     0.038 CG0
ATOM     17  G   UNL     1      54.321  30.952  26.339  1.00  0.00     0.000 G0
ENDBRANCH  13  16
ENDBRANCH  12  13
ENDBRANCH  10  11
ENDBRANCH   1  10
TORSDOF 0
ENDMDL
MODEL 8
REMARK VINA RESULT:    -2.461      1.667      4.636
REMARK INTER + INTRA:          -3.064
REMARK INTER:                  -3.436
REMARK INTRA:                   0.372
REMARK UNBOUND:                 0.548
REMARK SMILES C=C1CC=CC(C)(C)CC=C(C)CCC1
REMARK SMILES IDX 2 1 1 2 15 3 14 4 13 5 11 6 12 7 10 8 3 10 4 11 5 12 6 13
REMARK SMILES IDX 7 14 8 15 9 16
REMARK H PARENT
REMARK Flexibility Score: 60.00
ROOT
ATOM      1  C   UNL     1      53.408  31.243  25.878  1.00  0.00    -0.074 C 
ATOM      2  C   UNL     1      53.472  32.431  26.504  1.00  0.00     0.008 C 
ENDROOT
BRANCH   1   3
ATOM      3  C   UNL     1      52.058  30.560  25.722  1.00  0.00     0.031 C 
BRANCH   3   4
ATOM      4  C   UNL     1      51.581  29.860  27.015  1.00  0.00     0.009 C 
BRANCH   4   5
ATOM      5  C   UNL     1      52.571  28.766  27.472  1.00  0.00     0.030 C 
BRANCH   5   6
ATOM      6  C   UNL     1      52.623  27.549  26.561  1.00  0.00    -0.077 C 
ATOM      7  C   UNL     1      51.354  27.080  25.898  1.00  0.00     0.039 C 
ATOM      8  C   UNL     1      53.781  26.922  26.233  1.00  0.00    -0.027 CG0
ATOM      9  G   UNL     1      55.123  27.206  26.867  1.00  0.00     0.000 G0
ENDBRANCH   5   6
ENDBRANCH   4   5
ENDBRANCH   3   4
ENDBRANCH   1   3
BRANCH   1  10
ATOM     10  C   UNL     1      54.643  30.638  25.223  1.00  0.00     0.057 C 
BRANCH  10  11
ATOM     11  C   UNL     1      55.829  30.407  26.151  1.00  0.00    -0.026 C 
ATOM     12  C   UNL     1      56.498  29.258  26.442  1.00  0.00    -0.024 C 
BRANCH  12  13
ATOM     13  C   UNL     1      56.228  27.820  25.975  1.00  0.00    -0.014 C 
ATOM     14  C   UNL     1      55.918  27.792  24.461  1.00  0.00     0.016 C 
ATOM     15  C   UNL     1      57.529  27.001  26.171  1.00  0.00     0.016 C 
BRANCH  13  16
ATOM     16  C   UNL     1      55.130  27.179  26.873  1.00  0.00     0.038 CG0
ATOM     17  G   UNL     1      53.785  26.944  26.225  1.00  0.00     0.000 G0
ENDBRANCH  13  16
ENDBRANCH  12  13
ENDBRANCH  10  11
ENDBRANCH   1  10
TORSDOF 0
ENDMDL
MODEL 9
REMARK VINA RESULT:    -2.414      4.018      6.217
REMARK INTER + INTRA:          -2.995
REMARK INTER:                  -3.415
REMARK INTRA:                   0.420
REMARK UNBOUND:                 0.548
REMARK SMILES C=C1CC=CC(C)(C)CC=C(C)CCC1
REMARK SMILES IDX 2 1 1 2 15 3 14 4 13 5 11 6 12 7 10 8 3 10 4 11 5 12 6 13
REMARK SMILES IDX 7 14 8 15 9 16
REMARK H PARENT
REMARK Flexibility Score: 60.00
ROOT
ATOM      1  C   UNL     1      48.823  28.831  28.770  1.00  0.00    -0.074 C 
ATOM      2  C   UNL     1      48.057  27.750  28.542  1.00  0.00     0.008 C 
ENDROOT
BRANCH   1   3
ATOM      3  C   UNL     1      50.296  28.786  28.391  1.00  0.00     0.031 C 
BRANCH   3   4
ATOM      4  C   UNL     1      50.533  28.939  26.871  1.00  0.00     0.009 C 
BRANCH   4   5
ATOM      5  C   UNL     1      51.447  30.142  26.551  1.00  0.00     0.030 C 
BRANCH   5   6
ATOM      6  C   UNL     1      50.702  31.439  26.275  1.00  0.00    -0.077 C 
ATOM      7  C   UNL     1      50.192  31.704  24.883  1.00  0.00     0.039 C 
ATOM      8  C   UNL     1      50.383  32.329  27.250  1.00  0.00    -0.027 CG0
ATOM      9  G   UNL     1      50.885  32.261  28.673  1.00  0.00     0.000 G0
ENDBRANCH   5   6
ENDBRANCH   4   5
ENDBRANCH   3   4
ENDBRANCH   1   3
BRANCH   1  10
ATOM     10  C   UNL     1      48.212  30.126  29.285  1.00  0.00     0.057 C 
BRANCH  10  11
ATOM     11  C   UNL     1      48.836  30.685  30.558  1.00  0.00    -0.026 C 
ATOM     12  C   UNL     1      49.525  31.840  30.758  1.00  0.00    -0.024 C 
BRANCH  12  13
ATOM     13  C   UNL     1      49.946  32.919  29.749  1.00  0.00    -0.014 C 
ATOM     14  C   UNL     1      48.704  33.646  29.184  1.00  0.00     0.016 C 
ATOM     15  C   UNL     1      50.771  33.989  30.507  1.00  0.00     0.016 C 
BRANCH  13  16
ATOM     16  C   UNL     1      50.873  32.289  28.669  1.00  0.00     0.038 CG0
ATOM     17  G   UNL     1      50.372  32.332  27.245  1.00  0.00     0.000 G0
ENDBRANCH  13  16
ENDBRANCH  12  13
ENDBRANCH  10  11
ENDBRANCH   1  10
TORSDOF 0
ENDMDL
