MODEL 1
REMARK VINA RESULT:    -3.425      0.000      0.000
REMARK INTER + INTRA:          -5.037
REMARK INTER:                  -4.626
REMARK INTRA:                  -0.410
REMARK UNBOUND:                -0.410
REMARK SMILES [NH3+]CCCC[C@H]([NH3+])C(=O)[O-]
REMARK SMILES IDX 4 1 3 2 2 3 1 4 5 8 6 9 7 10 8 14 9 15 10 16
REMARK H PARENT 1 5 1 6 1 7 7 11 7 12 7 13
REMARK Flexibility Score: inf
ROOT
ATOM      1  C   UNL     1    -117.428 -99.094  32.689  1.00  0.00     0.012 C 
ENDROOT
BRANCH   1   2
ATOM      2  C   UNL     1    -117.372 -97.586  32.405  1.00  0.00     0.061 C 
BRANCH   2   3
ATOM      3  C   UNL     1    -116.007 -96.969  32.752  1.00  0.00     0.258 C 
BRANCH   3   4
ATOM      4  N   UNL     1    -116.113 -95.935  33.783  1.00  0.00    -0.358 N 
ATOM      5  H   UNL     1    -117.123 -95.715  33.939  1.00  0.00     0.344 HD
ATOM      6  H   UNL     1    -115.707 -96.275  34.683  1.00  0.00     0.344 HD
ATOM      7  H   UNL     1    -115.624 -95.062  33.476  1.00  0.00     0.344 HD
ENDBRANCH   3   4
ENDBRANCH   2   3
ENDBRANCH   1   2
BRANCH   1   8
ATOM      8  C   UNL     1    -116.280 -99.521  33.618  1.00  0.00     0.072 C 
BRANCH   8   9
ATOM      9  C   UNL     1    -116.752 -99.798  35.062  1.00  0.00     0.227 C 
BRANCH   9  10
ATOM     10  N   UNL     1    -118.192 -99.549  35.224  1.00  0.00    -0.350 N 
ATOM     11  H   UNL     1    -118.614 -99.292  34.302  1.00  0.00     0.345 HD
ATOM     12  H   UNL     1    -118.347 -98.745  35.873  1.00  0.00     0.345 HD
ATOM     13  H   UNL     1    -118.677-100.398  35.596  1.00  0.00     0.345 HD
ENDBRANCH   9  10
BRANCH   9  14
ATOM     14  C   UNL     1    -115.966 -98.946  36.023  1.00  0.00     0.099 C 
ATOM     15  O   UNL     1    -114.915 -98.362  35.646  1.00  0.00    -0.544 OA
ATOM     16  O   UNL     1    -116.387 -98.813  37.340  1.00  0.00    -0.544 OA
ENDBRANCH   9  14
ENDBRANCH   8   9
ENDBRANCH   1   8
TORSDOF 7
ENDMDL
MODEL 2
REMARK VINA RESULT:    -3.327      1.341      1.631
REMARK INTER + INTRA:          -4.904
REMARK INTER:                  -4.698
REMARK INTRA:                  -0.205
REMARK UNBOUND:                -0.410
REMARK SMILES [NH3+]CCCC[C@H]([NH3+])C(=O)[O-]
REMARK SMILES IDX 4 1 3 2 2 3 1 4 5 8 6 9 7 10 8 14 9 15 10 16
REMARK H PARENT 1 5 1 6 1 7 7 11 7 12 7 13
REMARK Flexibility Score: inf
ROOT
ATOM      1  C   UNL     1    -115.761 -97.347  33.800  1.00  0.00     0.012 C 
ENDROOT
BRANCH   1   2
ATOM      2  C   UNL     1    -116.636 -96.409  32.957  1.00  0.00     0.061 C 
BRANCH   2   3
ATOM      3  C   UNL     1    -117.556 -97.170  31.989  1.00  0.00     0.258 C 
BRANCH   3   4
ATOM      4  N   UNL     1    -118.973 -96.910  32.252  1.00  0.00    -0.358 N 
ATOM      5  H   UNL     1    -119.486 -97.821  32.275  1.00  0.00     0.344 HD
ATOM      6  H   UNL     1    -119.092 -96.443  33.180  1.00  0.00     0.344 HD
ATOM      7  H   UNL     1    -119.381 -96.314  31.496  1.00  0.00     0.344 HD
ENDBRANCH   3   4
ENDBRANCH   2   3
ENDBRANCH   1   2
BRANCH   1   8
ATOM      8  C   UNL     1    -116.068 -98.819  33.483  1.00  0.00     0.072 C 
BRANCH   8   9
ATOM      9  C   UNL     1    -116.674 -99.575  34.687  1.00  0.00     0.227 C 
BRANCH   9  10
ATOM     10  N   UNL     1    -118.092 -99.243  34.883  1.00  0.00    -0.350 N 
ATOM     11  H   UNL     1    -118.641-100.116  35.054  1.00  0.00     0.345 HD
ATOM     12  H   UNL     1    -118.479 -98.793  34.023  1.00  0.00     0.345 HD
ATOM     13  H   UNL     1    -118.214 -98.598  35.699  1.00  0.00     0.345 HD
ENDBRANCH   9  10
BRANCH   9  14
ATOM     14  C   UNL     1    -115.888 -99.256  35.931  1.00  0.00     0.099 C 
ATOM     15  O   UNL     1    -114.664 -99.546  36.005  1.00  0.00    -0.544 OA
ATOM     16  O   UNL     1    -116.515 -98.655  37.015  1.00  0.00    -0.544 OA
ENDBRANCH   9  14
ENDBRANCH   8   9
ENDBRANCH   1   8
TORSDOF 7
ENDMDL
MODEL 3
REMARK VINA RESULT:    -3.271      3.508      4.515
REMARK INTER + INTRA:          -4.828
REMARK INTER:                  -4.558
REMARK INTRA:                  -0.271
REMARK UNBOUND:                -0.410
REMARK SMILES [NH3+]CCCC[C@H]([NH3+])C(=O)[O-]
REMARK SMILES IDX 4 1 3 2 2 3 1 4 5 8 6 9 7 10 8 14 9 15 10 16
REMARK H PARENT 1 5 1 6 1 7 7 11 7 12 7 13
REMARK Flexibility Score: inf
ROOT
ATOM      1  C   UNL     1    -117.178 -99.566  32.782  1.00  0.00     0.012 C 
ENDROOT
BRANCH   1   2
ATOM      2  C   UNL     1    -115.738 -99.367  33.274  1.00  0.00     0.061 C 
BRANCH   2   3
ATOM      3  C   UNL     1    -115.646 -99.257  34.805  1.00  0.00     0.258 C 
BRANCH   3   4
ATOM      4  N   UNL     1    -115.196 -97.933  35.239  1.00  0.00    -0.358 N 
ATOM      5  H   UNL     1    -114.694 -98.027  36.151  1.00  0.00     0.344 HD
ATOM      6  H   UNL     1    -114.535 -97.525  34.540  1.00  0.00     0.344 HD
ATOM      7  H   UNL     1    -116.015 -97.295  35.372  1.00  0.00     0.344 HD
ENDBRANCH   3   4
ENDBRANCH   2   3
ENDBRANCH   1   2
BRANCH   1   8
ATOM      8  C   UNL     1    -117.981 -98.259  32.889  1.00  0.00     0.072 C 
BRANCH   8   9
ATOM      9  C   UNL     1    -117.354 -97.106  32.073  1.00  0.00     0.227 C 
BRANCH   9  10
ATOM     10  N   UNL     1    -117.018 -95.955  32.923  1.00  0.00    -0.350 N 
ATOM     11  H   UNL     1    -117.446 -95.085  32.529  1.00  0.00     0.345 HD
ATOM     12  H   UNL     1    -115.983 -95.813  32.943  1.00  0.00     0.345 HD
ATOM     13  H   UNL     1    -117.370 -96.097  33.898  1.00  0.00     0.345 HD
ENDBRANCH   9  10
BRANCH   9  14
ATOM     14  C   UNL     1    -118.301 -96.687  30.980  1.00  0.00     0.099 C 
ATOM     15  O   UNL     1    -118.537 -97.456  30.010  1.00  0.00    -0.544 OA
ATOM     16  O   UNL     1    -118.907 -95.438  31.027  1.00  0.00    -0.544 OA
ENDBRANCH   9  14
ENDBRANCH   8   9
ENDBRANCH   1   8
TORSDOF 7
ENDMDL
MODEL 4
REMARK VINA RESULT:    -3.266      7.911      9.588
REMARK INTER + INTRA:          -4.821
REMARK INTER:                  -4.746
REMARK INTRA:                  -0.075
REMARK UNBOUND:                -0.410
REMARK SMILES [NH3+]CCCC[C@H]([NH3+])C(=O)[O-]
REMARK SMILES IDX 4 1 3 2 2 3 1 4 5 8 6 9 7 10 8 14 9 15 10 16
REMARK H PARENT 1 5 1 6 1 7 7 11 7 12 7 13
REMARK Flexibility Score: inf
ROOT
ATOM      1  C   UNL     1    -118.148 -97.950  44.171  1.00  0.00     0.012 C 
ENDROOT
BRANCH   1   2
ATOM      2  C   UNL     1    -118.996 -97.033  45.064  1.00  0.00     0.061 C 
BRANCH   2   3
ATOM      3  C   UNL     1    -118.343 -96.771  46.431  1.00  0.00     0.258 C 
BRANCH   3   4
ATOM      4  N   UNL     1    -118.626 -95.423  46.930  1.00  0.00    -0.358 N 
ATOM      5  H   UNL     1    -118.628 -94.757  46.124  1.00  0.00     0.344 HD
ATOM      6  H   UNL     1    -119.567 -95.393  47.384  1.00  0.00     0.344 HD
ATOM      7  H   UNL     1    -117.890 -95.124  47.610  1.00  0.00     0.344 HD
ENDBRANCH   3   4
ENDBRANCH   2   3
ENDBRANCH   1   2
BRANCH   1   8
ATOM      8  C   UNL     1    -118.571 -97.828  42.698  1.00  0.00     0.072 C 
BRANCH   8   9
ATOM      9  C   UNL     1    -117.556 -98.476  41.731  1.00  0.00     0.227 C 
BRANCH   9  10
ATOM     10  N   UNL     1    -116.169 -98.246  42.159  1.00  0.00    -0.350 N 
ATOM     11  H   UNL     1    -115.520 -98.379  41.349  1.00  0.00     0.345 HD
ATOM     12  H   UNL     1    -115.899 -98.940  42.893  1.00  0.00     0.345 HD
ATOM     13  H   UNL     1    -116.051 -97.277  42.535  1.00  0.00     0.345 HD
ENDBRANCH   9  10
BRANCH   9  14
ATOM     14  C   UNL     1    -117.767 -97.937  40.341  1.00  0.00     0.099 C 
ATOM     15  O   UNL     1    -117.416 -98.610  39.335  1.00  0.00    -0.544 OA
ATOM     16  O   UNL     1    -118.335 -96.683  40.161  1.00  0.00    -0.544 OA
ENDBRANCH   9  14
ENDBRANCH   8   9
ENDBRANCH   1   8
TORSDOF 7
ENDMDL
MODEL 5
REMARK VINA RESULT:    -3.260      1.659      1.994
REMARK INTER + INTRA:          -4.814
REMARK INTER:                  -4.557
REMARK INTRA:                  -0.257
REMARK UNBOUND:                -0.410
REMARK SMILES [NH3+]CCCC[C@H]([NH3+])C(=O)[O-]
REMARK SMILES IDX 4 1 3 2 2 3 1 4 5 8 6 9 7 10 8 14 9 15 10 16
REMARK H PARENT 1 5 1 6 1 7 7 11 7 12 7 13
REMARK Flexibility Score: inf
ROOT
ATOM      1  C   UNL     1    -117.332 -99.396  32.451  1.00  0.00     0.012 C 
ENDROOT
BRANCH   1   2
ATOM      2  C   UNL     1    -118.421 -98.350  32.725  1.00  0.00     0.061 C 
BRANCH   2   3
ATOM      3  C   UNL     1    -118.597 -97.361  31.561  1.00  0.00     0.258 C 
BRANCH   3   4
ATOM      4  N   UNL     1    -118.101 -96.023  31.892  1.00  0.00    -0.358 N 
ATOM      5  H   UNL     1    -117.494 -95.685  31.111  1.00  0.00     0.344 HD
ATOM      6  H   UNL     1    -118.898 -95.356  32.001  1.00  0.00     0.344 HD
ATOM      7  H   UNL     1    -117.534 -96.051  32.770  1.00  0.00     0.344 HD
ENDBRANCH   3   4
ENDBRANCH   2   3
ENDBRANCH   1   2
BRANCH   1   8
ATOM      8  C   UNL     1    -116.013 -99.012  33.142  1.00  0.00     0.072 C 
BRANCH   8   9
ATOM      9  C   UNL     1    -116.224 -98.064  34.344  1.00  0.00     0.227 C 
BRANCH   9  10
ATOM     10  N   UNL     1    -115.517 -96.789  34.165  1.00  0.00    -0.350 N 
ATOM     11  H   UNL     1    -114.516 -96.968  33.918  1.00  0.00     0.345 HD
ATOM     12  H   UNL     1    -115.526 -96.244  35.056  1.00  0.00     0.345 HD
ATOM     13  H   UNL     1    -115.959 -96.222  33.404  1.00  0.00     0.345 HD
ENDBRANCH   9  10
BRANCH   9  14
ATOM     14  C   UNL     1    -115.764 -98.741  35.608  1.00  0.00     0.099 C 
ATOM     15  O   UNL     1    -114.680 -99.382  35.630  1.00  0.00    -0.544 OA
ATOM     16  O   UNL     1    -116.545 -98.677  36.755  1.00  0.00    -0.544 OA
ENDBRANCH   9  14
ENDBRANCH   8   9
ENDBRANCH   1   8
TORSDOF 7
ENDMDL
MODEL 6
REMARK VINA RESULT:    -3.248      3.541      4.411
REMARK INTER + INTRA:          -4.798
REMARK INTER:                  -4.653
REMARK INTRA:                  -0.145
REMARK UNBOUND:                -0.410
REMARK SMILES [NH3+]CCCC[C@H]([NH3+])C(=O)[O-]
REMARK SMILES IDX 4 1 3 2 2 3 1 4 5 8 6 9 7 10 8 14 9 15 10 16
REMARK H PARENT 1 5 1 6 1 7 7 11 7 12 7 13
REMARK Flexibility Score: inf
ROOT
ATOM      1  C   UNL     1    -115.854 -99.039  33.120  1.00  0.00     0.012 C 
ENDROOT
BRANCH   1   2
ATOM      2  C   UNL     1    -115.686 -98.069  34.298  1.00  0.00     0.061 C 
BRANCH   2   3
ATOM      3  C   UNL     1    -115.316 -98.787  35.606  1.00  0.00     0.258 C 
BRANCH   3   4
ATOM      4  N   UNL     1    -116.418 -98.782  36.571  1.00  0.00    -0.358 N 
ATOM      5  H   UNL     1    -116.036 -98.570  37.521  1.00  0.00     0.344 HD
ATOM      6  H   UNL     1    -117.115 -98.044  36.324  1.00  0.00     0.344 HD
ATOM      7  H   UNL     1    -116.883 -99.719  36.598  1.00  0.00     0.344 HD
ENDBRANCH   3   4
ENDBRANCH   2   3
ENDBRANCH   1   2
BRANCH   1   8
ATOM      8  C   UNL     1    -117.333 -99.163  32.717  1.00  0.00     0.072 C 
BRANCH   8   9
ATOM      9  C   UNL     1    -117.959 -97.807  32.323  1.00  0.00     0.227 C 
BRANCH   9  10
ATOM     10  N   UNL     1    -119.098 -97.461  33.185  1.00  0.00    -0.350 N 
ATOM     11  H   UNL     1    -119.159 -96.422  33.293  1.00  0.00     0.345 HD
ATOM     12  H   UNL     1    -118.966 -97.867  34.138  1.00  0.00     0.345 HD
ATOM     13  H   UNL     1    -119.995 -97.814  32.776  1.00  0.00     0.345 HD
ENDBRANCH   9  10
BRANCH   9  14
ATOM     14  C   UNL     1    -118.392 -97.850  30.881  1.00  0.00     0.099 C 
ATOM     15  O   UNL     1    -118.360 -96.807  30.174  1.00  0.00    -0.544 OA
ATOM     16  O   UNL     1    -118.847 -99.039  30.327  1.00  0.00    -0.544 OA
ENDBRANCH   9  14
ENDBRANCH   8   9
ENDBRANCH   1   8
TORSDOF 7
ENDMDL
MODEL 7
REMARK VINA RESULT:    -3.130      3.275      4.229
REMARK INTER + INTRA:          -4.638
REMARK INTER:                  -4.157
REMARK INTRA:                  -0.482
REMARK UNBOUND:                -0.410
REMARK SMILES [NH3+]CCCC[C@H]([NH3+])C(=O)[O-]
REMARK SMILES IDX 4 1 3 2 2 3 1 4 5 8 6 9 7 10 8 14 9 15 10 16
REMARK H PARENT 1 5 1 6 1 7 7 11 7 12 7 13
REMARK Flexibility Score: inf
ROOT
ATOM      1  C   UNL     1    -116.974-100.074  32.285  1.00  0.00     0.012 C 
ENDROOT
BRANCH   1   2
ATOM      2  C   UNL     1    -115.719 -99.522  32.976  1.00  0.00     0.061 C 
BRANCH   2   3
ATOM      3  C   UNL     1    -116.028 -98.877  34.337  1.00  0.00     0.258 C 
BRANCH   3   4
ATOM      4  N   UNL     1    -115.616 -97.473  34.390  1.00  0.00    -0.358 N 
ATOM      5  H   UNL     1    -115.880 -97.078  35.322  1.00  0.00     0.344 HD
ATOM      6  H   UNL     1    -114.580 -97.392  34.281  1.00  0.00     0.344 HD
ATOM      7  H   UNL     1    -116.099 -96.922  33.644  1.00  0.00     0.344 HD
ENDBRANCH   3   4
ENDBRANCH   2   3
ENDBRANCH   1   2
BRANCH   1   8
ATOM      8  C   UNL     1    -118.206 -99.217  32.616  1.00  0.00     0.072 C 
BRANCH   8   9
ATOM      9  C   UNL     1    -118.834 -98.568  31.362  1.00  0.00     0.227 C 
BRANCH   9  10
ATOM     10  N   UNL     1    -118.696 -99.423  30.175  1.00  0.00    -0.350 N 
ATOM     11  H   UNL     1    -118.359 -98.855  29.364  1.00  0.00     0.345 HD
ATOM     12  H   UNL     1    -119.623 -99.826  29.912  1.00  0.00     0.345 HD
ATOM     13  H   UNL     1    -118.017-100.199  30.353  1.00  0.00     0.345 HD
ENDBRANCH   9  10
BRANCH   9  14
ATOM     14  C   UNL     1    -118.196 -97.227  31.114  1.00  0.00     0.099 C 
ATOM     15  O   UNL     1    -118.260 -96.690  29.976  1.00  0.00    -0.544 OA
ATOM     16  O   UNL     1    -117.514 -96.582  32.137  1.00  0.00    -0.544 OA
ENDBRANCH   9  14
ENDBRANCH   8   9
ENDBRANCH   1   8
TORSDOF 7
ENDMDL
MODEL 8
REMARK VINA RESULT:    -3.029      2.347      3.819
REMARK INTER + INTRA:          -4.502
REMARK INTER:                  -4.232
REMARK INTRA:                  -0.270
REMARK UNBOUND:                -0.410
REMARK SMILES [NH3+]CCCC[C@H]([NH3+])C(=O)[O-]
REMARK SMILES IDX 4 1 3 2 2 3 1 4 5 8 6 9 7 10 8 14 9 15 10 16
REMARK H PARENT 1 5 1 6 1 7 7 11 7 12 7 13
REMARK Flexibility Score: inf
ROOT
ATOM      1  C   UNL     1    -115.709-100.125  34.222  1.00  0.00     0.012 C 
ENDROOT
BRANCH   1   2
ATOM      2  C   UNL     1    -115.090 -99.322  35.374  1.00  0.00     0.061 C 
BRANCH   2   3
ATOM      3  C   UNL     1    -116.134 -98.876  36.411  1.00  0.00     0.258 C 
BRANCH   3   4
ATOM      4  N   UNL     1    -117.268 -99.799  36.487  1.00  0.00    -0.358 N 
ATOM      5  H   UNL     1    -117.465-100.174  35.531  1.00  0.00     0.344 HD
ATOM      6  H   UNL     1    -117.042-100.603  37.115  1.00  0.00     0.344 HD
ATOM      7  H   UNL     1    -118.121 -99.302  36.834  1.00  0.00     0.344 HD
ENDBRANCH   3   4
ENDBRANCH   2   3
ENDBRANCH   1   2
BRANCH   1   8
ATOM      8  C   UNL     1    -115.819 -99.268  32.950  1.00  0.00     0.072 C 
BRANCH   8   9
ATOM      9  C   UNL     1    -117.165 -98.515  32.853  1.00  0.00     0.227 C 
BRANCH   9  10
ATOM     10  N   UNL     1    -117.982 -98.998  31.731  1.00  0.00    -0.350 N 
ATOM     11  H   UNL     1    -118.291 -99.981  31.913  1.00  0.00     0.345 HD
ATOM     12  H   UNL     1    -117.417 -99.006  30.852  1.00  0.00     0.345 HD
ATOM     13  H   UNL     1    -118.826 -98.394  31.598  1.00  0.00     0.345 HD
ENDBRANCH   9  10
BRANCH   9  14
ATOM     14  C   UNL     1    -116.909 -97.038  32.712  1.00  0.00     0.099 C 
ATOM     15  O   UNL     1    -117.617 -96.339  31.940  1.00  0.00    -0.544 OA
ATOM     16  O   UNL     1    -115.874 -96.441  33.420  1.00  0.00    -0.544 OA
ENDBRANCH   9  14
ENDBRANCH   8   9
ENDBRANCH   1   8
TORSDOF 7
ENDMDL
MODEL 9
REMARK VINA RESULT:    -3.000      7.666      9.287
REMARK INTER + INTRA:          -4.463
REMARK INTER:                  -4.254
REMARK INTRA:                  -0.209
REMARK UNBOUND:                -0.410
REMARK SMILES [NH3+]CCCC[C@H]([NH3+])C(=O)[O-]
REMARK SMILES IDX 4 1 3 2 2 3 1 4 5 8 6 9 7 10 8 14 9 15 10 16
REMARK H PARENT 1 5 1 6 1 7 7 11 7 12 7 13
REMARK Flexibility Score: inf
ROOT
ATOM      1  C   UNL     1    -116.579 -98.710  42.478  1.00  0.00     0.012 C 
ENDROOT
BRANCH   1   2
ATOM      2  C   UNL     1    -116.713 -99.877  41.489  1.00  0.00     0.061 C 
BRANCH   2   3
ATOM      3  C   UNL     1    -117.834 -99.655  40.461  1.00  0.00     0.258 C 
BRANCH   3   4
ATOM      4  N   UNL     1    -117.702 -98.372  39.766  1.00  0.00    -0.358 N 
ATOM      5  H   UNL     1    -117.292 -97.671  40.425  1.00  0.00     0.344 HD
ATOM      6  H   UNL     1    -117.061 -98.467  38.946  1.00  0.00     0.344 HD
ATOM      7  H   UNL     1    -118.639 -98.030  39.452  1.00  0.00     0.344 HD
ENDBRANCH   3   4
ENDBRANCH   2   3
ENDBRANCH   1   2
BRANCH   1   8
ATOM      8  C   UNL     1    -117.206 -99.065  43.836  1.00  0.00     0.072 C 
BRANCH   8   9
ATOM      9  C   UNL     1    -118.494 -98.262  44.125  1.00  0.00     0.227 C 
BRANCH   9  10
ATOM     10  N   UNL     1    -118.741 -97.236  43.103  1.00  0.00    -0.350 N 
ATOM     11  H   UNL     1    -117.847 -97.001  42.612  1.00  0.00     0.345 HD
ATOM     12  H   UNL     1    -119.092 -96.359  43.550  1.00  0.00     0.345 HD
ATOM     13  H   UNL     1    -119.438 -97.572  42.399  1.00  0.00     0.345 HD
ENDBRANCH   9  10
BRANCH   9  14
ATOM     14  C   UNL     1    -118.399 -97.627  45.487  1.00  0.00     0.099 C 
ATOM     15  O   UNL     1    -118.467 -96.376  45.614  1.00  0.00    -0.544 OA
ATOM     16  O   UNL     1    -118.215 -98.420  46.613  1.00  0.00    -0.544 OA
ENDBRANCH   9  14
ENDBRANCH   8   9
ENDBRANCH   1   8
TORSDOF 7
ENDMDL
