MODEL 1
REMARK VINA RESULT:    -5.205      0.000      0.000
REMARK INTER + INTRA:          -5.713
REMARK INTER:                  -5.662
REMARK INTRA:                  -0.051
REMARK UNBOUND:                -0.051
REMARK SMILES CCc1cccc(O)c1
REMARK SMILES IDX 3 1 9 2 7 3 6 4 5 5 4 6 2 7 1 8 8 9
REMARK H PARENT 8 10
REMARK Flexibility Score: inf
ROOT
ATOM      1  C   UNL     1     -10.330  -3.327  -9.967  1.00  0.00    -0.045 A 
ATOM      2  C   UNL     1     -10.615  -4.105 -11.101  1.00  0.00     0.049 A 
ATOM      3  C   UNL     1     -10.858  -3.493 -12.336  1.00  0.00     0.115 A 
ATOM      4  C   UNL     1     -10.825  -2.096 -12.440  1.00  0.00     0.046 A 
ATOM      5  C   UNL     1     -10.554  -1.316 -11.312  1.00  0.00     0.004 A 
ATOM      6  C   UNL     1     -10.311  -1.927 -10.078  1.00  0.00     0.004 A 
ENDROOT
BRANCH   1   7
ATOM      7  C   UNL     1     -10.102  -3.985  -8.633  1.00  0.00     0.032 C 
ATOM      8  C   UNL     1     -10.880  -5.294  -8.536  1.00  0.00     0.009 C 
ENDBRANCH   1   7
BRANCH   3   9
ATOM      9  O   UNL     1     -11.134  -4.281 -13.451  1.00  0.00    -0.508 OA
ATOM     10  H   UNL     1     -11.581  -3.896 -14.275  1.00  0.00     0.293 HD
ENDBRANCH   3   9
TORSDOF 2
ENDMDL
MODEL 2
REMARK VINA RESULT:    -5.008      1.172      3.043
REMARK INTER + INTRA:          -5.498
REMARK INTER:                  -5.447
REMARK INTRA:                  -0.051
REMARK UNBOUND:                -0.051
REMARK SMILES CCc1cccc(O)c1
REMARK SMILES IDX 3 1 9 2 7 3 6 4 5 5 4 6 2 7 1 8 8 9
REMARK H PARENT 8 10
REMARK Flexibility Score: inf
ROOT
ATOM      1  C   UNL     1      -9.938  -1.845 -10.888  1.00  0.00    -0.045 A 
ATOM      2  C   UNL     1     -10.333  -2.361 -12.134  1.00  0.00     0.049 A 
ATOM      3  C   UNL     1     -10.764  -3.688 -12.245  1.00  0.00     0.115 A 
ATOM      4  C   UNL     1     -10.793  -4.508 -11.110  1.00  0.00     0.046 A 
ATOM      5  C   UNL     1     -10.389  -4.004  -9.871  1.00  0.00     0.004 A 
ATOM      6  C   UNL     1      -9.959  -2.678  -9.759  1.00  0.00     0.004 A 
ENDROOT
BRANCH   1   7
ATOM      7  C   UNL     1      -9.444  -0.428 -10.777  1.00  0.00     0.032 C 
ATOM      8  C   UNL     1      -8.004  -0.317 -11.268  1.00  0.00     0.009 C 
ENDBRANCH   1   7
BRANCH   3   9
ATOM      9  O   UNL     1     -11.157  -4.181 -13.488  1.00  0.00    -0.508 OA
ATOM     10  H   UNL     1     -11.668  -5.051 -13.574  1.00  0.00     0.293 HD
ENDBRANCH   3   9
TORSDOF 2
ENDMDL
MODEL 3
REMARK VINA RESULT:    -4.987      2.491      4.199
REMARK INTER + INTRA:          -5.476
REMARK INTER:                  -5.421
REMARK INTRA:                  -0.055
REMARK UNBOUND:                -0.051
REMARK SMILES CCc1cccc(O)c1
REMARK SMILES IDX 3 1 9 2 7 3 6 4 5 5 4 6 2 7 1 8 8 9
REMARK H PARENT 8 10
REMARK Flexibility Score: inf
ROOT
ATOM      1  C   UNL     1     -10.448  -2.489 -10.388  1.00  0.00    -0.045 A 
ATOM      2  C   UNL     1      -9.392  -2.335  -9.474  1.00  0.00     0.049 A 
ATOM      3  C   UNL     1      -9.241  -3.233  -8.410  1.00  0.00     0.115 A 
ATOM      4  C   UNL     1     -10.152  -4.285  -8.252  1.00  0.00     0.046 A 
ATOM      5  C   UNL     1     -11.212  -4.435  -9.151  1.00  0.00     0.004 A 
ATOM      6  C   UNL     1     -11.363  -3.539 -10.214  1.00  0.00     0.004 A 
ENDROOT
BRANCH   1   7
ATOM      7  C   UNL     1     -10.627  -1.504 -11.512  1.00  0.00     0.032 C 
ATOM      8  C   UNL     1     -11.639  -0.428 -11.131  1.00  0.00     0.009 C 
ENDBRANCH   1   7
BRANCH   3   9
ATOM      9  O   UNL     1      -8.185  -3.067  -7.517  1.00  0.00    -0.508 OA
ATOM     10  H   UNL     1      -7.302  -3.547  -7.646  1.00  0.00     0.293 HD
ENDBRANCH   3   9
TORSDOF 2
ENDMDL
MODEL 4
REMARK VINA RESULT:    -4.967      1.938      2.367
REMARK INTER + INTRA:          -5.454
REMARK INTER:                  -5.403
REMARK INTRA:                  -0.052
REMARK UNBOUND:                -0.051
REMARK SMILES CCc1cccc(O)c1
REMARK SMILES IDX 3 1 9 2 7 3 6 4 5 5 4 6 2 7 1 8 8 9
REMARK H PARENT 8 10
REMARK Flexibility Score: inf
ROOT
ATOM      1  C   UNL     1     -10.049  -3.261 -10.457  1.00  0.00    -0.045 A 
ATOM      2  C   UNL     1     -11.085  -2.376 -10.801  1.00  0.00     0.049 A 
ATOM      3  C   UNL     1     -10.807  -1.029 -11.065  1.00  0.00     0.115 A 
ATOM      4  C   UNL     1      -9.490  -0.560 -10.976  1.00  0.00     0.046 A 
ATOM      5  C   UNL     1      -8.457  -1.432 -10.622  1.00  0.00     0.004 A 
ATOM      6  C   UNL     1      -8.734  -2.777 -10.358  1.00  0.00     0.004 A 
ENDROOT
BRANCH   1   7
ATOM      7  C   UNL     1     -10.354  -4.700 -10.142  1.00  0.00     0.032 C 
ATOM      8  C   UNL     1     -10.837  -4.848  -8.702  1.00  0.00     0.009 C 
ENDBRANCH   1   7
BRANCH   3   9
ATOM      9  O   UNL     1     -11.847  -0.169 -11.410  1.00  0.00    -0.508 OA
ATOM     10  H   UNL     1     -11.719   0.836 -11.423  1.00  0.00     0.293 HD
ENDBRANCH   3   9
TORSDOF 2
ENDMDL
MODEL 5
REMARK VINA RESULT:    -4.817      2.024      3.612
REMARK INTER + INTRA:          -5.291
REMARK INTER:                  -5.240
REMARK INTRA:                  -0.051
REMARK UNBOUND:                -0.051
REMARK SMILES CCc1cccc(O)c1
REMARK SMILES IDX 3 1 9 2 7 3 6 4 5 5 4 6 2 7 1 8 8 9
REMARK H PARENT 8 10
REMARK Flexibility Score: inf
ROOT
ATOM      1  C   UNL     1     -10.174  -2.792 -10.555  1.00  0.00    -0.045 A 
ATOM      2  C   UNL     1     -10.754  -3.956 -10.024  1.00  0.00     0.049 A 
ATOM      3  C   UNL     1     -10.430  -4.382  -8.731  1.00  0.00     0.115 A 
ATOM      4  C   UNL     1      -9.514  -3.648  -7.965  1.00  0.00     0.046 A 
ATOM      5  C   UNL     1      -8.924  -2.497  -8.493  1.00  0.00     0.004 A 
ATOM      6  C   UNL     1      -9.248  -2.071  -9.784  1.00  0.00     0.004 A 
ENDROOT
BRANCH   1   7
ATOM      7  C   UNL     1     -10.499  -2.354 -11.957  1.00  0.00     0.032 C 
ATOM      8  C   UNL     1     -10.904  -3.548 -12.816  1.00  0.00     0.009 C 
ENDBRANCH   1   7
BRANCH   3   9
ATOM      9  O   UNL     1     -11.020  -5.536  -8.219  1.00  0.00    -0.508 OA
ATOM     10  H   UNL     1     -10.463  -6.328  -7.922  1.00  0.00     0.293 HD
ENDBRANCH   3   9
TORSDOF 2
ENDMDL
MODEL 6
REMARK VINA RESULT:    -4.790      2.497      3.915
REMARK INTER + INTRA:          -5.262
REMARK INTER:                  -5.212
REMARK INTRA:                  -0.050
REMARK UNBOUND:                -0.051
REMARK SMILES CCc1cccc(O)c1
REMARK SMILES IDX 3 1 9 2 7 3 6 4 5 5 4 6 2 7 1 8 8 9
REMARK H PARENT 8 10
REMARK Flexibility Score: inf
ROOT
ATOM      1  C   UNL     1      -9.075  -2.009 -11.095  1.00  0.00    -0.045 A 
ATOM      2  C   UNL     1      -8.920  -2.472  -9.778  1.00  0.00     0.049 A 
ATOM      3  C   UNL     1      -9.838  -3.379  -9.234  1.00  0.00     0.115 A 
ATOM      4  C   UNL     1     -10.922  -3.819 -10.005  1.00  0.00     0.046 A 
ATOM      5  C   UNL     1     -11.089  -3.351 -11.311  1.00  0.00     0.004 A 
ATOM      6  C   UNL     1     -10.172  -2.446 -11.854  1.00  0.00     0.004 A 
ENDROOT
BRANCH   1   7
ATOM      7  C   UNL     1      -8.106  -1.009 -11.666  1.00  0.00     0.032 C 
ATOM      8  C   UNL     1      -8.030   0.234 -10.785  1.00  0.00     0.009 C 
ENDBRANCH   1   7
BRANCH   3   9
ATOM      9  O   UNL     1      -9.664  -3.833  -7.928  1.00  0.00    -0.508 OA
ATOM     10  H   UNL     1      -9.520  -4.814  -7.723  1.00  0.00     0.293 HD
ENDBRANCH   3   9
TORSDOF 2
ENDMDL
MODEL 7
REMARK VINA RESULT:    -4.759      2.396      2.871
REMARK INTER + INTRA:          -5.228
REMARK INTER:                  -5.181
REMARK INTRA:                  -0.046
REMARK UNBOUND:                -0.051
REMARK SMILES CCc1cccc(O)c1
REMARK SMILES IDX 3 1 9 2 7 3 6 4 5 5 4 6 2 7 1 8 8 9
REMARK H PARENT 8 10
REMARK Flexibility Score: inf
ROOT
ATOM      1  C   UNL     1     -10.085  -3.425 -10.304  1.00  0.00    -0.045 A 
ATOM      2  C   UNL     1      -9.117  -2.706  -9.583  1.00  0.00     0.049 A 
ATOM      3  C   UNL     1      -8.835  -1.374  -9.911  1.00  0.00     0.115 A 
ATOM      4  C   UNL     1      -9.516  -0.759 -10.970  1.00  0.00     0.046 A 
ATOM      5  C   UNL     1     -10.470  -1.473 -11.698  1.00  0.00     0.004 A 
ATOM      6  C   UNL     1     -10.752  -2.803 -11.371  1.00  0.00     0.004 A 
ENDROOT
BRANCH   1   7
ATOM      7  C   UNL     1     -10.362  -4.866  -9.971  1.00  0.00     0.032 C 
ATOM      8  C   UNL     1     -10.844  -5.005  -8.530  1.00  0.00     0.009 C 
ENDBRANCH   1   7
BRANCH   3   9
ATOM      9  O   UNL     1      -7.876  -0.675  -9.181  1.00  0.00    -0.508 OA
ATOM     10  H   UNL     1      -7.498  -1.042  -8.315  1.00  0.00     0.293 HD
ENDBRANCH   3   9
TORSDOF 2
ENDMDL
MODEL 8
REMARK VINA RESULT:    -4.602      1.841      2.859
REMARK INTER + INTRA:          -5.057
REMARK INTER:                  -4.986
REMARK INTRA:                  -0.071
REMARK UNBOUND:                -0.051
REMARK SMILES CCc1cccc(O)c1
REMARK SMILES IDX 3 1 9 2 7 3 6 4 5 5 4 6 2 7 1 8 8 9
REMARK H PARENT 8 10
REMARK Flexibility Score: inf
ROOT
ATOM      1  C   UNL     1      -9.267  -2.936  -8.685  1.00  0.00    -0.045 A 
ATOM      2  C   UNL     1      -9.520  -2.230  -9.874  1.00  0.00     0.049 A 
ATOM      3  C   UNL     1     -10.577  -2.607 -10.710  1.00  0.00     0.115 A 
ATOM      4  C   UNL     1     -11.383  -3.700 -10.363  1.00  0.00     0.046 A 
ATOM      5  C   UNL     1     -11.129  -4.414  -9.189  1.00  0.00     0.004 A 
ATOM      6  C   UNL     1     -10.072  -4.037  -8.354  1.00  0.00     0.004 A 
ENDROOT
BRANCH   1   7
ATOM      7  C   UNL     1      -8.110  -2.549  -7.805  1.00  0.00     0.032 C 
ATOM      8  C   UNL     1      -8.416  -2.856  -6.343  1.00  0.00     0.009 C 
ENDBRANCH   1   7
BRANCH   3   9
ATOM      9  O   UNL     1     -10.816  -1.892 -11.881  1.00  0.00    -0.508 OA
ATOM     10  H   UNL     1     -10.088  -1.747 -12.570  1.00  0.00     0.293 HD
ENDBRANCH   3   9
TORSDOF 2
ENDMDL
MODEL 9
REMARK VINA RESULT:    -4.366      2.780      3.771
REMARK INTER + INTRA:          -4.800
REMARK INTER:                  -4.725
REMARK INTRA:                  -0.075
REMARK UNBOUND:                -0.051
REMARK SMILES CCc1cccc(O)c1
REMARK SMILES IDX 3 1 9 2 7 3 6 4 5 5 4 6 2 7 1 8 8 9
REMARK H PARENT 8 10
REMARK Flexibility Score: inf
ROOT
ATOM      1  C   UNL     1      -9.909  -2.586 -10.775  1.00  0.00    -0.045 A 
ATOM      2  C   UNL     1      -9.411  -2.556  -9.462  1.00  0.00     0.049 A 
ATOM      3  C   UNL     1      -8.508  -1.560  -9.070  1.00  0.00     0.115 A 
ATOM      4  C   UNL     1      -8.094  -0.593  -9.995  1.00  0.00     0.046 A 
ATOM      5  C   UNL     1      -8.577  -0.625 -11.306  1.00  0.00     0.004 A 
ATOM      6  C   UNL     1      -9.477  -1.619 -11.698  1.00  0.00     0.004 A 
ENDROOT
BRANCH   1   7
ATOM      7  C   UNL     1     -10.853  -3.677 -11.203  1.00  0.00     0.032 C 
ATOM      8  C   UNL     1     -10.932  -3.757 -12.725  1.00  0.00     0.009 C 
ENDBRANCH   1   7
BRANCH   3   9
ATOM      9  O   UNL     1      -8.029  -1.543  -7.761  1.00  0.00    -0.508 OA
ATOM     10  H   UNL     1      -8.126  -2.347  -7.153  1.00  0.00     0.293 HD
ENDBRANCH   3   9
TORSDOF 2
ENDMDL
