MODEL 1
REMARK VINA RESULT:    -3.718      0.000      0.000
REMARK INTER + INTRA:          -6.750
REMARK INTER:                  -5.674
REMARK INTRA:                  -1.076
REMARK UNBOUND:                -1.076
REMARK SMILES CCCCCCCCCC=CC(=O)[O-]
REMARK SMILES IDX 7 1 8 2 9 3 10 4 11 5 12 6 13 7 14 8 6 9 5 10 4 11 3 12 2 13
REMARK SMILES IDX 1 14
REMARK H PARENT
REMARK Flexibility Score: inf
ROOT
ATOM      1  C   UNL     1      -4.957   5.608  -2.240  1.00  0.00     0.000 C 
ENDROOT
BRANCH   1   2
ATOM      2  C   UNL     1      -4.755   6.861  -3.101  1.00  0.00     0.004 C 
BRANCH   2   3
ATOM      3  C   UNL     1      -4.716   6.502  -4.593  1.00  0.00     0.027 C 
BRANCH   3   4
ATOM      4  C   UNL     1      -5.602   5.325  -4.894  1.00  0.00    -0.025 C 
ATOM      5  C   UNL     1      -5.688   4.680  -6.069  1.00  0.00     0.020 C 
BRANCH   5   6
ATOM      6  C   UNL     1      -4.903   4.965  -7.289  1.00  0.00     0.064 C 
ATOM      7  O   UNL     1      -5.128   6.029  -7.922  1.00  0.00    -0.545 OA
ATOM      8  O   UNL     1      -3.943   4.088  -7.777  1.00  0.00    -0.545 OA
ENDBRANCH   5   6
ENDBRANCH   3   4
ENDBRANCH   2   3
ENDBRANCH   1   2
BRANCH   1   9
ATOM      9  C   UNL     1      -4.754   5.926  -0.752  1.00  0.00     0.000 C 
BRANCH   9  10
ATOM     10  C   UNL     1      -3.294   6.272  -0.409  1.00  0.00     0.000 C 
BRANCH  10  11
ATOM     11  C   UNL     1      -2.283   5.126  -0.613  1.00  0.00    -0.000 C 
BRANCH  11  12
ATOM     12  C   UNL     1      -1.112   5.448  -1.557  1.00  0.00    -0.000 C 
BRANCH  12  13
ATOM     13  C   UNL     1      -1.174   6.876  -2.119  1.00  0.00    -0.003 C 
ATOM     14  C   UNL     1      -1.063   6.874  -3.640  1.00  0.00     0.004 C 
ENDBRANCH  12  13
ENDBRANCH  11  12
ENDBRANCH  10  11
ENDBRANCH   9  10
ENDBRANCH   1   9
TORSDOF 9
ENDMDL
MODEL 2
REMARK VINA RESULT:    -3.650      3.009      5.832
REMARK INTER + INTRA:          -6.646
REMARK INTER:                  -5.986
REMARK INTRA:                  -0.660
REMARK UNBOUND:                -1.076
REMARK SMILES CCCCCCCCCC=CC(=O)[O-]
REMARK SMILES IDX 7 1 8 2 9 3 10 4 11 5 12 6 13 7 14 8 6 9 5 10 4 11 3 12 2 13
REMARK SMILES IDX 1 14
REMARK H PARENT
REMARK Flexibility Score: inf
ROOT
ATOM      1  C   UNL     1      -4.847   5.615  -2.288  1.00  0.00     0.000 C 
ENDROOT
BRANCH   1   2
ATOM      2  C   UNL     1      -5.044   6.194  -0.882  1.00  0.00     0.004 C 
BRANCH   2   3
ATOM      3  C   UNL     1      -3.723   6.741  -0.323  1.00  0.00     0.027 C 
BRANCH   3   4
ATOM      4  C   UNL     1      -2.864   5.635   0.227  1.00  0.00    -0.025 C 
ATOM      5  C   UNL     1      -1.593   5.374  -0.121  1.00  0.00     0.020 C 
BRANCH   5   6
ATOM      6  C   UNL     1      -0.767   6.140  -1.077  1.00  0.00     0.064 C 
ATOM      7  O   UNL     1      -1.096   6.152  -2.292  1.00  0.00    -0.545 OA
ATOM      8  O   UNL     1       0.375   6.828  -0.689  1.00  0.00    -0.545 OA
ENDBRANCH   5   6
ENDBRANCH   3   4
ENDBRANCH   2   3
ENDBRANCH   1   2
BRANCH   1   9
ATOM      9  C   UNL     1      -5.037   6.698  -3.359  1.00  0.00     0.000 C 
BRANCH   9  10
ATOM     10  C   UNL     1      -3.962   6.645  -4.460  1.00  0.00     0.000 C 
BRANCH  10  11
ATOM     11  C   UNL     1      -4.480   6.278  -5.865  1.00  0.00    -0.000 C 
BRANCH  11  12
ATOM     12  C   UNL     1      -5.738   5.393  -5.886  1.00  0.00    -0.000 C 
BRANCH  12  13
ATOM     13  C   UNL     1      -5.507   4.045  -6.585  1.00  0.00    -0.003 C 
ATOM     14  C   UNL     1      -4.723   4.226  -7.881  1.00  0.00     0.004 C 
ENDBRANCH  12  13
ENDBRANCH  11  12
ENDBRANCH  10  11
ENDBRANCH   9  10
ENDBRANCH   1   9
TORSDOF 9
ENDMDL
MODEL 3
REMARK VINA RESULT:    -3.643      9.947     11.970
REMARK INTER + INTRA:          -6.635
REMARK INTER:                  -5.865
REMARK INTRA:                  -0.770
REMARK UNBOUND:                -1.076
REMARK SMILES CCCCCCCCCC=CC(=O)[O-]
REMARK SMILES IDX 7 1 8 2 9 3 10 4 11 5 12 6 13 7 14 8 6 9 5 10 4 11 3 12 2 13
REMARK SMILES IDX 1 14
REMARK H PARENT
REMARK Flexibility Score: inf
ROOT
ATOM      1  C   UNL     1      -7.611  -2.907  -4.481  1.00  0.00     0.000 C 
ENDROOT
BRANCH   1   2
ATOM      2  C   UNL     1      -8.753  -2.285  -5.293  1.00  0.00     0.004 C 
BRANCH   2   3
ATOM      3  C   UNL     1      -8.377  -2.175  -6.777  1.00  0.00     0.027 C 
BRANCH   3   4
ATOM      4  C   UNL     1      -8.121  -3.531  -7.377  1.00  0.00    -0.025 C 
ATOM      5  C   UNL     1      -7.322  -3.794  -8.424  1.00  0.00     0.020 C 
BRANCH   5   6
ATOM      6  C   UNL     1      -6.501  -2.818  -9.172  1.00  0.00     0.064 C 
ATOM      7  O   UNL     1      -5.256  -2.806  -8.992  1.00  0.00    -0.545 OA
ATOM      8  O   UNL     1      -7.058  -1.897 -10.050  1.00  0.00    -0.545 OA
ENDBRANCH   5   6
ENDBRANCH   3   4
ENDBRANCH   2   3
ENDBRANCH   1   2
BRANCH   1   9
ATOM      9  C   UNL     1      -8.048  -4.232  -3.842  1.00  0.00     0.000 C 
BRANCH   9  10
ATOM     10  C   UNL     1      -9.550  -4.516  -4.025  1.00  0.00     0.000 C 
BRANCH  10  11
ATOM     11  C   UNL     1      -9.888  -5.901  -4.612  1.00  0.00    -0.000 C 
BRANCH  11  12
ATOM     12  C   UNL     1      -8.969  -7.047  -4.152  1.00  0.00    -0.000 C 
BRANCH  12  13
ATOM     13  C   UNL     1      -9.476  -8.429  -4.590  1.00  0.00    -0.003 C 
ATOM     14  C   UNL     1      -9.310  -9.453  -3.471  1.00  0.00     0.004 C 
ENDBRANCH  12  13
ENDBRANCH  11  12
ENDBRANCH  10  11
ENDBRANCH   9  10
ENDBRANCH   1   9
TORSDOF 9
ENDMDL
MODEL 4
REMARK VINA RESULT:    -3.520      1.009      2.288
REMARK INTER + INTRA:          -6.448
REMARK INTER:                  -5.706
REMARK INTRA:                  -0.742
REMARK UNBOUND:                -1.076
REMARK SMILES CCCCCCCCCC=CC(=O)[O-]
REMARK SMILES IDX 7 1 8 2 9 3 10 4 11 5 12 6 13 7 14 8 6 9 5 10 4 11 3 12 2 13
REMARK SMILES IDX 1 14
REMARK H PARENT
REMARK Flexibility Score: inf
ROOT
ATOM      1  C   UNL     1      -4.365   6.310  -3.265  1.00  0.00     0.000 C 
ENDROOT
BRANCH   1   2
ATOM      2  C   UNL     1      -5.717   6.063  -3.945  1.00  0.00     0.004 C 
BRANCH   2   3
ATOM      3  C   UNL     1      -5.553   5.940  -5.466  1.00  0.00     0.027 C 
BRANCH   3   4
ATOM      4  C   UNL     1      -5.801   4.531  -5.929  1.00  0.00    -0.025 C 
ATOM      5  C   UNL     1      -5.351   3.982  -7.070  1.00  0.00     0.020 C 
BRANCH   5   6
ATOM      6  C   UNL     1      -4.490   4.633  -8.079  1.00  0.00     0.064 C 
ATOM      7  O   UNL     1      -4.965   5.570  -8.772  1.00  0.00    -0.545 OA
ATOM      8  O   UNL     1      -3.181   4.230  -8.310  1.00  0.00    -0.545 OA
ENDBRANCH   5   6
ENDBRANCH   3   4
ENDBRANCH   2   3
ENDBRANCH   1   2
BRANCH   1   9
ATOM      9  C   UNL     1      -3.329   6.827  -4.273  1.00  0.00     0.000 C 
BRANCH   9  10
ATOM     10  C   UNL     1      -1.902   6.868  -3.696  1.00  0.00     0.000 C 
BRANCH  10  11
ATOM     11  C   UNL     1      -1.819   6.895  -2.156  1.00  0.00    -0.000 C 
BRANCH  11  12
ATOM     12  C   UNL     1      -1.153   5.665  -1.516  1.00  0.00    -0.000 C 
BRANCH  12  13
ATOM     13  C   UNL     1      -2.097   4.897  -0.578  1.00  0.00    -0.003 C 
ATOM     14  C   UNL     1      -2.885   5.854   0.310  1.00  0.00     0.004 C 
ENDBRANCH  12  13
ENDBRANCH  11  12
ENDBRANCH  10  11
ENDBRANCH   9  10
ENDBRANCH   1   9
TORSDOF 9
ENDMDL
MODEL 5
REMARK VINA RESULT:    -3.482      3.350      5.997
REMARK INTER + INTRA:          -6.391
REMARK INTER:                  -5.789
REMARK INTRA:                  -0.601
REMARK UNBOUND:                -1.076
REMARK SMILES CCCCCCCCCC=CC(=O)[O-]
REMARK SMILES IDX 7 1 8 2 9 3 10 4 11 5 12 6 13 7 14 8 6 9 5 10 4 11 3 12 2 13
REMARK SMILES IDX 1 14
REMARK H PARENT
REMARK Flexibility Score: inf
ROOT
ATOM      1  C   UNL     1      -6.544   6.716  -2.759  1.00  0.00     0.000 C 
ENDROOT
BRANCH   1   2
ATOM      2  C   UNL     1      -5.233   5.942  -2.942  1.00  0.00     0.004 C 
BRANCH   2   3
ATOM      3  C   UNL     1      -4.081   6.627  -2.194  1.00  0.00     0.027 C 
BRANCH   3   4
ATOM      4  C   UNL     1      -2.783   6.478  -2.938  1.00  0.00    -0.025 C 
ATOM      5  C   UNL     1      -1.601   6.125  -2.404  1.00  0.00     0.020 C 
BRANCH   5   6
ATOM      6  C   UNL     1      -1.344   5.771  -0.993  1.00  0.00     0.064 C 
ATOM      7  O   UNL     1      -0.490   6.431  -0.345  1.00  0.00    -0.545 OA
ATOM      8  O   UNL     1      -1.992   4.718  -0.361  1.00  0.00    -0.545 OA
ENDBRANCH   5   6
ENDBRANCH   3   4
ENDBRANCH   2   3
ENDBRANCH   1   2
BRANCH   1   9
ATOM      9  C   UNL     1      -7.367   6.716  -4.054  1.00  0.00     0.000 C 
BRANCH   9  10
ATOM     10  C   UNL     1      -6.645   6.017  -5.221  1.00  0.00     0.000 C 
BRANCH  10  11
ATOM     11  C   UNL     1      -7.537   5.113  -6.096  1.00  0.00    -0.000 C 
BRANCH  11  12
ATOM     12  C   UNL     1      -6.811   3.935  -6.769  1.00  0.00    -0.000 C 
BRANCH  12  13
ATOM     13  C   UNL     1      -5.284   4.015  -6.625  1.00  0.00    -0.003 C 
ATOM     14  C   UNL     1      -4.622   4.319  -7.965  1.00  0.00     0.004 C 
ENDBRANCH  12  13
ENDBRANCH  11  12
ENDBRANCH  10  11
ENDBRANCH   9  10
ENDBRANCH   1   9
TORSDOF 9
ENDMDL
MODEL 6
REMARK VINA RESULT:    -3.418     17.843     18.892
REMARK INTER + INTRA:          -6.293
REMARK INTER:                  -5.573
REMARK INTRA:                  -0.719
REMARK UNBOUND:                -1.076
REMARK SMILES CCCCCCCCCC=CC(=O)[O-]
REMARK SMILES IDX 7 1 8 2 9 3 10 4 11 5 12 6 13 7 14 8 6 9 5 10 4 11 3 12 2 13
REMARK SMILES IDX 1 14
REMARK H PARENT
REMARK Flexibility Score: inf
ROOT
ATOM      1  C   UNL     1      -5.111  -7.159   8.187  1.00  0.00     0.000 C 
ENDROOT
BRANCH   1   2
ATOM      2  C   UNL     1      -4.244  -7.823   7.111  1.00  0.00     0.004 C 
BRANCH   2   3
ATOM      3  C   UNL     1      -5.080  -8.772   6.241  1.00  0.00     0.027 C 
BRANCH   3   4
ATOM      4  C   UNL     1      -5.700  -9.865   7.066  1.00  0.00    -0.025 C 
ATOM      5  C   UNL     1      -6.423 -10.897   6.597  1.00  0.00     0.020 C 
BRANCH   5   6
ATOM      6  C   UNL     1      -6.719 -11.192   5.180  1.00  0.00     0.064 C 
ATOM      7  O   UNL     1      -7.862 -10.922   4.728  1.00  0.00    -0.545 OA
ATOM      8  O   UNL     1      -5.789 -11.780   4.333  1.00  0.00    -0.545 OA
ENDBRANCH   5   6
ENDBRANCH   3   4
ENDBRANCH   2   3
ENDBRANCH   1   2
BRANCH   1   9
ATOM      9  C   UNL     1      -4.420  -7.209   9.557  1.00  0.00     0.000 C 
BRANCH   9  10
ATOM     10  C   UNL     1      -3.630  -8.511   9.781  1.00  0.00     0.000 C 
BRANCH  10  11
ATOM     11  C   UNL     1      -2.112  -8.330   9.982  1.00  0.00    -0.000 C 
BRANCH  11  12
ATOM     12  C   UNL     1      -1.227  -9.018   8.928  1.00  0.00    -0.000 C 
BRANCH  12  13
ATOM     13  C   UNL     1       0.273  -8.883   9.230  1.00  0.00    -0.003 C 
ATOM     14  C   UNL     1       1.115  -9.409   8.071  1.00  0.00     0.004 C 
ENDBRANCH  12  13
ENDBRANCH  11  12
ENDBRANCH  10  11
ENDBRANCH   9  10
ENDBRANCH   1   9
TORSDOF 9
ENDMDL
MODEL 7
REMARK VINA RESULT:    -3.371     16.579     18.322
REMARK INTER + INTRA:          -6.221
REMARK INTER:                  -5.630
REMARK INTRA:                  -0.591
REMARK UNBOUND:                -1.076
REMARK SMILES CCCCCCCCCC=CC(=O)[O-]
REMARK SMILES IDX 7 1 8 2 9 3 10 4 11 5 12 6 13 7 14 8 6 9 5 10 4 11 3 12 2 13
REMARK SMILES IDX 1 14
REMARK H PARENT
REMARK Flexibility Score: inf
ROOT
ATOM      1  C   UNL     1      -4.112  -7.672   8.843  1.00  0.00     0.000 C 
ENDROOT
BRANCH   1   2
ATOM      2  C   UNL     1      -4.498  -7.524   7.367  1.00  0.00     0.004 C 
BRANCH   2   3
ATOM      3  C   UNL     1      -4.880  -8.881   6.760  1.00  0.00     0.027 C 
BRANCH   3   4
ATOM      4  C   UNL     1      -6.175  -9.389   7.333  1.00  0.00    -0.025 C 
ATOM      5  C   UNL     1      -6.867 -10.456   6.899  1.00  0.00     0.020 C 
BRANCH   5   6
ATOM      6  C   UNL     1      -6.480 -11.370   5.804  1.00  0.00     0.064 C 
ATOM      7  O   UNL     1      -5.606 -12.249   6.025  1.00  0.00    -0.545 OA
ATOM      8  O   UNL     1      -7.027 -11.279   4.531  1.00  0.00    -0.545 OA
ENDBRANCH   5   6
ENDBRANCH   3   4
ENDBRANCH   2   3
ENDBRANCH   1   2
BRANCH   1   9
ATOM      9  C   UNL     1      -4.984  -6.774   9.732  1.00  0.00     0.000 C 
BRANCH   9  10
ATOM     10  C   UNL     1      -5.977  -5.918   8.925  1.00  0.00     0.000 C 
BRANCH  10  11
ATOM     11  C   UNL     1      -6.567  -4.711   9.681  1.00  0.00    -0.000 C 
BRANCH  11  12
ATOM     12  C   UNL     1      -7.463  -3.787   8.838  1.00  0.00    -0.000 C 
BRANCH  12  13
ATOM     13  C   UNL     1      -8.945  -4.190   8.882  1.00  0.00    -0.003 C 
ATOM     14  C   UNL     1      -9.754  -3.422   7.842  1.00  0.00     0.004 C 
ENDBRANCH  12  13
ENDBRANCH  11  12
ENDBRANCH  10  11
ENDBRANCH   9  10
ENDBRANCH   1   9
TORSDOF 9
ENDMDL
MODEL 8
REMARK VINA RESULT:    -3.328     11.493     13.433
REMARK INTER + INTRA:          -6.155
REMARK INTER:                  -5.396
REMARK INTRA:                  -0.759
REMARK UNBOUND:                -1.076
REMARK SMILES CCCCCCCCCC=CC(=O)[O-]
REMARK SMILES IDX 7 1 8 2 9 3 10 4 11 5 12 6 13 7 14 8 6 9 5 10 4 11 3 12 2 13
REMARK SMILES IDX 1 14
REMARK H PARENT
REMARK Flexibility Score: inf
ROOT
ATOM      1  C   UNL     1      -8.073  -5.709  -4.069  1.00  0.00     0.000 C 
ENDROOT
BRANCH   1   2
ATOM      2  C   UNL     1      -7.800  -4.230  -3.775  1.00  0.00     0.004 C 
BRANCH   2   3
ATOM      3  C   UNL     1      -9.060  -3.383  -4.002  1.00  0.00     0.027 C 
BRANCH   3   4
ATOM      4  C   UNL     1      -8.738  -2.109  -4.733  1.00  0.00    -0.025 C 
ATOM      5  C   UNL     1      -8.660  -1.961  -6.067  1.00  0.00     0.020 C 
BRANCH   5   6
ATOM      6  C   UNL     1      -8.916  -3.002  -7.084  1.00  0.00     0.064 C 
ATOM      7  O   UNL     1      -8.046  -3.891  -7.277  1.00  0.00    -0.545 OA
ATOM      8  O   UNL     1     -10.072  -3.020  -7.854  1.00  0.00    -0.545 OA
ENDBRANCH   5   6
ENDBRANCH   3   4
ENDBRANCH   2   3
ENDBRANCH   1   2
BRANCH   1   9
ATOM      9  C   UNL     1      -9.542  -5.932  -4.453  1.00  0.00     0.000 C 
BRANCH   9  10
ATOM     10  C   UNL     1     -10.014  -7.375  -4.198  1.00  0.00     0.000 C 
BRANCH  10  11
ATOM     11  C   UNL     1      -8.929  -8.458  -4.366  1.00  0.00    -0.000 C 
BRANCH  11  12
ATOM     12  C   UNL     1      -9.320  -9.858  -3.859  1.00  0.00    -0.000 C 
BRANCH  12  13
ATOM     13  C   UNL     1      -9.898 -10.752  -4.966  1.00  0.00    -0.003 C 
ATOM     14  C   UNL     1      -9.215 -10.482  -6.302  1.00  0.00     0.004 C 
ENDBRANCH  12  13
ENDBRANCH  11  12
ENDBRANCH  10  11
ENDBRANCH   9  10
ENDBRANCH   1   9
TORSDOF 9
ENDMDL
MODEL 9
REMARK VINA RESULT:    -3.314     17.862     19.912
REMARK INTER + INTRA:          -6.135
REMARK INTER:                  -5.215
REMARK INTRA:                  -0.919
REMARK UNBOUND:                -1.076
REMARK SMILES CCCCCCCCCC=CC(=O)[O-]
REMARK SMILES IDX 7 1 8 2 9 3 10 4 11 5 12 6 13 7 14 8 6 9 5 10 4 11 3 12 2 13
REMARK SMILES IDX 1 14
REMARK H PARENT
REMARK Flexibility Score: inf
ROOT
ATOM      1  C   UNL     1      -3.702  -8.376   7.322  1.00  0.00     0.000 C 
ENDROOT
BRANCH   1   2
ATOM      2  C   UNL     1      -3.086  -8.582   8.711  1.00  0.00     0.004 C 
BRANCH   2   3
ATOM      3  C   UNL     1      -1.781  -9.384   8.620  1.00  0.00     0.027 C 
BRANCH   3   4
ATOM      4  C   UNL     1      -0.669  -8.704   9.370  1.00  0.00    -0.025 C 
ATOM      5  C   UNL     1       0.647  -8.912   9.195  1.00  0.00     0.020 C 
BRANCH   5   6
ATOM      6  C   UNL     1       1.270  -9.816   8.205  1.00  0.00     0.064 C 
ATOM      7  O   UNL     1       1.317 -11.049   8.452  1.00  0.00    -0.545 OA
ATOM      8  O   UNL     1       1.829  -9.351   7.022  1.00  0.00    -0.545 OA
ENDBRANCH   5   6
ENDBRANCH   3   4
ENDBRANCH   2   3
ENDBRANCH   1   2
BRANCH   1   9
ATOM      9  C   UNL     1      -4.834  -7.341   7.370  1.00  0.00     0.000 C 
BRANCH   9  10
ATOM     10  C   UNL     1      -5.074  -6.783   8.785  1.00  0.00     0.000 C 
BRANCH  10  11
ATOM     11  C   UNL     1      -6.445  -7.127   9.401  1.00  0.00    -0.000 C 
BRANCH  11  12
ATOM     12  C   UNL     1      -6.591  -8.576   9.901  1.00  0.00    -0.000 C 
BRANCH  12  13
ATOM     13  C   UNL     1      -7.385  -9.463   8.930  1.00  0.00    -0.003 C 
ATOM     14  C   UNL     1      -6.514 -10.587   8.379  1.00  0.00     0.004 C 
ENDBRANCH  12  13
ENDBRANCH  11  12
ENDBRANCH  10  11
ENDBRANCH   9  10
ENDBRANCH   1   9
TORSDOF 9
ENDMDL
