MODEL 1
REMARK VINA RESULT:    -3.835      0.000      0.000
REMARK INTER + INTRA:         -15.943
REMARK INTER:                 -10.001
REMARK INTRA:                  -5.942
REMARK UNBOUND:                -5.942
REMARK SMILES CCCCCCCCCCCCCCCCCCCCCCCCCCCCCO
REMARK SMILES IDX 16 1 15 2 14 3 13 4 12 5 11 6 10 7 9 8 8 9 7 10 6 11 5 12
REMARK SMILES IDX 4 13 3 14 2 15 1 16 17 17 18 18 19 19 20 20 21 21 22 22
REMARK SMILES IDX 23 23 24 24 25 25 26 26 27 27 28 28 29 29 30 30
REMARK H PARENT 30 31
REMARK Flexibility Score: inf
ROOT
ATOM      1  C   UNL     1     -26.725  26.363 -22.812  1.00  0.00     0.000 C 
ENDROOT
BRANCH   1   2
ATOM      2  C   UNL     1     -26.498  26.761 -21.343  1.00  0.00     0.000 C 
BRANCH   2   3
ATOM      3  C   UNL     1     -27.764  27.324 -20.665  1.00  0.00     0.000 C 
BRANCH   3   4
ATOM      4  C   UNL     1     -28.383  26.428 -19.574  1.00  0.00     0.000 C 
BRANCH   4   5
ATOM      5  C   UNL     1     -27.337  25.647 -18.766  1.00  0.00     0.000 C 
BRANCH   5   6
ATOM      6  C   UNL     1     -27.803  24.206 -18.505  1.00  0.00     0.000 C 
BRANCH   6   7
ATOM      7  C   UNL     1     -28.509  23.577 -19.717  1.00  0.00     0.000 C 
BRANCH   7   8
ATOM      8  C   UNL     1     -27.526  23.078 -20.789  1.00  0.00    -0.000 C 
BRANCH   8   9
ATOM      9  C   UNL     1     -27.537  21.547 -20.939  1.00  0.00    -0.000 C 
BRANCH   9  10
ATOM     10  C   UNL     1     -28.048  21.066 -22.315  1.00  0.00    -0.000 C 
BRANCH  10  11
ATOM     11  C   UNL     1     -26.962  20.316 -23.105  1.00  0.00    -0.000 C 
BRANCH  11  12
ATOM     12  C   UNL     1     -25.542  20.645 -22.617  1.00  0.00    -0.000 C 
BRANCH  12  13
ATOM     13  C   UNL     1     -24.722  21.417 -23.665  1.00  0.00    -0.000 C 
BRANCH  13  14
ATOM     14  C   UNL     1     -24.642  22.922 -23.361  1.00  0.00    -0.000 C 
BRANCH  14  15
ATOM     15  C   UNL     1     -23.956  23.217 -22.019  1.00  0.00    -0.003 C 
ATOM     16  C   UNL     1     -23.475  24.663 -21.955  1.00  0.00     0.004 C 
ENDBRANCH  14  15
ENDBRANCH  13  14
ENDBRANCH  12  13
ENDBRANCH  11  12
ENDBRANCH  10  11
ENDBRANCH   9  10
ENDBRANCH   8   9
ENDBRANCH   7   8
ENDBRANCH   6   7
ENDBRANCH   5   6
ENDBRANCH   4   5
ENDBRANCH   3   4
ENDBRANCH   2   3
ENDBRANCH   1   2
BRANCH   1  17
ATOM     17  C   UNL     1     -27.462  27.447 -23.619  1.00  0.00     0.000 C 
BRANCH  17  18
ATOM     18  C   UNL     1     -28.734  26.975 -24.344  1.00  0.00     0.000 C 
BRANCH  18  19
ATOM     19  C   UNL     1     -30.023  27.501 -23.693  1.00  0.00     0.000 C 
BRANCH  19  20
ATOM     20  C   UNL     1     -30.637  26.492 -22.707  1.00  0.00     0.000 C 
BRANCH  20  21
ATOM     21  C   UNL     1     -29.941  25.120 -22.759  1.00  0.00     0.000 C 
BRANCH  21  22
ATOM     22  C   UNL     1     -30.885  23.961 -22.402  1.00  0.00     0.000 C 
BRANCH  22  23
ATOM     23  C   UNL     1     -30.970  22.907 -23.520  1.00  0.00     0.000 C 
BRANCH  23  24
ATOM     24  C   UNL     1     -30.439  23.431 -24.864  1.00  0.00     0.000 C 
BRANCH  24  25
ATOM     25  C   UNL     1     -29.277  22.581 -25.411  1.00  0.00     0.000 C 
BRANCH  25  26
ATOM     26  C   UNL     1     -27.912  23.266 -25.238  1.00  0.00     0.000 C 
BRANCH  26  27
ATOM     27  C   UNL     1     -27.614  24.276 -26.359  1.00  0.00     0.002 C 
BRANCH  27  28
ATOM     28  C   UNL     1     -26.193  24.860 -26.277  1.00  0.00     0.028 C 
BRANCH  28  29
ATOM     29  C   UNL     1     -25.818  25.731 -27.484  1.00  0.00     0.156 C 
BRANCH  29  30
ATOM     30  O   UNL     1     -24.429  25.902 -27.575  1.00  0.00    -0.396 OA
ATOM     31  H   UNL     1     -24.017  25.160 -27.061  1.00  0.00     0.210 HD
ENDBRANCH  29  30
ENDBRANCH  28  29
ENDBRANCH  27  28
ENDBRANCH  26  27
ENDBRANCH  25  26
ENDBRANCH  24  25
ENDBRANCH  23  24
ENDBRANCH  22  23
ENDBRANCH  21  22
ENDBRANCH  20  21
ENDBRANCH  19  20
ENDBRANCH  18  19
ENDBRANCH  17  18
ENDBRANCH   1  17
TORSDOF 28
ENDMDL
MODEL 2
REMARK VINA RESULT:    -3.755      1.667      4.871
REMARK INTER + INTRA:         -15.733
REMARK INTER:                  -9.548
REMARK INTRA:                  -6.184
REMARK UNBOUND:                -5.942
REMARK SMILES CCCCCCCCCCCCCCCCCCCCCCCCCCCCCO
REMARK SMILES IDX 16 1 15 2 14 3 13 4 12 5 11 6 10 7 9 8 8 9 7 10 6 11 5 12
REMARK SMILES IDX 4 13 3 14 2 15 1 16 17 17 18 18 19 19 20 20 21 21 22 22
REMARK SMILES IDX 23 23 24 24 25 25 26 26 27 27 28 28 29 29 30 30
REMARK H PARENT 30 31
REMARK Flexibility Score: inf
ROOT
ATOM      1  C   UNL     1     -26.726  26.704 -22.006  1.00  0.00     0.000 C 
ENDROOT
BRANCH   1   2
ATOM      2  C   UNL     1     -27.090  26.958 -23.479  1.00  0.00     0.000 C 
BRANCH   2   3
ATOM      3  C   UNL     1     -28.405  27.744 -23.652  1.00  0.00     0.000 C 
BRANCH   3   4
ATOM      4  C   UNL     1     -29.486  27.046 -24.501  1.00  0.00     0.000 C 
BRANCH   4   5
ATOM      5  C   UNL     1     -30.787  26.783 -23.728  1.00  0.00     0.000 C 
BRANCH   5   6
ATOM      6  C   UNL     1     -30.644  25.564 -22.803  1.00  0.00     0.000 C 
BRANCH   6   7
ATOM      7  C   UNL     1     -29.918  24.387 -23.474  1.00  0.00     0.000 C 
BRANCH   7   8
ATOM      8  C   UNL     1     -30.830  23.169 -23.695  1.00  0.00    -0.000 C 
BRANCH   8   9
ATOM      9  C   UNL     1     -31.113  22.901 -25.183  1.00  0.00    -0.000 C 
BRANCH   9  10
ATOM     10  C   UNL     1     -29.898  22.333 -25.949  1.00  0.00    -0.000 C 
BRANCH  10  11
ATOM     11  C   UNL     1     -29.699  23.020 -27.310  1.00  0.00    -0.000 C 
BRANCH  11  12
ATOM     12  C   UNL     1     -29.653  24.552 -27.198  1.00  0.00    -0.000 C 
BRANCH  12  13
ATOM     13  C   UNL     1     -28.245  25.121 -27.452  1.00  0.00    -0.000 C 
BRANCH  13  14
ATOM     14  C   UNL     1     -27.237  24.707 -26.368  1.00  0.00    -0.000 C 
BRANCH  14  15
ATOM     15  C   UNL     1     -25.781  24.953 -26.791  1.00  0.00    -0.003 C 
ATOM     16  C   UNL     1     -25.697  26.037 -27.862  1.00  0.00     0.004 C 
ENDBRANCH  14  15
ENDBRANCH  13  14
ENDBRANCH  12  13
ENDBRANCH  11  12
ENDBRANCH  10  11
ENDBRANCH   9  10
ENDBRANCH   8   9
ENDBRANCH   7   8
ENDBRANCH   6   7
ENDBRANCH   5   6
ENDBRANCH   4   5
ENDBRANCH   3   4
ENDBRANCH   2   3
ENDBRANCH   1   2
BRANCH   1  17
ATOM     17  C   UNL     1     -27.800  27.213 -21.028  1.00  0.00     0.000 C 
BRANCH  17  18
ATOM     18  C   UNL     1     -28.397  26.145 -20.095  1.00  0.00     0.000 C 
BRANCH  18  19
ATOM     19  C   UNL     1     -27.756  24.761 -20.283  1.00  0.00     0.000 C 
BRANCH  19  20
ATOM     20  C   UNL     1     -28.762  23.615 -20.079  1.00  0.00     0.000 C 
BRANCH  20  21
ATOM     21  C   UNL     1     -28.100  22.340 -19.528  1.00  0.00     0.000 C 
BRANCH  21  22
ATOM     22  C   UNL     1     -28.395  21.098 -20.384  1.00  0.00     0.000 C 
BRANCH  22  23
ATOM     23  C   UNL     1     -27.342  20.877 -21.484  1.00  0.00     0.000 C 
BRANCH  23  24
ATOM     24  C   UNL     1     -27.885  21.184 -22.889  1.00  0.00     0.000 C 
BRANCH  24  25
ATOM     25  C   UNL     1     -26.834  21.853 -23.794  1.00  0.00     0.000 C 
BRANCH  25  26
ATOM     26  C   UNL     1     -26.390  23.227 -23.268  1.00  0.00     0.000 C 
BRANCH  26  27
ATOM     27  C   UNL     1     -24.868  23.431 -23.366  1.00  0.00     0.002 C 
BRANCH  27  28
ATOM     28  C   UNL     1     -24.147  23.215 -22.025  1.00  0.00     0.028 C 
BRANCH  28  29
ATOM     29  C   UNL     1     -23.778  21.749 -21.757  1.00  0.00     0.156 C 
BRANCH  29  30
ATOM     30  O   UNL     1     -23.385  21.101 -22.936  1.00  0.00    -0.396 OA
ATOM     31  H   UNL     1     -24.207  20.720 -23.339  1.00  0.00     0.210 HD
ENDBRANCH  29  30
ENDBRANCH  28  29
ENDBRANCH  27  28
ENDBRANCH  26  27
ENDBRANCH  25  26
ENDBRANCH  24  25
ENDBRANCH  23  24
ENDBRANCH  22  23
ENDBRANCH  21  22
ENDBRANCH  20  21
ENDBRANCH  19  20
ENDBRANCH  18  19
ENDBRANCH  17  18
ENDBRANCH   1  17
TORSDOF 28
ENDMDL
MODEL 3
REMARK VINA RESULT:    -3.742      1.307      4.681
REMARK INTER + INTRA:         -15.698
REMARK INTER:                  -9.508
REMARK INTRA:                  -6.191
REMARK UNBOUND:                -5.942
REMARK SMILES CCCCCCCCCCCCCCCCCCCCCCCCCCCCCO
REMARK SMILES IDX 16 1 15 2 14 3 13 4 12 5 11 6 10 7 9 8 8 9 7 10 6 11 5 12
REMARK SMILES IDX 4 13 3 14 2 15 1 16 17 17 18 18 19 19 20 20 21 21 22 22
REMARK SMILES IDX 23 23 24 24 25 25 26 26 27 27 28 28 29 29 30 30
REMARK H PARENT 30 31
REMARK Flexibility Score: inf
ROOT
ATOM      1  C   UNL     1     -27.202  25.398 -18.783  1.00  0.00     0.000 C 
ENDROOT
BRANCH   1   2
ATOM      2  C   UNL     1     -26.546  26.495 -19.639  1.00  0.00     0.000 C 
BRANCH   2   3
ATOM      3  C   UNL     1     -25.586  25.937 -20.708  1.00  0.00     0.000 C 
BRANCH   3   4
ATOM      4  C   UNL     1     -26.050  26.107 -22.169  1.00  0.00     0.000 C 
BRANCH   4   5
ATOM      5  C   UNL     1     -27.143  27.173 -22.335  1.00  0.00     0.000 C 
BRANCH   5   6
ATOM      6  C   UNL     1     -28.352  26.610 -23.098  1.00  0.00     0.000 C 
BRANCH   6   7
ATOM      7  C   UNL     1     -29.665  26.722 -22.306  1.00  0.00     0.000 C 
BRANCH   7   8
ATOM      8  C   UNL     1     -30.828  25.963 -22.965  1.00  0.00    -0.000 C 
BRANCH   8   9
ATOM      9  C   UNL     1     -30.704  25.897 -24.496  1.00  0.00    -0.000 C 
BRANCH   9  10
ATOM     10  C   UNL     1     -31.000  24.498 -25.080  1.00  0.00    -0.000 C 
BRANCH  10  11
ATOM     11  C   UNL     1     -31.152  23.433 -23.980  1.00  0.00    -0.000 C 
BRANCH  11  12
ATOM     12  C   UNL     1     -31.315  22.015 -24.551  1.00  0.00    -0.000 C 
BRANCH  12  13
ATOM     13  C   UNL     1     -30.465  20.975 -23.800  1.00  0.00    -0.000 C 
BRANCH  13  14
ATOM     14  C   UNL     1     -28.988  21.002 -24.226  1.00  0.00    -0.000 C 
BRANCH  14  15
ATOM     15  C   UNL     1     -28.587  19.764 -25.043  1.00  0.00    -0.003 C 
ATOM     16  C   UNL     1     -27.079  19.537 -24.990  1.00  0.00     0.004 C 
ENDBRANCH  14  15
ENDBRANCH  13  14
ENDBRANCH  12  13
ENDBRANCH  11  12
ENDBRANCH  10  11
ENDBRANCH   9  10
ENDBRANCH   8   9
ENDBRANCH   7   8
ENDBRANCH   6   7
ENDBRANCH   5   6
ENDBRANCH   4   5
ENDBRANCH   3   4
ENDBRANCH   2   3
ENDBRANCH   1   2
BRANCH   1  17
ATOM     17  C   UNL     1     -28.674  25.149 -19.156  1.00  0.00     0.000 C 
BRANCH  17  18
ATOM     18  C   UNL     1     -29.049  23.677 -19.402  1.00  0.00     0.000 C 
BRANCH  18  19
ATOM     19  C   UNL     1     -29.312  23.368 -20.884  1.00  0.00     0.000 C 
BRANCH  19  20
ATOM     20  C   UNL     1     -28.012  23.229 -21.695  1.00  0.00     0.000 C 
BRANCH  20  21
ATOM     21  C   UNL     1     -27.005  22.272 -21.033  1.00  0.00     0.000 C 
BRANCH  21  22
ATOM     22  C   UNL     1     -26.054  21.615 -22.047  1.00  0.00     0.000 C 
BRANCH  22  23
ATOM     23  C   UNL     1     -24.884  22.536 -22.438  1.00  0.00     0.000 C 
BRANCH  23  24
ATOM     24  C   UNL     1     -24.595  22.510 -23.947  1.00  0.00     0.000 C 
BRANCH  24  25
ATOM     25  C   UNL     1     -25.302  23.651 -24.703  1.00  0.00     0.000 C 
BRANCH  25  26
ATOM     26  C   UNL     1     -26.489  23.156 -25.544  1.00  0.00     0.000 C 
BRANCH  26  27
ATOM     27  C   UNL     1     -27.408  24.303 -25.997  1.00  0.00     0.002 C 
BRANCH  27  28
ATOM     28  C   UNL     1     -26.665  25.641 -26.152  1.00  0.00     0.028 C 
BRANCH  28  29
ATOM     29  C   UNL     1     -26.020  25.827 -27.532  1.00  0.00     0.156 C 
BRANCH  29  30
ATOM     30  O   UNL     1     -24.621  25.824 -27.443  1.00  0.00    -0.396 OA
ATOM     31  H   UNL     1     -24.383  25.198 -26.711  1.00  0.00     0.210 HD
ENDBRANCH  29  30
ENDBRANCH  28  29
ENDBRANCH  27  28
ENDBRANCH  26  27
ENDBRANCH  25  26
ENDBRANCH  24  25
ENDBRANCH  23  24
ENDBRANCH  22  23
ENDBRANCH  21  22
ENDBRANCH  20  21
ENDBRANCH  19  20
ENDBRANCH  18  19
ENDBRANCH  17  18
ENDBRANCH   1  17
TORSDOF 28
ENDMDL
MODEL 4
REMARK VINA RESULT:    -3.685      1.353      4.884
REMARK INTER + INTRA:         -15.551
REMARK INTER:                  -9.525
REMARK INTRA:                  -6.026
REMARK UNBOUND:                -5.942
REMARK SMILES CCCCCCCCCCCCCCCCCCCCCCCCCCCCCO
REMARK SMILES IDX 16 1 15 2 14 3 13 4 12 5 11 6 10 7 9 8 8 9 7 10 6 11 5 12
REMARK SMILES IDX 4 13 3 14 2 15 1 16 17 17 18 18 19 19 20 20 21 21 22 22
REMARK SMILES IDX 23 23 24 24 25 25 26 26 27 27 28 28 29 29 30 30
REMARK H PARENT 30 31
REMARK Flexibility Score: inf
ROOT
ATOM      1  C   UNL     1     -27.926  22.720 -20.763  1.00  0.00     0.000 C 
ENDROOT
BRANCH   1   2
ATOM      2  C   UNL     1     -28.801  23.325 -21.874  1.00  0.00     0.000 C 
BRANCH   2   3
ATOM      3  C   UNL     1     -29.814  24.362 -21.351  1.00  0.00     0.000 C 
BRANCH   3   4
ATOM      4  C   UNL     1     -30.794  24.919 -22.403  1.00  0.00     0.000 C 
BRANCH   4   5
ATOM      5  C   UNL     1     -30.603  26.419 -22.674  1.00  0.00     0.000 C 
BRANCH   5   6
ATOM      6  C   UNL     1     -29.514  26.655 -23.732  1.00  0.00     0.000 C 
BRANCH   6   7
ATOM      7  C   UNL     1     -30.081  26.781 -25.155  1.00  0.00     0.000 C 
BRANCH   7   8
ATOM      8  C   UNL     1     -29.525  25.718 -26.117  1.00  0.00    -0.000 C 
BRANCH   8   9
ATOM      9  C   UNL     1     -30.336  24.412 -26.093  1.00  0.00    -0.000 C 
BRANCH   9  10
ATOM     10  C   UNL     1     -29.572  23.223 -25.471  1.00  0.00    -0.000 C 
BRANCH  10  11
ATOM     11  C   UNL     1     -28.777  22.431 -26.524  1.00  0.00    -0.000 C 
BRANCH  11  12
ATOM     12  C   UNL     1     -27.966  21.280 -25.907  1.00  0.00    -0.000 C 
BRANCH  12  13
ATOM     13  C   UNL     1     -28.634  20.694 -24.650  1.00  0.00    -0.000 C 
BRANCH  13  14
ATOM     14  C   UNL     1     -27.612  20.257 -23.588  1.00  0.00    -0.000 C 
BRANCH  14  15
ATOM     15  C   UNL     1     -26.303  21.058 -23.664  1.00  0.00    -0.003 C 
ATOM     16  C   UNL     1     -25.112  20.203 -23.240  1.00  0.00     0.004 C 
ENDBRANCH  14  15
ENDBRANCH  13  14
ENDBRANCH  12  13
ENDBRANCH  11  12
ENDBRANCH  10  11
ENDBRANCH   9  10
ENDBRANCH   8   9
ENDBRANCH   7   8
ENDBRANCH   6   7
ENDBRANCH   5   6
ENDBRANCH   4   5
ENDBRANCH   3   4
ENDBRANCH   2   3
ENDBRANCH   1   2
BRANCH   1  17
ATOM     17  C   UNL     1     -28.482  22.985 -19.353  1.00  0.00     0.000 C 
BRANCH  17  18
ATOM     18  C   UNL     1     -27.717  24.038 -18.533  1.00  0.00     0.000 C 
BRANCH  18  19
ATOM     19  C   UNL     1     -28.635  25.125 -17.951  1.00  0.00     0.000 C 
BRANCH  19  20
ATOM     20  C   UNL     1     -28.045  26.537 -18.107  1.00  0.00     0.000 C 
BRANCH  20  21
ATOM     21  C   UNL     1     -28.650  27.300 -19.299  1.00  0.00     0.000 C 
BRANCH  21  22
ATOM     22  C   UNL     1     -27.685  27.405 -20.491  1.00  0.00     0.000 C 
BRANCH  22  23
ATOM     23  C   UNL     1     -26.230  27.095 -20.098  1.00  0.00     0.000 C 
BRANCH  23  24
ATOM     24  C   UNL     1     -25.613  25.981 -20.959  1.00  0.00     0.000 C 
BRANCH  24  25
ATOM     25  C   UNL     1     -26.303  25.843 -22.329  1.00  0.00     0.000 C 
BRANCH  25  26
ATOM     26  C   UNL     1     -25.625  24.799 -23.230  1.00  0.00     0.000 C 
BRANCH  26  27
ATOM     27  C   UNL     1     -26.419  24.531 -24.520  1.00  0.00     0.002 C 
BRANCH  27  28
ATOM     28  C   UNL     1     -25.516  24.215 -25.725  1.00  0.00     0.028 C 
BRANCH  28  29
ATOM     29  C   UNL     1     -25.779  25.116 -26.940  1.00  0.00     0.156 C 
BRANCH  29  30
ATOM     30  O   UNL     1     -24.598  25.726 -27.384  1.00  0.00    -0.396 OA
ATOM     31  H   UNL     1     -24.647  26.678 -27.108  1.00  0.00     0.210 HD
ENDBRANCH  29  30
ENDBRANCH  28  29
ENDBRANCH  27  28
ENDBRANCH  26  27
ENDBRANCH  25  26
ENDBRANCH  24  25
ENDBRANCH  23  24
ENDBRANCH  22  23
ENDBRANCH  21  22
ENDBRANCH  20  21
ENDBRANCH  19  20
ENDBRANCH  18  19
ENDBRANCH  17  18
ENDBRANCH   1  17
TORSDOF 28
ENDMDL
MODEL 5
REMARK VINA RESULT:    -3.673      1.118      3.863
REMARK INTER + INTRA:         -15.521
REMARK INTER:                 -10.184
REMARK INTRA:                  -5.336
REMARK UNBOUND:                -5.942
REMARK SMILES CCCCCCCCCCCCCCCCCCCCCCCCCCCCCO
REMARK SMILES IDX 16 1 15 2 14 3 13 4 12 5 11 6 10 7 9 8 8 9 7 10 6 11 5 12
REMARK SMILES IDX 4 13 3 14 2 15 1 16 17 17 18 18 19 19 20 20 21 21 22 22
REMARK SMILES IDX 23 23 24 24 25 25 26 26 27 27 28 28 29 29 30 30
REMARK H PARENT 30 31
REMARK Flexibility Score: inf
ROOT
ATOM      1  C   UNL     1     -26.609  24.969 -22.813  1.00  0.00     0.000 C 
ENDROOT
BRANCH   1   2
ATOM      2  C   UNL     1     -25.667  24.412 -21.732  1.00  0.00     0.000 C 
BRANCH   2   3
ATOM      3  C   UNL     1     -24.269  24.053 -22.273  1.00  0.00     0.000 C 
BRANCH   3   4
ATOM      4  C   UNL     1     -24.181  22.722 -23.045  1.00  0.00     0.000 C 
BRANCH   4   5
ATOM      5  C   UNL     1     -24.156  21.490 -22.127  1.00  0.00     0.000 C 
BRANCH   5   6
ATOM      6  C   UNL     1     -25.348  20.564 -22.414  1.00  0.00     0.000 C 
BRANCH   6   7
ATOM      7  C   UNL     1     -26.323  21.146 -23.450  1.00  0.00     0.000 C 
BRANCH   7   8
ATOM      8  C   UNL     1     -27.754  21.292 -22.908  1.00  0.00    -0.000 C 
BRANCH   8   9
ATOM      9  C   UNL     1     -27.834  21.118 -21.382  1.00  0.00    -0.000 C 
BRANCH   9  10
ATOM     10  C   UNL     1     -28.380  22.361 -20.648  1.00  0.00    -0.000 C 
BRANCH  10  11
ATOM     11  C   UNL     1     -28.360  22.186 -19.119  1.00  0.00    -0.000 C 
BRANCH  11  12
ATOM     12  C   UNL     1     -28.326  23.529 -18.372  1.00  0.00    -0.000 C 
BRANCH  12  13
ATOM     13  C   UNL     1     -28.720  24.715 -19.271  1.00  0.00    -0.000 C 
BRANCH  13  14
ATOM     14  C   UNL     1     -28.374  26.074 -18.641  1.00  0.00    -0.000 C 
BRANCH  14  15
ATOM     15  C   UNL     1     -27.997  27.131 -19.690  1.00  0.00    -0.003 C 
ATOM     16  C   UNL     1     -29.136  28.125 -19.900  1.00  0.00     0.004 C 
ENDBRANCH  14  15
ENDBRANCH  13  14
ENDBRANCH  12  13
ENDBRANCH  11  12
ENDBRANCH  10  11
ENDBRANCH   9  10
ENDBRANCH   8   9
ENDBRANCH   7   8
ENDBRANCH   6   7
ENDBRANCH   5   6
ENDBRANCH   4   5
ENDBRANCH   3   4
ENDBRANCH   2   3
ENDBRANCH   1   2
BRANCH   1  17
ATOM     17  C   UNL     1     -26.603  26.507 -22.878  1.00  0.00     0.000 C 
BRANCH  17  18
ATOM     18  C   UNL     1     -27.442  27.119 -24.013  1.00  0.00     0.000 C 
BRANCH  18  19
ATOM     19  C   UNL     1     -28.744  27.764 -23.512  1.00  0.00     0.000 C 
BRANCH  19  20
ATOM     20  C   UNL     1     -29.985  26.917 -23.846  1.00  0.00     0.000 C 
BRANCH  20  21
ATOM     21  C   UNL     1     -30.634  26.305 -22.592  1.00  0.00     0.000 C 
BRANCH  21  22
ATOM     22  C   UNL     1     -30.901  24.798 -22.735  1.00  0.00     0.000 C 
BRANCH  22  23
ATOM     23  C   UNL     1     -29.780  24.073 -23.499  1.00  0.00     0.000 C 
BRANCH  23  24
ATOM     24  C   UNL     1     -30.307  23.283 -24.708  1.00  0.00     0.000 C 
BRANCH  24  25
ATOM     25  C   UNL     1     -30.301  24.115 -26.004  1.00  0.00     0.000 C 
BRANCH  25  26
ATOM     26  C   UNL     1     -29.104  23.786 -26.911  1.00  0.00     0.000 C 
BRANCH  26  27
ATOM     27  C   UNL     1     -27.769  24.274 -26.324  1.00  0.00     0.002 C 
BRANCH  27  28
ATOM     28  C   UNL     1     -27.173  25.463 -27.097  1.00  0.00     0.028 C 
BRANCH  28  29
ATOM     29  C   UNL     1     -25.671  25.319 -27.379  1.00  0.00     0.156 C 
BRANCH  29  30
ATOM     30  O   UNL     1     -24.965  24.990 -26.213  1.00  0.00    -0.396 OA
ATOM     31  H   UNL     1     -24.092  25.457 -26.267  1.00  0.00     0.210 HD
ENDBRANCH  29  30
ENDBRANCH  28  29
ENDBRANCH  27  28
ENDBRANCH  26  27
ENDBRANCH  25  26
ENDBRANCH  24  25
ENDBRANCH  23  24
ENDBRANCH  22  23
ENDBRANCH  21  22
ENDBRANCH  20  21
ENDBRANCH  19  20
ENDBRANCH  18  19
ENDBRANCH  17  18
ENDBRANCH   1  17
TORSDOF 28
ENDMDL
MODEL 6
REMARK VINA RESULT:    -3.659      1.416      3.907
REMARK INTER + INTRA:         -15.482
REMARK INTER:                  -9.651
REMARK INTRA:                  -5.831
REMARK UNBOUND:                -5.942
REMARK SMILES CCCCCCCCCCCCCCCCCCCCCCCCCCCCCO
REMARK SMILES IDX 16 1 15 2 14 3 13 4 12 5 11 6 10 7 9 8 8 9 7 10 6 11 5 12
REMARK SMILES IDX 4 13 3 14 2 15 1 16 17 17 18 18 19 19 20 20 21 21 22 22
REMARK SMILES IDX 23 23 24 24 25 25 26 26 27 27 28 28 29 29 30 30
REMARK H PARENT 30 31
REMARK Flexibility Score: inf
ROOT
ATOM      1  C   UNL     1     -27.439  23.482 -19.901  1.00  0.00     0.000 C 
ENDROOT
BRANCH   1   2
ATOM      2  C   UNL     1     -28.122  23.302 -18.534  1.00  0.00     0.000 C 
BRANCH   2   3
ATOM      3  C   UNL     1     -27.639  24.314 -17.477  1.00  0.00     0.000 C 
BRANCH   3   4
ATOM      4  C   UNL     1     -28.619  25.463 -17.165  1.00  0.00     0.000 C 
BRANCH   4   5
ATOM      5  C   UNL     1     -28.044  26.852 -17.481  1.00  0.00     0.000 C 
BRANCH   5   6
ATOM      6  C   UNL     1     -28.392  27.282 -18.914  1.00  0.00     0.000 C 
BRANCH   6   7
ATOM      7  C   UNL     1     -27.168  27.766 -19.707  1.00  0.00     0.000 C 
BRANCH   7   8
ATOM      8  C   UNL     1     -25.835  27.313 -19.089  1.00  0.00    -0.000 C 
BRANCH   8   9
ATOM      9  C   UNL     1     -25.146  26.207 -19.906  1.00  0.00    -0.000 C 
BRANCH   9  10
ATOM     10  C   UNL     1     -23.634  26.081 -19.620  1.00  0.00    -0.000 C 
BRANCH  10  11
ATOM     11  C   UNL     1     -22.944  25.090 -20.573  1.00  0.00    -0.000 C 
BRANCH  11  12
ATOM     12  C   UNL     1     -23.798  24.771 -21.811  1.00  0.00    -0.000 C 
BRANCH  12  13
ATOM     13  C   UNL     1     -24.162  23.278 -21.908  1.00  0.00    -0.000 C 
BRANCH  13  14
ATOM     14  C   UNL     1     -24.331  22.805 -23.361  1.00  0.00    -0.000 C 
BRANCH  14  15
ATOM     15  C   UNL     1     -25.489  21.810 -23.525  1.00  0.00    -0.003 C 
ATOM     16  C   UNL     1     -25.142  20.727 -24.543  1.00  0.00     0.004 C 
ENDBRANCH  14  15
ENDBRANCH  13  14
ENDBRANCH  12  13
ENDBRANCH  11  12
ENDBRANCH  10  11
ENDBRANCH   9  10
ENDBRANCH   8   9
ENDBRANCH   7   8
ENDBRANCH   6   7
ENDBRANCH   5   6
ENDBRANCH   4   5
ENDBRANCH   3   4
ENDBRANCH   2   3
ENDBRANCH   1   2
BRANCH   1  17
ATOM     17  C   UNL     1     -28.437  23.489 -21.073  1.00  0.00     0.000 C 
BRANCH  17  18
ATOM     18  C   UNL     1     -29.649  24.420 -20.897  1.00  0.00     0.000 C 
BRANCH  18  19
ATOM     19  C   UNL     1     -30.632  24.351 -22.077  1.00  0.00     0.000 C 
BRANCH  19  20
ATOM     20  C   UNL     1     -30.816  25.713 -22.768  1.00  0.00     0.000 C 
BRANCH  20  21
ATOM     21  C   UNL     1     -29.893  26.799 -22.185  1.00  0.00     0.000 C 
BRANCH  21  22
ATOM     22  C   UNL     1     -29.477  27.848 -23.228  1.00  0.00     0.000 C 
BRANCH  22  23
ATOM     23  C   UNL     1     -28.178  27.468 -23.960  1.00  0.00     0.000 C 
BRANCH  23  24
ATOM     24  C   UNL     1     -27.243  26.610 -23.092  1.00  0.00     0.000 C 
BRANCH  24  25
ATOM     25  C   UNL     1     -26.729  25.363 -23.834  1.00  0.00     0.000 C 
BRANCH  25  26
ATOM     26  C   UNL     1     -27.838  24.640 -24.614  1.00  0.00     0.000 C 
BRANCH  26  27
ATOM     27  C   UNL     1     -27.338  24.062 -25.949  1.00  0.00     0.002 C 
BRANCH  27  28
ATOM     28  C   UNL     1     -25.914  24.521 -26.305  1.00  0.00     0.028 C 
BRANCH  28  29
ATOM     29  C   UNL     1     -25.860  25.478 -27.504  1.00  0.00     0.156 C 
BRANCH  29  30
ATOM     30  O   UNL     1     -25.441  26.758 -27.114  1.00  0.00    -0.396 OA
ATOM     31  H   UNL     1     -24.688  26.631 -26.481  1.00  0.00     0.210 HD
ENDBRANCH  29  30
ENDBRANCH  28  29
ENDBRANCH  27  28
ENDBRANCH  26  27
ENDBRANCH  25  26
ENDBRANCH  24  25
ENDBRANCH  23  24
ENDBRANCH  22  23
ENDBRANCH  21  22
ENDBRANCH  20  21
ENDBRANCH  19  20
ENDBRANCH  18  19
ENDBRANCH  17  18
ENDBRANCH   1  17
TORSDOF 28
ENDMDL
MODEL 7
REMARK VINA RESULT:    -3.653      1.632      5.443
REMARK INTER + INTRA:         -15.466
REMARK INTER:                  -9.921
REMARK INTRA:                  -5.545
REMARK UNBOUND:                -5.942
REMARK SMILES CCCCCCCCCCCCCCCCCCCCCCCCCCCCCO
REMARK SMILES IDX 16 1 15 2 14 3 13 4 12 5 11 6 10 7 9 8 8 9 7 10 6 11 5 12
REMARK SMILES IDX 4 13 3 14 2 15 1 16 17 17 18 18 19 19 20 20 21 21 22 22
REMARK SMILES IDX 23 23 24 24 25 25 26 26 27 27 28 28 29 29 30 30
REMARK H PARENT 30 31
REMARK Flexibility Score: inf
ROOT
ATOM      1  C   UNL     1     -28.362  22.808 -21.983  1.00  0.00     0.000 C 
ENDROOT
BRANCH   1   2
ATOM      2  C   UNL     1     -29.514  22.311 -22.873  1.00  0.00     0.000 C 
BRANCH   2   3
ATOM      3  C   UNL     1     -30.564  23.401 -23.170  1.00  0.00     0.000 C 
BRANCH   3   4
ATOM      4  C   UNL     1     -30.649  24.538 -22.132  1.00  0.00     0.000 C 
BRANCH   4   5
ATOM      5  C   UNL     1     -30.690  25.935 -22.768  1.00  0.00     0.000 C 
BRANCH   5   6
ATOM      6  C   UNL     1     -31.005  25.851 -24.269  1.00  0.00     0.000 C 
BRANCH   6   7
ATOM      7  C   UNL     1     -29.912  26.484 -25.146  1.00  0.00     0.000 C 
BRANCH   7   8
ATOM      8  C   UNL     1     -28.527  26.469 -24.480  1.00  0.00    -0.000 C 
BRANCH   8   9
ATOM      9  C   UNL     1     -27.426  25.931 -25.410  1.00  0.00    -0.000 C 
BRANCH   9  10
ATOM     10  C   UNL     1     -27.399  24.390 -25.506  1.00  0.00    -0.000 C 
BRANCH  10  11
ATOM     11  C   UNL     1     -26.177  23.787 -24.793  1.00  0.00    -0.000 C 
BRANCH  11  12
ATOM     12  C   UNL     1     -25.266  22.999 -25.749  1.00  0.00    -0.000 C 
BRANCH  12  13
ATOM     13  C   UNL     1     -25.009  21.560 -25.268  1.00  0.00    -0.000 C 
BRANCH  13  14
ATOM     14  C   UNL     1     -25.948  21.144 -24.124  1.00  0.00    -0.000 C 
BRANCH  14  15
ATOM     15  C   UNL     1     -25.262  20.223 -23.104  1.00  0.00    -0.003 C 
ATOM     16  C   UNL     1     -24.530  21.033 -22.039  1.00  0.00     0.004 C 
ENDBRANCH  14  15
ENDBRANCH  13  14
ENDBRANCH  12  13
ENDBRANCH  11  12
ENDBRANCH  10  11
ENDBRANCH   9  10
ENDBRANCH   8   9
ENDBRANCH   7   8
ENDBRANCH   6   7
ENDBRANCH   5   6
ENDBRANCH   4   5
ENDBRANCH   3   4
ENDBRANCH   2   3
ENDBRANCH   1   2
BRANCH   1  17
ATOM     17  C   UNL     1     -27.990  21.810 -20.872  1.00  0.00     0.000 C 
BRANCH  17  18
ATOM     18  C   UNL     1     -28.341  22.258 -19.443  1.00  0.00     0.000 C 
BRANCH  18  19
ATOM     19  C   UNL     1     -28.568  23.774 -19.330  1.00  0.00     0.000 C 
BRANCH  19  20
ATOM     20  C   UNL     1     -27.797  24.398 -18.154  1.00  0.00     0.000 C 
BRANCH  20  21
ATOM     21  C   UNL     1     -28.718  25.163 -17.186  1.00  0.00     0.000 C 
BRANCH  21  22
ATOM     22  C   UNL     1     -28.377  26.659 -17.098  1.00  0.00     0.000 C 
BRANCH  22  23
ATOM     23  C   UNL     1     -27.521  27.138 -18.284  1.00  0.00     0.000 C 
BRANCH  23  24
ATOM     24  C   UNL     1     -28.374  27.655 -19.453  1.00  0.00     0.000 C 
BRANCH  24  25
ATOM     25  C   UNL     1     -27.841  27.193 -20.822  1.00  0.00     0.000 C 
BRANCH  25  26
ATOM     26  C   UNL     1     -26.365  26.767 -20.768  1.00  0.00     0.000 C 
BRANCH  26  27
ATOM     27  C   UNL     1     -25.985  25.814 -21.914  1.00  0.00     0.002 C 
BRANCH  27  28
ATOM     28  C   UNL     1     -25.154  24.609 -21.440  1.00  0.00     0.028 C 
BRANCH  28  29
ATOM     29  C   UNL     1     -23.643  24.791 -21.637  1.00  0.00     0.156 C 
BRANCH  29  30
ATOM     30  O   UNL     1     -23.228  24.288 -22.879  1.00  0.00    -0.396 OA
ATOM     31  H   UNL     1     -22.784  23.420 -22.700  1.00  0.00     0.210 HD
ENDBRANCH  29  30
ENDBRANCH  28  29
ENDBRANCH  27  28
ENDBRANCH  26  27
ENDBRANCH  25  26
ENDBRANCH  24  25
ENDBRANCH  23  24
ENDBRANCH  22  23
ENDBRANCH  21  22
ENDBRANCH  20  21
ENDBRANCH  19  20
ENDBRANCH  18  19
ENDBRANCH  17  18
ENDBRANCH   1  17
TORSDOF 28
ENDMDL
MODEL 8
REMARK VINA RESULT:    -3.652      1.471      5.699
REMARK INTER + INTRA:         -15.464
REMARK INTER:                  -9.092
REMARK INTRA:                  -6.372
REMARK UNBOUND:                -5.942
REMARK SMILES CCCCCCCCCCCCCCCCCCCCCCCCCCCCCO
REMARK SMILES IDX 16 1 15 2 14 3 13 4 12 5 11 6 10 7 9 8 8 9 7 10 6 11 5 12
REMARK SMILES IDX 4 13 3 14 2 15 1 16 17 17 18 18 19 19 20 20 21 21 22 22
REMARK SMILES IDX 23 23 24 24 25 25 26 26 27 27 28 28 29 29 30 30
REMARK H PARENT 30 31
REMARK Flexibility Score: inf
ROOT
ATOM      1  C   UNL     1     -27.540  22.609 -20.435  1.00  0.00     0.000 C 
ENDROOT
BRANCH   1   2
ATOM      2  C   UNL     1     -28.057  21.324 -21.104  1.00  0.00     0.000 C 
BRANCH   2   3
ATOM      3  C   UNL     1     -26.980  20.598 -21.934  1.00  0.00     0.000 C 
BRANCH   3   4
ATOM      4  C   UNL     1     -27.315  20.402 -23.426  1.00  0.00     0.000 C 
BRANCH   4   5
ATOM      5  C   UNL     1     -28.100  21.576 -24.029  1.00  0.00     0.000 C 
BRANCH   5   6
ATOM      6  C   UNL     1     -28.888  21.135 -25.271  1.00  0.00     0.000 C 
BRANCH   6   7
ATOM      7  C   UNL     1     -30.327  21.676 -25.290  1.00  0.00     0.000 C 
BRANCH   7   8
ATOM      8  C   UNL     1     -30.812  22.136 -23.906  1.00  0.00    -0.000 C 
BRANCH   8   9
ATOM      9  C   UNL     1     -31.195  23.625 -23.875  1.00  0.00    -0.000 C 
BRANCH   9  10
ATOM     10  C   UNL     1     -30.619  24.385 -22.660  1.00  0.00    -0.000 C 
BRANCH  10  11
ATOM     11  C   UNL     1     -29.189  24.889 -22.917  1.00  0.00    -0.000 C 
BRANCH  11  12
ATOM     12  C   UNL     1     -29.160  26.207 -23.707  1.00  0.00    -0.000 C 
BRANCH  12  13
ATOM     13  C   UNL     1     -28.087  26.210 -24.811  1.00  0.00    -0.000 C 
BRANCH  13  14
ATOM     14  C   UNL     1     -28.092  24.917 -25.642  1.00  0.00    -0.000 C 
BRANCH  14  15
ATOM     15  C   UNL     1     -28.617  25.135 -27.069  1.00  0.00    -0.003 C 
ATOM     16  C   UNL     1     -30.132  24.964 -27.129  1.00  0.00     0.004 C 
ENDBRANCH  14  15
ENDBRANCH  13  14
ENDBRANCH  12  13
ENDBRANCH  11  12
ENDBRANCH  10  11
ENDBRANCH   9  10
ENDBRANCH   8   9
ENDBRANCH   7   8
ENDBRANCH   6   7
ENDBRANCH   5   6
ENDBRANCH   4   5
ENDBRANCH   3   4
ENDBRANCH   2   3
ENDBRANCH   1   2
BRANCH   1  17
ATOM     17  C   UNL     1     -28.610  23.310 -19.578  1.00  0.00     0.000 C 
BRANCH  17  18
ATOM     18  C   UNL     1     -28.083  24.011 -18.314  1.00  0.00     0.000 C 
BRANCH  18  19
ATOM     19  C   UNL     1     -27.868  25.520 -18.513  1.00  0.00     0.000 C 
BRANCH  19  20
ATOM     20  C   UNL     1     -28.771  26.101 -19.614  1.00  0.00     0.000 C 
BRANCH  20  21
ATOM     21  C   UNL     1     -28.188  27.381 -20.239  1.00  0.00     0.000 C 
BRANCH  21  22
ATOM     22  C   UNL     1     -26.655  27.347 -20.345  1.00  0.00     0.000 C 
BRANCH  22  23
ATOM     23  C   UNL     1     -26.167  26.521 -21.548  1.00  0.00     0.000 C 
BRANCH  23  24
ATOM     24  C   UNL     1     -25.224  25.380 -21.135  1.00  0.00     0.000 C 
BRANCH  24  25
ATOM     25  C   UNL     1     -24.480  24.766 -22.335  1.00  0.00     0.000 C 
BRANCH  25  26
ATOM     26  C   UNL     1     -25.400  23.925 -23.233  1.00  0.00     0.000 C 
BRANCH  26  27
ATOM     27  C   UNL     1     -24.618  22.949 -24.129  1.00  0.00     0.002 C 
BRANCH  27  28
ATOM     28  C   UNL     1     -25.079  22.981 -25.596  1.00  0.00     0.028 C 
BRANCH  28  29
ATOM     29  C   UNL     1     -25.045  21.607 -26.279  1.00  0.00     0.156 C 
BRANCH  29  30
ATOM     30  O   UNL     1     -24.550  21.702 -27.587  1.00  0.00    -0.396 OA
ATOM     31  H   UNL     1     -25.325  21.913 -28.170  1.00  0.00     0.210 HD
ENDBRANCH  29  30
ENDBRANCH  28  29
ENDBRANCH  27  28
ENDBRANCH  26  27
ENDBRANCH  25  26
ENDBRANCH  24  25
ENDBRANCH  23  24
ENDBRANCH  22  23
ENDBRANCH  21  22
ENDBRANCH  20  21
ENDBRANCH  19  20
ENDBRANCH  18  19
ENDBRANCH  17  18
ENDBRANCH   1  17
TORSDOF 28
ENDMDL
MODEL 9
REMARK VINA RESULT:    -3.622      2.151      5.493
REMARK INTER + INTRA:         -15.388
REMARK INTER:                  -9.348
REMARK INTRA:                  -6.040
REMARK UNBOUND:                -5.942
REMARK SMILES CCCCCCCCCCCCCCCCCCCCCCCCCCCCCO
REMARK SMILES IDX 16 1 15 2 14 3 13 4 12 5 11 6 10 7 9 8 8 9 7 10 6 11 5 12
REMARK SMILES IDX 4 13 3 14 2 15 1 16 17 17 18 18 19 19 20 20 21 21 22 22
REMARK SMILES IDX 23 23 24 24 25 25 26 26 27 27 28 28 29 29 30 30
REMARK H PARENT 30 31
REMARK Flexibility Score: inf
ROOT
ATOM      1  C   UNL     1     -28.949  24.051 -19.070  1.00  0.00     0.000 C 
ENDROOT
BRANCH   1   2
ATOM      2  C   UNL     1     -28.131  24.158 -17.772  1.00  0.00     0.000 C 
BRANCH   2   3
ATOM      3  C   UNL     1     -27.674  25.597 -17.460  1.00  0.00     0.000 C 
BRANCH   3   4
ATOM      4  C   UNL     1     -26.453  26.091 -18.260  1.00  0.00     0.000 C 
BRANCH   4   5
ATOM      5  C   UNL     1     -26.823  27.060 -19.393  1.00  0.00     0.000 C 
BRANCH   5   6
ATOM      6  C   UNL     1     -27.919  28.040 -18.947  1.00  0.00     0.000 C 
BRANCH   6   7
ATOM      7  C   UNL     1     -29.139  28.039 -19.883  1.00  0.00     0.000 C 
BRANCH   7   8
ATOM      8  C   UNL     1     -28.928  27.183 -21.142  1.00  0.00    -0.000 C 
BRANCH   8   9
ATOM      9  C   UNL     1     -29.557  27.809 -22.398  1.00  0.00    -0.000 C 
BRANCH   9  10
ATOM     10  C   UNL     1     -30.687  26.953 -23.012  1.00  0.00    -0.000 C 
BRANCH  10  11
ATOM     11  C   UNL     1     -30.693  25.518 -22.459  1.00  0.00    -0.000 C 
BRANCH  11  12
ATOM     12  C   UNL     1     -30.316  24.474 -23.522  1.00  0.00    -0.000 C 
BRANCH  12  13
ATOM     13  C   UNL     1     -30.396  23.032 -22.987  1.00  0.00    -0.000 C 
BRANCH  13  14
ATOM     14  C   UNL     1     -31.050  22.067 -23.989  1.00  0.00    -0.000 C 
BRANCH  14  15
ATOM     15  C   UNL     1     -30.499  20.637 -23.875  1.00  0.00    -0.003 C 
ATOM     16  C   UNL     1     -31.165  19.711 -24.888  1.00  0.00     0.004 C 
ENDBRANCH  14  15
ENDBRANCH  13  14
ENDBRANCH  12  13
ENDBRANCH  11  12
ENDBRANCH  10  11
ENDBRANCH   9  10
ENDBRANCH   8   9
ENDBRANCH   7   8
ENDBRANCH   6   7
ENDBRANCH   5   6
ENDBRANCH   4   5
ENDBRANCH   3   4
ENDBRANCH   2   3
ENDBRANCH   1   2
BRANCH   1  17
ATOM     17  C   UNL     1     -28.700  22.736 -19.829  1.00  0.00     0.000 C 
BRANCH  17  18
ATOM     18  C   UNL     1     -27.398  22.687 -20.646  1.00  0.00     0.000 C 
BRANCH  18  19
ATOM     19  C   UNL     1     -27.183  23.944 -21.504  1.00  0.00     0.000 C 
BRANCH  19  20
ATOM     20  C   UNL     1     -25.697  24.324 -21.626  1.00  0.00     0.000 C 
BRANCH  20  21
ATOM     21  C   UNL     1     -25.388  25.077 -22.933  1.00  0.00     0.000 C 
BRANCH  21  22
ATOM     22  C   UNL     1     -26.630  25.746 -23.543  1.00  0.00     0.000 C 
BRANCH  22  23
ATOM     23  C   UNL     1     -26.962  25.202 -24.943  1.00  0.00     0.000 C 
BRANCH  23  24
ATOM     24  C   UNL     1     -25.806  24.391 -25.549  1.00  0.00     0.000 C 
BRANCH  24  25
ATOM     25  C   UNL     1     -26.199  22.932 -25.843  1.00  0.00     0.000 C 
BRANCH  25  26
ATOM     26  C   UNL     1     -27.205  22.374 -24.824  1.00  0.00     0.000 C 
BRANCH  26  27
ATOM     27  C   UNL     1     -26.691  21.106 -24.122  1.00  0.00     0.002 C 
BRANCH  27  28
ATOM     28  C   UNL     1     -25.233  21.233 -23.648  1.00  0.00     0.028 C 
BRANCH  28  29
ATOM     29  C   UNL     1     -24.966  20.554 -22.297  1.00  0.00     0.156 C 
BRANCH  29  30
ATOM     30  O   UNL     1     -25.911  19.551 -22.038  1.00  0.00    -0.396 OA
ATOM     31  H   UNL     1     -25.412  18.781 -21.662  1.00  0.00     0.210 HD
ENDBRANCH  29  30
ENDBRANCH  28  29
ENDBRANCH  27  28
ENDBRANCH  26  27
ENDBRANCH  25  26
ENDBRANCH  24  25
ENDBRANCH  23  24
ENDBRANCH  22  23
ENDBRANCH  21  22
ENDBRANCH  20  21
ENDBRANCH  19  20
ENDBRANCH  18  19
ENDBRANCH  17  18
ENDBRANCH   1  17
TORSDOF 28
ENDMDL
