MODEL 1
REMARK VINA RESULT:    -4.499      0.000      0.000
REMARK INTER + INTRA:          -6.964
REMARK INTER:                  -6.077
REMARK INTRA:                  -0.887
REMARK UNBOUND:                -0.887
REMARK SMILES CC(=O)CCC=C(C)CCC=C(C)C
REMARK SMILES IDX 7 1 6 2 8 3 9 4 10 5 11 6 13 7 12 8 14 9 5 10 4 11 2 12 3 13
REMARK SMILES IDX 1 14
REMARK H PARENT
REMARK Flexibility Score: inf
ROOT
ATOM      1  C   UNL     1       2.409  10.690  11.496  1.00  0.00    -0.077 C 
ATOM      2  C   UNL     1       2.274   9.356  11.680  1.00  0.00    -0.028 C 
ATOM      3  C   UNL     1       3.430  11.502  12.257  1.00  0.00     0.039 C 
ENDROOT
BRANCH   1   4
ATOM      4  C   UNL     1       1.553  11.384  10.457  1.00  0.00     0.034 C 
BRANCH   4   5
ATOM      5  C   UNL     1       1.062  10.409   9.380  1.00  0.00     0.032 C 
BRANCH   5   6
ATOM      6  C   UNL     1       2.015  10.354   8.208  1.00  0.00    -0.028 C 
ATOM      7  C   UNL     1       2.346   7.875   8.356  1.00  0.00     0.039 C 
ATOM      8  C   UNL     1       2.577   9.226   7.721  1.00  0.00    -0.080 C 
ATOM      9  C   UNL     1       3.457   9.332   6.502  1.00  0.00     0.039 C 
ENDBRANCH   5   6
ENDBRANCH   4   5
ENDBRANCH   1   4
BRANCH   2  10
ATOM     10  C   UNL     1       3.066   8.544  12.675  1.00  0.00     0.035 C 
BRANCH  10  11
ATOM     11  C   UNL     1       2.459   8.602  14.083  1.00  0.00     0.079 C 
BRANCH  11  12
ATOM     12  C   UNL     1       3.497   8.935  15.126  1.00  0.00     0.130 C 
ATOM     13  O   UNL     1       3.160   9.058  16.294  1.00  0.00    -0.300 OA
ATOM     14  C   UNL     1       4.937   9.133  14.758  1.00  0.00     0.087 C 
ENDBRANCH  11  12
ENDBRANCH  10  11
ENDBRANCH   2  10
TORSDOF 6
ENDMDL
MODEL 2
REMARK VINA RESULT:    -4.376     11.993     14.233
REMARK INTER + INTRA:          -6.798
REMARK INTER:                  -5.847
REMARK INTRA:                  -0.952
REMARK UNBOUND:                -0.887
REMARK SMILES CC(=O)CCC=C(C)CCC=C(C)C
REMARK SMILES IDX 7 1 6 2 8 3 9 4 10 5 11 6 13 7 12 8 14 9 5 10 4 11 2 12 3 13
REMARK SMILES IDX 1 14
REMARK H PARENT
REMARK Flexibility Score: inf
ROOT
ATOM      1  C   UNL     1       4.091  21.370   4.939  1.00  0.00    -0.077 C 
ATOM      2  C   UNL     1       3.058  21.508   4.076  1.00  0.00    -0.028 C 
ATOM      3  C   UNL     1       5.379  20.688   4.542  1.00  0.00     0.039 C 
ENDROOT
BRANCH   1   4
ATOM      4  C   UNL     1       3.979  21.962   6.328  1.00  0.00     0.034 C 
BRANCH   4   5
ATOM      5  C   UNL     1       3.933  20.875   7.409  1.00  0.00     0.032 C 
BRANCH   5   6
ATOM      6  C   UNL     1       2.786  19.917   7.181  1.00  0.00    -0.028 C 
ATOM      7  C   UNL     1       4.273  17.984   6.606  1.00  0.00     0.039 C 
ATOM      8  C   UNL     1       2.922  18.615   6.849  1.00  0.00    -0.080 C 
ATOM      9  C   UNL     1       1.677  17.774   6.722  1.00  0.00     0.039 C 
ENDBRANCH   5   6
ENDBRANCH   4   5
ENDBRANCH   1   4
BRANCH   2  10
ATOM     10  C   UNL     1       3.043  20.971   2.666  1.00  0.00     0.035 C 
BRANCH  10  11
ATOM     11  C   UNL     1       3.583  21.989   1.653  1.00  0.00     0.079 C 
BRANCH  11  12
ATOM     12  C   UNL     1       4.697  21.408   0.817  1.00  0.00     0.130 C 
ATOM     13  O   UNL     1       5.358  22.144   0.099  1.00  0.00    -0.300 OA
ATOM     14  C   UNL     1       5.003  19.940   0.837  1.00  0.00     0.087 C 
ENDBRANCH  11  12
ENDBRANCH  10  11
ENDBRANCH   2  10
TORSDOF 6
ENDMDL
MODEL 3
REMARK VINA RESULT:    -4.302     11.646     13.582
REMARK INTER + INTRA:          -6.697
REMARK INTER:                  -5.513
REMARK INTRA:                  -1.185
REMARK UNBOUND:                -0.887
REMARK SMILES CC(=O)CCC=C(C)CCC=C(C)C
REMARK SMILES IDX 7 1 6 2 8 3 9 4 10 5 11 6 13 7 12 8 14 9 5 10 4 11 2 12 3 13
REMARK SMILES IDX 1 14
REMARK H PARENT
REMARK Flexibility Score: inf
ROOT
ATOM      1  C   UNL     1       3.049  22.398   6.285  1.00  0.00    -0.077 C 
ATOM      2  C   UNL     1       2.580  22.186   5.034  1.00  0.00    -0.028 C 
ATOM      3  C   UNL     1       4.478  22.813   6.543  1.00  0.00     0.039 C 
ENDROOT
BRANCH   1   4
ATOM      4  C   UNL     1       2.105  22.270   7.461  1.00  0.00     0.034 C 
BRANCH   4   5
ATOM      5  C   UNL     1       1.734  20.807   7.737  1.00  0.00     0.032 C 
BRANCH   5   6
ATOM      6  C   UNL     1       2.922  19.891   7.553  1.00  0.00    -0.028 C 
ATOM      7  C   UNL     1       1.787  18.460   5.837  1.00  0.00     0.039 C 
ATOM      8  C   UNL     1       2.972  18.854   6.687  1.00  0.00    -0.080 C 
ATOM      9  C   UNL     1       4.257  18.076   6.575  1.00  0.00     0.039 C 
ENDBRANCH   5   6
ENDBRANCH   4   5
ENDBRANCH   1   4
BRANCH   2  10
ATOM     10  C   UNL     1       3.411  22.286   3.778  1.00  0.00     0.035 C 
BRANCH  10  11
ATOM     11  C   UNL     1       3.758  20.907   3.202  1.00  0.00     0.079 C 
BRANCH  11  12
ATOM     12  C   UNL     1       5.241  20.751   2.980  1.00  0.00     0.130 C 
ATOM     13  O   UNL     1       5.717  21.008   1.884  1.00  0.00    -0.300 OA
ATOM     14  C   UNL     1       6.147  20.272   4.074  1.00  0.00     0.087 C 
ENDBRANCH  11  12
ENDBRANCH  10  11
ENDBRANCH   2  10
TORSDOF 6
ENDMDL
MODEL 4
REMARK VINA RESULT:    -4.274     13.258     15.043
REMARK INTER + INTRA:          -6.660
REMARK INTER:                  -5.832
REMARK INTRA:                  -0.828
REMARK UNBOUND:                -0.887
REMARK SMILES CC(=O)CCC=C(C)CCC=C(C)C
REMARK SMILES IDX 7 1 6 2 8 3 9 4 10 5 11 6 13 7 12 8 14 9 5 10 4 11 2 12 3 13
REMARK SMILES IDX 1 14
REMARK H PARENT
REMARK Flexibility Score: inf
ROOT
ATOM      1  C   UNL     1       4.200  21.159   6.177  1.00  0.00    -0.077 C 
ATOM      2  C   UNL     1       4.287  22.454   5.792  1.00  0.00    -0.028 C 
ATOM      3  C   UNL     1       3.495  20.750   7.448  1.00  0.00     0.039 C 
ENDROOT
BRANCH   1   4
ATOM      4  C   UNL     1       4.779  20.081   5.285  1.00  0.00     0.034 C 
BRANCH   4   5
ATOM      5  C   UNL     1       5.870  20.633   4.359  1.00  0.00     0.032 C 
BRANCH   5   6
ATOM      6  C   UNL     1       5.792  20.015   2.982  1.00  0.00    -0.028 C 
ATOM      7  C   UNL     1       4.114  21.670   2.132  1.00  0.00     0.039 C 
ATOM      8  C   UNL     1       5.032  20.482   1.967  1.00  0.00    -0.080 C 
ATOM      9  C   UNL     1       5.116  19.789   0.631  1.00  0.00     0.039 C 
ENDBRANCH   5   6
ENDBRANCH   4   5
ENDBRANCH   1   4
BRANCH   2  10
ATOM     10  C   UNL     1       3.750  23.621   6.583  1.00  0.00     0.035 C 
BRANCH  10  11
ATOM     11  C   UNL     1       2.744  24.453   5.777  1.00  0.00     0.079 C 
BRANCH  11  12
ATOM     12  C   UNL     1       3.401  25.152   4.613  1.00  0.00     0.130 C 
ATOM     13  O   UNL     1       4.304  25.948   4.820  1.00  0.00    -0.300 OA
ATOM     14  C   UNL     1       2.961  24.899   3.202  1.00  0.00     0.087 C 
ENDBRANCH  11  12
ENDBRANCH  10  11
ENDBRANCH   2  10
TORSDOF 6
ENDMDL
MODEL 5
REMARK VINA RESULT:    -4.210     12.816     14.503
REMARK INTER + INTRA:          -6.574
REMARK INTER:                  -5.691
REMARK INTRA:                  -0.883
REMARK UNBOUND:                -0.887
REMARK SMILES CC(=O)CCC=C(C)CCC=C(C)C
REMARK SMILES IDX 7 1 6 2 8 3 9 4 10 5 11 6 13 7 12 8 14 9 5 10 4 11 2 12 3 13
REMARK SMILES IDX 1 14
REMARK H PARENT
REMARK Flexibility Score: inf
ROOT
ATOM      1  C   UNL     1       5.304  20.638   3.134  1.00  0.00    -0.077 C 
ATOM      2  C   UNL     1       4.176  21.149   3.679  1.00  0.00    -0.028 C 
ATOM      3  C   UNL     1       6.497  20.256   3.977  1.00  0.00     0.039 C 
ENDROOT
BRANCH   1   4
ATOM      4  C   UNL     1       5.358  20.390   1.641  1.00  0.00     0.034 C 
BRANCH   4   5
ATOM      5  C   UNL     1       4.245  21.140   0.898  1.00  0.00     0.032 C 
BRANCH   5   6
ATOM      6  C   UNL     1       4.757  22.422   0.284  1.00  0.00    -0.028 C 
ATOM      7  C   UNL     1       3.027  23.859   1.388  1.00  0.00     0.039 C 
ATOM      8  C   UNL     1       4.241  23.650   0.514  1.00  0.00    -0.080 C 
ATOM      9  C   UNL     1       4.909  24.840  -0.125  1.00  0.00     0.039 C 
ENDBRANCH   5   6
ENDBRANCH   4   5
ENDBRANCH   1   4
BRANCH   2  10
ATOM     10  C   UNL     1       3.989  21.439   5.148  1.00  0.00     0.035 C 
BRANCH  10  11
ATOM     11  C   UNL     1       2.848  20.617   5.760  1.00  0.00     0.079 C 
BRANCH  11  12
ATOM     12  C   UNL     1       3.332  19.742   6.889  1.00  0.00     0.130 C 
ATOM     13  O   UNL     1       3.243  20.140   8.041  1.00  0.00    -0.300 OA
ATOM     14  C   UNL     1       3.935  18.394   6.628  1.00  0.00     0.087 C 
ENDBRANCH  11  12
ENDBRANCH  10  11
ENDBRANCH   2  10
TORSDOF 6
ENDMDL
MODEL 6
REMARK VINA RESULT:    -4.209      2.806      6.613
REMARK INTER + INTRA:          -6.572
REMARK INTER:                  -5.902
REMARK INTRA:                  -0.671
REMARK UNBOUND:                -0.887
REMARK SMILES CC(=O)CCC=C(C)CCC=C(C)C
REMARK SMILES IDX 7 1 6 2 8 3 9 4 10 5 11 6 13 7 12 8 14 9 5 10 4 11 2 12 3 13
REMARK SMILES IDX 1 14
REMARK H PARENT
REMARK Flexibility Score: inf
ROOT
ATOM      1  C   UNL     1       2.444  10.067  11.379  1.00  0.00    -0.077 C 
ATOM      2  C   UNL     1       1.891  10.055  10.145  1.00  0.00    -0.028 C 
ATOM      3  C   UNL     1       3.064  11.314  11.965  1.00  0.00     0.039 C 
ENDROOT
BRANCH   1   4
ATOM      4  C   UNL     1       2.395   8.812  12.225  1.00  0.00     0.034 C 
BRANCH   4   5
ATOM      5  C   UNL     1       3.465   8.823  13.324  1.00  0.00     0.032 C 
BRANCH   5   6
ATOM      6  C   UNL     1       2.912   8.321  14.638  1.00  0.00    -0.028 C 
ATOM      7  C   UNL     1       2.481  10.616  15.546  1.00  0.00     0.039 C 
ATOM      8  C   UNL     1       2.443   9.109  15.631  1.00  0.00    -0.080 C 
ATOM      9  C   UNL     1       1.863   8.449  16.855  1.00  0.00     0.039 C 
ENDBRANCH   5   6
ENDBRANCH   4   5
ENDBRANCH   1   4
BRANCH   2  10
ATOM     10  C   UNL     1       1.867  11.235   9.204  1.00  0.00     0.035 C 
BRANCH  10  11
ATOM     11  C   UNL     1       1.476  10.830   7.777  1.00  0.00     0.079 C 
BRANCH  11  12
ATOM     12  C   UNL     1       2.558  10.018   7.110  1.00  0.00     0.130 C 
ATOM     13  O   UNL     1       3.655  10.520   6.915  1.00  0.00    -0.300 OA
ATOM     14  C   UNL     1       2.311   8.607   6.665  1.00  0.00     0.087 C 
ENDBRANCH  11  12
ENDBRANCH  10  11
ENDBRANCH   2  10
TORSDOF 6
ENDMDL
MODEL 7
REMARK VINA RESULT:    -4.198     12.508     14.750
REMARK INTER + INTRA:          -6.558
REMARK INTER:                  -5.677
REMARK INTRA:                  -0.881
REMARK UNBOUND:                -0.887
REMARK SMILES CC(=O)CCC=C(C)CCC=C(C)C
REMARK SMILES IDX 7 1 6 2 8 3 9 4 10 5 11 6 13 7 12 8 14 9 5 10 4 11 2 12 3 13
REMARK SMILES IDX 1 14
REMARK H PARENT
REMARK Flexibility Score: inf
ROOT
ATOM      1  C   UNL     1       4.720  21.238   4.539  1.00  0.00    -0.077 C 
ATOM      2  C   UNL     1       3.955  21.338   3.428  1.00  0.00    -0.028 C 
ATOM      3  C   UNL     1       6.023  20.474   4.546  1.00  0.00     0.039 C 
ENDROOT
BRANCH   1   4
ATOM      4  C   UNL     1       4.291  21.957   5.801  1.00  0.00     0.034 C 
BRANCH   4   5
ATOM      5  C   UNL     1       4.179  20.998   6.993  1.00  0.00     0.032 C 
BRANCH   5   6
ATOM      6  C   UNL     1       2.957  20.116   6.880  1.00  0.00    -0.028 C 
ATOM      7  C   UNL     1       4.277  18.013   6.544  1.00  0.00     0.039 C 
ATOM      8  C   UNL     1       2.984  18.776   6.706  1.00  0.00    -0.080 C 
ATOM      9  C   UNL     1       1.674  18.030   6.679  1.00  0.00     0.039 C 
ENDBRANCH   5   6
ENDBRANCH   4   5
ENDBRANCH   1   4
BRANCH   2  10
ATOM     10  C   UNL     1       4.270  20.678   2.108  1.00  0.00     0.035 C 
BRANCH  10  11
ATOM     11  C   UNL     1       5.063  21.601   1.174  1.00  0.00     0.079 C 
BRANCH  11  12
ATOM     12  C   UNL     1       4.172  22.613   0.499  1.00  0.00     0.130 C 
ATOM     13  O   UNL     1       3.006  22.330   0.266  1.00  0.00    -0.300 OA
ATOM     14  C   UNL     1       4.689  23.961   0.093  1.00  0.00     0.087 C 
ENDBRANCH  11  12
ENDBRANCH  10  11
ENDBRANCH   2  10
TORSDOF 6
ENDMDL
MODEL 8
REMARK VINA RESULT:    -4.186     12.985     14.812
REMARK INTER + INTRA:          -6.541
REMARK INTER:                  -5.648
REMARK INTRA:                  -0.892
REMARK UNBOUND:                -0.887
REMARK SMILES CC(=O)CCC=C(C)CCC=C(C)C
REMARK SMILES IDX 7 1 6 2 8 3 9 4 10 5 11 6 13 7 12 8 14 9 5 10 4 11 2 12 3 13
REMARK SMILES IDX 1 14
REMARK H PARENT
REMARK Flexibility Score: inf
ROOT
ATOM      1  C   UNL     1       2.938  21.746   7.314  1.00  0.00    -0.077 C 
ATOM      2  C   UNL     1       3.689  22.718   6.746  1.00  0.00    -0.028 C 
ATOM      3  C   UNL     1       1.531  22.004   7.797  1.00  0.00     0.039 C 
ENDROOT
BRANCH   1   4
ATOM      4  C   UNL     1       3.500  20.344   7.420  1.00  0.00     0.034 C 
BRANCH   4   5
ATOM      5  C   UNL     1       3.605  19.666   6.048  1.00  0.00     0.032 C 
BRANCH   5   6
ATOM      6  C   UNL     1       5.007  19.760   5.492  1.00  0.00    -0.028 C 
ATOM      7  C   UNL     1       4.322  21.099   3.489  1.00  0.00     0.039 C 
ATOM      8  C   UNL     1       5.348  20.420   4.364  1.00  0.00    -0.080 C 
ATOM      9  C   UNL     1       6.804  20.474   3.978  1.00  0.00     0.039 C 
ENDBRANCH   5   6
ENDBRANCH   4   5
ENDBRANCH   1   4
BRANCH   2  10
ATOM     10  C   UNL     1       3.249  24.151   6.574  1.00  0.00     0.035 C 
BRANCH  10  11
ATOM     11  C   UNL     1       2.564  24.388   5.221  1.00  0.00     0.079 C 
BRANCH  11  12
ATOM     12  C   UNL     1       3.466  25.119   4.259  1.00  0.00     0.130 C 
ATOM     13  O   UNL     1       4.250  25.955   4.684  1.00  0.00    -0.300 OA
ATOM     14  C   UNL     1       3.412  24.853   2.784  1.00  0.00     0.087 C 
ENDBRANCH  11  12
ENDBRANCH  10  11
ENDBRANCH   2  10
TORSDOF 6
ENDMDL
MODEL 9
REMARK VINA RESULT:    -4.104     13.567     15.240
REMARK INTER + INTRA:          -6.431
REMARK INTER:                  -5.567
REMARK INTRA:                  -0.864
REMARK UNBOUND:                -0.887
REMARK SMILES CC(=O)CCC=C(C)CCC=C(C)C
REMARK SMILES IDX 7 1 6 2 8 3 9 4 10 5 11 6 13 7 12 8 14 9 5 10 4 11 2 12 3 13
REMARK SMILES IDX 1 14
REMARK H PARENT
REMARK Flexibility Score: inf
ROOT
ATOM      1  C   UNL     1       5.334  20.626   3.539  1.00  0.00    -0.077 C 
ATOM      2  C   UNL     1       4.230  21.012   4.221  1.00  0.00    -0.028 C 
ATOM      3  C   UNL     1       6.540  20.043   4.235  1.00  0.00     0.039 C 
ENDROOT
BRANCH   1   4
ATOM      4  C   UNL     1       5.343  20.730   2.029  1.00  0.00     0.034 C 
BRANCH   4   5
ATOM      5  C   UNL     1       4.052  21.360   1.492  1.00  0.00     0.032 C 
BRANCH   5   6
ATOM      6  C   UNL     1       4.341  22.583   0.654  1.00  0.00    -0.028 C 
ATOM      7  C   UNL     1       3.347  24.180   2.309  1.00  0.00     0.039 C 
ATOM      8  C   UNL     1       4.057  23.854   1.016  1.00  0.00    -0.080 C 
ATOM      9  C   UNL     1       4.469  24.972   0.094  1.00  0.00     0.039 C 
ENDBRANCH   5   6
ENDBRANCH   4   5
ENDBRANCH   1   4
BRANCH   2  10
ATOM     10  C   UNL     1       4.088  20.956   5.723  1.00  0.00     0.035 C 
BRANCH  10  11
ATOM     11  C   UNL     1       4.565  22.249   6.398  1.00  0.00     0.079 C 
BRANCH  11  12
ATOM     12  C   UNL     1       3.418  23.185   6.686  1.00  0.00     0.130 C 
ATOM     13  O   UNL     1       2.367  22.736   7.119  1.00  0.00    -0.300 OA
ATOM     14  C   UNL     1       3.534  24.659   6.437  1.00  0.00     0.087 C 
ENDBRANCH  11  12
ENDBRANCH  10  11
ENDBRANCH   2  10
TORSDOF 6
ENDMDL
