MODEL 1
REMARK VINA RESULT:    -3.614      0.000      0.000
REMARK INTER + INTRA:          -4.712
REMARK INTER:                  -4.459
REMARK INTRA:                  -0.253
REMARK UNBOUND:                -0.253
REMARK SMILES CCCCCC(=O)[O-]
REMARK SMILES IDX 4 1 5 2 6 3 7 4 8 5 3 6 2 7 1 8
REMARK H PARENT
REMARK Flexibility Score: inf
ROOT
ATOM      1  C   UNL     1      62.515  29.652  11.747  1.00  0.00     0.006 C 
ENDROOT
BRANCH   1   2
ATOM      2  C   UNL     1      62.619  28.939  10.390  1.00  0.00     0.053 C 
BRANCH   2   3
ATOM      3  C   UNL     1      61.283  28.790   9.729  1.00  0.00     0.041 C 
ATOM      4  O   UNL     1      61.058  27.812   8.970  1.00  0.00    -0.550 OA
ATOM      5  O   UNL     1      60.276  29.713   9.978  1.00  0.00    -0.550 OA
ENDBRANCH   2   3
ENDBRANCH   1   2
BRANCH   1   6
ATOM      6  C   UNL     1      62.272  28.711  12.941  1.00  0.00     0.000 C 
BRANCH   6   7
ATOM      7  C   UNL     1      60.916  28.950  13.620  1.00  0.00    -0.003 C 
ATOM      8  C   UNL     1      59.857  27.991  13.083  1.00  0.00     0.004 C 
ENDBRANCH   6   7
ENDBRANCH   1   6
TORSDOF 4
ENDMDL
MODEL 2
REMARK VINA RESULT:    -3.587      1.209      2.052
REMARK INTER + INTRA:          -4.678
REMARK INTER:                  -4.423
REMARK INTRA:                  -0.255
REMARK UNBOUND:                -0.253
REMARK SMILES CCCCCC(=O)[O-]
REMARK SMILES IDX 4 1 5 2 6 3 7 4 8 5 3 6 2 7 1 8
REMARK H PARENT
REMARK Flexibility Score: inf
ROOT
ATOM      1  C   UNL     1      59.627  29.146  11.600  1.00  0.00     0.006 C 
ENDROOT
BRANCH   1   2
ATOM      2  C   UNL     1      60.525  29.732  10.499  1.00  0.00     0.053 C 
BRANCH   2   3
ATOM      3  C   UNL     1      61.375  28.684   9.849  1.00  0.00     0.041 C 
ATOM      4  O   UNL     1      60.851  27.820   9.099  1.00  0.00    -0.550 OA
ATOM      5  O   UNL     1      62.750  28.683  10.044  1.00  0.00    -0.550 OA
ENDBRANCH   2   3
ENDBRANCH   1   2
BRANCH   1   6
ATOM      6  C   UNL     1      60.370  28.267  12.623  1.00  0.00     0.000 C 
BRANCH   6   7
ATOM      7  C   UNL     1      61.065  29.089  13.719  1.00  0.00    -0.003 C 
ATOM      8  C   UNL     1      62.581  29.067  13.542  1.00  0.00     0.004 C 
ENDBRANCH   6   7
ENDBRANCH   1   6
TORSDOF 4
ENDMDL
MODEL 3
REMARK VINA RESULT:    -3.551      1.822      2.495
REMARK INTER + INTRA:          -4.633
REMARK INTER:                  -4.403
REMARK INTRA:                  -0.231
REMARK UNBOUND:                -0.253
REMARK SMILES CCCCCC(=O)[O-]
REMARK SMILES IDX 4 1 5 2 6 3 7 4 8 5 3 6 2 7 1 8
REMARK H PARENT
REMARK Flexibility Score: inf
ROOT
ATOM      1  C   UNL     1      60.576  29.578  10.810  1.00  0.00     0.006 C 
ENDROOT
BRANCH   1   2
ATOM      2  C   UNL     1      61.514  28.525  10.198  1.00  0.00     0.053 C 
BRANCH   2   3
ATOM      3  C   UNL     1      62.948  28.953  10.245  1.00  0.00     0.041 C 
ATOM      4  O   UNL     1      63.430  29.437  11.303  1.00  0.00    -0.550 OA
ATOM      5  O   UNL     1      63.762  28.785   9.133  1.00  0.00    -0.550 OA
ENDBRANCH   2   3
ENDBRANCH   1   2
BRANCH   1   6
ATOM      6  C   UNL     1      59.616  29.028  11.880  1.00  0.00     0.000 C 
BRANCH   6   7
ATOM      7  C   UNL     1      60.345  28.262  12.994  1.00  0.00    -0.003 C 
ATOM      8  C   UNL     1      61.096  29.218  13.916  1.00  0.00     0.004 C 
ENDBRANCH   6   7
ENDBRANCH   1   6
TORSDOF 4
ENDMDL
MODEL 4
REMARK VINA RESULT:    -3.511     14.519     16.010
REMARK INTER + INTRA:          -4.584
REMARK INTER:                  -4.323
REMARK INTRA:                  -0.262
REMARK UNBOUND:                -0.253
REMARK SMILES CCCCCC(=O)[O-]
REMARK SMILES IDX 4 1 5 2 6 3 7 4 8 5 3 6 2 7 1 8
REMARK H PARENT
REMARK Flexibility Score: inf
ROOT
ATOM      1  C   UNL     1      61.230  27.123  26.669  1.00  0.00     0.006 C 
ENDROOT
BRANCH   1   2
ATOM      2  C   UNL     1      62.162  27.687  27.752  1.00  0.00     0.053 C 
BRANCH   2   3
ATOM      3  C   UNL     1      61.612  28.933  28.374  1.00  0.00     0.041 C 
ATOM      4  O   UNL     1      60.592  28.877  29.109  1.00  0.00    -0.550 OA
ATOM      5  O   UNL     1      62.248  30.151  28.172  1.00  0.00    -0.550 OA
ENDBRANCH   2   3
ENDBRANCH   1   2
BRANCH   1   6
ATOM      6  C   UNL     1      60.814  28.145  25.595  1.00  0.00     0.000 C 
BRANCH   6   7
ATOM      7  C   UNL     1      61.897  28.358  24.527  1.00  0.00    -0.003 C 
ATOM      8  C   UNL     1      62.526  29.743  24.654  1.00  0.00     0.004 C 
ENDBRANCH   6   7
ENDBRANCH   1   6
TORSDOF 4
ENDMDL
MODEL 5
REMARK VINA RESULT:    -3.435      2.312      3.806
REMARK INTER + INTRA:          -4.490
REMARK INTER:                  -4.325
REMARK INTRA:                  -0.165
REMARK UNBOUND:                -0.253
REMARK SMILES CCCCCC(=O)[O-]
REMARK SMILES IDX 4 1 5 2 6 3 7 4 8 5 3 6 2 7 1 8
REMARK H PARENT
REMARK Flexibility Score: inf
ROOT
ATOM      1  C   UNL     1      60.178  29.372  10.269  1.00  0.00     0.006 C 
ENDROOT
BRANCH   1   2
ATOM      2  C   UNL     1      60.154  29.908  11.709  1.00  0.00     0.053 C 
BRANCH   2   3
ATOM      3  C   UNL     1      59.852  28.831  12.705  1.00  0.00     0.041 C 
ATOM      4  O   UNL     1      60.671  28.570  13.624  1.00  0.00    -0.550 OA
ATOM      5  O   UNL     1      58.649  28.140  12.640  1.00  0.00    -0.550 OA
ENDBRANCH   2   3
ENDBRANCH   1   2
BRANCH   1   6
ATOM      6  C   UNL     1      61.368  28.448   9.955  1.00  0.00     0.000 C 
BRANCH   6   7
ATOM      7  C   UNL     1      62.713  29.036  10.410  1.00  0.00    -0.003 C 
ATOM      8  C   UNL     1      63.737  29.001   9.279  1.00  0.00     0.004 C 
ENDBRANCH   6   7
ENDBRANCH   1   6
TORSDOF 4
ENDMDL
MODEL 6
REMARK VINA RESULT:    -3.434     14.617     15.757
REMARK INTER + INTRA:          -4.490
REMARK INTER:                  -4.236
REMARK INTRA:                  -0.254
REMARK UNBOUND:                -0.253
REMARK SMILES CCCCCC(=O)[O-]
REMARK SMILES IDX 4 1 5 2 6 3 7 4 8 5 3 6 2 7 1 8
REMARK H PARENT
REMARK Flexibility Score: inf
ROOT
ATOM      1  C   UNL     1      63.289  29.675  25.887  1.00  0.00     0.006 C 
ENDROOT
BRANCH   1   2
ATOM      2  C   UNL     1      63.201  28.990  27.260  1.00  0.00     0.053 C 
BRANCH   2   3
ATOM      3  C   UNL     1      62.234  29.679  28.172  1.00  0.00     0.041 C 
ATOM      4  O   UNL     1      62.525  30.793  28.679  1.00  0.00    -0.550 OA
ATOM      5  O   UNL     1      60.996  29.106  28.435  1.00  0.00    -0.550 OA
ENDBRANCH   2   3
ENDBRANCH   1   2
BRANCH   1   6
ATOM      6  C   UNL     1      61.976  29.654  25.083  1.00  0.00     0.000 C 
BRANCH   6   7
ATOM      7  C   UNL     1      61.597  28.245  24.602  1.00  0.00    -0.003 C 
ATOM      8  C   UNL     1      60.291  27.781  25.240  1.00  0.00     0.004 C 
ENDBRANCH   6   7
ENDBRANCH   1   6
TORSDOF 4
ENDMDL
MODEL 7
REMARK VINA RESULT:    -3.406      2.494      3.059
REMARK INTER + INTRA:          -4.455
REMARK INTER:                  -4.384
REMARK INTRA:                  -0.071
REMARK UNBOUND:                -0.253
REMARK SMILES CCCCCC(=O)[O-]
REMARK SMILES IDX 4 1 5 2 6 3 7 4 8 5 3 6 2 7 1 8
REMARK H PARENT
REMARK Flexibility Score: inf
ROOT
ATOM      1  C   UNL     1      60.073  29.988  12.257  1.00  0.00     0.006 C 
ENDROOT
BRANCH   1   2
ATOM      2  C   UNL     1      60.076  29.674  10.753  1.00  0.00     0.053 C 
BRANCH   2   3
ATOM      3  C   UNL     1      61.143  28.689  10.386  1.00  0.00     0.041 C 
ATOM      4  O   UNL     1      62.181  28.587  11.091  1.00  0.00    -0.550 OA
ATOM      5  O   UNL     1      60.975  27.858   9.286  1.00  0.00    -0.550 OA
ENDBRANCH   2   3
ENDBRANCH   1   2
BRANCH   1   6
ATOM      6  C   UNL     1      60.403  31.453  12.600  1.00  0.00     0.000 C 
BRANCH   6   7
ATOM      7  C   UNL     1      59.868  31.875  13.977  1.00  0.00    -0.003 C 
ATOM      8  C   UNL     1      60.505  33.184  14.434  1.00  0.00     0.004 C 
ENDBRANCH   6   7
ENDBRANCH   1   6
TORSDOF 4
ENDMDL
MODEL 8
REMARK VINA RESULT:    -3.404     13.474     14.406
REMARK INTER + INTRA:          -4.452
REMARK INTER:                  -4.311
REMARK INTRA:                  -0.141
REMARK UNBOUND:                -0.253
REMARK SMILES CCCCCC(=O)[O-]
REMARK SMILES IDX 4 1 5 2 6 3 7 4 8 5 3 6 2 7 1 8
REMARK H PARENT
REMARK Flexibility Score: inf
ROOT
ATOM      1  C   UNL     1      62.408  27.970  24.252  1.00  0.00     0.006 C 
ENDROOT
BRANCH   1   2
ATOM      2  C   UNL     1      61.224  28.458  25.100  1.00  0.00     0.053 C 
BRANCH   2   3
ATOM      3  C   UNL     1      60.525  27.329  25.794  1.00  0.00     0.041 C 
ATOM      4  O   UNL     1      59.531  26.775  25.256  1.00  0.00    -0.550 OA
ATOM      5  O   UNL     1      60.994  26.867  27.016  1.00  0.00    -0.550 OA
ENDBRANCH   2   3
ENDBRANCH   1   2
BRANCH   1   6
ATOM      6  C   UNL     1      63.732  27.838  25.027  1.00  0.00     0.000 C 
BRANCH   6   7
ATOM      7  C   UNL     1      64.168  26.377  25.213  1.00  0.00    -0.003 C 
ATOM      8  C   UNL     1      65.130  25.946  24.110  1.00  0.00     0.004 C 
ENDBRANCH   6   7
ENDBRANCH   1   6
TORSDOF 4
ENDMDL
MODEL 9
REMARK VINA RESULT:    -3.375      2.454      4.023
REMARK INTER + INTRA:          -4.417
REMARK INTER:                  -4.178
REMARK INTRA:                  -0.239
REMARK UNBOUND:                -0.253
REMARK SMILES CCCCCC(=O)[O-]
REMARK SMILES IDX 4 1 5 2 6 3 7 4 8 5 3 6 2 7 1 8
REMARK H PARENT
REMARK Flexibility Score: inf
ROOT
ATOM      1  C   UNL     1      59.640  29.081  11.564  1.00  0.00     0.006 C 
ENDROOT
BRANCH   1   2
ATOM      2  C   UNL     1      60.211  28.257  12.728  1.00  0.00     0.053 C 
BRANCH   2   3
ATOM      3  C   UNL     1      61.246  29.015  13.501  1.00  0.00     0.041 C 
ATOM      4  O   UNL     1      60.912  30.003  14.206  1.00  0.00    -0.550 OA
ATOM      5  O   UNL     1      62.574  28.610  13.469  1.00  0.00    -0.550 OA
ENDBRANCH   2   3
ENDBRANCH   1   2
BRANCH   1   6
ATOM      6  C   UNL     1      60.705  29.649  10.607  1.00  0.00     0.000 C 
BRANCH   6   7
ATOM      7  C   UNL     1      61.553  28.553   9.944  1.00  0.00    -0.003 C 
ATOM      8  C   UNL     1      63.026  28.950   9.902  1.00  0.00     0.004 C 
ENDBRANCH   6   7
ENDBRANCH   1   6
TORSDOF 4
ENDMDL
