MODEL 1
REMARK VINA RESULT:    -5.368      0.000      0.000
REMARK INTER + INTRA:          -6.291
REMARK INTER:                  -6.153
REMARK INTRA:                  -0.138
REMARK UNBOUND:                -0.138
REMARK SMILES O=C([O-])C=Cc1ccc(O)cc1
REMARK SMILES IDX 6 1 7 2 12 3 8 4 11 5 9 6 5 7 4 8 2 9 1 10 3 11 10 12
REMARK H PARENT 10 13
REMARK Flexibility Score: inf
ROOT
ATOM      1  C   UNL     1      19.990  23.909  39.653  1.00  0.00    -0.025 A 
ATOM      2  C   UNL     1      20.539  22.731  40.189  1.00  0.00     0.012 A 
ATOM      3  C   UNL     1      19.530  23.899  38.320  1.00  0.00     0.012 A 
ATOM      4  C   UNL     1      20.604  21.564  39.423  1.00  0.00     0.047 A 
ATOM      5  C   UNL     1      19.597  22.729  37.557  1.00  0.00     0.047 A 
ATOM      6  C   UNL     1      20.132  21.558  38.108  1.00  0.00     0.115 A 
ENDROOT
BRANCH   1   7
ATOM      7  C   UNL     1      19.953  25.125  40.503  1.00  0.00     0.010 C 
ATOM      8  C   UNL     1      20.957  26.008  40.584  1.00  0.00     0.025 C 
BRANCH   8   9
ATOM      9  C   UNL     1      20.871  27.207  41.433  1.00  0.00     0.064 C 
ATOM     10  O   UNL     1      20.099  27.211  42.427  1.00  0.00    -0.545 OA
ATOM     11  O   UNL     1      21.629  28.339  41.155  1.00  0.00    -0.545 OA
ENDBRANCH   8   9
ENDBRANCH   1   7
BRANCH   6  12
ATOM     12  O   UNL     1      20.202  20.386  37.356  1.00  0.00    -0.508 OA
ATOM     13  H   UNL     1      19.777  19.525  37.679  1.00  0.00     0.293 HD
ENDBRANCH   6  12
TORSDOF 3
ENDMDL
MODEL 2
REMARK VINA RESULT:    -5.246      1.290      1.609
REMARK INTER + INTRA:          -6.150
REMARK INTER:                  -6.015
REMARK INTRA:                  -0.135
REMARK UNBOUND:                -0.138
REMARK SMILES O=C([O-])C=Cc1ccc(O)cc1
REMARK SMILES IDX 6 1 7 2 12 3 8 4 11 5 9 6 5 7 4 8 2 9 1 10 3 11 10 12
REMARK H PARENT 10 13
REMARK Flexibility Score: inf
ROOT
ATOM      1  C   UNL     1      19.800  23.871  39.736  1.00  0.00    -0.025 A 
ATOM      2  C   UNL     1      20.436  22.738  40.271  1.00  0.00     0.012 A 
ATOM      3  C   UNL     1      19.386  23.846  38.389  1.00  0.00     0.012 A 
ATOM      4  C   UNL     1      20.633  21.597  39.490  1.00  0.00     0.047 A 
ATOM      5  C   UNL     1      19.586  22.702  37.609  1.00  0.00     0.047 A 
ATOM      6  C   UNL     1      20.207  21.574  38.158  1.00  0.00     0.115 A 
ENDROOT
BRANCH   1   7
ATOM      7  C   UNL     1      19.623  25.063  40.605  1.00  0.00     0.010 C 
ATOM      8  C   UNL     1      18.663  25.171  41.533  1.00  0.00     0.025 C 
BRANCH   8   9
ATOM      9  C   UNL     1      18.532  26.368  42.379  1.00  0.00     0.064 C 
ATOM     10  O   UNL     1      17.404  26.909  42.519  1.00  0.00    -0.545 OA
ATOM     11  O   UNL     1      19.635  26.914  43.026  1.00  0.00    -0.545 OA
ENDBRANCH   8   9
ENDBRANCH   1   7
BRANCH   6  12
ATOM     12  O   UNL     1      20.409  20.428  37.391  1.00  0.00    -0.508 OA
ATOM     13  H   UNL     1      21.027  20.432  36.588  1.00  0.00     0.293 HD
ENDBRANCH   6  12
TORSDOF 3
ENDMDL
MODEL 3
REMARK VINA RESULT:    -5.152     11.843     13.597
REMARK INTER + INTRA:          -6.043
REMARK INTER:                  -5.898
REMARK INTRA:                  -0.145
REMARK UNBOUND:                -0.138
REMARK SMILES O=C([O-])C=Cc1ccc(O)cc1
REMARK SMILES IDX 6 1 7 2 12 3 8 4 11 5 9 6 5 7 4 8 2 9 1 10 3 11 10 12
REMARK H PARENT 10 13
REMARK Flexibility Score: inf
ROOT
ATOM      1  C   UNL     1      27.166  23.724  50.386  1.00  0.00    -0.025 A 
ATOM      2  C   UNL     1      27.594  24.698  51.304  1.00  0.00     0.012 A 
ATOM      3  C   UNL     1      26.488  22.587  50.868  1.00  0.00     0.012 A 
ATOM      4  C   UNL     1      27.330  24.554  52.669  1.00  0.00     0.047 A 
ATOM      5  C   UNL     1      26.226  22.446  52.235  1.00  0.00     0.047 A 
ATOM      6  C   UNL     1      26.644  23.430  53.138  1.00  0.00     0.115 A 
ENDROOT
BRANCH   1   7
ATOM      7  C   UNL     1      27.480  23.918  48.947  1.00  0.00     0.010 C 
ATOM      8  C   UNL     1      28.692  24.256  48.489  1.00  0.00     0.025 C 
BRANCH   8   9
ATOM      9  C   UNL     1      28.960  24.428  47.052  1.00  0.00     0.064 C 
ATOM     10  O   UNL     1      30.107  24.779  46.671  1.00  0.00    -0.545 OA
ATOM     11  O   UNL     1      27.965  24.210  46.105  1.00  0.00    -0.545 OA
ENDBRANCH   8   9
ENDBRANCH   1   7
BRANCH   6  12
ATOM     12  O   UNL     1      26.387  23.301  54.501  1.00  0.00    -0.508 OA
ATOM     13  H   UNL     1      25.441  23.303  54.863  1.00  0.00     0.293 HD
ENDBRANCH   6  12
TORSDOF 3
ENDMDL
MODEL 4
REMARK VINA RESULT:    -4.973     11.315     13.224
REMARK INTER + INTRA:          -5.837
REMARK INTER:                  -5.684
REMARK INTRA:                  -0.153
REMARK UNBOUND:                -0.138
REMARK SMILES O=C([O-])C=Cc1ccc(O)cc1
REMARK SMILES IDX 6 1 7 2 12 3 8 4 11 5 9 6 5 7 4 8 2 9 1 10 3 11 10 12
REMARK H PARENT 10 13
REMARK Flexibility Score: inf
ROOT
ATOM      1  C   UNL     1      27.918  24.102  49.877  1.00  0.00    -0.025 A 
ATOM      2  C   UNL     1      26.684  24.307  50.518  1.00  0.00     0.012 A 
ATOM      3  C   UNL     1      29.061  23.857  50.665  1.00  0.00     0.012 A 
ATOM      4  C   UNL     1      26.587  24.246  51.910  1.00  0.00     0.047 A 
ATOM      5  C   UNL     1      28.960  23.798  52.059  1.00  0.00     0.047 A 
ATOM      6  C   UNL     1      27.722  23.989  52.684  1.00  0.00     0.115 A 
ENDROOT
BRANCH   1   7
ATOM      7  C   UNL     1      27.971  24.186  48.395  1.00  0.00     0.010 C 
ATOM      8  C   UNL     1      26.893  24.096  47.606  1.00  0.00     0.025 C 
BRANCH   8   9
ATOM      9  C   UNL     1      26.992  24.196  46.141  1.00  0.00     0.064 C 
ATOM     10  O   UNL     1      28.115  24.385  45.605  1.00  0.00    -0.545 OA
ATOM     11  O   UNL     1      25.863  24.088  45.336  1.00  0.00    -0.545 OA
ENDBRANCH   8   9
ENDBRANCH   1   7
BRANCH   6  12
ATOM     12  O   UNL     1      27.610  23.930  54.072  1.00  0.00    -0.508 OA
ATOM     13  H   UNL     1      27.942  23.130  54.596  1.00  0.00     0.293 HD
ENDBRANCH   6  12
TORSDOF 3
ENDMDL
MODEL 5
REMARK VINA RESULT:    -4.959      1.628      2.641
REMARK INTER + INTRA:          -5.821
REMARK INTER:                  -5.683
REMARK INTRA:                  -0.138
REMARK UNBOUND:                -0.138
REMARK SMILES O=C([O-])C=Cc1ccc(O)cc1
REMARK SMILES IDX 6 1 7 2 12 3 8 4 11 5 9 6 5 7 4 8 2 9 1 10 3 11 10 12
REMARK H PARENT 10 13
REMARK Flexibility Score: inf
ROOT
ATOM      1  C   UNL     1      19.628  23.742  40.006  1.00  0.00    -0.025 A 
ATOM      2  C   UNL     1      19.282  23.829  38.647  1.00  0.00     0.012 A 
ATOM      3  C   UNL     1      20.284  22.583  40.467  1.00  0.00     0.012 A 
ATOM      4  C   UNL     1      19.604  22.796  37.763  1.00  0.00     0.047 A 
ATOM      5  C   UNL     1      20.604  21.550  39.580  1.00  0.00     0.047 A 
ATOM      6  C   UNL     1      20.268  21.656  38.225  1.00  0.00     0.115 A 
ENDROOT
BRANCH   1   7
ATOM      7  C   UNL     1      19.254  24.861  40.907  1.00  0.00     0.010 C 
ATOM      8  C   UNL     1      18.235  24.810  41.775  1.00  0.00     0.025 C 
BRANCH   8   9
ATOM      9  C   UNL     1      17.908  25.941  42.657  1.00  0.00     0.064 C 
ATOM     10  O   UNL     1      18.779  26.819  42.892  1.00  0.00    -0.545 OA
ATOM     11  O   UNL     1      16.650  26.058  43.239  1.00  0.00    -0.545 OA
ENDBRANCH   8   9
ENDBRANCH   1   7
BRANCH   6  12
ATOM     12  O   UNL     1      20.584  20.634  37.331  1.00  0.00    -0.508 OA
ATOM     13  H   UNL     1      19.875  20.200  36.753  1.00  0.00     0.293 HD
ENDBRANCH   6  12
TORSDOF 3
ENDMDL
MODEL 6
REMARK VINA RESULT:    -4.946      1.323      5.854
REMARK INTER + INTRA:          -5.807
REMARK INTER:                  -5.668
REMARK INTRA:                  -0.138
REMARK UNBOUND:                -0.138
REMARK SMILES O=C([O-])C=Cc1ccc(O)cc1
REMARK SMILES IDX 6 1 7 2 12 3 8 4 11 5 9 6 5 7 4 8 2 9 1 10 3 11 10 12
REMARK H PARENT 10 13
REMARK Flexibility Score: inf
ROOT
ATOM      1  C   UNL     1      19.813  25.326  40.316  1.00  0.00    -0.025 A 
ATOM      2  C   UNL     1      20.932  26.165  40.458  1.00  0.00     0.012 A 
ATOM      3  C   UNL     1      18.822  25.338  41.318  1.00  0.00     0.012 A 
ATOM      4  C   UNL     1      21.048  27.014  41.562  1.00  0.00     0.047 A 
ATOM      5  C   UNL     1      18.943  26.188  42.422  1.00  0.00     0.047 A 
ATOM      6  C   UNL     1      20.054  27.031  42.545  1.00  0.00     0.115 A 
ENDROOT
BRANCH   1   7
ATOM      7  C   UNL     1      19.741  24.434  39.130  1.00  0.00     0.010 C 
ATOM      8  C   UNL     1      19.853  23.101  39.194  1.00  0.00     0.025 C 
BRANCH   8   9
ATOM      9  C   UNL     1      19.765  22.255  37.993  1.00  0.00     0.064 C 
ATOM     10  O   UNL     1      19.288  22.733  36.930  1.00  0.00    -0.545 OA
ATOM     11  O   UNL     1      20.197  20.934  38.011  1.00  0.00    -0.545 OA
ENDBRANCH   8   9
ENDBRANCH   1   7
BRANCH   6  12
ATOM     12  O   UNL     1      20.183  27.884  43.639  1.00  0.00    -0.508 OA
ATOM     13  H   UNL     1      20.725  27.621  44.453  1.00  0.00     0.293 HD
ENDBRANCH   6  12
TORSDOF 3
ENDMDL
MODEL 7
REMARK VINA RESULT:    -4.896     11.564     13.156
REMARK INTER + INTRA:          -5.749
REMARK INTER:                  -5.611
REMARK INTRA:                  -0.138
REMARK UNBOUND:                -0.138
REMARK SMILES O=C([O-])C=Cc1ccc(O)cc1
REMARK SMILES IDX 6 1 7 2 12 3 8 4 11 5 9 6 5 7 4 8 2 9 1 10 3 11 10 12
REMARK H PARENT 10 13
REMARK Flexibility Score: inf
ROOT
ATOM      1  C   UNL     1      28.836  23.828  49.111  1.00  0.00    -0.025 A 
ATOM      2  C   UNL     1      29.755  22.776  49.271  1.00  0.00     0.012 A 
ATOM      3  C   UNL     1      28.320  24.459  50.261  1.00  0.00     0.012 A 
ATOM      4  C   UNL     1      30.167  22.379  50.546  1.00  0.00     0.047 A 
ATOM      5  C   UNL     1      28.734  24.059  51.535  1.00  0.00     0.047 A 
ATOM      6  C   UNL     1      29.661  23.020  51.680  1.00  0.00     0.115 A 
ENDROOT
BRANCH   1   7
ATOM      7  C   UNL     1      28.422  24.205  47.736  1.00  0.00     0.010 C 
ATOM      8  C   UNL     1      27.306  23.758  47.146  1.00  0.00     0.025 C 
BRANCH   8   9
ATOM      9  C   UNL     1      26.929  24.168  45.784  1.00  0.00     0.064 C 
ATOM     10  O   UNL     1      27.819  24.552  44.982  1.00  0.00    -0.545 OA
ATOM     11  O   UNL     1      25.602  24.140  45.367  1.00  0.00    -0.545 OA
ENDBRANCH   8   9
ENDBRANCH   1   7
BRANCH   6  12
ATOM     12  O   UNL     1      30.083  22.614  52.945  1.00  0.00    -0.508 OA
ATOM     13  H   UNL     1      30.725  21.840  53.065  1.00  0.00     0.293 HD
ENDBRANCH   6  12
TORSDOF 3
ENDMDL
MODEL 8
REMARK VINA RESULT:    -4.838     11.244     12.536
REMARK INTER + INTRA:          -5.683
REMARK INTER:                  -5.538
REMARK INTRA:                  -0.146
REMARK UNBOUND:                -0.138
REMARK SMILES O=C([O-])C=Cc1ccc(O)cc1
REMARK SMILES IDX 6 1 7 2 12 3 8 4 11 5 9 6 5 7 4 8 2 9 1 10 3 11 10 12
REMARK H PARENT 10 13
REMARK Flexibility Score: inf
ROOT
ATOM      1  C   UNL     1      28.219  23.990  48.882  1.00  0.00    -0.025 A 
ATOM      2  C   UNL     1      27.039  23.568  48.246  1.00  0.00     0.012 A 
ATOM      3  C   UNL     1      29.257  24.534  48.098  1.00  0.00     0.012 A 
ATOM      4  C   UNL     1      26.887  23.707  46.864  1.00  0.00     0.047 A 
ATOM      5  C   UNL     1      29.101  24.671  46.715  1.00  0.00     0.047 A 
ATOM      6  C   UNL     1      27.914  24.261  46.095  1.00  0.00     0.115 A 
ENDROOT
BRANCH   1   7
ATOM      7  C   UNL     1      28.336  23.811  50.352  1.00  0.00     0.010 C 
ATOM      8  C   UNL     1      27.321  23.990  51.207  1.00  0.00     0.025 C 
BRANCH   8   9
ATOM      9  C   UNL     1      27.480  23.792  52.656  1.00  0.00     0.064 C 
ATOM     10  O   UNL     1      26.492  23.429  53.346  1.00  0.00    -0.545 OA
ATOM     11  O   UNL     1      28.706  24.000  53.278  1.00  0.00    -0.545 OA
ENDBRANCH   8   9
ENDBRANCH   1   7
BRANCH   6  12
ATOM     12  O   UNL     1      27.748  24.395  44.718  1.00  0.00    -0.508 OA
ATOM     13  H   UNL     1      28.428  24.884  44.149  1.00  0.00     0.293 HD
ENDBRANCH   6  12
TORSDOF 3
ENDMDL
MODEL 9
REMARK VINA RESULT:    -4.421      5.875      8.533
REMARK INTER + INTRA:          -5.205
REMARK INTER:                  -5.058
REMARK INTRA:                  -0.147
REMARK UNBOUND:                -0.138
REMARK SMILES O=C([O-])C=Cc1ccc(O)cc1
REMARK SMILES IDX 6 1 7 2 12 3 8 4 11 5 9 6 5 7 4 8 2 9 1 10 3 11 10 12
REMARK H PARENT 10 13
REMARK Flexibility Score: inf
ROOT
ATOM      1  C   UNL     1      16.549  25.335  45.096  1.00  0.00    -0.025 A 
ATOM      2  C   UNL     1      17.380  26.085  44.246  1.00  0.00     0.012 A 
ATOM      3  C   UNL     1      16.224  25.859  46.364  1.00  0.00     0.012 A 
ATOM      4  C   UNL     1      17.855  27.338  44.640  1.00  0.00     0.047 A 
ATOM      5  C   UNL     1      16.702  27.113  46.755  1.00  0.00     0.047 A 
ATOM      6  C   UNL     1      17.517  27.857  45.893  1.00  0.00     0.115 A 
ENDROOT
BRANCH   1   7
ATOM      7  C   UNL     1      16.078  24.004  44.635  1.00  0.00     0.010 C 
ATOM      8  C   UNL     1      16.819  23.166  43.899  1.00  0.00     0.025 C 
BRANCH   8   9
ATOM      9  C   UNL     1      16.314  21.851  43.473  1.00  0.00     0.064 C 
ATOM     10  O   UNL     1      17.064  20.842  43.550  1.00  0.00    -0.545 OA
ATOM     11  O   UNL     1      15.020  21.702  42.985  1.00  0.00    -0.545 OA
ENDBRANCH   8   9
ENDBRANCH   1   7
BRANCH   6  12
ATOM     12  O   UNL     1      17.997  29.109  46.272  1.00  0.00    -0.508 OA
ATOM     13  H   UNL     1      17.574  29.630  47.030  1.00  0.00     0.293 HD
ENDBRANCH   6  12
TORSDOF 3
ENDMDL
