MODEL 1
REMARK VINA RESULT:    -8.652      0.000      0.000
REMARK INTER + INTRA:         -15.449
REMARK INTER:                 -14.215
REMARK INTRA:                  -1.234
REMARK UNBOUND:                -1.234
REMARK SMILES COc1ccc([C@H]2CC(=O)c3c(O)cc(O[C@H]4O[C@@H](CO[C@@H]5O[C@H](C)[C@H](O)[C@H](O)[C@@H]5O)[C@@H](O)[C@H](O)[C@H]4O)cc3O2)cc1O
REMARK SMILES IDX 19 1 32 2 34 3 36 4 17 5 18 6 20 7 21 8 22 9 25 10 24 11
REMARK SMILES IDX 26 12 23 13 28 14 30 15 27 16 29 18 31 20 33 22 35 24 16 26
REMARK SMILES IDX 15 27 14 28 38 29 12 30 39 31 11 32 40 33 9 34 7 35 10 36
REMARK SMILES IDX 8 37 13 38 6 40 41 41 5 42 42 43 4 44 3 45 43 46 2 48 1 49
REMARK SMILES IDX 37 50
REMARK H PARENT 27 17 29 19 31 21 33 23 35 25 13 39 43 47 37 51
REMARK Flexibility Score: inf
ROOT
ATOM      1  C   UNL     1     -15.611  38.411  12.279  1.00  0.00     0.180 C 
ATOM      2  C   UNL     1     -14.442  37.776  13.106  1.00  0.00     0.177 C 
ATOM      3  C   UNL     1     -14.867  37.617  14.582  1.00  0.00     0.180 C 
ATOM      4  C   UNL     1     -16.208  36.856  14.700  1.00  0.00     0.214 C 
ATOM      5  C   UNL     1     -16.908  36.711  13.327  1.00  0.00     0.339 C 
ATOM      6  O   UNL     1     -16.912  37.951  12.654  1.00  0.00    -0.332 OA
ENDROOT
BRANCH   1   7
ATOM      7  C   UNL     1     -15.672  39.943  12.361  1.00  0.00     0.198 C 
BRANCH   7   8
ATOM      8  O   UNL     1     -16.855  40.451  11.765  1.00  0.00    -0.347 OA
BRANCH   8   9
ATOM      9  C   UNL     1     -16.695  40.835  10.407  1.00  0.00     0.281 C 
ATOM     10  C   UNL     1     -13.729  42.004   8.557  1.00  0.00     0.041 C 
ATOM     11  C   UNL     1     -15.135  41.422   8.740  1.00  0.00     0.150 C 
ATOM     12  C   UNL     1     -16.247  42.253   8.012  1.00  0.00     0.174 C 
ATOM     13  O   UNL     1     -15.371  41.297  10.136  1.00  0.00    -0.344 OA
ATOM     14  C   UNL     1     -17.217  42.942   9.015  1.00  0.00     0.179 C 
ATOM     15  C   UNL     1     -17.790  41.857   9.955  1.00  0.00     0.202 C 
BRANCH  12  16
ATOM     16  O   UNL     1     -15.749  43.131   7.028  1.00  0.00    -0.388 OA
ATOM     17  H   UNL     1     -14.781  43.271   7.177  1.00  0.00     0.211 HD
ENDBRANCH  12  16
BRANCH  14  18
ATOM     18  O   UNL     1     -16.637  43.984   9.767  1.00  0.00    -0.387 OA
ATOM     19  H   UNL     1     -17.338  44.588  10.130  1.00  0.00     0.211 HD
ENDBRANCH  14  18
BRANCH  15  20
ATOM     20  O   UNL     1     -18.512  42.411  11.029  1.00  0.00    -0.385 OA
ATOM     21  H   UNL     1     -19.083  43.145  10.680  1.00  0.00     0.211 HD
ENDBRANCH  15  20
ENDBRANCH   8   9
ENDBRANCH   7   8
ENDBRANCH   1   7
BRANCH   2  22
ATOM     22  O   UNL     1     -13.252  38.508  12.973  1.00  0.00    -0.387 OA
ATOM     23  H   UNL     1     -13.430  39.441  13.270  1.00  0.00     0.211 HD
ENDBRANCH   2  22
BRANCH   3  24
ATOM     24  O   UNL     1     -13.869  36.920  15.293  1.00  0.00    -0.387 OA
ATOM     25  H   UNL     1     -14.300  36.533  16.098  1.00  0.00     0.211 HD
ENDBRANCH   3  24
BRANCH   5  26
ATOM     26  O   UNL     1     -18.263  36.292  13.524  1.00  0.00    -0.462 OA
BRANCH  26  27
ATOM     27  C   UNL     1     -18.643  34.954  13.675  1.00  0.00     0.130 A 
ATOM     28  C   UNL     1     -17.762  33.945  13.268  1.00  0.00     0.093 A 
ATOM     29  C   UNL     1     -19.880  34.600  14.238  1.00  0.00     0.094 A 
ATOM     30  C   UNL     1     -18.119  32.590  13.371  1.00  0.00     0.133 A 
ATOM     31  C   UNL     1     -20.231  33.253  14.386  1.00  0.00     0.138 A 
ATOM     32  C   UNL     1     -19.370  32.241  13.920  1.00  0.00     0.102 A 
ATOM     33  O   UNL     1     -21.447  32.920  14.997  1.00  0.00    -0.484 OA
ATOM     34  C   UNL     1     -19.843  30.837  14.010  1.00  0.00     0.174 C 
ATOM     35  C   UNL     1     -21.725  31.593  15.452  1.00  0.00     0.211 C 
ATOM     36  O   UNL     1     -19.093  29.875  13.696  1.00  0.00    -0.294 OA
ATOM     37  C   UNL     1     -21.267  30.561  14.409  1.00  0.00     0.131 C 
BRANCH  30  38
ATOM     38  O   UNL     1     -17.240  31.606  12.916  1.00  0.00    -0.507 OA
ATOM     39  H   UNL     1     -16.289  31.828  12.640  1.00  0.00     0.293 HD
ENDBRANCH  30  38
BRANCH  35  40
ATOM     40  C   UNL     1     -23.199  31.438  15.750  1.00  0.00    -0.003 A 
ATOM     41  C   UNL     1     -23.853  32.368  16.574  1.00  0.00     0.057 A 
ATOM     42  C   UNL     1     -23.917  30.335  15.264  1.00  0.00     0.011 A 
ATOM     43  C   UNL     1     -25.212  32.219  16.881  1.00  0.00     0.158 A 
ATOM     44  C   UNL     1     -25.273  30.177  15.576  1.00  0.00     0.051 A 
ATOM     45  C   UNL     1     -25.934  31.125  16.381  1.00  0.00     0.160 A 
BRANCH  43  46
ATOM     46  O   UNL     1     -25.856  33.153  17.692  1.00  0.00    -0.504 OA
ATOM     47  H   UNL     1     -26.324  33.964  17.300  1.00  0.00     0.293 HD
ENDBRANCH  43  46
BRANCH  45  48
ATOM     48  O   UNL     1     -27.295  31.012  16.709  1.00  0.00    -0.493 OA
ATOM     49  C   UNL     1     -27.810  30.138  17.706  1.00  0.00     0.278 C 
ENDBRANCH  45  48
ENDBRANCH  35  40
ENDBRANCH  26  27
ENDBRANCH   5  26
BRANCH   4  50
ATOM     50  O   UNL     1     -17.040  37.553  15.593  1.00  0.00    -0.384 OA
ATOM     51  H   UNL     1     -17.368  36.899  16.268  1.00  0.00     0.211 HD
ENDBRANCH   4  50
TORSDOF 15
ENDMDL
MODEL 2
REMARK VINA RESULT:    -8.402      6.828     12.958
REMARK INTER + INTRA:         -15.039
REMARK INTER:                 -14.248
REMARK INTRA:                  -0.791
REMARK UNBOUND:                -1.234
REMARK SMILES COc1ccc([C@H]2CC(=O)c3c(O)cc(O[C@H]4O[C@@H](CO[C@@H]5O[C@H](C)[C@H](O)[C@H](O)[C@@H]5O)[C@@H](O)[C@H](O)[C@H]4O)cc3O2)cc1O
REMARK SMILES IDX 19 1 32 2 34 3 36 4 17 5 18 6 20 7 21 8 22 9 25 10 24 11
REMARK SMILES IDX 26 12 23 13 28 14 30 15 27 16 29 18 31 20 33 22 35 24 16 26
REMARK SMILES IDX 15 27 14 28 38 29 12 30 39 31 11 32 40 33 9 34 7 35 10 36
REMARK SMILES IDX 8 37 13 38 6 40 41 41 5 42 42 43 4 44 3 45 43 46 2 48 1 49
REMARK SMILES IDX 37 50
REMARK H PARENT 27 17 29 19 31 21 33 23 35 25 13 39 43 47 37 51
REMARK Flexibility Score: inf
ROOT
ATOM      1  C   UNL     1     -29.082  35.678  19.654  1.00  0.00     0.180 C 
ATOM      2  C   UNL     1     -28.953  35.507  21.206  1.00  0.00     0.177 C 
ATOM      3  C   UNL     1     -29.550  34.150  21.638  1.00  0.00     0.180 C 
ATOM      4  C   UNL     1     -28.941  32.985  20.823  1.00  0.00     0.214 C 
ATOM      5  C   UNL     1     -28.124  33.497  19.612  1.00  0.00     0.339 C 
ATOM      6  O   UNL     1     -28.862  34.475  18.911  1.00  0.00    -0.332 OA
ENDROOT
BRANCH   1   7
ATOM      7  C   UNL     1     -30.450  36.205  19.196  1.00  0.00     0.198 C 
BRANCH   7   8
ATOM      8  O   UNL     1     -30.327  37.426  18.484  1.00  0.00    -0.347 OA
BRANCH   8   9
ATOM      9  C   UNL     1     -30.650  38.574  19.253  1.00  0.00     0.281 C 
ATOM     10  C   UNL     1     -32.928  41.388  18.559  1.00  0.00     0.041 C 
ATOM     11  C   UNL     1     -32.069  40.451  19.414  1.00  0.00     0.150 C 
ATOM     12  C   UNL     1     -30.960  41.202  20.228  1.00  0.00     0.174 C 
ATOM     13  O   UNL     1     -31.536  39.452  18.555  1.00  0.00    -0.344 OA
ATOM     14  C   UNL     1     -29.527  40.844  19.736  1.00  0.00     0.179 C 
ATOM     15  C   UNL     1     -29.372  39.307  19.778  1.00  0.00     0.202 C 
BRANCH  12  16
ATOM     16  O   UNL     1     -31.178  42.589  20.342  1.00  0.00    -0.388 OA
ATOM     17  H   UNL     1     -30.411  43.001  20.811  1.00  0.00     0.211 HD
ENDBRANCH  12  16
BRANCH  14  18
ATOM     18  O   UNL     1     -29.210  41.334  18.453  1.00  0.00    -0.387 OA
ATOM     19  H   UNL     1     -29.102  42.321  18.470  1.00  0.00     0.211 HD
ENDBRANCH  14  18
BRANCH  15  20
ATOM     20  O   UNL     1     -28.187  38.875  19.152  1.00  0.00    -0.385 OA
ATOM     21  H   UNL     1     -27.665  38.335  19.803  1.00  0.00     0.211 HD
ENDBRANCH  15  20
ENDBRANCH   8   9
ENDBRANCH   7   8
ENDBRANCH   1   7
BRANCH   2  22
ATOM     22  O   UNL     1     -29.529  36.584  21.897  1.00  0.00    -0.387 OA
ATOM     23  H   UNL     1     -29.222  36.542  22.842  1.00  0.00     0.211 HD
ENDBRANCH   2  22
BRANCH   3  24
ATOM     24  O   UNL     1     -29.308  33.938  23.011  1.00  0.00    -0.387 OA
ATOM     25  H   UNL     1     -29.995  34.450  23.511  1.00  0.00     0.211 HD
ENDBRANCH   3  24
BRANCH   5  26
ATOM     26  O   UNL     1     -27.851  32.407  18.725  1.00  0.00    -0.462 OA
BRANCH  26  27
ATOM     27  C   UNL     1     -27.321  32.572  17.440  1.00  0.00     0.130 A 
ATOM     28  C   UNL     1     -28.141  33.081  16.426  1.00  0.00     0.093 A 
ATOM     29  C   UNL     1     -25.985  32.251  17.149  1.00  0.00     0.094 A 
ATOM     30  C   UNL     1     -27.657  33.230  15.115  1.00  0.00     0.133 A 
ATOM     31  C   UNL     1     -25.479  32.434  15.857  1.00  0.00     0.138 A 
ATOM     32  C   UNL     1     -26.320  32.889  14.823  1.00  0.00     0.102 A 
ATOM     33  O   UNL     1     -24.130  32.157  15.598  1.00  0.00    -0.484 OA
ATOM     34  C   UNL     1     -25.754  32.963  13.454  1.00  0.00     0.174 C 
ATOM     35  C   UNL     1     -23.482  32.606  14.405  1.00  0.00     0.211 C 
ATOM     36  O   UNL     1     -26.419  33.443  12.498  1.00  0.00    -0.294 OA
ATOM     37  C   UNL     1     -24.391  32.384  13.186  1.00  0.00     0.131 C 
BRANCH  30  38
ATOM     38  O   UNL     1     -28.509  33.697  14.112  1.00  0.00    -0.507 OA
ATOM     39  H   UNL     1     -29.062  34.538  14.234  1.00  0.00     0.293 HD
ENDBRANCH  30  38
BRANCH  35  40
ATOM     40  C   UNL     1     -22.161  31.894  14.227  1.00  0.00    -0.003 A 
ATOM     41  C   UNL     1     -20.958  32.616  14.281  1.00  0.00     0.057 A 
ATOM     42  C   UNL     1     -22.118  30.521  13.941  1.00  0.00     0.011 A 
ATOM     43  C   UNL     1     -19.728  31.972  14.087  1.00  0.00     0.158 A 
ATOM     44  C   UNL     1     -20.893  29.875  13.738  1.00  0.00     0.051 A 
ATOM     45  C   UNL     1     -19.686  30.596  13.818  1.00  0.00     0.160 A 
BRANCH  43  46
ATOM     46  O   UNL     1     -18.538  32.695  14.153  1.00  0.00    -0.504 OA
ATOM     47  H   UNL     1     -18.119  33.106  13.324  1.00  0.00     0.293 HD
ENDBRANCH  43  46
BRANCH  45  48
ATOM     48  O   UNL     1     -18.434  29.986  13.633  1.00  0.00    -0.493 OA
ATOM     49  C   UNL     1     -17.626  30.149  12.474  1.00  0.00     0.278 C 
ENDBRANCH  45  48
ENDBRANCH  35  40
ENDBRANCH  26  27
ENDBRANCH   5  26
BRANCH   4  50
ATOM     50  O   UNL     1     -29.985  32.154  20.383  1.00  0.00    -0.384 OA
ATOM     51  H   UNL     1     -30.633  32.065  21.133  1.00  0.00     0.211 HD
ENDBRANCH   4  50
TORSDOF 15
ENDMDL
MODEL 3
REMARK VINA RESULT:    -8.200      8.574     12.859
REMARK INTER + INTRA:         -14.707
REMARK INTER:                 -13.464
REMARK INTRA:                  -1.243
REMARK UNBOUND:                -1.234
REMARK SMILES COc1ccc([C@H]2CC(=O)c3c(O)cc(O[C@H]4O[C@@H](CO[C@@H]5O[C@H](C)[C@H](O)[C@H](O)[C@@H]5O)[C@@H](O)[C@H](O)[C@H]4O)cc3O2)cc1O
REMARK SMILES IDX 19 1 32 2 34 3 36 4 17 5 18 6 20 7 21 8 22 9 25 10 24 11
REMARK SMILES IDX 26 12 23 13 28 14 30 15 27 16 29 18 31 20 33 22 35 24 16 26
REMARK SMILES IDX 15 27 14 28 38 29 12 30 39 31 11 32 40 33 9 34 7 35 10 36
REMARK SMILES IDX 8 37 13 38 6 40 41 41 5 42 42 43 4 44 3 45 43 46 2 48 1 49
REMARK SMILES IDX 37 50
REMARK H PARENT 27 17 29 19 31 21 33 23 35 25 13 39 43 47 37 51
REMARK Flexibility Score: inf
ROOT
ATOM      1  C   UNL     1     -29.060  35.605  19.994  1.00  0.00     0.180 C 
ATOM      2  C   UNL     1     -29.129  35.555  21.558  1.00  0.00     0.177 C 
ATOM      3  C   UNL     1     -29.773  34.228  22.015  1.00  0.00     0.180 C 
ATOM      4  C   UNL     1     -29.062  33.012  21.377  1.00  0.00     0.214 C 
ATOM      5  C   UNL     1     -28.099  33.440  20.243  1.00  0.00     0.339 C 
ATOM      6  O   UNL     1     -28.744  34.353  19.381  1.00  0.00    -0.332 OA
ENDROOT
BRANCH   1   7
ATOM      7  C   UNL     1     -30.359  36.079  19.327  1.00  0.00     0.198 C 
BRANCH   7   8
ATOM      8  O   UNL     1     -30.170  37.294  18.619  1.00  0.00    -0.347 OA
BRANCH   8   9
ATOM      9  C   UNL     1     -30.517  38.453  19.362  1.00  0.00     0.281 C 
ATOM     10  C   UNL     1     -32.843  41.210  18.600  1.00  0.00     0.041 C 
ATOM     11  C   UNL     1     -31.970  40.306  19.478  1.00  0.00     0.150 C 
ATOM     12  C   UNL     1     -30.878  41.094  20.280  1.00  0.00     0.174 C 
ATOM     13  O   UNL     1     -31.415  39.299  18.642  1.00  0.00    -0.344 OA
ATOM     14  C   UNL     1     -29.437  40.752  19.801  1.00  0.00     0.179 C 
ATOM     15  C   UNL     1     -29.254  39.219  19.876  1.00  0.00     0.202 C 
BRANCH  12  16
ATOM     16  O   UNL     1     -31.121  42.480  20.364  1.00  0.00    -0.388 OA
ATOM     17  H   UNL     1     -30.301  42.935  20.676  1.00  0.00     0.211 HD
ENDBRANCH  12  16
BRANCH  14  18
ATOM     18  O   UNL     1     -29.124  41.220  18.509  1.00  0.00    -0.387 OA
ATOM     19  H   UNL     1     -28.890  40.464  17.908  1.00  0.00     0.211 HD
ENDBRANCH  14  18
BRANCH  15  20
ATOM     20  O   UNL     1     -28.059  38.795  19.264  1.00  0.00    -0.385 OA
ATOM     21  H   UNL     1     -27.343  39.447  19.486  1.00  0.00     0.211 HD
ENDBRANCH  15  20
ENDBRANCH   8   9
ENDBRANCH   7   8
ENDBRANCH   1   7
BRANCH   2  22
ATOM     22  O   UNL     1     -29.791  36.675  22.086  1.00  0.00    -0.387 OA
ATOM     23  H   UNL     1     -29.140  37.425  22.132  1.00  0.00     0.211 HD
ENDBRANCH   2  22
BRANCH   3  24
ATOM     24  O   UNL     1     -29.708  34.125  23.420  1.00  0.00    -0.387 OA
ATOM     25  H   UNL     1     -29.338  33.229  23.630  1.00  0.00     0.211 HD
ENDBRANCH   3  24
BRANCH   5  26
ATOM     26  O   UNL     1     -27.712  32.289  19.485  1.00  0.00    -0.462 OA
BRANCH  26  27
ATOM     27  C   UNL     1     -26.707  32.309  18.512  1.00  0.00     0.130 A 
ATOM     28  C   UNL     1     -25.384  32.544  18.904  1.00  0.00     0.093 A 
ATOM     29  C   UNL     1     -26.993  32.085  17.154  1.00  0.00     0.094 A 
ATOM     30  C   UNL     1     -24.350  32.605  17.953  1.00  0.00     0.133 A 
ATOM     31  C   UNL     1     -25.967  32.101  16.203  1.00  0.00     0.138 A 
ATOM     32  C   UNL     1     -24.645  32.398  16.590  1.00  0.00     0.102 A 
ATOM     33  O   UNL     1     -26.264  31.826  14.862  1.00  0.00    -0.484 OA
ATOM     34  C   UNL     1     -23.620  32.503  15.523  1.00  0.00     0.174 C 
ATOM     35  C   UNL     1     -25.242  31.525  13.908  1.00  0.00     0.211 C 
ATOM     36  O   UNL     1     -22.404  32.677  15.801  1.00  0.00    -0.294 OA
ATOM     37  C   UNL     1     -24.050  32.480  14.081  1.00  0.00     0.131 C 
BRANCH  30  38
ATOM     38  O   UNL     1     -23.047  32.885  18.366  1.00  0.00    -0.507 OA
ATOM     39  H   UNL     1     -22.829  33.093  19.335  1.00  0.00     0.293 HD
ENDBRANCH  30  38
BRANCH  35  40
ATOM     40  C   UNL     1     -25.795  31.605  12.504  1.00  0.00    -0.003 A 
ATOM     41  C   UNL     1     -26.429  32.778  12.061  1.00  0.00     0.057 A 
ATOM     42  C   UNL     1     -25.744  30.495  11.648  1.00  0.00     0.011 A 
ATOM     43  C   UNL     1     -26.972  32.854  10.772  1.00  0.00     0.158 A 
ATOM     44  C   UNL     1     -26.293  30.563  10.362  1.00  0.00     0.051 A 
ATOM     45  C   UNL     1     -26.905  31.749   9.911  1.00  0.00     0.160 A 
BRANCH  43  46
ATOM     46  O   UNL     1     -27.590  34.026  10.337  1.00  0.00    -0.504 OA
ATOM     47  H   UNL     1     -28.260  34.520  10.919  1.00  0.00     0.293 HD
ENDBRANCH  43  46
BRANCH  45  48
ATOM     48  O   UNL     1     -27.458  31.865   8.624  1.00  0.00    -0.493 OA
ATOM     49  C   UNL     1     -28.810  31.560   8.303  1.00  0.00     0.278 C 
ENDBRANCH  45  48
ENDBRANCH  35  40
ENDBRANCH  26  27
ENDBRANCH   5  26
BRANCH   4  50
ATOM     50  O   UNL     1     -30.039  32.138  20.873  1.00  0.00    -0.384 OA
ATOM     51  H   UNL     1     -30.175  32.362  19.913  1.00  0.00     0.211 HD
ENDBRANCH   4  50
TORSDOF 15
ENDMDL
MODEL 4
REMARK VINA RESULT:    -7.953      1.308      1.559
REMARK INTER + INTRA:         -14.300
REMARK INTER:                 -13.027
REMARK INTRA:                  -1.273
REMARK UNBOUND:                -1.234
REMARK SMILES COc1ccc([C@H]2CC(=O)c3c(O)cc(O[C@H]4O[C@@H](CO[C@@H]5O[C@H](C)[C@H](O)[C@H](O)[C@@H]5O)[C@@H](O)[C@H](O)[C@H]4O)cc3O2)cc1O
REMARK SMILES IDX 19 1 32 2 34 3 36 4 17 5 18 6 20 7 21 8 22 9 25 10 24 11
REMARK SMILES IDX 26 12 23 13 28 14 30 15 27 16 29 18 31 20 33 22 35 24 16 26
REMARK SMILES IDX 15 27 14 28 38 29 12 30 39 31 11 32 40 33 9 34 7 35 10 36
REMARK SMILES IDX 8 37 13 38 6 40 41 41 5 42 42 43 4 44 3 45 43 46 2 48 1 49
REMARK SMILES IDX 37 50
REMARK H PARENT 27 17 29 19 31 21 33 23 35 25 13 39 43 47 37 51
REMARK Flexibility Score: inf
ROOT
ATOM      1  C   UNL     1     -15.718  38.327  12.410  1.00  0.00     0.180 C 
ATOM      2  C   UNL     1     -14.513  37.723  13.207  1.00  0.00     0.177 C 
ATOM      3  C   UNL     1     -14.869  37.625  14.707  1.00  0.00     0.180 C 
ATOM      4  C   UNL     1     -16.204  36.872  14.916  1.00  0.00     0.214 C 
ATOM      5  C   UNL     1     -16.967  36.674  13.584  1.00  0.00     0.339 C 
ATOM      6  O   UNL     1     -17.001  37.886  12.862  1.00  0.00    -0.332 OA
ENDROOT
BRANCH   1   7
ATOM      7  C   UNL     1     -15.774  39.862  12.432  1.00  0.00     0.198 C 
BRANCH   7   8
ATOM      8  O   UNL     1     -15.066  40.427  11.340  1.00  0.00    -0.347 OA
BRANCH   8   9
ATOM      9  C   UNL     1     -15.817  41.374  10.597  1.00  0.00     0.281 C 
ATOM     10  C   UNL     1     -16.342  41.733   6.966  1.00  0.00     0.041 C 
ATOM     11  C   UNL     1     -16.629  41.940   8.457  1.00  0.00     0.150 C 
ATOM     12  C   UNL     1     -16.647  43.450   8.878  1.00  0.00     0.174 C 
ATOM     13  O   UNL     1     -15.678  41.179   9.188  1.00  0.00    -0.344 OA
ATOM     14  C   UNL     1     -15.465  43.809   9.825  1.00  0.00     0.179 C 
ATOM     15  C   UNL     1     -15.502  42.844  11.031  1.00  0.00     0.202 C 
BRANCH  12  16
ATOM     16  O   UNL     1     -16.783  44.342   7.795  1.00  0.00    -0.388 OA
ATOM     17  H   UNL     1     -17.207  43.870   7.037  1.00  0.00     0.211 HD
ENDBRANCH  12  16
BRANCH  14  18
ATOM     18  O   UNL     1     -14.196  43.778   9.212  1.00  0.00    -0.387 OA
ATOM     19  H   UNL     1     -14.021  42.887   8.809  1.00  0.00     0.211 HD
ENDBRANCH  14  18
BRANCH  15  20
ATOM     20  O   UNL     1     -14.350  42.951  11.834  1.00  0.00    -0.385 OA
ATOM     21  H   UNL     1     -13.559  43.041  11.240  1.00  0.00     0.211 HD
ENDBRANCH  15  20
ENDBRANCH   8   9
ENDBRANCH   7   8
ENDBRANCH   1   7
BRANCH   2  22
ATOM     22  O   UNL     1     -13.330  38.446  12.990  1.00  0.00    -0.387 OA
ATOM     23  H   UNL     1     -13.562  39.413  12.953  1.00  0.00     0.211 HD
ENDBRANCH   2  22
BRANCH   3  24
ATOM     24  O   UNL     1     -13.840  36.954  15.399  1.00  0.00    -0.387 OA
ATOM     25  H   UNL     1     -14.234  36.600  16.237  1.00  0.00     0.211 HD
ENDBRANCH   3  24
BRANCH   5  26
ATOM     26  O   UNL     1     -18.311  36.268  13.859  1.00  0.00    -0.462 OA
BRANCH  26  27
ATOM     27  C   UNL     1     -18.727  34.931  13.869  1.00  0.00     0.130 A 
ATOM     28  C   UNL     1     -17.818  33.933  13.498  1.00  0.00     0.093 A 
ATOM     29  C   UNL     1     -20.028  34.568  14.254  1.00  0.00     0.094 A 
ATOM     30  C   UNL     1     -18.206  32.582  13.461  1.00  0.00     0.133 A 
ATOM     31  C   UNL     1     -20.414  33.223  14.263  1.00  0.00     0.138 A 
ATOM     32  C   UNL     1     -19.519  32.225  13.832  1.00  0.00     0.102 A 
ATOM     33  O   UNL     1     -21.700  32.877  14.699  1.00  0.00    -0.484 OA
ATOM     34  C   UNL     1     -20.020  30.830  13.764  1.00  0.00     0.174 C 
ATOM     35  C   UNL     1     -22.050  31.529  15.023  1.00  0.00     0.211 C 
ATOM     36  O   UNL     1     -19.252  29.875  13.473  1.00  0.00    -0.294 OA
ATOM     37  C   UNL     1     -21.486  30.561  13.971  1.00  0.00     0.131 C 
BRANCH  30  38
ATOM     38  O   UNL     1     -17.294  31.612  13.044  1.00  0.00    -0.507 OA
ATOM     39  H   UNL     1     -17.098  30.790  13.605  1.00  0.00     0.293 HD
ENDBRANCH  30  38
BRANCH  35  40
ATOM     40  C   UNL     1     -23.551  31.389  15.131  1.00  0.00    -0.003 A 
ATOM     41  C   UNL     1     -24.391  32.121  14.277  1.00  0.00     0.057 A 
ATOM     42  C   UNL     1     -24.126  30.580  16.124  1.00  0.00     0.011 A 
ATOM     43  C   UNL     1     -25.785  32.022  14.388  1.00  0.00     0.158 A 
ATOM     44  C   UNL     1     -25.518  30.485  16.244  1.00  0.00     0.051 A 
ATOM     45  C   UNL     1     -26.359  31.201  15.370  1.00  0.00     0.160 A 
BRANCH  43  46
ATOM     46  O   UNL     1     -26.612  32.746  13.530  1.00  0.00    -0.504 OA
ATOM     47  H   UNL     1     -27.436  32.328  13.109  1.00  0.00     0.293 HD
ENDBRANCH  43  46
BRANCH  45  48
ATOM     48  O   UNL     1     -27.760  31.125  15.447  1.00  0.00    -0.493 OA
ATOM     49  C   UNL     1     -28.536  30.061  14.909  1.00  0.00     0.278 C 
ENDBRANCH  45  48
ENDBRANCH  35  40
ENDBRANCH  26  27
ENDBRANCH   5  26
BRANCH   4  50
ATOM     50  O   UNL     1     -16.993  37.607  15.817  1.00  0.00    -0.384 OA
ATOM     51  H   UNL     1     -17.558  38.229  15.283  1.00  0.00     0.211 HD
ENDBRANCH   4  50
TORSDOF 15
ENDMDL
MODEL 5
REMARK VINA RESULT:    -7.909      9.416     13.327
REMARK INTER + INTRA:         -14.228
REMARK INTER:                 -13.297
REMARK INTRA:                  -0.931
REMARK UNBOUND:                -1.234
REMARK SMILES COc1ccc([C@H]2CC(=O)c3c(O)cc(O[C@H]4O[C@@H](CO[C@@H]5O[C@H](C)[C@H](O)[C@H](O)[C@@H]5O)[C@@H](O)[C@H](O)[C@H]4O)cc3O2)cc1O
REMARK SMILES IDX 19 1 32 2 34 3 36 4 17 5 18 6 20 7 21 8 22 9 25 10 24 11
REMARK SMILES IDX 26 12 23 13 28 14 30 15 27 16 29 18 31 20 33 22 35 24 16 26
REMARK SMILES IDX 15 27 14 28 38 29 12 30 39 31 11 32 40 33 9 34 7 35 10 36
REMARK SMILES IDX 8 37 13 38 6 40 41 41 5 42 42 43 4 44 3 45 43 46 2 48 1 49
REMARK SMILES IDX 37 50
REMARK H PARENT 27 17 29 19 31 21 33 23 35 25 13 39 43 47 37 51
REMARK Flexibility Score: inf
ROOT
ATOM      1  C   UNL     1     -29.731  36.103  20.563  1.00  0.00     0.180 C 
ATOM      2  C   UNL     1     -30.503  35.987  21.921  1.00  0.00     0.177 C 
ATOM      3  C   UNL     1     -31.008  34.541  22.119  1.00  0.00     0.180 C 
ATOM      4  C   UNL     1     -29.857  33.519  21.959  1.00  0.00     0.214 C 
ATOM      5  C   UNL     1     -28.586  34.175  21.366  1.00  0.00     0.339 C 
ATOM      6  O   UNL     1     -28.927  34.963  20.246  1.00  0.00    -0.332 OA
ENDROOT
BRANCH   1   7
ATOM      7  C   UNL     1     -30.641  36.321  19.345  1.00  0.00     0.198 C 
BRANCH   7   8
ATOM      8  O   UNL     1     -30.259  37.471  18.607  1.00  0.00    -0.347 OA
BRANCH   8   9
ATOM      9  C   UNL     1     -30.520  38.696  19.277  1.00  0.00     0.281 C 
ATOM     10  C   UNL     1     -32.723  41.516  18.390  1.00  0.00     0.041 C 
ATOM     11  C   UNL     1     -31.869  40.629  19.304  1.00  0.00     0.150 C 
ATOM     12  C   UNL     1     -30.712  41.410  20.015  1.00  0.00     0.174 C 
ATOM     13  O   UNL     1     -31.396  39.538  18.526  1.00  0.00    -0.344 OA
ATOM     14  C   UNL     1     -29.307  40.958  19.520  1.00  0.00     0.179 C 
ATOM     15  C   UNL     1     -29.203  39.426  19.697  1.00  0.00     0.202 C 
BRANCH  12  16
ATOM     16  O   UNL     1     -30.880  42.809  20.008  1.00  0.00    -0.388 OA
ATOM     17  H   UNL     1     -31.250  43.087  19.134  1.00  0.00     0.211 HD
ENDBRANCH  12  16
BRANCH  14  18
ATOM     18  O   UNL     1     -29.014  41.317  18.189  1.00  0.00    -0.387 OA
ATOM     19  H   UNL     1     -28.317  40.719  17.808  1.00  0.00     0.211 HD
ENDBRANCH  14  18
BRANCH  15  20
ATOM     20  O   UNL     1     -28.052  38.896  19.082  1.00  0.00    -0.385 OA
ATOM     21  H   UNL     1     -27.280  39.481  19.301  1.00  0.00     0.211 HD
ENDBRANCH  15  20
ENDBRANCH   8   9
ENDBRANCH   7   8
ENDBRANCH   1   7
BRANCH   2  22
ATOM     22  O   UNL     1     -31.541  36.927  22.012  1.00  0.00    -0.387 OA
ATOM     23  H   UNL     1     -31.132  37.826  22.135  1.00  0.00     0.211 HD
ENDBRANCH   2  22
BRANCH   3  24
ATOM     24  O   UNL     1     -31.579  34.406  23.401  1.00  0.00    -0.387 OA
ATOM     25  H   UNL     1     -31.503  33.451  23.655  1.00  0.00     0.211 HD
ENDBRANCH   3  24
BRANCH   5  26
ATOM     26  O   UNL     1     -27.674  33.154  20.947  1.00  0.00    -0.462 OA
BRANCH  26  27
ATOM     27  C   UNL     1     -27.083  33.121  19.679  1.00  0.00     0.130 A 
ATOM     28  C   UNL     1     -25.695  32.969  19.579  1.00  0.00     0.093 A 
ATOM     29  C   UNL     1     -27.850  33.225  18.507  1.00  0.00     0.094 A 
ATOM     30  C   UNL     1     -25.059  32.966  18.325  1.00  0.00     0.133 A 
ATOM     31  C   UNL     1     -27.233  33.180  17.251  1.00  0.00     0.138 A 
ATOM     32  C   UNL     1     -25.831  33.088  17.152  1.00  0.00     0.102 A 
ATOM     33  O   UNL     1     -28.020  33.233  16.093  1.00  0.00    -0.484 OA
ATOM     34  C   UNL     1     -25.229  33.151  15.798  1.00  0.00     0.174 C 
ATOM     35  C   UNL     1     -27.497  32.888  14.808  1.00  0.00     0.211 C 
ATOM     36  O   UNL     1     -23.992  32.986  15.626  1.00  0.00    -0.294 OA
ATOM     37  C   UNL     1     -26.098  33.494  14.618  1.00  0.00     0.131 C 
BRANCH  30  38
ATOM     38  O   UNL     1     -23.669  32.858  18.256  1.00  0.00    -0.507 OA
ATOM     39  H   UNL     1     -23.207  32.429  17.461  1.00  0.00     0.293 HD
ENDBRANCH  30  38
BRANCH  35  40
ATOM     40  C   UNL     1     -28.435  33.351  13.718  1.00  0.00    -0.003 A 
ATOM     41  C   UNL     1     -27.922  33.814  12.495  1.00  0.00     0.057 A 
ATOM     42  C   UNL     1     -29.822  33.388  13.932  1.00  0.00     0.011 A 
ATOM     43  C   UNL     1     -28.781  34.274  11.487  1.00  0.00     0.158 A 
ATOM     44  C   UNL     1     -30.683  33.855  12.932  1.00  0.00     0.051 A 
ATOM     45  C   UNL     1     -30.168  34.295  11.697  1.00  0.00     0.160 A 
BRANCH  43  46
ATOM     46  O   UNL     1     -28.264  34.722  10.273  1.00  0.00    -0.504 OA
ATOM     47  H   UNL     1     -27.793  34.092   9.631  1.00  0.00     0.293 HD
ENDBRANCH  43  46
BRANCH  45  48
ATOM     48  O   UNL     1     -30.997  34.760  10.662  1.00  0.00    -0.493 OA
ATOM     49  C   UNL     1     -32.407  34.911  10.771  1.00  0.00     0.278 C 
ENDBRANCH  45  48
ENDBRANCH  35  40
ENDBRANCH  26  27
ENDBRANCH   5  26
BRANCH   4  50
ATOM     50  O   UNL     1     -30.297  32.480  21.122  1.00  0.00    -0.384 OA
ATOM     51  H   UNL     1     -30.277  32.819  20.187  1.00  0.00     0.211 HD
ENDBRANCH   4  50
TORSDOF 15
ENDMDL
MODEL 6
REMARK VINA RESULT:    -7.867      2.915      6.696
REMARK INTER + INTRA:         -14.159
REMARK INTER:                 -12.955
REMARK INTRA:                  -1.205
REMARK UNBOUND:                -1.234
REMARK SMILES COc1ccc([C@H]2CC(=O)c3c(O)cc(O[C@H]4O[C@@H](CO[C@@H]5O[C@H](C)[C@H](O)[C@H](O)[C@@H]5O)[C@@H](O)[C@H](O)[C@H]4O)cc3O2)cc1O
REMARK SMILES IDX 19 1 32 2 34 3 36 4 17 5 18 6 20 7 21 8 22 9 25 10 24 11
REMARK SMILES IDX 26 12 23 13 28 14 30 15 27 16 29 18 31 20 33 22 35 24 16 26
REMARK SMILES IDX 15 27 14 28 38 29 12 30 39 31 11 32 40 33 9 34 7 35 10 36
REMARK SMILES IDX 8 37 13 38 6 40 41 41 5 42 42 43 4 44 3 45 43 46 2 48 1 49
REMARK SMILES IDX 37 50
REMARK H PARENT 27 17 29 19 31 21 33 23 35 25 13 39 43 47 37 51
REMARK Flexibility Score: inf
ROOT
ATOM      1  C   UNL     1     -19.481  32.610  13.672  1.00  0.00     0.180 C 
ATOM      2  C   UNL     1     -18.344  31.548  13.488  1.00  0.00     0.177 C 
ATOM      3  C   UNL     1     -17.978  30.925  14.852  1.00  0.00     0.180 C 
ATOM      4  C   UNL     1     -19.235  30.384  15.575  1.00  0.00     0.214 C 
ATOM      5  C   UNL     1     -20.540  30.858  14.891  1.00  0.00     0.339 C 
ATOM      6  O   UNL     1     -20.474  32.245  14.635  1.00  0.00    -0.332 OA
ENDROOT
BRANCH   1   7
ATOM      7  C   UNL     1     -18.977  33.996  14.100  1.00  0.00     0.198 C 
BRANCH   7   8
ATOM      8  O   UNL     1     -18.705  34.822  12.978  1.00  0.00    -0.347 OA
BRANCH   8   9
ATOM      9  C   UNL     1     -17.652  35.750  13.190  1.00  0.00     0.281 C 
ATOM     10  C   UNL     1     -17.570  39.424  12.894  1.00  0.00     0.041 C 
ATOM     11  C   UNL     1     -17.100  38.037  13.347  1.00  0.00     0.150 C 
ATOM     12  C   UNL     1     -15.639  37.701  12.892  1.00  0.00     0.174 C 
ATOM     13  O   UNL     1     -18.051  37.088  12.883  1.00  0.00    -0.344 OA
ATOM     14  C   UNL     1     -15.600  36.547  11.849  1.00  0.00     0.179 C 
ATOM     15  C   UNL     1     -16.342  35.330  12.447  1.00  0.00     0.202 C 
BRANCH  12  16
ATOM     16  O   UNL     1     -14.891  38.830  12.500  1.00  0.00    -0.388 OA
ATOM     17  H   UNL     1     -14.662  39.362  13.302  1.00  0.00     0.211 HD
ENDBRANCH  12  16
BRANCH  14  18
ATOM     18  O   UNL     1     -16.140  36.878  10.590  1.00  0.00    -0.387 OA
ATOM     19  H   UNL     1     -15.575  37.557  10.132  1.00  0.00     0.211 HD
ENDBRANCH  14  18
BRANCH  15  20
ATOM     20  O   UNL     1     -16.544  34.310  11.497  1.00  0.00    -0.385 OA
ATOM     21  H   UNL     1     -17.363  34.522  10.977  1.00  0.00     0.211 HD
ENDBRANCH  15  20
ENDBRANCH   8   9
ENDBRANCH   7   8
ENDBRANCH   1   7
BRANCH   2  22
ATOM     22  O   UNL     1     -17.226  32.092  12.837  1.00  0.00    -0.387 OA
ATOM     23  H   UNL     1     -17.360  33.074  12.763  1.00  0.00     0.211 HD
ENDBRANCH   2  22
BRANCH   3  24
ATOM     24  O   UNL     1     -17.057  29.875  14.666  1.00  0.00    -0.387 OA
ATOM     25  H   UNL     1     -16.578  29.751  15.525  1.00  0.00     0.211 HD
ENDBRANCH   3  24
BRANCH   5  26
ATOM     26  O   UNL     1     -21.651  30.605  15.756  1.00  0.00    -0.462 OA
BRANCH  26  27
ATOM     27  C   UNL     1     -22.904  31.208  15.599  1.00  0.00     0.130 A 
ATOM     28  C   UNL     1     -23.294  31.648  14.329  1.00  0.00     0.093 A 
ATOM     29  C   UNL     1     -23.783  31.371  16.683  1.00  0.00     0.094 A 
ATOM     30  C   UNL     1     -24.530  32.290  14.136  1.00  0.00     0.133 A 
ATOM     31  C   UNL     1     -25.034  31.970  16.496  1.00  0.00     0.138 A 
ATOM     32  C   UNL     1     -25.401  32.466  15.230  1.00  0.00     0.102 A 
ATOM     33  O   UNL     1     -25.917  32.076  17.578  1.00  0.00    -0.484 OA
ATOM     34  C   UNL     1     -26.694  33.184  15.118  1.00  0.00     0.174 C 
ATOM     35  C   UNL     1     -27.301  32.388  17.397  1.00  0.00     0.211 C 
ATOM     36  O   UNL     1     -27.128  33.577  14.002  1.00  0.00    -0.294 OA
ATOM     37  C   UNL     1     -27.466  33.517  16.367  1.00  0.00     0.131 C 
BRANCH  30  38
ATOM     38  O   UNL     1     -24.874  32.759  12.867  1.00  0.00    -0.507 OA
ATOM     39  H   UNL     1     -24.962  32.133  12.074  1.00  0.00     0.293 HD
ENDBRANCH  30  38
BRANCH  35  40
ATOM     40  C   UNL     1     -27.931  32.769  18.717  1.00  0.00    -0.003 A 
ATOM     41  C   UNL     1     -27.275  33.662  19.579  1.00  0.00     0.057 A 
ATOM     42  C   UNL     1     -29.141  32.191  19.128  1.00  0.00     0.011 A 
ATOM     43  C   UNL     1     -27.834  34.000  20.819  1.00  0.00     0.158 A 
ATOM     44  C   UNL     1     -29.700  32.519  20.369  1.00  0.00     0.051 A 
ATOM     45  C   UNL     1     -29.053  33.434  21.222  1.00  0.00     0.160 A 
BRANCH  43  46
ATOM     46  O   UNL     1     -27.181  34.895  21.665  1.00  0.00    -0.504 OA
ATOM     47  H   UNL     1     -27.079  35.876  21.424  1.00  0.00     0.293 HD
ENDBRANCH  43  46
BRANCH  45  48
ATOM     48  O   UNL     1     -29.584  33.800  22.470  1.00  0.00    -0.493 OA
ATOM     49  C   UNL     1     -30.559  34.819  22.658  1.00  0.00     0.278 C 
ENDBRANCH  45  48
ENDBRANCH  35  40
ENDBRANCH  26  27
ENDBRANCH   5  26
BRANCH   4  50
ATOM     50  O   UNL     1     -19.204  30.821  16.910  1.00  0.00    -0.384 OA
ATOM     51  H   UNL     1     -19.969  31.445  17.038  1.00  0.00     0.211 HD
ENDBRANCH   4  50
TORSDOF 15
ENDMDL
MODEL 7
REMARK VINA RESULT:    -7.599      8.921     13.050
REMARK INTER + INTRA:         -13.720
REMARK INTER:                 -11.055
REMARK INTRA:                  -2.665
REMARK UNBOUND:                -1.234
REMARK SMILES COc1ccc([C@H]2CC(=O)c3c(O)cc(O[C@H]4O[C@@H](CO[C@@H]5O[C@H](C)[C@H](O)[C@H](O)[C@@H]5O)[C@@H](O)[C@H](O)[C@H]4O)cc3O2)cc1O
REMARK SMILES IDX 19 1 32 2 34 3 36 4 17 5 18 6 20 7 21 8 22 9 25 10 24 11
REMARK SMILES IDX 26 12 23 13 28 14 30 15 27 16 29 18 31 20 33 22 35 24 16 26
REMARK SMILES IDX 15 27 14 28 38 29 12 30 39 31 11 32 40 33 9 34 7 35 10 36
REMARK SMILES IDX 8 37 13 38 6 40 41 41 5 42 42 43 4 44 3 45 43 46 2 48 1 49
REMARK SMILES IDX 37 50
REMARK H PARENT 27 17 29 19 31 21 33 23 35 25 13 39 43 47 37 51
REMARK Flexibility Score: inf
ROOT
ATOM      1  C   UNL     1     -29.830  36.217  19.250  1.00  0.00     0.180 C 
ATOM      2  C   UNL     1     -30.005  36.678  20.737  1.00  0.00     0.177 C 
ATOM      3  C   UNL     1     -30.495  35.496  21.601  1.00  0.00     0.180 C 
ATOM      4  C   UNL     1     -29.581  34.260  21.428  1.00  0.00     0.214 C 
ATOM      5  C   UNL     1     -28.605  34.429  20.238  1.00  0.00     0.339 C 
ATOM      6  O   UNL     1     -29.304  34.895  19.104  1.00  0.00    -0.332 OA
ENDROOT
BRANCH   1   7
ATOM      7  C   UNL     1     -31.130  36.240  18.432  1.00  0.00     0.198 C 
BRANCH   7   8
ATOM      8  O   UNL     1     -30.875  36.441  17.051  1.00  0.00    -0.347 OA
BRANCH   8   9
ATOM      9  C   UNL     1     -31.495  35.483  16.206  1.00  0.00     0.281 C 
ATOM     10  C   UNL     1     -30.493  32.056  15.291  1.00  0.00     0.041 C 
ATOM     11  C   UNL     1     -31.443  33.246  15.463  1.00  0.00     0.150 C 
ATOM     12  C   UNL     1     -32.126  33.690  14.125  1.00  0.00     0.174 C 
ATOM     13  O   UNL     1     -30.709  34.297  16.078  1.00  0.00    -0.344 OA
ATOM     14  C   UNL     1     -31.652  35.098  13.662  1.00  0.00     0.179 C 
ATOM     15  C   UNL     1     -31.890  36.092  14.821  1.00  0.00     0.202 C 
BRANCH  12  16
ATOM     16  O   UNL     1     -32.063  32.720  13.105  1.00  0.00    -0.388 OA
ATOM     17  H   UNL     1     -32.719  32.004  13.296  1.00  0.00     0.211 HD
ENDBRANCH  12  16
BRANCH  14  18
ATOM     18  O   UNL     1     -30.309  35.153  13.238  1.00  0.00    -0.387 OA
ATOM     19  H   UNL     1     -29.693  35.118  14.017  1.00  0.00     0.211 HD
ENDBRANCH  14  18
BRANCH  15  20
ATOM     20  O   UNL     1     -31.299  37.347  14.576  1.00  0.00    -0.385 OA
ATOM     21  H   UNL     1     -31.356  37.890  15.406  1.00  0.00     0.211 HD
ENDBRANCH  15  20
ENDBRANCH   8   9
ENDBRANCH   7   8
ENDBRANCH   1   7
BRANCH   2  22
ATOM     22  O   UNL     1     -30.850  37.795  20.839  1.00  0.00    -0.387 OA
ATOM     23  H   UNL     1     -31.586  37.686  20.180  1.00  0.00     0.211 HD
ENDBRANCH   2  22
BRANCH   3  24
ATOM     24  O   UNL     1     -30.518  35.875  22.958  1.00  0.00    -0.387 OA
ATOM     25  H   UNL     1     -30.661  36.856  22.985  1.00  0.00     0.211 HD
ENDBRANCH   3  24
BRANCH   5  26
ATOM     26  O   UNL     1     -28.013  33.165  19.923  1.00  0.00    -0.462 OA
BRANCH  26  27
ATOM     27  C   UNL     1     -27.060  32.990  18.914  1.00  0.00     0.130 A 
ATOM     28  C   UNL     1     -25.709  32.875  19.264  1.00  0.00     0.093 A 
ATOM     29  C   UNL     1     -27.428  32.914  17.560  1.00  0.00     0.094 A 
ATOM     30  C   UNL     1     -24.718  32.732  18.278  1.00  0.00     0.133 A 
ATOM     31  C   UNL     1     -26.455  32.730  16.571  1.00  0.00     0.138 A 
ATOM     32  C   UNL     1     -25.091  32.675  16.919  1.00  0.00     0.102 A 
ATOM     33  O   UNL     1     -26.847  32.605  15.232  1.00  0.00    -0.484 OA
ATOM     34  C   UNL     1     -24.101  32.584  15.819  1.00  0.00     0.174 C 
ATOM     35  C   UNL     1     -25.955  32.116  14.226  1.00  0.00     0.211 C 
ATOM     36  O   UNL     1     -22.872  32.442  16.057  1.00  0.00    -0.294 OA
ATOM     37  C   UNL     1     -24.562  32.741  14.395  1.00  0.00     0.131 C 
BRANCH  30  38
ATOM     38  O   UNL     1     -23.375  32.665  18.652  1.00  0.00    -0.507 OA
ATOM     39  H   UNL     1     -23.031  31.941  19.274  1.00  0.00     0.293 HD
ENDBRANCH  30  38
BRANCH  35  40
ATOM     40  C   UNL     1     -26.510  32.401  12.850  1.00  0.00    -0.003 A 
ATOM     41  C   UNL     1     -27.892  32.570  12.667  1.00  0.00     0.057 A 
ATOM     42  C   UNL     1     -25.665  32.438  11.730  1.00  0.00     0.011 A 
ATOM     43  C   UNL     1     -28.421  32.805  11.391  1.00  0.00     0.158 A 
ATOM     44  C   UNL     1     -26.190  32.664  10.452  1.00  0.00     0.051 A 
ATOM     45  C   UNL     1     -27.574  32.858  10.274  1.00  0.00     0.160 A 
BRANCH  43  46
ATOM     46  O   UNL     1     -29.793  32.981  11.220  1.00  0.00    -0.504 OA
ATOM     47  H   UNL     1     -30.407  33.170  12.007  1.00  0.00     0.293 HD
ENDBRANCH  43  46
BRANCH  45  48
ATOM     48  O   UNL     1     -28.141  33.100   9.011  1.00  0.00    -0.493 OA
ATOM     49  C   UNL     1     -28.250  32.125   7.982  1.00  0.00     0.278 C 
ENDBRANCH  45  48
ENDBRANCH  35  40
ENDBRANCH  26  27
ENDBRANCH   5  26
BRANCH   4  50
ATOM     50  O   UNL     1     -30.392  33.130  21.228  1.00  0.00    -0.384 OA
ATOM     51  H   UNL     1     -30.178  32.477  21.948  1.00  0.00     0.211 HD
ENDBRANCH   4  50
TORSDOF 15
ENDMDL
MODEL 8
REMARK VINA RESULT:    -7.562      8.256     13.167
REMARK INTER + INTRA:         -13.658
REMARK INTER:                 -12.197
REMARK INTRA:                  -1.461
REMARK UNBOUND:                -1.234
REMARK SMILES COc1ccc([C@H]2CC(=O)c3c(O)cc(O[C@H]4O[C@@H](CO[C@@H]5O[C@H](C)[C@H](O)[C@H](O)[C@@H]5O)[C@@H](O)[C@H](O)[C@H]4O)cc3O2)cc1O
REMARK SMILES IDX 19 1 32 2 34 3 36 4 17 5 18 6 20 7 21 8 22 9 25 10 24 11
REMARK SMILES IDX 26 12 23 13 28 14 30 15 27 16 29 18 31 20 33 22 35 24 16 26
REMARK SMILES IDX 15 27 14 28 38 29 12 30 39 31 11 32 40 33 9 34 7 35 10 36
REMARK SMILES IDX 8 37 13 38 6 40 41 41 5 42 42 43 4 44 3 45 43 46 2 48 1 49
REMARK SMILES IDX 37 50
REMARK H PARENT 27 17 29 19 31 21 33 23 35 25 13 39 43 47 37 51
REMARK Flexibility Score: inf
ROOT
ATOM      1  C   UNL     1     -27.217  33.194  13.529  1.00  0.00     0.180 C 
ATOM      2  C   UNL     1     -27.985  33.760  12.287  1.00  0.00     0.177 C 
ATOM      3  C   UNL     1     -29.188  32.851  11.952  1.00  0.00     0.180 C 
ATOM      4  C   UNL     1     -30.080  32.623  13.195  1.00  0.00     0.214 C 
ATOM      5  C   UNL     1     -29.393  33.114  14.492  1.00  0.00     0.339 C 
ATOM      6  O   UNL     1     -28.063  32.644  14.542  1.00  0.00    -0.332 OA
ENDROOT
BRANCH   1   7
ATOM      7  C   UNL     1     -26.206  32.089  13.187  1.00  0.00     0.198 C 
BRANCH   7   8
ATOM      8  O   UNL     1     -24.891  32.442  13.585  1.00  0.00    -0.347 OA
BRANCH   8   9
ATOM      9  C   UNL     1     -24.597  32.129  14.938  1.00  0.00     0.281 C 
ATOM     10  C   UNL     1     -26.099  33.332  18.082  1.00  0.00     0.041 C 
ATOM     11  C   UNL     1     -25.293  32.396  17.175  1.00  0.00     0.150 C 
ATOM     12  C   UNL     1     -23.809  32.210  17.644  1.00  0.00     0.174 C 
ATOM     13  O   UNL     1     -25.389  32.895  15.847  1.00  0.00    -0.344 OA
ATOM     14  C   UNL     1     -22.794  32.832  16.641  1.00  0.00     0.179 C 
ATOM     15  C   UNL     1     -23.066  32.232  15.244  1.00  0.00     0.202 C 
BRANCH  12  16
ATOM     16  O   UNL     1     -23.581  32.598  18.979  1.00  0.00    -0.388 OA
ATOM     17  H   UNL     1     -24.440  32.596  19.469  1.00  0.00     0.211 HD
ENDBRANCH  12  16
BRANCH  14  18
ATOM     18  O   UNL     1     -22.818  34.240  16.583  1.00  0.00    -0.387 OA
ATOM     19  H   UNL     1     -23.639  34.559  16.122  1.00  0.00     0.211 HD
ENDBRANCH  14  18
BRANCH  15  20
ATOM     20  O   UNL     1     -22.340  32.889  14.232  1.00  0.00    -0.385 OA
ATOM     21  H   UNL     1     -21.917  32.203  13.651  1.00  0.00     0.211 HD
ENDBRANCH  15  20
ENDBRANCH   8   9
ENDBRANCH   7   8
ENDBRANCH   1   7
BRANCH   2  22
ATOM     22  O   UNL     1     -27.134  33.939  11.185  1.00  0.00    -0.387 OA
ATOM     23  H   UNL     1     -27.164  34.899  10.926  1.00  0.00     0.211 HD
ENDBRANCH   2  22
BRANCH   3  24
ATOM     24  O   UNL     1     -29.956  33.436  10.925  1.00  0.00    -0.387 OA
ATOM     25  H   UNL     1     -29.326  33.717  10.213  1.00  0.00     0.211 HD
ENDBRANCH   3  24
BRANCH   5  26
ATOM     26  O   UNL     1     -30.100  32.606  15.628  1.00  0.00    -0.462 OA
BRANCH  26  27
ATOM     27  C   UNL     1     -29.989  33.150  16.913  1.00  0.00     0.130 A 
ATOM     28  C   UNL     1     -29.805  32.290  18.003  1.00  0.00     0.093 A 
ATOM     29  C   UNL     1     -30.045  34.536  17.132  1.00  0.00     0.094 A 
ATOM     30  C   UNL     1     -29.723  32.794  19.312  1.00  0.00     0.133 A 
ATOM     31  C   UNL     1     -29.922  35.053  18.427  1.00  0.00     0.138 A 
ATOM     32  C   UNL     1     -29.797  34.185  19.529  1.00  0.00     0.102 A 
ATOM     33  O   UNL     1     -29.928  36.441  18.619  1.00  0.00    -0.484 OA
ATOM     34  C   UNL     1     -29.777  34.788  20.884  1.00  0.00     0.174 C 
ATOM     35  C   UNL     1     -29.504  37.035  19.849  1.00  0.00     0.211 C 
ATOM     36  O   UNL     1     -29.580  34.083  21.909  1.00  0.00    -0.294 OA
ATOM     37  C   UNL     1     -30.073  36.255  21.045  1.00  0.00     0.131 C 
BRANCH  30  38
ATOM     38  O   UNL     1     -29.586  31.911  20.385  1.00  0.00    -0.507 OA
ATOM     39  H   UNL     1     -29.512  30.909  20.244  1.00  0.00     0.293 HD
ENDBRANCH  30  38
BRANCH  35  40
ATOM     40  C   UNL     1     -29.927  38.485  19.904  1.00  0.00    -0.003 A 
ATOM     41  C   UNL     1     -31.290  38.823  19.909  1.00  0.00     0.057 A 
ATOM     42  C   UNL     1     -28.971  39.512  19.884  1.00  0.00     0.011 A 
ATOM     43  C   UNL     1     -31.695  40.165  19.930  1.00  0.00     0.158 A 
ATOM     44  C   UNL     1     -29.370  40.854  19.896  1.00  0.00     0.051 A 
ATOM     45  C   UNL     1     -30.738  41.191  19.928  1.00  0.00     0.160 A 
BRANCH  43  46
ATOM     46  O   UNL     1     -33.050  40.490  19.945  1.00  0.00    -0.504 OA
ATOM     47  H   UNL     1     -33.737  39.884  20.382  1.00  0.00     0.293 HD
ENDBRANCH  43  46
BRANCH  45  48
ATOM     48  O   UNL     1     -31.182  42.524  19.952  1.00  0.00    -0.493 OA
ATOM     49  C   UNL     1     -31.138  43.403  18.835  1.00  0.00     0.278 C 
ENDBRANCH  45  48
ENDBRANCH  35  40
ENDBRANCH  26  27
ENDBRANCH   5  26
BRANCH   4  50
ATOM     50  O   UNL     1     -30.368  31.252  13.292  1.00  0.00    -0.384 OA
ATOM     51  H   UNL     1     -31.014  31.133  14.039  1.00  0.00     0.211 HD
ENDBRANCH   4  50
TORSDOF 15
ENDMDL
MODEL 9
REMARK VINA RESULT:    -7.425      9.767     13.595
REMARK INTER + INTRA:         -13.433
REMARK INTER:                 -12.076
REMARK INTRA:                  -1.357
REMARK UNBOUND:                -1.234
REMARK SMILES COc1ccc([C@H]2CC(=O)c3c(O)cc(O[C@H]4O[C@@H](CO[C@@H]5O[C@H](C)[C@H](O)[C@H](O)[C@@H]5O)[C@@H](O)[C@H](O)[C@H]4O)cc3O2)cc1O
REMARK SMILES IDX 19 1 32 2 34 3 36 4 17 5 18 6 20 7 21 8 22 9 25 10 24 11
REMARK SMILES IDX 26 12 23 13 28 14 30 15 27 16 29 18 31 20 33 22 35 24 16 26
REMARK SMILES IDX 15 27 14 28 38 29 12 30 39 31 11 32 40 33 9 34 7 35 10 36
REMARK SMILES IDX 8 37 13 38 6 40 41 41 5 42 42 43 4 44 3 45 43 46 2 48 1 49
REMARK SMILES IDX 37 50
REMARK H PARENT 27 17 29 19 31 21 33 23 35 25 13 39 43 47 37 51
REMARK Flexibility Score: inf
ROOT
ATOM      1  C   UNL     1     -29.674  35.832  19.893  1.00  0.00     0.180 C 
ATOM      2  C   UNL     1     -29.832  35.515  21.419  1.00  0.00     0.177 C 
ATOM      3  C   UNL     1     -30.637  34.210  21.605  1.00  0.00     0.180 C 
ATOM      4  C   UNL     1     -30.025  33.053  20.780  1.00  0.00     0.214 C 
ATOM      5  C   UNL     1     -28.963  33.563  19.776  1.00  0.00     0.339 C 
ATOM      6  O   UNL     1     -29.460  34.680  19.073  1.00  0.00    -0.332 OA
ENDROOT
BRANCH   1   7
ATOM      7  C   UNL     1     -30.879  36.562  19.280  1.00  0.00     0.198 C 
BRANCH   7   8
ATOM      8  O   UNL     1     -30.477  37.708  18.547  1.00  0.00    -0.347 OA
BRANCH   8   9
ATOM      9  C   UNL     1     -30.582  38.922  19.276  1.00  0.00     0.281 C 
ATOM     10  C   UNL     1     -32.501  41.995  18.597  1.00  0.00     0.041 C 
ATOM     11  C   UNL     1     -31.715  40.983  19.438  1.00  0.00     0.150 C 
ATOM     12  C   UNL     1     -30.455  41.605  20.133  1.00  0.00     0.174 C 
ATOM     13  O   UNL     1     -31.390  39.885  18.597  1.00  0.00    -0.344 OA
ATOM     14  C   UNL     1     -29.126  41.031  19.561  1.00  0.00     0.179 C 
ATOM     15  C   UNL     1     -29.179  39.490  19.672  1.00  0.00     0.202 C 
BRANCH  12  16
ATOM     16  O   UNL     1     -30.473  43.013  20.189  1.00  0.00    -0.388 OA
ATOM     17  H   UNL     1     -30.898  43.299  21.036  1.00  0.00     0.211 HD
ENDBRANCH  12  16
BRANCH  14  18
ATOM     18  O   UNL     1     -28.844  41.417  18.236  1.00  0.00    -0.387 OA
ATOM     19  H   UNL     1     -28.437  40.665  17.729  1.00  0.00     0.211 HD
ENDBRANCH  14  18
BRANCH  15  20
ATOM     20  O   UNL     1     -28.115  38.871  18.988  1.00  0.00    -0.385 OA
ATOM     21  H   UNL     1     -28.226  37.886  19.058  1.00  0.00     0.211 HD
ENDBRANCH  15  20
ENDBRANCH   8   9
ENDBRANCH   7   8
ENDBRANCH   1   7
BRANCH   2  22
ATOM     22  O   UNL     1     -30.400  36.591  22.119  1.00  0.00    -0.387 OA
ATOM     23  H   UNL     1     -29.719  37.314  22.176  1.00  0.00     0.211 HD
ENDBRANCH   2  22
BRANCH   3  24
ATOM     24  O   UNL     1     -30.658  33.853  22.969  1.00  0.00    -0.387 OA
ATOM     25  H   UNL     1     -30.131  33.019  23.060  1.00  0.00     0.211 HD
ENDBRANCH   3  24
BRANCH   5  26
ATOM     26  O   UNL     1     -28.660  32.527  18.835  1.00  0.00    -0.462 OA
BRANCH  26  27
ATOM     27  C   UNL     1     -28.175  32.775  17.546  1.00  0.00     0.130 A 
ATOM     28  C   UNL     1     -26.791  32.817  17.336  1.00  0.00     0.093 A 
ATOM     29  C   UNL     1     -29.042  32.968  16.458  1.00  0.00     0.094 A 
ATOM     30  C   UNL     1     -26.264  33.097  16.063  1.00  0.00     0.133 A 
ATOM     31  C   UNL     1     -28.529  33.204  15.178  1.00  0.00     0.138 A 
ATOM     32  C   UNL     1     -27.139  33.307  14.978  1.00  0.00     0.102 A 
ATOM     33  O   UNL     1     -29.409  33.343  14.096  1.00  0.00    -0.484 OA
ATOM     34  C   UNL     1     -26.660  33.663  13.620  1.00  0.00     0.174 C 
ATOM     35  C   UNL     1     -28.957  33.278  12.741  1.00  0.00     0.211 C 
ATOM     36  O   UNL     1     -25.431  33.686  13.346  1.00  0.00    -0.294 OA
ATOM     37  C   UNL     1     -27.657  34.079  12.571  1.00  0.00     0.131 C 
BRANCH  30  38
ATOM     38  O   UNL     1     -24.881  33.178  15.891  1.00  0.00    -0.507 OA
ATOM     39  H   UNL     1     -24.280  32.371  16.020  1.00  0.00     0.293 HD
ENDBRANCH  30  38
BRANCH  35  40
ATOM     40  C   UNL     1     -30.029  33.789  11.806  1.00  0.00    -0.003 A 
ATOM     41  C   UNL     1     -31.070  34.592  12.298  1.00  0.00     0.057 A 
ATOM     42  C   UNL     1     -30.036  33.418  10.452  1.00  0.00     0.011 A 
ATOM     43  C   UNL     1     -32.086  35.047  11.446  1.00  0.00     0.158 A 
ATOM     44  C   UNL     1     -31.053  33.862   9.600  1.00  0.00     0.051 A 
ATOM     45  C   UNL     1     -32.083  34.689  10.090  1.00  0.00     0.160 A 
BRANCH  43  46
ATOM     46  O   UNL     1     -33.111  35.851  11.941  1.00  0.00    -0.504 OA
ATOM     47  H   UNL     1     -33.017  36.350  12.821  1.00  0.00     0.293 HD
ENDBRANCH  43  46
BRANCH  45  48
ATOM     48  O   UNL     1     -33.117  35.167   9.266  1.00  0.00    -0.493 OA
ATOM     49  C   UNL     1     -32.955  36.188   8.289  1.00  0.00     0.278 C 
ENDBRANCH  45  48
ENDBRANCH  35  40
ENDBRANCH  26  27
ENDBRANCH   5  26
BRANCH   4  50
ATOM     50  O   UNL     1     -31.061  32.398  20.094  1.00  0.00    -0.384 OA
ATOM     51  H   UNL     1     -31.038  31.440  20.361  1.00  0.00     0.211 HD
ENDBRANCH   4  50
TORSDOF 15
ENDMDL
