MODEL 1
REMARK VINA RESULT:    -4.127      0.000      0.000
REMARK INTER + INTRA:          -5.525
REMARK INTER:                  -5.815
REMARK INTRA:                   0.291
REMARK UNBOUND:                 0.291
REMARK SMILES CC1=CCC(=C(C)C)C(=O)CC(C)=CCC1
REMARK SMILES IDX 12 1 14 2 13 3 15 4 16 5 2 6 1 7 3 8 11 10 9 11 10 12 5 13
REMARK SMILES IDX 6 14 7 15 8 16 4 17
REMARK H PARENT
REMARK Flexibility Score: 60.00
ROOT
ATOM      1  C   UNL     1     -17.432  13.314 -29.283  1.00  0.00    -0.070 C 
ATOM      2  C   UNL     1     -17.105  12.362 -28.381  1.00  0.00    -0.027 C 
ATOM      3  C   UNL     1     -18.581  13.033 -30.218  1.00  0.00     0.039 C 
ENDROOT
BRANCH   2   4
ATOM      4  C   UNL     1     -15.931  12.415 -27.428  1.00  0.00     0.032 C 
BRANCH   4   5
ATOM      5  C   UNL     1     -14.779  11.444 -27.763  1.00  0.00     0.034 C 
BRANCH   5   6
ATOM      6  C   UNL     1     -13.426  12.129 -27.848  1.00  0.00    -0.077 C 
ATOM      7  C   UNL     1     -12.548  12.099 -26.624  1.00  0.00     0.039 C 
ATOM      8  C   UNL     1     -12.988  12.822 -28.927  1.00  0.00    -0.023 CG0
ATOM      9  G   UNL     1     -13.686  12.972 -30.264  1.00  0.00     0.000 G0
ENDBRANCH   5   6
ENDBRANCH   4   5
ENDBRANCH   2   4
BRANCH   1  10
ATOM     10  C   UNL     1     -16.648  14.597 -29.459  1.00  0.00     0.111 C 
BRANCH  10  11
ATOM     11  C   UNL     1     -15.717  14.521 -30.642  1.00  0.00     0.163 C 
ATOM     12  O   UNL     1     -16.223  14.517 -31.796  1.00  0.00    -0.294 OA
BRANCH  11  13
ATOM     13  C   UNL     1     -14.238  14.388 -30.490  1.00  0.00    -0.002 C 
ATOM     14  C   UNL     1     -13.422  15.478 -30.620  1.00  0.00    -0.069 C 
ATOM     15  C   UNL     1     -11.914  15.351 -30.629  1.00  0.00     0.039 C 
ATOM     16  C   UNL     1     -13.991  16.871 -30.763  1.00  0.00     0.039 C 
BRANCH  13  17
ATOM     17  C   UNL     1     -13.682  12.988 -30.283  1.00  0.00     0.066 CG0
ATOM     18  G   UNL     1     -12.996  12.833 -28.940  1.00  0.00     0.000 G0
ENDBRANCH  13  17
ENDBRANCH  11  13
ENDBRANCH  10  11
ENDBRANCH   1  10
TORSDOF 0
ENDMDL
MODEL 2
REMARK VINA RESULT:    -4.034      1.415      3.725
REMARK INTER + INTRA:          -5.394
REMARK INTER:                  -6.103
REMARK INTRA:                   0.709
REMARK UNBOUND:                 0.291
REMARK SMILES CC1=CCC(=C(C)C)C(=O)CC(C)=CCC1
REMARK SMILES IDX 12 1 14 2 13 3 15 4 16 5 2 6 1 7 3 8 11 10 9 11 10 12 5 13
REMARK SMILES IDX 6 14 7 15 8 16 4 17
REMARK H PARENT
REMARK Flexibility Score: 60.00
ROOT
ATOM      1  C   UNL     1     -13.055  15.750 -30.943  1.00  0.00    -0.070 C 
ATOM      2  C   UNL     1     -12.199  15.729 -29.897  1.00  0.00    -0.027 C 
ATOM      3  C   UNL     1     -14.243  16.675 -30.863  1.00  0.00     0.039 C 
ENDROOT
BRANCH   2   4
ATOM      4  C   UNL     1     -11.011  14.804 -29.747  1.00  0.00     0.032 C 
BRANCH   4   5
ATOM      5  C   UNL     1     -11.364  13.351 -29.368  1.00  0.00     0.034 C 
BRANCH   5   6
ATOM      6  C   UNL     1     -12.637  13.241 -28.548  1.00  0.00    -0.077 C 
ATOM      7  C   UNL     1     -12.571  13.638 -27.095  1.00  0.00     0.039 C 
ATOM      8  C   UNL     1     -13.808  12.745 -29.017  1.00  0.00    -0.023 CG0
ATOM      9  G   UNL     1     -14.113  12.305 -30.435  1.00  0.00     0.000 G0
ENDBRANCH   5   6
ENDBRANCH   4   5
ENDBRANCH   2   4
BRANCH   1  10
ATOM     10  C   UNL     1     -12.932  14.826 -32.137  1.00  0.00     0.111 C 
BRANCH  10  11
ATOM     11  C   UNL     1     -14.191  14.030 -32.356  1.00  0.00     0.163 C 
ATOM     12  O   UNL     1     -14.687  14.008 -33.514  1.00  0.00    -0.294 OA
BRANCH  11  13
ATOM     13  C   UNL     1     -14.898  13.325 -31.244  1.00  0.00    -0.002 C 
ATOM     14  C   UNL     1     -16.182  13.657 -30.911  1.00  0.00    -0.069 C 
ATOM     15  C   UNL     1     -16.868  13.076 -29.695  1.00  0.00     0.039 C 
ATOM     16  C   UNL     1     -16.983  14.628 -31.748  1.00  0.00     0.039 C 
BRANCH  13  17
ATOM     17  C   UNL     1     -14.100  12.304 -30.449  1.00  0.00     0.066 CG0
ATOM     18  G   UNL     1     -13.837  12.759 -29.027  1.00  0.00     0.000 G0
ENDBRANCH  13  17
ENDBRANCH  11  13
ENDBRANCH  10  11
ENDBRANCH   1  10
TORSDOF 0
ENDMDL
MODEL 3
REMARK VINA RESULT:    -3.970      1.500      2.681
REMARK INTER + INTRA:          -5.304
REMARK INTER:                  -5.490
REMARK INTRA:                   0.185
REMARK UNBOUND:                 0.291
REMARK SMILES CC1=CCC(=C(C)C)C(=O)CC(C)=CCC1
REMARK SMILES IDX 12 1 14 2 13 3 15 4 16 5 2 6 1 7 3 8 11 10 9 11 10 12 5 13
REMARK SMILES IDX 6 14 7 15 8 16 4 17
REMARK H PARENT
REMARK Flexibility Score: 60.00
ROOT
ATOM      1  C   UNL     1     -16.423  14.184 -30.928  1.00  0.00    -0.070 C 
ATOM      2  C   UNL     1     -17.431  13.409 -30.471  1.00  0.00    -0.027 C 
ATOM      3  C   UNL     1     -16.464  14.614 -32.373  1.00  0.00     0.039 C 
ENDROOT
BRANCH   2   4
ATOM      4  C   UNL     1     -17.519  12.799 -29.089  1.00  0.00     0.032 C 
BRANCH   4   5
ATOM      5  C   UNL     1     -16.863  11.409 -28.950  1.00  0.00     0.034 C 
BRANCH   5   6
ATOM      6  C   UNL     1     -15.925  11.309 -27.759  1.00  0.00    -0.077 C 
ATOM      7  C   UNL     1     -16.542  11.179 -26.390  1.00  0.00     0.039 C 
ATOM      8  C   UNL     1     -14.576  11.396 -27.841  1.00  0.00    -0.023 CG0
ATOM      9  G   UNL     1     -13.740  11.509 -29.101  1.00  0.00     0.000 G0
ENDBRANCH   5   6
ENDBRANCH   4   5
ENDBRANCH   2   4
BRANCH   1  10
ATOM     10  C   UNL     1     -15.217  14.559 -30.091  1.00  0.00     0.111 C 
BRANCH  10  11
ATOM     11  C   UNL     1     -14.025  13.697 -30.417  1.00  0.00     0.163 C 
ATOM     12  O   UNL     1     -13.683  13.589 -31.626  1.00  0.00    -0.294 OA
BRANCH  11  13
ATOM     13  C   UNL     1     -13.284  12.927 -29.375  1.00  0.00    -0.002 C 
ATOM     14  C   UNL     1     -12.187  13.462 -28.759  1.00  0.00    -0.069 C 
ATOM     15  C   UNL     1     -11.324  12.652 -27.817  1.00  0.00     0.039 C 
ATOM     16  C   UNL     1     -11.780  14.900 -28.991  1.00  0.00     0.039 C 
BRANCH  13  17
ATOM     17  C   UNL     1     -13.743  11.503 -29.104  1.00  0.00     0.066 CG0
ATOM     18  G   UNL     1     -14.572  11.395 -27.840  1.00  0.00     0.000 G0
ENDBRANCH  13  17
ENDBRANCH  11  13
ENDBRANCH  10  11
ENDBRANCH   1  10
TORSDOF 0
ENDMDL
MODEL 4
REMARK VINA RESULT:    -3.877      1.792      4.334
REMARK INTER + INTRA:          -5.174
REMARK INTER:                  -5.592
REMARK INTRA:                   0.418
REMARK UNBOUND:                 0.291
REMARK SMILES CC1=CCC(=C(C)C)C(=O)CC(C)=CCC1
REMARK SMILES IDX 12 1 14 2 13 3 15 4 16 5 2 6 1 7 3 8 11 10 9 11 10 12 5 13
REMARK SMILES IDX 6 14 7 15 8 16 4 17
REMARK H PARENT
REMARK Flexibility Score: 60.00
ROOT
ATOM      1  C   UNL     1     -13.513  15.731 -31.348  1.00  0.00    -0.070 C 
ATOM      2  C   UNL     1     -14.806  15.544 -31.695  1.00  0.00    -0.027 C 
ATOM      3  C   UNL     1     -12.510  15.945 -32.454  1.00  0.00     0.039 C 
ENDROOT
BRANCH   2   4
ATOM      4  C   UNL     1     -15.937  15.220 -30.744  1.00  0.00     0.032 C 
BRANCH   4   5
ATOM      5  C   UNL     1     -16.591  13.839 -30.961  1.00  0.00     0.034 C 
BRANCH   5   6
ATOM      6  C   UNL     1     -16.627  12.991 -29.701  1.00  0.00    -0.077 C 
ATOM      7  C   UNL     1     -17.943  12.872 -28.975  1.00  0.00     0.039 C 
ATOM      8  C   UNL     1     -15.543  12.393 -29.152  1.00  0.00    -0.023 CG0
ATOM      9  G   UNL     1     -14.134  12.361 -29.710  1.00  0.00     0.000 G0
ENDBRANCH   5   6
ENDBRANCH   4   5
ENDBRANCH   2   4
BRANCH   1  10
ATOM     10  C   UNL     1     -13.014  15.642 -29.921  1.00  0.00     0.111 C 
BRANCH  10  11
ATOM     11  C   UNL     1     -12.425  14.288 -29.622  1.00  0.00     0.163 C 
ATOM     12  O   UNL     1     -11.276  14.028 -30.070  1.00  0.00    -0.294 OA
BRANCH  11  13
ATOM     13  C   UNL     1     -13.175  13.235 -28.875  1.00  0.00    -0.002 C 
ATOM     14  C   UNL     1     -12.954  13.033 -27.541  1.00  0.00    -0.069 C 
ATOM     15  C   UNL     1     -13.578  11.876 -26.793  1.00  0.00     0.039 C 
ATOM     16  C   UNL     1     -12.066  13.962 -26.743  1.00  0.00     0.039 C 
BRANCH  13  17
ATOM     17  C   UNL     1     -14.114  12.348 -29.677  1.00  0.00     0.066 CG0
ATOM     18  G   UNL     1     -15.540  12.407 -29.166  1.00  0.00     0.000 G0
ENDBRANCH  13  17
ENDBRANCH  11  13
ENDBRANCH  10  11
ENDBRANCH   1  10
TORSDOF 0
ENDMDL
MODEL 5
REMARK VINA RESULT:    -3.744      1.684      4.602
REMARK INTER + INTRA:          -4.985
REMARK INTER:                  -5.550
REMARK INTRA:                   0.565
REMARK UNBOUND:                 0.291
REMARK SMILES CC1=CCC(=C(C)C)C(=O)CC(C)=CCC1
REMARK SMILES IDX 12 1 14 2 13 3 15 4 16 5 2 6 1 7 3 8 11 10 9 11 10 12 5 13
REMARK SMILES IDX 6 14 7 15 8 16 4 17
REMARK H PARENT
REMARK Flexibility Score: 60.00
ROOT
ATOM      1  C   UNL     1     -13.161  12.978 -27.965  1.00  0.00    -0.070 C 
ATOM      2  C   UNL     1     -12.404  14.090 -28.097  1.00  0.00    -0.027 C 
ATOM      3  C   UNL     1     -13.764  12.692 -26.613  1.00  0.00     0.039 C 
ENDROOT
BRANCH   2   4
ATOM      4  C   UNL     1     -11.639  14.495 -29.337  1.00  0.00     0.032 C 
BRANCH   4   5
ATOM      5  C   UNL     1     -12.209  15.723 -30.079  1.00  0.00     0.034 C 
BRANCH   5   6
ATOM      6  C   UNL     1     -13.017  15.353 -31.310  1.00  0.00    -0.077 C 
ATOM      7  C   UNL     1     -12.329  15.432 -32.649  1.00  0.00     0.039 C 
ATOM      8  C   UNL     1     -14.332  15.026 -31.291  1.00  0.00    -0.023 CG0
ATOM      9  G   UNL     1     -15.218  14.866 -30.071  1.00  0.00     0.000 G0
ENDBRANCH   5   6
ENDBRANCH   4   5
ENDBRANCH   2   4
BRANCH   1  10
ATOM     10  C   UNL     1     -13.353  11.967 -29.076  1.00  0.00     0.111 C 
BRANCH  10  11
ATOM     11  C   UNL     1     -14.388  12.424 -30.071  1.00  0.00     0.163 C 
ATOM     12  O   UNL     1     -14.302  12.000 -31.255  1.00  0.00    -0.294 OA
BRANCH  11  13
ATOM     13  C   UNL     1     -15.461  13.401 -29.719  1.00  0.00    -0.002 C 
ATOM     14  C   UNL     1     -16.643  12.976 -29.180  1.00  0.00    -0.069 C 
ATOM     15  C   UNL     1     -17.807  13.917 -28.961  1.00  0.00     0.039 C 
ATOM     16  C   UNL     1     -16.848  11.533 -28.776  1.00  0.00     0.039 C 
BRANCH  13  17
ATOM     17  C   UNL     1     -15.218  14.859 -30.073  1.00  0.00     0.066 CG0
ATOM     18  G   UNL     1     -14.332  15.016 -31.293  1.00  0.00     0.000 G0
ENDBRANCH  13  17
ENDBRANCH  11  13
ENDBRANCH  10  11
ENDBRANCH   1  10
TORSDOF 0
ENDMDL
MODEL 6
REMARK VINA RESULT:    -3.585      1.683      4.085
REMARK INTER + INTRA:          -4.761
REMARK INTER:                  -5.588
REMARK INTRA:                   0.826
REMARK UNBOUND:                 0.291
REMARK SMILES CC1=CCC(=C(C)C)C(=O)CC(C)=CCC1
REMARK SMILES IDX 12 1 14 2 13 3 15 4 16 5 2 6 1 7 3 8 11 10 9 11 10 12 5 13
REMARK SMILES IDX 6 14 7 15 8 16 4 17
REMARK H PARENT
REMARK Flexibility Score: 60.00
ROOT
ATOM      1  C   UNL     1     -16.282  13.499 -31.033  1.00  0.00    -0.070 C 
ATOM      2  C   UNL     1     -15.793  14.310 -31.998  1.00  0.00    -0.027 C 
ATOM      3  C   UNL     1     -17.668  13.783 -30.511  1.00  0.00     0.039 C 
ENDROOT
BRANCH   2   4
ATOM      4  C   UNL     1     -14.397  14.249 -32.578  1.00  0.00     0.032 C 
BRANCH   4   5
ATOM      5  C   UNL     1     -13.520  15.485 -32.289  1.00  0.00     0.034 C 
BRANCH   5   6
ATOM      6  C   UNL     1     -13.682  16.015 -30.875  1.00  0.00    -0.077 C 
ATOM      7  C   UNL     1     -14.206  17.419 -30.709  1.00  0.00     0.039 C 
ATOM      8  C   UNL     1     -13.323  15.336 -29.759  1.00  0.00    -0.023 CG0
ATOM      9  G   UNL     1     -12.796  13.917 -29.681  1.00  0.00     0.000 G0
ENDBRANCH   5   6
ENDBRANCH   4   5
ENDBRANCH   2   4
BRANCH   1  10
ATOM     10  C   UNL     1     -15.476  12.390 -30.392  1.00  0.00     0.111 C 
BRANCH  10  11
ATOM     11  C   UNL     1     -15.015  12.766 -29.008  1.00  0.00     0.163 C 
ATOM     12  O   UNL     1     -15.887  12.894 -28.106  1.00  0.00    -0.294 OA
BRANCH  11  13
ATOM     13  C   UNL     1     -13.584  13.051 -28.689  1.00  0.00    -0.002 C 
ATOM     14  C   UNL     1     -13.034  12.631 -27.510  1.00  0.00    -0.069 C 
ATOM     15  C   UNL     1     -11.640  13.038 -27.088  1.00  0.00     0.039 C 
ATOM     16  C   UNL     1     -13.799  11.734 -26.563  1.00  0.00     0.039 C 
BRANCH  13  17
ATOM     17  C   UNL     1     -12.807  13.902 -29.680  1.00  0.00     0.066 CG0
ATOM     18  G   UNL     1     -13.330  15.323 -29.755  1.00  0.00     0.000 G0
ENDBRANCH  13  17
ENDBRANCH  11  13
ENDBRANCH  10  11
ENDBRANCH   1  10
TORSDOF 0
ENDMDL
MODEL 7
REMARK VINA RESULT:    -3.452      2.161      5.086
REMARK INTER + INTRA:          -4.574
REMARK INTER:                  -4.998
REMARK INTRA:                   0.424
REMARK UNBOUND:                 0.291
REMARK SMILES CC1=CCC(=C(C)C)C(=O)CC(C)=CCC1
REMARK SMILES IDX 12 1 14 2 13 3 15 4 16 5 2 6 1 7 3 8 11 10 9 11 10 12 5 13
REMARK SMILES IDX 6 14 7 15 8 16 4 17
REMARK H PARENT
REMARK Flexibility Score: 60.00
ROOT
ATOM      1  C   UNL     1     -12.062  14.964 -29.315  1.00  0.00    -0.070 C 
ATOM      2  C   UNL     1     -12.879  15.938 -29.774  1.00  0.00    -0.027 C 
ATOM      3  C   UNL     1     -11.645  15.017 -27.867  1.00  0.00     0.039 C 
ENDROOT
BRANCH   2   4
ATOM      4  C   UNL     1     -13.327  16.112 -31.208  1.00  0.00     0.032 C 
BRANCH   4   5
ATOM      5  C   UNL     1     -14.764  15.632 -31.502  1.00  0.00     0.034 C 
BRANCH   5   6
ATOM      6  C   UNL     1     -14.820  14.217 -32.052  1.00  0.00    -0.077 C 
ATOM      7  C   UNL     1     -14.889  14.050 -33.548  1.00  0.00     0.039 C 
ATOM      8  C   UNL     1     -14.881  13.102 -31.285  1.00  0.00    -0.023 CG0
ATOM      9  G   UNL     1     -14.808  13.025 -29.773  1.00  0.00     0.000 G0
ENDBRANCH   5   6
ENDBRANCH   4   5
ENDBRANCH   2   4
BRANCH   1  10
ATOM     10  C   UNL     1     -11.475  13.885 -30.202  1.00  0.00     0.111 C 
BRANCH  10  11
ATOM     11  C   UNL     1     -12.290  12.620 -30.151  1.00  0.00     0.163 C 
ATOM     12  O   UNL     1     -11.985  11.685 -30.939  1.00  0.00    -0.294 OA
BRANCH  11  13
ATOM     13  C   UNL     1     -13.472  12.463 -29.252  1.00  0.00    -0.002 C 
ATOM     14  C   UNL     1     -13.370  11.771 -28.078  1.00  0.00    -0.069 C 
ATOM     15  C   UNL     1     -14.580  11.460 -27.224  1.00  0.00     0.039 C 
ATOM     16  C   UNL     1     -12.033  11.277 -27.572  1.00  0.00     0.039 C 
BRANCH  13  17
ATOM     17  C   UNL     1     -14.799  13.020 -29.744  1.00  0.00     0.066 CG0
ATOM     18  G   UNL     1     -14.864  13.103 -31.256  1.00  0.00     0.000 G0
ENDBRANCH  13  17
ENDBRANCH  11  13
ENDBRANCH  10  11
ENDBRANCH   1  10
TORSDOF 0
ENDMDL
MODEL 8
REMARK VINA RESULT:    -3.060      2.029      3.929
REMARK INTER + INTRA:          -4.022
REMARK INTER:                  -4.902
REMARK INTRA:                   0.881
REMARK UNBOUND:                 0.291
REMARK SMILES CC1=CCC(=C(C)C)C(=O)CC(C)=CCC1
REMARK SMILES IDX 12 1 14 2 13 3 15 4 16 5 2 6 1 7 3 8 11 10 9 11 10 12 5 13
REMARK SMILES IDX 6 14 7 15 8 16 4 17
REMARK H PARENT
REMARK Flexibility Score: 60.00
ROOT
ATOM      1  C   UNL     1     -12.889  12.719 -28.197  1.00  0.00    -0.070 C 
ATOM      2  C   UNL     1     -13.934  12.049 -28.734  1.00  0.00    -0.027 C 
ATOM      3  C   UNL     1     -12.856  12.890 -26.700  1.00  0.00     0.039 C 
ENDROOT
BRANCH   2   4
ATOM      4  C   UNL     1     -14.195  11.858 -30.212  1.00  0.00     0.032 C 
BRANCH   4   5
ATOM      5  C   UNL     1     -15.293  12.769 -30.799  1.00  0.00     0.034 C 
BRANCH   5   6
ATOM      6  C   UNL     1     -15.675  13.914 -29.877  1.00  0.00    -0.077 C 
ATOM      7  C   UNL     1     -16.699  13.637 -28.806  1.00  0.00     0.039 C 
ATOM      8  C   UNL     1     -15.210  15.180 -29.998  1.00  0.00    -0.023 CG0
ATOM      9  G   UNL     1     -14.170  15.683 -30.980  1.00  0.00     0.000 G0
ENDBRANCH   5   6
ENDBRANCH   4   5
ENDBRANCH   2   4
BRANCH   1  10
ATOM     10  C   UNL     1     -11.811  13.381 -29.029  1.00  0.00     0.111 C 
BRANCH  10  11
ATOM     11  C   UNL     1     -12.251  14.729 -29.537  1.00  0.00     0.163 C 
ATOM     12  O   UNL     1     -12.142  15.720 -28.765  1.00  0.00    -0.294 OA
BRANCH  11  13
ATOM     13  C   UNL     1     -12.862  14.917 -30.887  1.00  0.00    -0.002 C 
ATOM     14  C   UNL     1     -12.224  14.470 -32.011  1.00  0.00    -0.069 C 
ATOM     15  C   UNL     1     -12.737  14.782 -33.399  1.00  0.00     0.039 C 
ATOM     16  C   UNL     1     -10.965  13.637 -31.920  1.00  0.00     0.039 C 
BRANCH  13  17
ATOM     17  C   UNL     1     -14.161  15.702 -30.960  1.00  0.00     0.066 CG0
ATOM     18  G   UNL     1     -15.209  15.172 -30.001  1.00  0.00     0.000 G0
ENDBRANCH  13  17
ENDBRANCH  11  13
ENDBRANCH  10  11
ENDBRANCH   1  10
TORSDOF 0
ENDMDL
MODEL 9
REMARK VINA RESULT:    -2.645      1.503      4.050
REMARK INTER + INTRA:          -3.437
REMARK INTER:                  -4.666
REMARK INTRA:                   1.229
REMARK UNBOUND:                 0.291
REMARK SMILES CC1=CCC(=C(C)C)C(=O)CC(C)=CCC1
REMARK SMILES IDX 12 1 14 2 13 3 15 4 16 5 2 6 1 7 3 8 11 10 9 11 10 12 5 13
REMARK SMILES IDX 6 14 7 15 8 16 4 17
REMARK H PARENT
REMARK Flexibility Score: 60.00
ROOT
ATOM      1  C   UNL     1     -12.987  14.420 -30.403  1.00  0.00    -0.070 C 
ATOM      2  C   UNL     1     -12.044  13.460 -30.526  1.00  0.00    -0.027 C 
ATOM      3  C   UNL     1     -12.665  15.797 -30.928  1.00  0.00     0.039 C 
ENDROOT
BRANCH   2   4
ATOM      4  C   UNL     1     -12.139  12.054 -29.978  1.00  0.00     0.032 C 
BRANCH   4   5
ATOM      5  C   UNL     1     -11.486  11.850 -28.594  1.00  0.00     0.034 C 
BRANCH   5   6
ATOM      6  C   UNL     1     -12.448  12.078 -27.441  1.00  0.00    -0.077 C 
ATOM      7  C   UNL     1     -11.906  12.730 -26.195  1.00  0.00     0.039 C 
ATOM      8  C   UNL     1     -13.741  11.673 -27.434  1.00  0.00    -0.023 CG0
ATOM      9  G   UNL     1     -14.503  11.020 -28.571  1.00  0.00     0.000 G0
ENDBRANCH   5   6
ENDBRANCH   4   5
ENDBRANCH   2   4
BRANCH   1  10
ATOM     10  C   UNL     1     -14.303  14.206 -29.684  1.00  0.00     0.111 C 
BRANCH  10  11
ATOM     11  C   UNL     1     -15.005  12.965 -30.169  1.00  0.00     0.163 C 
ATOM     12  O   UNL     1     -15.194  12.835 -31.409  1.00  0.00    -0.294 OA
BRANCH  11  13
ATOM     13  C   UNL     1     -15.534  11.926 -29.236  1.00  0.00    -0.002 C 
ATOM     14  C   UNL     1     -16.866  11.870 -28.935  1.00  0.00    -0.069 C 
ATOM     15  C   UNL     1     -17.408  10.936 -27.876  1.00  0.00     0.039 C 
ATOM     16  C   UNL     1     -17.869  12.747 -29.650  1.00  0.00     0.039 C 
BRANCH  13  17
ATOM     17  C   UNL     1     -14.521  11.008 -28.571  1.00  0.00     0.066 CG0
ATOM     18  G   UNL     1     -13.782  11.690 -27.437  1.00  0.00     0.000 G0
ENDBRANCH  13  17
ENDBRANCH  11  13
ENDBRANCH  10  11
ENDBRANCH   1  10
TORSDOF 0
ENDMDL
