MODEL 1
REMARK VINA RESULT:    -4.620      0.000      0.000
REMARK INTER + INTRA:         -14.213
REMARK INTER:                 -10.562
REMARK INTRA:                  -3.651
REMARK UNBOUND:                -3.651
REMARK SMILES CCCCCCCCCCCCCCCCCCCCCCCC(=O)[O-]
REMARK SMILES IDX 13 1 14 2 15 3 16 4 17 5 18 6 19 7 20 8 21 9 22 10 23 11
REMARK SMILES IDX 24 12 25 13 26 14 12 15 11 16 10 17 9 18 8 19 7 20 6 21 5 22
REMARK SMILES IDX 4 23 3 24 2 25 1 26
REMARK H PARENT
REMARK Flexibility Score: inf
ROOT
ATOM      1  C   UNL     1      17.005  70.188  20.425  1.00  0.00     0.000 C 
ENDROOT
BRANCH   1   2
ATOM      2  C   UNL     1      18.442  70.732  20.350  1.00  0.00     0.000 C 
BRANCH   2   3
ATOM      3  C   UNL     1      19.098  70.487  18.983  1.00  0.00     0.000 C 
BRANCH   3   4
ATOM      4  C   UNL     1      18.147  69.812  17.976  1.00  0.00     0.000 C 
BRANCH   4   5
ATOM      5  C   UNL     1      17.730  70.752  16.824  1.00  0.00     0.000 C 
BRANCH   5   6
ATOM      6  C   UNL     1      16.208  70.822  16.592  1.00  0.00     0.000 C 
BRANCH   6   7
ATOM      7  C   UNL     1      15.570  69.544  16.012  1.00  0.00     0.000 C 
BRANCH   7   8
ATOM      8  C   UNL     1      15.003  68.567  17.058  1.00  0.00     0.000 C 
BRANCH   8   9
ATOM      9  C   UNL     1      13.985  69.226  18.007  1.00  0.00     0.000 C 
BRANCH   9  10
ATOM     10  C   UNL     1      12.539  68.766  17.741  1.00  0.00     0.006 C 
BRANCH  10  11
ATOM     11  C   UNL     1      12.333  67.249  17.880  1.00  0.00     0.053 C 
BRANCH  11  12
ATOM     12  C   UNL     1      12.661  66.747  19.252  1.00  0.00     0.041 C 
ATOM     13  O   UNL     1      11.763  66.684  20.134  1.00  0.00    -0.550 OA
ATOM     14  O   UNL     1      13.953  66.331  19.552  1.00  0.00    -0.550 OA
ENDBRANCH  11  12
ENDBRANCH  10  11
ENDBRANCH   9  10
ENDBRANCH   8   9
ENDBRANCH   7   8
ENDBRANCH   6   7
ENDBRANCH   5   6
ENDBRANCH   4   5
ENDBRANCH   3   4
ENDBRANCH   2   3
ENDBRANCH   1   2
BRANCH   1  15
ATOM     15  C   UNL     1      15.943  71.298  20.340  1.00  0.00     0.000 C 
BRANCH  15  16
ATOM     16  C   UNL     1      16.488  72.708  20.029  1.00  0.00     0.000 C 
BRANCH  16  17
ATOM     17  C   UNL     1      15.504  73.652  19.316  1.00  0.00     0.000 C 
BRANCH  17  18
ATOM     18  C   UNL     1      16.038  74.157  17.965  1.00  0.00    -0.000 C 
BRANCH  18  19
ATOM     19  C   UNL     1      17.358  74.938  18.092  1.00  0.00    -0.000 C 
BRANCH  19  20
ATOM     20  C   UNL     1      18.571  74.310  17.373  1.00  0.00    -0.000 C 
BRANCH  20  21
ATOM     21  C   UNL     1      19.798  74.043  18.264  1.00  0.00    -0.000 C 
BRANCH  21  22
ATOM     22  C   UNL     1      19.575  74.452  19.728  1.00  0.00    -0.000 C 
BRANCH  22  23
ATOM     23  C   UNL     1      20.309  75.763  20.046  1.00  0.00    -0.000 C 
BRANCH  23  24
ATOM     24  C   UNL     1      21.144  76.288  18.864  1.00  0.00    -0.000 C 
BRANCH  24  25
ATOM     25  C   UNL     1      20.865  77.750  18.471  1.00  0.00    -0.003 C 
ATOM     26  C   UNL     1      19.439  77.976  17.965  1.00  0.00     0.004 C 
ENDBRANCH  24  25
ENDBRANCH  23  24
ENDBRANCH  22  23
ENDBRANCH  21  22
ENDBRANCH  20  21
ENDBRANCH  19  20
ENDBRANCH  18  19
ENDBRANCH  17  18
ENDBRANCH  16  17
ENDBRANCH  15  16
ENDBRANCH   1  15
TORSDOF 22
ENDMDL
MODEL 2
REMARK VINA RESULT:    -4.619      1.362      4.279
REMARK INTER + INTRA:         -14.211
REMARK INTER:                 -10.321
REMARK INTRA:                  -3.890
REMARK UNBOUND:                -3.651
REMARK SMILES CCCCCCCCCCCCCCCCCCCCCCCC(=O)[O-]
REMARK SMILES IDX 13 1 14 2 15 3 16 4 17 5 18 6 19 7 20 8 21 9 22 10 23 11
REMARK SMILES IDX 24 12 25 13 26 14 12 15 11 16 10 17 9 18 8 19 7 20 6 21 5 22
REMARK SMILES IDX 4 23 3 24 2 25 1 26
REMARK H PARENT
REMARK Flexibility Score: inf
ROOT
ATOM      1  C   UNL     1      19.227  75.463  19.518  1.00  0.00     0.000 C 
ENDROOT
BRANCH   1   2
ATOM      2  C   UNL     1      18.740  74.020  19.731  1.00  0.00     0.000 C 
BRANCH   2   3
ATOM      3  C   UNL     1      19.271  73.051  18.663  1.00  0.00     0.000 C 
BRANCH   3   4
ATOM      4  C   UNL     1      18.773  71.607  18.866  1.00  0.00     0.000 C 
BRANCH   4   5
ATOM      5  C   UNL     1      18.265  70.959  17.559  1.00  0.00     0.000 C 
BRANCH   5   6
ATOM      6  C   UNL     1      17.644  69.563  17.752  1.00  0.00     0.000 C 
BRANCH   6   7
ATOM      7  C   UNL     1      16.952  69.330  19.110  1.00  0.00     0.000 C 
BRANCH   7   8
ATOM      8  C   UNL     1      15.542  68.716  19.025  1.00  0.00     0.000 C 
BRANCH   8   9
ATOM      9  C   UNL     1      14.797  69.098  17.734  1.00  0.00     0.000 C 
BRANCH   9  10
ATOM     10  C   UNL     1      13.354  68.561  17.697  1.00  0.00     0.006 C 
BRANCH  10  11
ATOM     11  C   UNL     1      13.260  67.047  17.439  1.00  0.00     0.053 C 
BRANCH  11  12
ATOM     12  C   UNL     1      12.390  66.346  18.434  1.00  0.00     0.041 C 
ATOM     13  O   UNL     1      11.554  65.486  18.047  1.00  0.00    -0.550 OA
ATOM     14  O   UNL     1      12.512  66.628  19.789  1.00  0.00    -0.550 OA
ENDBRANCH  11  12
ENDBRANCH  10  11
ENDBRANCH   9  10
ENDBRANCH   8   9
ENDBRANCH   7   8
ENDBRANCH   6   7
ENDBRANCH   5   6
ENDBRANCH   4   5
ENDBRANCH   3   4
ENDBRANCH   2   3
ENDBRANCH   1   2
BRANCH   1  15
ATOM     15  C   UNL     1      20.750  75.607  19.685  1.00  0.00     0.000 C 
BRANCH  15  16
ATOM     16  C   UNL     1      21.391  76.773  18.903  1.00  0.00     0.000 C 
BRANCH  16  17
ATOM     17  C   UNL     1      21.400  76.614  17.372  1.00  0.00     0.000 C 
BRANCH  17  18
ATOM     18  C   UNL     1      20.547  77.676  16.659  1.00  0.00    -0.000 C 
BRANCH  18  19
ATOM     19  C   UNL     1      19.183  77.139  16.190  1.00  0.00    -0.000 C 
BRANCH  19  20
ATOM     20  C   UNL     1      19.139  75.629  15.875  1.00  0.00    -0.000 C 
BRANCH  20  21
ATOM     21  C   UNL     1      17.772  74.952  16.089  1.00  0.00    -0.000 C 
BRANCH  21  22
ATOM     22  C   UNL     1      16.721  75.900  16.684  1.00  0.00    -0.000 C 
BRANCH  22  23
ATOM     23  C   UNL     1      15.737  75.133  17.580  1.00  0.00    -0.000 C 
BRANCH  23  24
ATOM     24  C   UNL     1      15.712  73.621  17.288  1.00  0.00    -0.000 C 
BRANCH  24  25
ATOM     25  C   UNL     1      14.791  72.798  18.208  1.00  0.00    -0.003 C 
ATOM     26  C   UNL     1      15.348  72.631  19.623  1.00  0.00     0.004 C 
ENDBRANCH  24  25
ENDBRANCH  23  24
ENDBRANCH  22  23
ENDBRANCH  21  22
ENDBRANCH  20  21
ENDBRANCH  19  20
ENDBRANCH  18  19
ENDBRANCH  17  18
ENDBRANCH  16  17
ENDBRANCH  15  16
ENDBRANCH   1  15
TORSDOF 22
ENDMDL
MODEL 3
REMARK VINA RESULT:    -4.602      1.090      2.460
REMARK INTER + INTRA:         -14.173
REMARK INTER:                 -10.829
REMARK INTRA:                  -3.344
REMARK UNBOUND:                -3.651
REMARK SMILES CCCCCCCCCCCCCCCCCCCCCCCC(=O)[O-]
REMARK SMILES IDX 13 1 14 2 15 3 16 4 17 5 18 6 19 7 20 8 21 9 22 10 23 11
REMARK SMILES IDX 24 12 25 13 26 14 12 15 11 16 10 17 9 18 8 19 7 20 6 21 5 22
REMARK SMILES IDX 4 23 3 24 2 25 1 26
REMARK H PARENT
REMARK Flexibility Score: inf
ROOT
ATOM      1  C   UNL     1      16.781  72.762  19.957  1.00  0.00     0.000 C 
ENDROOT
BRANCH   1   2
ATOM      2  C   UNL     1      16.098  71.480  20.463  1.00  0.00     0.000 C 
BRANCH   2   3
ATOM      3  C   UNL     1      17.099  70.353  20.763  1.00  0.00     0.000 C 
BRANCH   3   4
ATOM      4  C   UNL     1      18.384  70.455  19.920  1.00  0.00     0.000 C 
BRANCH   4   5
ATOM      5  C   UNL     1      18.342  69.572  18.654  1.00  0.00     0.000 C 
BRANCH   5   6
ATOM      6  C   UNL     1      17.944  70.331  17.373  1.00  0.00     0.000 C 
BRANCH   6   7
ATOM      7  C   UNL     1      16.787  69.707  16.569  1.00  0.00     0.000 C 
BRANCH   7   8
ATOM      8  C   UNL     1      15.381  69.972  17.139  1.00  0.00     0.000 C 
BRANCH   8   9
ATOM      9  C   UNL     1      14.873  68.829  18.037  1.00  0.00     0.000 C 
BRANCH   9  10
ATOM     10  C   UNL     1      13.362  68.571  17.874  1.00  0.00     0.006 C 
BRANCH  10  11
ATOM     11  C   UNL     1      13.016  67.117  17.510  1.00  0.00     0.053 C 
BRANCH  11  12
ATOM     12  C   UNL     1      12.210  66.434  18.572  1.00  0.00     0.041 C 
ATOM     13  O   UNL     1      11.462  65.465  18.272  1.00  0.00    -0.550 OA
ATOM     14  O   UNL     1      12.298  66.856  19.893  1.00  0.00    -0.550 OA
ENDBRANCH  11  12
ENDBRANCH  10  11
ENDBRANCH   9  10
ENDBRANCH   8   9
ENDBRANCH   7   8
ENDBRANCH   6   7
ENDBRANCH   5   6
ENDBRANCH   4   5
ENDBRANCH   3   4
ENDBRANCH   2   3
ENDBRANCH   1   2
BRANCH   1  15
ATOM     15  C   UNL     1      15.808  73.707  19.231  1.00  0.00     0.000 C 
BRANCH  15  16
ATOM     16  C   UNL     1      15.944  73.740  17.694  1.00  0.00     0.000 C 
BRANCH  16  17
ATOM     17  C   UNL     1      17.388  73.735  17.160  1.00  0.00     0.000 C 
BRANCH  17  18
ATOM     18  C   UNL     1      17.671  74.905  16.202  1.00  0.00    -0.000 C 
BRANCH  18  19
ATOM     19  C   UNL     1      17.534  76.282  16.875  1.00  0.00    -0.000 C 
BRANCH  19  20
ATOM     20  C   UNL     1      18.306  77.432  16.194  1.00  0.00    -0.000 C 
BRANCH  20  21
ATOM     21  C   UNL     1      19.413  78.078  17.047  1.00  0.00    -0.000 C 
BRANCH  21  22
ATOM     22  C   UNL     1      19.427  77.567  18.495  1.00  0.00    -0.000 C 
BRANCH  22  23
ATOM     23  C   UNL     1      20.728  76.808  18.795  1.00  0.00    -0.000 C 
BRANCH  23  24
ATOM     24  C   UNL     1      20.630  75.302  18.489  1.00  0.00    -0.000 C 
BRANCH  24  25
ATOM     25  C   UNL     1      20.040  74.446  19.624  1.00  0.00    -0.003 C 
ATOM     26  C   UNL     1      20.436  74.939  21.018  1.00  0.00     0.004 C 
ENDBRANCH  24  25
ENDBRANCH  23  24
ENDBRANCH  22  23
ENDBRANCH  21  22
ENDBRANCH  20  21
ENDBRANCH  19  20
ENDBRANCH  18  19
ENDBRANCH  17  18
ENDBRANCH  16  17
ENDBRANCH  15  16
ENDBRANCH   1  15
TORSDOF 22
ENDMDL
MODEL 4
REMARK VINA RESULT:    -4.590      1.131      2.061
REMARK INTER + INTRA:         -14.144
REMARK INTER:                 -10.193
REMARK INTRA:                  -3.951
REMARK UNBOUND:                -3.651
REMARK SMILES CCCCCCCCCCCCCCCCCCCCCCCC(=O)[O-]
REMARK SMILES IDX 13 1 14 2 15 3 16 4 17 5 18 6 19 7 20 8 21 9 22 10 23 11
REMARK SMILES IDX 24 12 25 13 26 14 12 15 11 16 10 17 9 18 8 19 7 20 6 21 5 22
REMARK SMILES IDX 4 23 3 24 2 25 1 26
REMARK H PARENT
REMARK Flexibility Score: inf
ROOT
ATOM      1  C   UNL     1      16.529  70.454  20.442  1.00  0.00     0.000 C 
ENDROOT
BRANCH   1   2
ATOM      2  C   UNL     1      17.301  69.367  19.675  1.00  0.00     0.000 C 
BRANCH   2   3
ATOM      3  C   UNL     1      17.685  69.805  18.253  1.00  0.00     0.000 C 
BRANCH   3   4
ATOM      4  C   UNL     1      16.861  69.091  17.165  1.00  0.00     0.000 C 
BRANCH   4   5
ATOM      5  C   UNL     1      16.409  70.042  16.035  1.00  0.00     0.000 C 
BRANCH   5   6
ATOM      6  C   UNL     1      16.115  71.479  16.505  1.00  0.00     0.000 C 
BRANCH   6   7
ATOM      7  C   UNL     1      14.627  71.805  16.740  1.00  0.00     0.000 C 
BRANCH   7   8
ATOM      8  C   UNL     1      13.939  70.959  17.827  1.00  0.00     0.000 C 
BRANCH   8   9
ATOM      9  C   UNL     1      12.562  70.427  17.391  1.00  0.00     0.000 C 
BRANCH   9  10
ATOM     10  C   UNL     1      12.320  68.970  17.829  1.00  0.00     0.006 C 
BRANCH  10  11
ATOM     11  C   UNL     1      13.611  68.156  18.020  1.00  0.00     0.053 C 
BRANCH  11  12
ATOM     12  C   UNL     1      13.546  67.241  19.203  1.00  0.00     0.041 C 
ATOM     13  O   UNL     1      12.432  66.814  19.611  1.00  0.00    -0.550 OA
ATOM     14  O   UNL     1      14.713  66.846  19.845  1.00  0.00    -0.550 OA
ENDBRANCH  11  12
ENDBRANCH  10  11
ENDBRANCH   9  10
ENDBRANCH   8   9
ENDBRANCH   7   8
ENDBRANCH   6   7
ENDBRANCH   5   6
ENDBRANCH   4   5
ENDBRANCH   3   4
ENDBRANCH   2   3
ENDBRANCH   1   2
BRANCH   1  15
ATOM     15  C   UNL     1      17.227  71.824  20.396  1.00  0.00     0.000 C 
BRANCH  15  16
ATOM     16  C   UNL     1      16.339  73.000  19.937  1.00  0.00     0.000 C 
BRANCH  16  17
ATOM     17  C   UNL     1      17.040  74.052  19.059  1.00  0.00     0.000 C 
BRANCH  17  18
ATOM     18  C   UNL     1      18.322  73.516  18.399  1.00  0.00    -0.000 C 
BRANCH  18  19
ATOM     19  C   UNL     1      18.692  74.263  17.105  1.00  0.00    -0.000 C 
BRANCH  19  20
ATOM     20  C   UNL     1      17.907  75.566  16.845  1.00  0.00    -0.000 C 
BRANCH  20  21
ATOM     21  C   UNL     1      18.770  76.807  16.555  1.00  0.00    -0.000 C 
BRANCH  21  22
ATOM     22  C   UNL     1      19.127  77.598  17.823  1.00  0.00    -0.000 C 
BRANCH  22  23
ATOM     23  C   UNL     1      20.643  77.584  18.067  1.00  0.00    -0.000 C 
BRANCH  23  24
ATOM     24  C   UNL     1      21.096  76.427  18.977  1.00  0.00    -0.000 C 
BRANCH  24  25
ATOM     25  C   UNL     1      20.156  76.125  20.159  1.00  0.00    -0.003 C 
ATOM     26  C   UNL     1      20.526  74.843  20.909  1.00  0.00     0.004 C 
ENDBRANCH  24  25
ENDBRANCH  23  24
ENDBRANCH  22  23
ENDBRANCH  21  22
ENDBRANCH  20  21
ENDBRANCH  19  20
ENDBRANCH  18  19
ENDBRANCH  17  18
ENDBRANCH  16  17
ENDBRANCH  15  16
ENDBRANCH   1  15
TORSDOF 22
ENDMDL
MODEL 5
REMARK VINA RESULT:    -4.574      3.575      8.119
REMARK INTER + INTRA:         -14.107
REMARK INTER:                 -10.623
REMARK INTRA:                  -3.484
REMARK UNBOUND:                -3.651
REMARK SMILES CCCCCCCCCCCCCCCCCCCCCCCC(=O)[O-]
REMARK SMILES IDX 13 1 14 2 15 3 16 4 17 5 18 6 19 7 20 8 21 9 22 10 23 11
REMARK SMILES IDX 24 12 25 13 26 14 12 15 11 16 10 17 9 18 8 19 7 20 6 21 5 22
REMARK SMILES IDX 4 23 3 24 2 25 1 26
REMARK H PARENT
REMARK Flexibility Score: inf
ROOT
ATOM      1  C   UNL     1      16.813  72.950  19.994  1.00  0.00     0.000 C 
ENDROOT
BRANCH   1   2
ATOM      2  C   UNL     1      16.772  73.843  18.741  1.00  0.00     0.000 C 
BRANCH   2   3
ATOM      3  C   UNL     1      17.714  73.351  17.631  1.00  0.00     0.000 C 
BRANCH   3   4
ATOM      4  C   UNL     1      17.857  74.361  16.477  1.00  0.00     0.000 C 
BRANCH   4   5
ATOM      5  C   UNL     1      16.860  75.536  16.582  1.00  0.00     0.000 C 
BRANCH   5   6
ATOM      6  C   UNL     1      17.408  76.873  16.048  1.00  0.00     0.000 C 
BRANCH   6   7
ATOM      7  C   UNL     1      18.939  77.033  16.119  1.00  0.00     0.000 C 
BRANCH   7   8
ATOM      8  C   UNL     1      19.428  78.293  16.858  1.00  0.00     0.000 C 
BRANCH   8   9
ATOM      9  C   UNL     1      20.128  77.973  18.191  1.00  0.00     0.000 C 
BRANCH   9  10
ATOM     10  C   UNL     1      19.317  77.005  19.073  1.00  0.00     0.006 C 
BRANCH  10  11
ATOM     11  C   UNL     1      19.981  75.631  19.262  1.00  0.00     0.053 C 
BRANCH  11  12
ATOM     12  C   UNL     1      20.862  75.578  20.472  1.00  0.00     0.041 C 
ATOM     13  O   UNL     1      20.505  74.918  21.484  1.00  0.00    -0.550 OA
ATOM     14  O   UNL     1      22.082  76.241  20.476  1.00  0.00    -0.550 OA
ENDBRANCH  11  12
ENDBRANCH  10  11
ENDBRANCH   9  10
ENDBRANCH   8   9
ENDBRANCH   7   8
ENDBRANCH   6   7
ENDBRANCH   5   6
ENDBRANCH   4   5
ENDBRANCH   3   4
ENDBRANCH   2   3
ENDBRANCH   1   2
BRANCH   1  15
ATOM     15  C   UNL     1      18.230  72.442  20.315  1.00  0.00     0.000 C 
BRANCH  15  16
ATOM     16  C   UNL     1      18.312  70.974  20.784  1.00  0.00     0.000 C 
BRANCH  16  17
ATOM     17  C   UNL     1      17.008  70.167  20.653  1.00  0.00     0.000 C 
BRANCH  17  18
ATOM     18  C   UNL     1      17.049  69.152  19.498  1.00  0.00    -0.000 C 
BRANCH  18  19
ATOM     19  C   UNL     1      18.071  69.521  18.408  1.00  0.00    -0.000 C 
BRANCH  19  20
ATOM     20  C   UNL     1      17.472  69.845  17.023  1.00  0.00    -0.000 C 
BRANCH  20  21
ATOM     21  C   UNL     1      16.193  69.068  16.660  1.00  0.00    -0.000 C 
BRANCH  21  22
ATOM     22  C   UNL     1      15.134  69.944  15.975  1.00  0.00    -0.000 C 
BRANCH  22  23
ATOM     23  C   UNL     1      14.879  71.225  16.783  1.00  0.00    -0.000 C 
BRANCH  23  24
ATOM     24  C   UNL     1      13.760  71.064  17.829  1.00  0.00    -0.000 C 
BRANCH  24  25
ATOM     25  C   UNL     1      12.329  71.153  17.267  1.00  0.00    -0.003 C 
ATOM     26  C   UNL     1      11.505  69.888  17.516  1.00  0.00     0.004 C 
ENDBRANCH  24  25
ENDBRANCH  23  24
ENDBRANCH  22  23
ENDBRANCH  21  22
ENDBRANCH  20  21
ENDBRANCH  19  20
ENDBRANCH  18  19
ENDBRANCH  17  18
ENDBRANCH  16  17
ENDBRANCH  15  16
ENDBRANCH   1  15
TORSDOF 22
ENDMDL
MODEL 6
REMARK VINA RESULT:    -4.568      1.217      1.941
REMARK INTER + INTRA:         -14.095
REMARK INTER:                 -10.329
REMARK INTRA:                  -3.766
REMARK UNBOUND:                -3.651
REMARK SMILES CCCCCCCCCCCCCCCCCCCCCCCC(=O)[O-]
REMARK SMILES IDX 13 1 14 2 15 3 16 4 17 5 18 6 19 7 20 8 21 9 22 10 23 11
REMARK SMILES IDX 24 12 25 13 26 14 12 15 11 16 10 17 9 18 8 19 7 20 6 21 5 22
REMARK SMILES IDX 4 23 3 24 2 25 1 26
REMARK H PARENT
REMARK Flexibility Score: inf
ROOT
ATOM      1  C   UNL     1      16.404  72.811  20.173  1.00  0.00     0.000 C 
ENDROOT
BRANCH   1   2
ATOM      2  C   UNL     1      17.870  72.553  19.785  1.00  0.00     0.000 C 
BRANCH   2   3
ATOM      3  C   UNL     1      18.372  71.176  20.247  1.00  0.00     0.000 C 
BRANCH   3   4
ATOM      4  C   UNL     1      19.011  70.360  19.107  1.00  0.00     0.000 C 
BRANCH   4   5
ATOM      5  C   UNL     1      17.980  69.523  18.319  1.00  0.00     0.000 C 
BRANCH   5   6
ATOM      6  C   UNL     1      17.698  70.051  16.900  1.00  0.00     0.000 C 
BRANCH   6   7
ATOM      7  C   UNL     1      16.342  69.633  16.297  1.00  0.00     0.000 C 
BRANCH   7   8
ATOM      8  C   UNL     1      15.356  68.997  17.294  1.00  0.00     0.000 C 
BRANCH   8   9
ATOM      9  C   UNL     1      13.915  68.932  16.755  1.00  0.00     0.000 C 
BRANCH   9  10
ATOM     10  C   UNL     1      12.860  68.876  17.877  1.00  0.00     0.006 C 
BRANCH  10  11
ATOM     11  C   UNL     1      12.148  67.518  17.994  1.00  0.00     0.053 C 
BRANCH  11  12
ATOM     12  C   UNL     1      12.553  66.759  19.218  1.00  0.00     0.041 C 
ATOM     13  O   UNL     1      13.716  66.281  19.310  1.00  0.00    -0.550 OA
ATOM     14  O   UNL     1      11.655  66.593  20.265  1.00  0.00    -0.550 OA
ENDBRANCH  11  12
ENDBRANCH  10  11
ENDBRANCH   9  10
ENDBRANCH   8   9
ENDBRANCH   7   8
ENDBRANCH   6   7
ENDBRANCH   5   6
ENDBRANCH   4   5
ENDBRANCH   3   4
ENDBRANCH   2   3
ENDBRANCH   1   2
BRANCH   1  15
ATOM     15  C   UNL     1      15.412  71.993  19.327  1.00  0.00     0.000 C 
BRANCH  15  16
ATOM     16  C   UNL     1      14.339  72.820  18.588  1.00  0.00     0.000 C 
BRANCH  16  17
ATOM     17  C   UNL     1      14.228  72.555  17.076  1.00  0.00     0.000 C 
BRANCH  17  18
ATOM     18  C   UNL     1      14.979  73.601  16.234  1.00  0.00    -0.000 C 
BRANCH  18  19
ATOM     19  C   UNL     1      16.478  73.288  16.080  1.00  0.00    -0.000 C 
BRANCH  19  20
ATOM     20  C   UNL     1      17.437  74.414  16.519  1.00  0.00    -0.000 C 
BRANCH  20  21
ATOM     21  C   UNL     1      16.761  75.650  17.141  1.00  0.00    -0.000 C 
BRANCH  21  22
ATOM     22  C   UNL     1      17.328  76.011  18.522  1.00  0.00    -0.000 C 
BRANCH  22  23
ATOM     23  C   UNL     1      18.846  75.787  18.565  1.00  0.00    -0.000 C 
BRANCH  23  24
ATOM     24  C   UNL     1      19.604  76.931  19.264  1.00  0.00    -0.000 C 
BRANCH  24  25
ATOM     25  C   UNL     1      20.522  77.757  18.345  1.00  0.00    -0.003 C 
ATOM     26  C   UNL     1      20.017  79.184  18.116  1.00  0.00     0.004 C 
ENDBRANCH  24  25
ENDBRANCH  23  24
ENDBRANCH  22  23
ENDBRANCH  21  22
ENDBRANCH  20  21
ENDBRANCH  19  20
ENDBRANCH  18  19
ENDBRANCH  17  18
ENDBRANCH  16  17
ENDBRANCH  15  16
ENDBRANCH   1  15
TORSDOF 22
ENDMDL
MODEL 7
REMARK VINA RESULT:    -4.556      3.868      7.880
REMARK INTER + INTRA:         -14.066
REMARK INTER:                 -10.269
REMARK INTRA:                  -3.797
REMARK UNBOUND:                -3.651
REMARK SMILES CCCCCCCCCCCCCCCCCCCCCCCC(=O)[O-]
REMARK SMILES IDX 13 1 14 2 15 3 16 4 17 5 18 6 19 7 20 8 21 9 22 10 23 11
REMARK SMILES IDX 24 12 25 13 26 14 12 15 11 16 10 17 9 18 8 19 7 20 6 21 5 22
REMARK SMILES IDX 4 23 3 24 2 25 1 26
REMARK H PARENT
REMARK Flexibility Score: inf
ROOT
ATOM      1  C   UNL     1      18.921  70.358  18.901  1.00  0.00     0.000 C 
ENDROOT
BRANCH   1   2
ATOM      2  C   UNL     1      18.729  71.885  18.893  1.00  0.00     0.000 C 
BRANCH   2   3
ATOM      3  C   UNL     1      18.265  72.431  20.253  1.00  0.00     0.000 C 
BRANCH   3   4
ATOM      4  C   UNL     1      17.015  73.324  20.143  1.00  0.00     0.000 C 
BRANCH   4   5
ATOM      5  C   UNL     1      15.799  72.583  19.545  1.00  0.00     0.000 C 
BRANCH   5   6
ATOM      6  C   UNL     1      15.275  73.195  18.233  1.00  0.00     0.000 C 
BRANCH   6   7
ATOM      7  C   UNL     1      15.911  74.540  17.832  1.00  0.00     0.000 C 
BRANCH   7   8
ATOM      8  C   UNL     1      16.999  74.448  16.745  1.00  0.00     0.000 C 
BRANCH   8   9
ATOM      9  C   UNL     1      18.320  75.120  17.159  1.00  0.00     0.000 C 
BRANCH   9  10
ATOM     10  C   UNL     1      18.118  76.548  17.702  1.00  0.00     0.006 C 
BRANCH  10  11
ATOM     11  C   UNL     1      18.806  76.801  19.055  1.00  0.00     0.053 C 
BRANCH  11  12
ATOM     12  C   UNL     1      20.175  76.201  19.126  1.00  0.00     0.041 C 
ATOM     13  O   UNL     1      20.395  75.216  19.882  1.00  0.00    -0.550 OA
ATOM     14  O   UNL     1      21.204  76.715  18.347  1.00  0.00    -0.550 OA
ENDBRANCH  11  12
ENDBRANCH  10  11
ENDBRANCH   9  10
ENDBRANCH   8   9
ENDBRANCH   7   8
ENDBRANCH   6   7
ENDBRANCH   5   6
ENDBRANCH   4   5
ENDBRANCH   3   4
ENDBRANCH   2   3
ENDBRANCH   1   2
BRANCH   1  15
ATOM     15  C   UNL     1      18.141  69.655  17.777  1.00  0.00     0.000 C 
BRANCH  15  16
ATOM     16  C   UNL     1      17.372  70.592  16.822  1.00  0.00     0.000 C 
BRANCH  16  17
ATOM     17  C   UNL     1      16.015  70.060  16.329  1.00  0.00     0.000 C 
BRANCH  17  18
ATOM     18  C   UNL     1      15.535  68.831  17.118  1.00  0.00    -0.000 C 
BRANCH  18  19
ATOM     19  C   UNL     1      15.053  69.176  18.538  1.00  0.00    -0.000 C 
BRANCH  19  20
ATOM     20  C   UNL     1      15.159  68.032  19.570  1.00  0.00    -0.000 C 
BRANCH  20  21
ATOM     21  C   UNL     1      16.286  68.186  20.608  1.00  0.00    -0.000 C 
BRANCH  21  22
ATOM     22  C   UNL     1      16.238  69.531  21.348  1.00  0.00    -0.000 C 
BRANCH  22  23
ATOM     23  C   UNL     1      17.232  69.547  22.518  1.00  0.00    -0.000 C 
BRANCH  23  24
ATOM     24  C   UNL     1      16.674  68.886  23.792  1.00  0.00    -0.000 C 
BRANCH  24  25
ATOM     25  C   UNL     1      17.380  67.583  24.209  1.00  0.00    -0.003 C 
ATOM     26  C   UNL     1      16.567  66.749  25.201  1.00  0.00     0.004 C 
ENDBRANCH  24  25
ENDBRANCH  23  24
ENDBRANCH  22  23
ENDBRANCH  21  22
ENDBRANCH  20  21
ENDBRANCH  19  20
ENDBRANCH  18  19
ENDBRANCH  17  18
ENDBRANCH  16  17
ENDBRANCH  15  16
ENDBRANCH   1  15
TORSDOF 22
ENDMDL
MODEL 8
REMARK VINA RESULT:    -4.494      2.255      4.222
REMARK INTER + INTRA:         -13.926
REMARK INTER:                  -9.717
REMARK INTRA:                  -4.209
REMARK UNBOUND:                -3.651
REMARK SMILES CCCCCCCCCCCCCCCCCCCCCCCC(=O)[O-]
REMARK SMILES IDX 13 1 14 2 15 3 16 4 17 5 18 6 19 7 20 8 21 9 22 10 23 11
REMARK SMILES IDX 24 12 25 13 26 14 12 15 11 16 10 17 9 18 8 19 7 20 6 21 5 22
REMARK SMILES IDX 4 23 3 24 2 25 1 26
REMARK H PARENT
REMARK Flexibility Score: inf
ROOT
ATOM      1  C   UNL     1      14.909  73.132  19.361  1.00  0.00     0.000 C 
ENDROOT
BRANCH   1   2
ATOM      2  C   UNL     1      13.680  73.640  18.589  1.00  0.00     0.000 C 
BRANCH   2   3
ATOM      3  C   UNL     1      12.714  72.509  18.201  1.00  0.00     0.000 C 
BRANCH   3   4
ATOM      4  C   UNL     1      12.689  72.237  16.685  1.00  0.00     0.000 C 
BRANCH   4   5
ATOM      5  C   UNL     1      13.539  71.012  16.282  1.00  0.00     0.000 C 
BRANCH   5   6
ATOM      6  C   UNL     1      13.957  70.121  17.468  1.00  0.00     0.000 C 
BRANCH   6   7
ATOM      7  C   UNL     1      15.474  69.893  17.619  1.00  0.00     0.000 C 
BRANCH   7   8
ATOM      8  C   UNL     1      16.354  70.701  16.648  1.00  0.00     0.000 C 
BRANCH   8   9
ATOM      9  C   UNL     1      17.838  70.722  17.057  1.00  0.00     0.000 C 
BRANCH   9  10
ATOM     10  C   UNL     1      18.103  69.969  18.375  1.00  0.00     0.006 C 
BRANCH  10  11
ATOM     11  C   UNL     1      18.769  70.830  19.461  1.00  0.00     0.053 C 
BRANCH  11  12
ATOM     12  C   UNL     1      18.189  70.593  20.821  1.00  0.00     0.041 C 
ATOM     13  O   UNL     1      16.956  70.366  20.951  1.00  0.00    -0.550 OA
ATOM     14  O   UNL     1      19.010  70.606  21.941  1.00  0.00    -0.550 OA
ENDBRANCH  11  12
ENDBRANCH  10  11
ENDBRANCH   9  10
ENDBRANCH   8   9
ENDBRANCH   7   8
ENDBRANCH   6   7
ENDBRANCH   5   6
ENDBRANCH   4   5
ENDBRANCH   3   4
ENDBRANCH   2   3
ENDBRANCH   1   2
BRANCH   1  15
ATOM     15  C   UNL     1      16.232  73.684  18.800  1.00  0.00     0.000 C 
BRANCH  15  16
ATOM     16  C   UNL     1      16.210  75.176  18.407  1.00  0.00     0.000 C 
BRANCH  16  17
ATOM     17  C   UNL     1      16.527  75.473  16.931  1.00  0.00     0.000 C 
BRANCH  17  18
ATOM     18  C   UNL     1      17.598  74.533  16.352  1.00  0.00    -0.000 C 
BRANCH  18  19
ATOM     19  C   UNL     1      18.914  75.255  16.011  1.00  0.00    -0.000 C 
BRANCH  19  20
ATOM     20  C   UNL     1      20.131  74.852  16.871  1.00  0.00    -0.000 C 
BRANCH  20  21
ATOM     21  C   UNL     1      19.807  74.005  18.115  1.00  0.00    -0.000 C 
BRANCH  21  22
ATOM     22  C   UNL     1      19.848  74.817  19.419  1.00  0.00    -0.000 C 
BRANCH  22  23
ATOM     23  C   UNL     1      20.300  76.260  19.150  1.00  0.00    -0.000 C 
BRANCH  23  24
ATOM     24  C   UNL     1      19.135  77.267  19.162  1.00  0.00    -0.000 C 
BRANCH  24  25
ATOM     25  C   UNL     1      19.475  78.659  18.597  1.00  0.00    -0.003 C 
ATOM     26  C   UNL     1      19.903  78.624  17.128  1.00  0.00     0.004 C 
ENDBRANCH  24  25
ENDBRANCH  23  24
ENDBRANCH  22  23
ENDBRANCH  21  22
ENDBRANCH  20  21
ENDBRANCH  19  20
ENDBRANCH  18  19
ENDBRANCH  17  18
ENDBRANCH  16  17
ENDBRANCH  15  16
ENDBRANCH   1  15
TORSDOF 22
ENDMDL
MODEL 9
REMARK VINA RESULT:    -4.453      3.944      8.738
REMARK INTER + INTRA:         -13.832
REMARK INTER:                  -9.988
REMARK INTRA:                  -3.844
REMARK UNBOUND:                -3.651
REMARK SMILES CCCCCCCCCCCCCCCCCCCCCCCC(=O)[O-]
REMARK SMILES IDX 13 1 14 2 15 3 16 4 17 5 18 6 19 7 20 8 21 9 22 10 23 11
REMARK SMILES IDX 24 12 25 13 26 14 12 15 11 16 10 17 9 18 8 19 7 20 6 21 5 22
REMARK SMILES IDX 4 23 3 24 2 25 1 26
REMARK H PARENT
REMARK Flexibility Score: inf
ROOT
ATOM      1  C   UNL     1      16.866  72.395  20.200  1.00  0.00     0.000 C 
ENDROOT
BRANCH   1   2
ATOM      2  C   UNL     1      15.460  71.825  19.943  1.00  0.00     0.000 C 
BRANCH   2   3
ATOM      3  C   UNL     1      14.885  72.255  18.584  1.00  0.00     0.000 C 
BRANCH   3   4
ATOM      4  C   UNL     1      15.298  73.684  18.186  1.00  0.00     0.000 C 
BRANCH   4   5
ATOM      5  C   UNL     1      16.092  73.731  16.862  1.00  0.00     0.000 C 
BRANCH   5   6
ATOM      6  C   UNL     1      16.872  75.042  16.645  1.00  0.00     0.000 C 
BRANCH   6   7
ATOM      7  C   UNL     1      18.407  74.910  16.683  1.00  0.00     0.000 C 
BRANCH   7   8
ATOM      8  C   UNL     1      18.939  73.736  17.527  1.00  0.00     0.000 C 
BRANCH   8   9
ATOM      9  C   UNL     1      19.929  74.180  18.618  1.00  0.00     0.000 C 
BRANCH   9  10
ATOM     10  C   UNL     1      19.538  75.522  19.268  1.00  0.00     0.006 C 
BRANCH  10  11
ATOM     11  C   UNL     1      20.692  76.535  19.345  1.00  0.00     0.053 C 
BRANCH  11  12
ATOM     12  C   UNL     1      20.716  77.470  18.175  1.00  0.00     0.041 C 
ATOM     13  O   UNL     1      20.296  78.652  18.302  1.00  0.00    -0.550 OA
ATOM     14  O   UNL     1      21.217  77.044  16.952  1.00  0.00    -0.550 OA
ENDBRANCH  11  12
ENDBRANCH  10  11
ENDBRANCH   9  10
ENDBRANCH   8   9
ENDBRANCH   7   8
ENDBRANCH   6   7
ENDBRANCH   5   6
ENDBRANCH   4   5
ENDBRANCH   3   4
ENDBRANCH   2   3
ENDBRANCH   1   2
BRANCH   1  15
ATOM     15  C   UNL     1      17.959  71.312  20.179  1.00  0.00     0.000 C 
BRANCH  15  16
ATOM     16  C   UNL     1      17.467  69.886  19.854  1.00  0.00     0.000 C 
BRANCH  16  17
ATOM     17  C   UNL     1      17.937  69.318  18.503  1.00  0.00     0.000 C 
BRANCH  17  18
ATOM     18  C   UNL     1      17.907  70.364  17.376  1.00  0.00    -0.000 C 
BRANCH  18  19
ATOM     19  C   UNL     1      16.884  70.036  16.274  1.00  0.00    -0.000 C 
BRANCH  19  20
ATOM     20  C   UNL     1      15.913  68.879  16.596  1.00  0.00    -0.000 C 
BRANCH  20  21
ATOM     21  C   UNL     1      14.417  69.222  16.473  1.00  0.00    -0.000 C 
BRANCH  21  22
ATOM     22  C   UNL     1      13.620  68.886  17.742  1.00  0.00    -0.000 C 
BRANCH  22  23
ATOM     23  C   UNL     1      14.313  67.776  18.544  1.00  0.00    -0.000 C 
BRANCH  23  24
ATOM     24  C   UNL     1      13.353  66.646  18.963  1.00  0.00    -0.000 C 
BRANCH  24  25
ATOM     25  C   UNL     1      12.554  66.013  17.809  1.00  0.00    -0.003 C 
ATOM     26  C   UNL     1      13.159  64.700  17.308  1.00  0.00     0.004 C 
ENDBRANCH  24  25
ENDBRANCH  23  24
ENDBRANCH  22  23
ENDBRANCH  21  22
ENDBRANCH  20  21
ENDBRANCH  19  20
ENDBRANCH  18  19
ENDBRANCH  17  18
ENDBRANCH  16  17
ENDBRANCH  15  16
ENDBRANCH   1  15
TORSDOF 22
ENDMDL
