MODEL 1
REMARK VINA RESULT:    -4.357      0.000      0.000
REMARK INTER + INTRA:          -8.881
REMARK INTER:                  -7.668
REMARK INTRA:                  -1.213
REMARK UNBOUND:                -1.213
REMARK SMILES CCCCCCC=CCCCCCCCC(=O)[O-]
REMARK SMILES IDX 10 1 11 2 12 3 13 4 14 5 15 6 16 7 17 8 18 9 9 10 8 11 7 12
REMARK SMILES IDX 6 13 5 14 4 15 3 16 2 17 1 18
REMARK H PARENT
REMARK Flexibility Score: inf
ROOT
ATOM      1  C   UNL     1      46.279  26.618   4.356  1.00  0.00     0.004 C 
ENDROOT
BRANCH   1   2
ATOM      2  C   UNL     1      44.847  26.157   4.038  1.00  0.00     0.000 C 
BRANCH   2   3
ATOM      3  C   UNL     1      44.217  26.922   2.860  1.00  0.00     0.000 C 
BRANCH   3   4
ATOM      4  C   UNL     1      44.374  28.453   2.920  1.00  0.00     0.000 C 
BRANCH   4   5
ATOM      5  C   UNL     1      45.260  29.009   1.796  1.00  0.00     0.006 C 
BRANCH   5   6
ATOM      6  C   UNL     1      45.800  27.880   0.913  1.00  0.00     0.053 C 
BRANCH   6   7
ATOM      7  C   UNL     1      45.438  28.116  -0.519  1.00  0.00     0.041 C 
ATOM      8  O   UNL     1      45.273  27.141  -1.299  1.00  0.00    -0.550 OA
ATOM      9  O   UNL     1      45.333  29.412  -1.005  1.00  0.00    -0.550 OA
ENDBRANCH   6   7
ENDBRANCH   5   6
ENDBRANCH   4   5
ENDBRANCH   3   4
ENDBRANCH   2   3
ENDBRANCH   1   2
BRANCH   1  10
ATOM     10  C   UNL     1      46.473  26.910   5.851  1.00  0.00     0.027 C 
BRANCH  10  11
ATOM     11  C   UNL     1      45.977  28.277   6.239  1.00  0.00    -0.031 C 
ATOM     12  C   UNL     1      45.659  28.577   7.506  1.00  0.00    -0.031 C 
BRANCH  12  13
ATOM     13  C   UNL     1      45.166  29.952   7.868  1.00  0.00     0.027 C 
BRANCH  13  14
ATOM     14  C   UNL     1      44.711  30.008   9.333  1.00  0.00     0.004 C 
BRANCH  14  15
ATOM     15  C   UNL     1      44.856  28.656  10.051  1.00  0.00     0.000 C 
BRANCH  15  16
ATOM     16  C   UNL     1      45.963  28.671  11.120  1.00  0.00    -0.000 C 
BRANCH  16  17
ATOM     17  C   UNL     1      46.842  27.412  11.073  1.00  0.00    -0.003 C 
ATOM     18  C   UNL     1      46.294  26.340  10.131  1.00  0.00     0.004 C 
ENDBRANCH  16  17
ENDBRANCH  15  16
ENDBRANCH  14  15
ENDBRANCH  13  14
ENDBRANCH  12  13
ENDBRANCH  10  11
ENDBRANCH   1  10
TORSDOF 13
ENDMDL
MODEL 2
REMARK VINA RESULT:    -4.337      0.985      2.288
REMARK INTER + INTRA:          -8.846
REMARK INTER:                  -7.495
REMARK INTRA:                  -1.351
REMARK UNBOUND:                -1.213
REMARK SMILES CCCCCCC=CCCCCCCCC(=O)[O-]
REMARK SMILES IDX 10 1 11 2 12 3 13 4 14 5 15 6 16 7 17 8 18 9 9 10 8 11 7 12
REMARK SMILES IDX 6 13 5 14 4 15 3 16 2 17 1 18
REMARK H PARENT
REMARK Flexibility Score: inf
ROOT
ATOM      1  C   UNL     1      44.557  26.356   3.767  1.00  0.00     0.004 C 
ENDROOT
BRANCH   1   2
ATOM      2  C   UNL     1      44.243  27.303   2.597  1.00  0.00     0.000 C 
BRANCH   2   3
ATOM      3  C   UNL     1      44.413  28.788   2.964  1.00  0.00     0.000 C 
BRANCH   3   4
ATOM      4  C   UNL     1      45.694  29.449   2.424  1.00  0.00     0.000 C 
BRANCH   4   5
ATOM      5  C   UNL     1      46.333  28.666   1.268  1.00  0.00     0.006 C 
BRANCH   5   6
ATOM      6  C   UNL     1      45.991  29.304  -0.082  1.00  0.00     0.053 C 
BRANCH   6   7
ATOM      7  C   UNL     1      45.481  28.270  -1.035  1.00  0.00     0.041 C 
ATOM      8  O   UNL     1      45.255  27.097  -0.636  1.00  0.00    -0.550 OA
ATOM      9  O   UNL     1      45.302  28.588  -2.375  1.00  0.00    -0.550 OA
ENDBRANCH   6   7
ENDBRANCH   5   6
ENDBRANCH   4   5
ENDBRANCH   3   4
ENDBRANCH   2   3
ENDBRANCH   1   2
BRANCH   1  10
ATOM     10  C   UNL     1      46.053  26.017   3.851  1.00  0.00     0.027 C 
BRANCH  10  11
ATOM     11  C   UNL     1      46.641  26.344   5.197  1.00  0.00    -0.031 C 
ATOM     12  C   UNL     1      46.063  27.227   6.022  1.00  0.00    -0.031 C 
BRANCH  12  13
ATOM     13  C   UNL     1      46.670  27.536   7.364  1.00  0.00     0.027 C 
BRANCH  13  14
ATOM     14  C   UNL     1      46.467  26.372   8.343  1.00  0.00     0.004 C 
BRANCH  14  15
ATOM     15  C   UNL     1      45.461  26.702   9.458  1.00  0.00     0.000 C 
BRANCH  15  16
ATOM     16  C   UNL     1      45.754  28.050  10.139  1.00  0.00    -0.000 C 
BRANCH  16  17
ATOM     17  C   UNL     1      44.577  29.032  10.031  1.00  0.00    -0.003 C 
ATOM     18  C   UNL     1      44.809  30.125   8.988  1.00  0.00     0.004 C 
ENDBRANCH  16  17
ENDBRANCH  15  16
ENDBRANCH  14  15
ENDBRANCH  13  14
ENDBRANCH  12  13
ENDBRANCH  10  11
ENDBRANCH   1  10
TORSDOF 13
ENDMDL
MODEL 3
REMARK VINA RESULT:    -4.280      1.891      3.515
REMARK INTER + INTRA:          -8.745
REMARK INTER:                  -8.055
REMARK INTRA:                  -0.690
REMARK UNBOUND:                -1.213
REMARK SMILES CCCCCCC=CCCCCCCCC(=O)[O-]
REMARK SMILES IDX 10 1 11 2 12 3 13 4 14 5 15 6 16 7 17 8 18 9 9 10 8 11 7 12
REMARK SMILES IDX 6 13 5 14 4 15 3 16 2 17 1 18
REMARK H PARENT
REMARK Flexibility Score: inf
ROOT
ATOM      1  C   UNL     1      44.354  28.461   2.735  1.00  0.00     0.004 C 
ENDROOT
BRANCH   1   2
ATOM      2  C   UNL     1      45.368  28.881   1.658  1.00  0.00     0.000 C 
BRANCH   2   3
ATOM      3  C   UNL     1      45.401  27.919   0.457  1.00  0.00     0.000 C 
BRANCH   3   4
ATOM      4  C   UNL     1      45.638  28.589  -0.909  1.00  0.00     0.000 C 
BRANCH   4   5
ATOM      5  C   UNL     1      45.428  27.632  -2.091  1.00  0.00     0.006 C 
BRANCH   5   6
ATOM      6  C   UNL     1      44.789  28.359  -3.278  1.00  0.00     0.053 C 
BRANCH   6   7
ATOM      7  C   UNL     1      43.756  27.494  -3.928  1.00  0.00     0.041 C 
ATOM      8  O   UNL     1      43.431  26.396  -3.405  1.00  0.00    -0.550 OA
ATOM      9  O   UNL     1      43.189  27.876  -5.136  1.00  0.00    -0.550 OA
ENDBRANCH   6   7
ENDBRANCH   5   6
ENDBRANCH   4   5
ENDBRANCH   3   4
ENDBRANCH   2   3
ENDBRANCH   1   2
BRANCH   1  10
ATOM     10  C   UNL     1      44.277  26.935   2.892  1.00  0.00     0.027 C 
BRANCH  10  11
ATOM     11  C   UNL     1      45.114  26.432   4.038  1.00  0.00    -0.031 C 
ATOM     12  C   UNL     1      45.594  27.262   4.975  1.00  0.00    -0.031 C 
BRANCH  12  13
ATOM     13  C   UNL     1      46.427  26.734   6.112  1.00  0.00     0.027 C 
BRANCH  13  14
ATOM     14  C   UNL     1      46.126  27.489   7.414  1.00  0.00     0.004 C 
BRANCH  14  15
ATOM     15  C   UNL     1      45.582  26.570   8.521  1.00  0.00     0.000 C 
BRANCH  15  16
ATOM     16  C   UNL     1      45.066  27.354   9.740  1.00  0.00    -0.000 C 
BRANCH  16  17
ATOM     17  C   UNL     1      45.218  28.874   9.569  1.00  0.00    -0.003 C 
ATOM     18  C   UNL     1      44.257  29.670  10.451  1.00  0.00     0.004 C 
ENDBRANCH  16  17
ENDBRANCH  15  16
ENDBRANCH  14  15
ENDBRANCH  13  14
ENDBRANCH  12  13
ENDBRANCH  10  11
ENDBRANCH   1  10
TORSDOF 13
ENDMDL
MODEL 4
REMARK VINA RESULT:    -4.279      4.052      9.233
REMARK INTER + INTRA:          -8.743
REMARK INTER:                  -7.680
REMARK INTRA:                  -1.063
REMARK UNBOUND:                -1.213
REMARK SMILES CCCCCCC=CCCCCCCCC(=O)[O-]
REMARK SMILES IDX 10 1 11 2 12 3 13 4 14 5 15 6 16 7 17 8 18 9 9 10 8 11 7 12
REMARK SMILES IDX 6 13 5 14 4 15 3 16 2 17 1 18
REMARK H PARENT
REMARK Flexibility Score: inf
ROOT
ATOM      1  C   UNL     1      44.302  26.938   3.005  1.00  0.00     0.004 C 
ENDROOT
BRANCH   1   2
ATOM      2  C   UNL     1      44.933  26.106   4.134  1.00  0.00     0.000 C 
BRANCH   2   3
ATOM      3  C   UNL     1      46.432  26.396   4.327  1.00  0.00     0.000 C 
BRANCH   3   4
ATOM      4  C   UNL     1      46.843  26.775   5.762  1.00  0.00     0.000 C 
BRANCH   4   5
ATOM      5  C   UNL     1      45.659  26.796   6.739  1.00  0.00     0.006 C 
BRANCH   5   6
ATOM      6  C   UNL     1      45.797  27.945   7.743  1.00  0.00     0.053 C 
BRANCH   6   7
ATOM      7  C   UNL     1      45.214  27.558   9.066  1.00  0.00     0.041 C 
ATOM      8  O   UNL     1      45.130  26.344   9.389  1.00  0.00    -0.550 OA
ATOM      9  O   UNL     1      44.718  28.534   9.919  1.00  0.00    -0.550 OA
ENDBRANCH   6   7
ENDBRANCH   5   6
ENDBRANCH   4   5
ENDBRANCH   3   4
ENDBRANCH   2   3
ENDBRANCH   1   2
BRANCH   1  10
ATOM     10  C   UNL     1      44.847  28.374   2.972  1.00  0.00     0.027 C 
BRANCH  10  11
ATOM     11  C   UNL     1      45.347  28.767   1.607  1.00  0.00    -0.031 C 
ATOM     12  C   UNL     1      45.480  27.869   0.621  1.00  0.00    -0.031 C 
BRANCH  12  13
ATOM     13  C   UNL     1      45.981  28.287  -0.735  1.00  0.00     0.027 C 
BRANCH  13  14
ATOM     14  C   UNL     1      45.053  29.331  -1.369  1.00  0.00     0.004 C 
BRANCH  14  15
ATOM     15  C   UNL     1      44.622  28.955  -2.796  1.00  0.00     0.000 C 
BRANCH  15  16
ATOM     16  C   UNL     1      44.692  27.439  -3.054  1.00  0.00    -0.000 C 
BRANCH  16  17
ATOM     17  C   UNL     1      43.418  26.898  -3.721  1.00  0.00    -0.003 C 
ATOM     18  C   UNL     1      42.522  28.004  -4.278  1.00  0.00     0.004 C 
ENDBRANCH  16  17
ENDBRANCH  15  16
ENDBRANCH  14  15
ENDBRANCH  13  14
ENDBRANCH  12  13
ENDBRANCH  10  11
ENDBRANCH   1  10
TORSDOF 13
ENDMDL
MODEL 5
REMARK VINA RESULT:    -4.079      3.859      7.584
REMARK INTER + INTRA:          -8.392
REMARK INTER:                  -7.115
REMARK INTRA:                  -1.277
REMARK UNBOUND:                -1.213
REMARK SMILES CCCCCCC=CCCCCCCCC(=O)[O-]
REMARK SMILES IDX 10 1 11 2 12 3 13 4 14 5 15 6 16 7 17 8 18 9 9 10 8 11 7 12
REMARK SMILES IDX 6 13 5 14 4 15 3 16 2 17 1 18
REMARK H PARENT
REMARK Flexibility Score: inf
ROOT
ATOM      1  C   UNL     1      44.914  27.513  -3.008  1.00  0.00     0.004 C 
ENDROOT
BRANCH   1   2
ATOM      2  C   UNL     1      45.877  27.143  -4.148  1.00  0.00     0.000 C 
BRANCH   2   3
ATOM      3  C   UNL     1      46.068  28.282  -5.166  1.00  0.00     0.000 C 
BRANCH   3   4
ATOM      4  C   UNL     1      45.542  27.984  -6.583  1.00  0.00     0.000 C 
BRANCH   4   5
ATOM      5  C   UNL     1      44.009  27.956  -6.660  1.00  0.00     0.006 C 
BRANCH   5   6
ATOM      6  C   UNL     1      43.404  29.201  -6.004  1.00  0.00     0.053 C 
BRANCH   6   7
ATOM      7  C   UNL     1      42.012  28.921  -5.532  1.00  0.00     0.041 C 
ATOM      8  O   UNL     1      41.025  29.358  -6.178  1.00  0.00    -0.550 OA
ATOM      9  O   UNL     1      41.807  28.219  -4.351  1.00  0.00    -0.550 OA
ENDBRANCH   6   7
ENDBRANCH   5   6
ENDBRANCH   4   5
ENDBRANCH   3   4
ENDBRANCH   2   3
ENDBRANCH   1   2
BRANCH   1  10
ATOM     10  C   UNL     1      45.051  28.985  -2.591  1.00  0.00     0.027 C 
BRANCH  10  11
ATOM     11  C   UNL     1      45.513  29.138  -1.167  1.00  0.00    -0.031 C 
ATOM     12  C   UNL     1      45.576  28.092  -0.331  1.00  0.00    -0.031 C 
BRANCH  12  13
ATOM     13  C   UNL     1      46.043  28.271   1.088  1.00  0.00     0.027 C 
BRANCH  13  14
ATOM     14  C   UNL     1      45.086  29.178   1.874  1.00  0.00     0.004 C 
BRANCH  14  15
ATOM     15  C   UNL     1      44.551  28.512   3.152  1.00  0.00     0.000 C 
BRANCH  15  16
ATOM     16  C   UNL     1      44.127  27.051   2.924  1.00  0.00    -0.000 C 
BRANCH  16  17
ATOM     17  C   UNL     1      44.883  26.070   3.833  1.00  0.00    -0.003 C 
ATOM     18  C   UNL     1      45.857  26.770   4.781  1.00  0.00     0.004 C 
ENDBRANCH  16  17
ENDBRANCH  15  16
ENDBRANCH  14  15
ENDBRANCH  13  14
ENDBRANCH  12  13
ENDBRANCH  10  11
ENDBRANCH   1  10
TORSDOF 13
ENDMDL
MODEL 6
REMARK VINA RESULT:    -3.881      4.558     10.739
REMARK INTER + INTRA:          -8.044
REMARK INTER:                  -6.611
REMARK INTRA:                  -1.433
REMARK UNBOUND:                -1.213
REMARK SMILES CCCCCCC=CCCCCCCCC(=O)[O-]
REMARK SMILES IDX 10 1 11 2 12 3 13 4 14 5 15 6 16 7 17 8 18 9 9 10 8 11 7 12
REMARK SMILES IDX 6 13 5 14 4 15 3 16 2 17 1 18
REMARK H PARENT
REMARK Flexibility Score: inf
ROOT
ATOM      1  C   UNL     1      45.264  27.824  -1.843  1.00  0.00     0.004 C 
ENDROOT
BRANCH   1   2
ATOM      2  C   UNL     1      45.426  28.774  -0.645  1.00  0.00     0.000 C 
BRANCH   2   3
ATOM      3  C   UNL     1      46.615  28.402   0.259  1.00  0.00     0.000 C 
BRANCH   3   4
ATOM      4  C   UNL     1      46.238  27.672   1.562  1.00  0.00     0.000 C 
BRANCH   4   5
ATOM      5  C   UNL     1      44.934  28.191   2.185  1.00  0.00     0.006 C 
BRANCH   5   6
ATOM      6  C   UNL     1      44.196  27.071   2.924  1.00  0.00     0.053 C 
BRANCH   6   7
ATOM      7  C   UNL     1      45.095  26.427   3.932  1.00  0.00     0.041 C 
ATOM      8  O   UNL     1      45.334  25.193   3.870  1.00  0.00    -0.550 OA
ATOM      9  O   UNL     1      45.628  27.181   4.970  1.00  0.00    -0.550 OA
ENDBRANCH   6   7
ENDBRANCH   5   6
ENDBRANCH   4   5
ENDBRANCH   3   4
ENDBRANCH   2   3
ENDBRANCH   1   2
BRANCH   1  10
ATOM     10  C   UNL     1      46.560  27.692  -2.656  1.00  0.00     0.027 C 
BRANCH  10  11
ATOM     11  C   UNL     1      46.376  28.084  -4.098  1.00  0.00    -0.031 C 
ATOM     12  C   UNL     1      45.875  27.230  -5.001  1.00  0.00    -0.031 C 
BRANCH  12  13
ATOM     13  C   UNL     1      45.699  27.646  -6.437  1.00  0.00     0.027 C 
BRANCH  13  14
ATOM     14  C   UNL     1      44.942  28.977  -6.537  1.00  0.00     0.004 C 
BRANCH  14  15
ATOM     15  C   UNL     1      43.465  28.792  -6.924  1.00  0.00     0.000 C 
BRANCH  15  16
ATOM     16  C   UNL     1      42.511  29.578  -6.008  1.00  0.00    -0.000 C 
BRANCH  16  17
ATOM     17  C   UNL     1      42.738  29.270  -4.520  1.00  0.00    -0.003 C 
ATOM     18  C   UNL     1      42.335  27.845  -4.140  1.00  0.00     0.004 C 
ENDBRANCH  16  17
ENDBRANCH  15  16
ENDBRANCH  14  15
ENDBRANCH  13  14
ENDBRANCH  12  13
ENDBRANCH  10  11
ENDBRANCH   1  10
TORSDOF 13
ENDMDL
MODEL 7
REMARK VINA RESULT:    -3.874      3.309      6.542
REMARK INTER + INTRA:          -8.030
REMARK INTER:                  -7.014
REMARK INTRA:                  -1.016
REMARK UNBOUND:                -1.213
REMARK SMILES CCCCCCC=CCCCCCCCC(=O)[O-]
REMARK SMILES IDX 10 1 11 2 12 3 13 4 14 5 15 6 16 7 17 8 18 9 9 10 8 11 7 12
REMARK SMILES IDX 6 13 5 14 4 15 3 16 2 17 1 18
REMARK H PARENT
REMARK Flexibility Score: inf
ROOT
ATOM      1  C   UNL     1      45.334  27.599  -2.024  1.00  0.00     0.004 C 
ENDROOT
BRANCH   1   2
ATOM      2  C   UNL     1      46.462  27.472  -3.062  1.00  0.00     0.000 C 
BRANCH   2   3
ATOM      3  C   UNL     1      46.202  28.296  -4.335  1.00  0.00     0.000 C 
BRANCH   3   4
ATOM      4  C   UNL     1      45.593  27.506  -5.509  1.00  0.00     0.000 C 
BRANCH   4   5
ATOM      5  C   UNL     1      44.441  28.251  -6.199  1.00  0.00     0.006 C 
BRANCH   5   6
ATOM      6  C   UNL     1      43.936  29.406  -5.330  1.00  0.00     0.053 C 
BRANCH   6   7
ATOM      7  C   UNL     1      42.566  29.109  -4.807  1.00  0.00     0.041 C 
ATOM      8  O   UNL     1      42.384  28.934  -3.574  1.00  0.00    -0.550 OA
ATOM      9  O   UNL     1      41.500  28.976  -5.687  1.00  0.00    -0.550 OA
ENDBRANCH   6   7
ENDBRANCH   5   6
ENDBRANCH   4   5
ENDBRANCH   3   4
ENDBRANCH   2   3
ENDBRANCH   1   2
BRANCH   1  10
ATOM     10  C   UNL     1      45.329  28.976  -1.342  1.00  0.00     0.027 C 
BRANCH  10  11
ATOM     11  C   UNL     1      45.606  28.886   0.135  1.00  0.00    -0.031 C 
ATOM     12  C   UNL     1      45.234  27.820   0.857  1.00  0.00    -0.031 C 
BRANCH  12  13
ATOM     13  C   UNL     1      45.523  27.753   2.332  1.00  0.00     0.027 C 
BRANCH  13  14
ATOM     14  C   UNL     1      44.453  26.936   3.069  1.00  0.00     0.004 C 
BRANCH  14  15
ATOM     15  C   UNL     1      45.052  25.954   4.088  1.00  0.00     0.000 C 
BRANCH  15  16
ATOM     16  C   UNL     1      46.248  26.551   4.852  1.00  0.00    -0.000 C 
BRANCH  16  17
ATOM     17  C   UNL     1      45.921  26.836   6.326  1.00  0.00    -0.003 C 
ATOM     18  C   UNL     1      45.986  28.323   6.672  1.00  0.00     0.004 C 
ENDBRANCH  16  17
ENDBRANCH  15  16
ENDBRANCH  14  15
ENDBRANCH  13  14
ENDBRANCH  12  13
ENDBRANCH  10  11
ENDBRANCH   1  10
TORSDOF 13
ENDMDL
MODEL 8
REMARK VINA RESULT:    -3.776      2.195      4.061
REMARK INTER + INTRA:          -7.858
REMARK INTER:                  -7.328
REMARK INTRA:                  -0.530
REMARK UNBOUND:                -1.213
REMARK SMILES CCCCCCC=CCCCCCCCC(=O)[O-]
REMARK SMILES IDX 10 1 11 2 12 3 13 4 14 5 15 6 16 7 17 8 18 9 9 10 8 11 7 12
REMARK SMILES IDX 6 13 5 14 4 15 3 16 2 17 1 18
REMARK H PARENT
REMARK Flexibility Score: inf
ROOT
ATOM      1  C   UNL     1      45.728  27.834   1.023  1.00  0.00     0.004 C 
ENDROOT
BRANCH   1   2
ATOM      2  C   UNL     1      45.662  29.285   0.517  1.00  0.00     0.000 C 
BRANCH   2   3
ATOM      3  C   UNL     1      45.343  29.382  -0.986  1.00  0.00     0.000 C 
BRANCH   3   4
ATOM      4  C   UNL     1      45.295  28.035  -1.730  1.00  0.00     0.000 C 
BRANCH   4   5
ATOM      5  C   UNL     1      45.290  28.194  -3.258  1.00  0.00     0.006 C 
BRANCH   5   6
ATOM      6  C   UNL     1      43.986  28.839  -3.737  1.00  0.00     0.053 C 
BRANCH   6   7
ATOM      7  C   UNL     1      42.914  27.806  -3.886  1.00  0.00     0.041 C 
ATOM      8  O   UNL     1      41.727  28.155  -4.121  1.00  0.00    -0.550 OA
ATOM      9  O   UNL     1      43.215  26.462  -3.715  1.00  0.00    -0.550 OA
ENDBRANCH   6   7
ENDBRANCH   5   6
ENDBRANCH   4   5
ENDBRANCH   3   4
ENDBRANCH   2   3
ENDBRANCH   1   2
BRANCH   1  10
ATOM     10  C   UNL     1      44.665  27.546   2.093  1.00  0.00     0.027 C 
BRANCH  10  11
ATOM     11  C   UNL     1      45.038  28.108   3.439  1.00  0.00    -0.031 C 
ATOM     12  C   UNL     1      45.605  27.348   4.387  1.00  0.00    -0.031 C 
BRANCH  12  13
ATOM     13  C   UNL     1      45.970  27.934   5.724  1.00  0.00     0.027 C 
BRANCH  13  14
ATOM     14  C   UNL     1      46.288  26.831   6.742  1.00  0.00     0.004 C 
BRANCH  14  15
ATOM     15  C   UNL     1      46.510  27.378   8.161  1.00  0.00     0.000 C 
BRANCH  15  16
ATOM     16  C   UNL     1      45.192  27.736   8.870  1.00  0.00    -0.000 C 
BRANCH  16  17
ATOM     17  C   UNL     1      45.105  29.226   9.234  1.00  0.00    -0.003 C 
ATOM     18  C   UNL     1      44.312  29.479  10.516  1.00  0.00     0.004 C 
ENDBRANCH  16  17
ENDBRANCH  15  16
ENDBRANCH  14  15
ENDBRANCH  13  14
ENDBRANCH  12  13
ENDBRANCH  10  11
ENDBRANCH   1  10
TORSDOF 13
ENDMDL
MODEL 9
REMARK VINA RESULT:    -3.648      1.793      3.048
REMARK INTER + INTRA:          -7.634
REMARK INTER:                  -6.813
REMARK INTRA:                  -0.820
REMARK UNBOUND:                -1.213
REMARK SMILES CCCCCCC=CCCCCCCCC(=O)[O-]
REMARK SMILES IDX 10 1 11 2 12 3 13 4 14 5 15 6 16 7 17 8 18 9 9 10 8 11 7 12
REMARK SMILES IDX 6 13 5 14 4 15 3 16 2 17 1 18
REMARK H PARENT
REMARK Flexibility Score: inf
ROOT
ATOM      1  C   UNL     1      44.515  28.002   2.649  1.00  0.00     0.004 C 
ENDROOT
BRANCH   1   2
ATOM      2  C   UNL     1      45.150  27.494   1.344  1.00  0.00     0.000 C 
BRANCH   2   3
ATOM      3  C   UNL     1      46.282  28.404   0.834  1.00  0.00     0.000 C 
BRANCH   3   4
ATOM      4  C   UNL     1      46.400  28.498  -0.699  1.00  0.00     0.000 C 
BRANCH   4   5
ATOM      5  C   UNL     1      45.247  27.801  -1.434  1.00  0.00     0.006 C 
BRANCH   5   6
ATOM      6  C   UNL     1      44.990  28.454  -2.796  1.00  0.00     0.053 C 
BRANCH   6   7
ATOM      7  C   UNL     1      44.698  27.412  -3.829  1.00  0.00     0.041 C 
ATOM      8  O   UNL     1      43.652  26.715  -3.747  1.00  0.00    -0.550 OA
ATOM      9  O   UNL     1      45.604  27.177  -4.855  1.00  0.00    -0.550 OA
ENDBRANCH   6   7
ENDBRANCH   5   6
ENDBRANCH   4   5
ENDBRANCH   3   4
ENDBRANCH   2   3
ENDBRANCH   1   2
BRANCH   1  10
ATOM     10  C   UNL     1      44.638  29.526   2.796  1.00  0.00     0.027 C 
BRANCH  10  11
ATOM     11  C   UNL     1      45.050  29.938   4.185  1.00  0.00    -0.031 C 
ATOM     12  C   UNL     1      45.820  29.154   4.952  1.00  0.00    -0.031 C 
BRANCH  12  13
ATOM     13  C   UNL     1      46.219  29.589   6.337  1.00  0.00     0.027 C 
BRANCH  13  14
ATOM     14  C   UNL     1      45.533  28.727   7.405  1.00  0.00     0.004 C 
BRANCH  14  15
ATOM     15  C   UNL     1      45.168  29.526   8.668  1.00  0.00     0.000 C 
BRANCH  15  16
ATOM     16  C   UNL     1      44.740  28.621   9.836  1.00  0.00    -0.000 C 
BRANCH  16  17
ATOM     17  C   UNL     1      45.174  27.160   9.638  1.00  0.00    -0.003 C 
ATOM     18  C   UNL     1      46.419  26.795  10.446  1.00  0.00     0.004 C 
ENDBRANCH  16  17
ENDBRANCH  15  16
ENDBRANCH  14  15
ENDBRANCH  13  14
ENDBRANCH  12  13
ENDBRANCH  10  11
ENDBRANCH   1  10
TORSDOF 13
ENDMDL
