MODEL 1
REMARK VINA RESULT:    -4.108      0.000      0.000
REMARK INTER + INTRA:          -5.895
REMARK INTER:                  -5.549
REMARK INTRA:                  -0.346
REMARK UNBOUND:                -0.346
REMARK SMILES C=C1C(=O)O[C@@H]2[C@H]3O[C@@]3(C)CCC=C(C)CC[C@@H]12
REMARK SMILES IDX 6 1 18 2 2 3 1 4 3 5 4 6 5 7 17 8 16 9 14 10 15 11 13 12
REMARK SMILES IDX 7 14 9 15 8 16 10 17 11 18 12 19
REMARK H PARENT
REMARK Flexibility Score: 70.00
ROOT
ATOM      1  C   UNL     1      14.478  -6.617 -34.026  1.00  0.00     0.216 C 
ATOM      2  C   UNL     1      13.354  -6.225 -33.001  1.00  0.00     0.070 C 
ATOM      3  C   UNL     1      14.083  -6.153 -31.691  1.00  0.00     0.037 C 
ATOM      4  C   UNL     1      13.564  -5.758 -30.528  1.00  0.00     0.021 C 
ATOM      5  C   UNL     1      15.457  -6.501 -31.923  1.00  0.00     0.334 C 
ATOM      6  O   UNL     1      16.360  -6.554 -31.047  1.00  0.00    -0.247 OA
ATOM      7  O   UNL     1      15.671  -6.764 -33.256  1.00  0.00    -0.455 OA
ENDROOT
BRANCH   2   8
ATOM      8  C   UNL     1      12.182  -7.262 -32.942  1.00  0.00     0.017 C 
BRANCH   8   9
ATOM      9  C   UNL     1      10.995  -6.894 -33.864  1.00  0.00     0.031 C 
BRANCH   9  10
ATOM     10  C   UNL     1      10.762  -7.845 -35.037  1.00  0.00    -0.077 C 
ATOM     11  C   UNL     1      10.105  -9.176 -34.754  1.00  0.00     0.039 C 
ATOM     12  C   UNL     1      11.019  -7.554 -36.341  1.00  0.00    -0.028 CG0
ATOM     13  G   UNL     1      11.806  -6.381 -36.874  1.00  0.00     0.000 G0
ENDBRANCH   9  10
ENDBRANCH   8   9
ENDBRANCH   2   8
BRANCH   1  14
ATOM     14  C   UNL     1      14.736  -5.541 -35.109  1.00  0.00     0.192 C 
ATOM     15  C   UNL     1      14.275  -5.609 -36.538  1.00  0.00     0.096 C 
ATOM     16  O   UNL     1      15.539  -6.084 -36.145  1.00  0.00    -0.362 OA
ATOM     17  C   UNL     1      14.377  -4.308 -37.338  1.00  0.00     0.045 C 
BRANCH  15  18
ATOM     18  C   UNL     1      13.298  -6.687 -37.069  1.00  0.00     0.042 C 
BRANCH  18  19
ATOM     19  C   UNL     1      11.802  -6.387 -36.884  1.00  0.00     0.030 CG0
ATOM     20  G   UNL     1      11.009  -7.558 -36.355  1.00  0.00     0.000 G0
ENDBRANCH  18  19
ENDBRANCH  15  18
ENDBRANCH   1  14
TORSDOF 0
ENDMDL
MODEL 2
REMARK VINA RESULT:    -3.939      3.476      5.620
REMARK INTER + INTRA:          -5.666
REMARK INTER:                  -5.342
REMARK INTRA:                  -0.324
REMARK UNBOUND:                -0.346
REMARK SMILES C=C1C(=O)O[C@@H]2[C@H]3O[C@@]3(C)CCC=C(C)CC[C@@H]12
REMARK SMILES IDX 6 1 18 2 2 3 1 4 3 5 4 6 5 7 17 8 16 9 14 10 15 11 13 12
REMARK SMILES IDX 7 14 9 15 8 16 10 17 11 18 12 19
REMARK H PARENT
REMARK Flexibility Score: 70.00
ROOT
ATOM      1  C   UNL     1      14.167  -6.459 -33.303  1.00  0.00     0.216 C 
ATOM      2  C   UNL     1      14.380  -7.310 -31.999  1.00  0.00     0.070 C 
ATOM      3  C   UNL     1      13.171  -8.198 -31.958  1.00  0.00     0.037 C 
ATOM      4  C   UNL     1      12.947  -9.175 -31.078  1.00  0.00     0.021 C 
ATOM      5  C   UNL     1      12.337  -7.873 -33.082  1.00  0.00     0.334 C 
ATOM      6  O   UNL     1      11.235  -8.414 -33.361  1.00  0.00    -0.247 OA
ATOM      7  O   UNL     1      12.914  -6.881 -33.841  1.00  0.00    -0.455 OA
ENDROOT
BRANCH   2   8
ATOM      8  C   UNL     1      14.488  -6.439 -30.702  1.00  0.00     0.017 C 
BRANCH   8   9
ATOM      9  C   UNL     1      15.880  -6.513 -30.033  1.00  0.00     0.031 C 
BRANCH   9  10
ATOM     10  C   UNL     1      16.671  -5.206 -30.026  1.00  0.00    -0.077 C 
ATOM     11  C   UNL     1      16.492  -4.272 -28.851  1.00  0.00     0.039 C 
ATOM     12  C   UNL     1      17.598  -4.849 -30.956  1.00  0.00    -0.028 CG0
ATOM     13  G   UNL     1      17.853  -5.511 -32.288  1.00  0.00     0.000 G0
ENDBRANCH   9  10
ENDBRANCH   8   9
ENDBRANCH   2   8
BRANCH   1  14
ATOM     14  C   UNL     1      15.253  -6.690 -34.381  1.00  0.00     0.192 C 
ATOM     15  C   UNL     1      16.536  -5.918 -34.510  1.00  0.00     0.096 C 
ATOM     16  O   UNL     1      15.371  -5.536 -35.199  1.00  0.00    -0.362 OA
ATOM     17  C   UNL     1      17.586  -6.515 -35.450  1.00  0.00     0.045 C 
BRANCH  15  18
ATOM     18  C   UNL     1      17.036  -4.910 -33.445  1.00  0.00     0.042 C 
BRANCH  18  19
ATOM     19  C   UNL     1      17.852  -5.505 -32.288  1.00  0.00     0.030 CG0
ATOM     20  G   UNL     1      17.591  -4.842 -30.957  1.00  0.00     0.000 G0
ENDBRANCH  18  19
ENDBRANCH  15  18
ENDBRANCH   1  14
TORSDOF 0
ENDMDL
MODEL 3
REMARK VINA RESULT:    -3.900      2.155      2.819
REMARK INTER + INTRA:          -5.613
REMARK INTER:                  -5.408
REMARK INTRA:                  -0.205
REMARK UNBOUND:                -0.346
REMARK SMILES C=C1C(=O)O[C@@H]2[C@H]3O[C@@]3(C)CCC=C(C)CC[C@@H]12
REMARK SMILES IDX 6 1 18 2 2 3 1 4 3 5 4 6 5 7 17 8 16 9 14 10 15 11 13 12
REMARK SMILES IDX 7 14 9 15 8 16 10 17 11 18 12 19
REMARK H PARENT
REMARK Flexibility Score: 70.00
ROOT
ATOM      1  C   UNL     1      15.844  -6.522 -32.328  1.00  0.00     0.216 C 
ATOM      2  C   UNL     1      14.787  -6.052 -31.264  1.00  0.00     0.070 C 
ATOM      3  C   UNL     1      15.630  -5.600 -30.107  1.00  0.00     0.037 C 
ATOM      4  C   UNL     1      15.182  -5.022 -28.992  1.00  0.00     0.021 C 
ATOM      5  C   UNL     1      17.009  -5.817 -30.445  1.00  0.00     0.334 C 
ATOM      6  O   UNL     1      17.997  -5.560 -29.708  1.00  0.00    -0.247 OA
ATOM      7  O   UNL     1      17.119  -6.342 -31.712  1.00  0.00    -0.455 OA
ENDROOT
BRANCH   2   8
ATOM      8  C   UNL     1      13.798  -7.188 -30.833  1.00  0.00     0.017 C 
BRANCH   8   9
ATOM      9  C   UNL     1      14.148  -8.565 -31.445  1.00  0.00     0.031 C 
BRANCH   9  10
ATOM     10  C   UNL     1      13.050  -9.196 -32.300  1.00  0.00    -0.077 C 
ATOM     11  C   UNL     1      12.052 -10.105 -31.620  1.00  0.00     0.039 C 
ATOM     12  C   UNL     1      12.841  -8.937 -33.620  1.00  0.00    -0.028 CG0
ATOM     13  G   UNL     1      13.767  -8.205 -34.561  1.00  0.00     0.000 G0
ENDBRANCH   9  10
ENDBRANCH   8   9
ENDBRANCH   2   8
BRANCH   1  14
ATOM     14  C   UNL     1      15.822  -5.691 -33.634  1.00  0.00     0.192 C 
ATOM     15  C   UNL     1      14.816  -5.829 -34.742  1.00  0.00     0.096 C 
ATOM     16  O   UNL     1      16.027  -6.544 -34.749  1.00  0.00    -0.362 OA
ATOM     17  C   UNL     1      14.808  -4.709 -35.784  1.00  0.00     0.045 C 
BRANCH  15  18
ATOM     18  C   UNL     1      13.537  -6.696 -34.630  1.00  0.00     0.042 C 
BRANCH  18  19
ATOM     19  C   UNL     1      13.759  -8.216 -34.573  1.00  0.00     0.030 CG0
ATOM     20  G   UNL     1      12.837  -8.928 -33.612  1.00  0.00     0.000 G0
ENDBRANCH  18  19
ENDBRANCH  15  18
ENDBRANCH   1  14
TORSDOF 0
ENDMDL
MODEL 4
REMARK VINA RESULT:    -3.845      1.693      3.704
REMARK INTER + INTRA:          -5.540
REMARK INTER:                  -5.215
REMARK INTRA:                  -0.325
REMARK UNBOUND:                -0.346
REMARK SMILES C=C1C(=O)O[C@@H]2[C@H]3O[C@@]3(C)CCC=C(C)CC[C@@H]12
REMARK SMILES IDX 6 1 18 2 2 3 1 4 3 5 4 6 5 7 17 8 16 9 14 10 15 11 13 12
REMARK SMILES IDX 7 14 9 15 8 16 10 17 11 18 12 19
REMARK H PARENT
REMARK Flexibility Score: 70.00
ROOT
ATOM      1  C   UNL     1      12.808  -6.516 -33.352  1.00  0.00     0.216 C 
ATOM      2  C   UNL     1      14.336  -6.880 -33.401  1.00  0.00     0.070 C 
ATOM      3  C   UNL     1      14.839  -6.462 -32.050  1.00  0.00     0.037 C 
ATOM      4  C   UNL     1      16.071  -6.661 -31.579  1.00  0.00     0.021 C 
ATOM      5  C   UNL     1      13.742  -5.890 -31.319  1.00  0.00     0.334 C 
ATOM      6  O   UNL     1      13.799  -5.425 -30.151  1.00  0.00    -0.247 OA
ATOM      7  O   UNL     1      12.591  -5.926 -32.071  1.00  0.00    -0.455 OA
ENDROOT
BRANCH   2   8
ATOM      8  C   UNL     1      15.110  -6.143 -34.546  1.00  0.00     0.017 C 
BRANCH   8   9
ATOM      9  C   UNL     1      14.769  -6.680 -35.956  1.00  0.00     0.031 C 
BRANCH   9  10
ATOM     10  C   UNL     1      13.857  -5.784 -36.793  1.00  0.00    -0.077 C 
ATOM     11  C   UNL     1      14.373  -4.421 -37.193  1.00  0.00     0.039 C 
ATOM     12  C   UNL     1      12.643  -6.148 -37.286  1.00  0.00    -0.028 CG0
ATOM     13  G   UNL     1      11.838  -7.370 -36.914  1.00  0.00     0.000 G0
ENDBRANCH   9  10
ENDBRANCH   8   9
ENDBRANCH   2   8
BRANCH   1  14
ATOM     14  C   UNL     1      11.873  -7.744 -33.479  1.00  0.00     0.192 C 
ATOM     15  C   UNL     1      10.868  -7.969 -34.573  1.00  0.00     0.096 C 
ATOM     16  O   UNL     1      10.520  -7.330 -33.370  1.00  0.00    -0.362 OA
ATOM     17  C   UNL     1      10.279  -9.379 -34.663  1.00  0.00     0.045 C 
BRANCH  15  18
ATOM     18  C   UNL     1      10.776  -7.086 -35.842  1.00  0.00     0.042 C 
BRANCH  18  19
ATOM     19  C   UNL     1      11.825  -7.363 -36.930  1.00  0.00     0.030 CG0
ATOM     20  G   UNL     1      12.650  -6.154 -37.301  1.00  0.00     0.000 G0
ENDBRANCH  18  19
ENDBRANCH  15  18
ENDBRANCH   1  14
TORSDOF 0
ENDMDL
MODEL 5
REMARK VINA RESULT:    -3.813      2.946      5.047
REMARK INTER + INTRA:          -5.497
REMARK INTER:                  -5.250
REMARK INTRA:                  -0.247
REMARK UNBOUND:                -0.346
REMARK SMILES C=C1C(=O)O[C@@H]2[C@H]3O[C@@]3(C)CCC=C(C)CC[C@@H]12
REMARK SMILES IDX 6 1 18 2 2 3 1 4 3 5 4 6 5 7 17 8 16 9 14 10 15 11 13 12
REMARK SMILES IDX 7 14 9 15 8 16 10 17 11 18 12 19
REMARK H PARENT
REMARK Flexibility Score: 70.00
ROOT
ATOM      1  C   UNL     1      12.032  -8.234 -33.216  1.00  0.00     0.216 C 
ATOM      2  C   UNL     1      11.207  -7.174 -34.032  1.00  0.00     0.070 C 
ATOM      3  C   UNL     1       9.790  -7.650 -33.893  1.00  0.00     0.037 C 
ATOM      4  C   UNL     1       8.705  -7.015 -34.339  1.00  0.00     0.021 C 
ATOM      5  C   UNL     1       9.797  -8.861 -33.121  1.00  0.00     0.334 C 
ATOM      6  O   UNL     1       8.784  -9.544 -32.813  1.00  0.00    -0.247 OA
ATOM      7  O   UNL     1      11.079  -9.185 -32.741  1.00  0.00    -0.455 OA
ENDROOT
BRANCH   2   8
ATOM      8  C   UNL     1      11.630  -7.088 -35.538  1.00  0.00     0.017 C 
BRANCH   8   9
ATOM      9  C   UNL     1      13.089  -6.615 -35.734  1.00  0.00     0.031 C 
BRANCH   9  10
ATOM     10  C   UNL     1      14.103  -7.724 -36.011  1.00  0.00    -0.077 C 
ATOM     11  C   UNL     1      13.905  -8.576 -37.243  1.00  0.00     0.039 C 
ATOM     12  C   UNL     1      15.228  -7.955 -35.282  1.00  0.00    -0.028 CG0
ATOM     13  G   UNL     1      15.578  -7.364 -33.937  1.00  0.00     0.000 G0
ENDBRANCH   9  10
ENDBRANCH   8   9
ENDBRANCH   2   8
BRANCH   1  14
ATOM     14  C   UNL     1      12.767  -7.639 -31.990  1.00  0.00     0.192 C 
ATOM     15  C   UNL     1      14.241  -7.743 -31.719  1.00  0.00     0.096 C 
ATOM     16  O   UNL     1      13.328  -8.685 -31.213  1.00  0.00    -0.362 OA
ATOM     17  C   UNL     1      14.786  -6.828 -30.620  1.00  0.00     0.045 C 
BRANCH  15  18
ATOM     18  C   UNL     1      15.261  -8.294 -32.747  1.00  0.00     0.042 C 
BRANCH  18  19
ATOM     19  C   UNL     1      15.589  -7.370 -33.929  1.00  0.00     0.030 CG0
ATOM     20  G   UNL     1      15.229  -7.955 -35.274  1.00  0.00     0.000 G0
ENDBRANCH  18  19
ENDBRANCH  15  18
ENDBRANCH   1  14
TORSDOF 0
ENDMDL
MODEL 6
REMARK VINA RESULT:    -3.626      3.660      5.328
REMARK INTER + INTRA:          -5.243
REMARK INTER:                  -5.215
REMARK INTRA:                  -0.028
REMARK UNBOUND:                -0.346
REMARK SMILES C=C1C(=O)O[C@@H]2[C@H]3O[C@@]3(C)CCC=C(C)CC[C@@H]12
REMARK SMILES IDX 6 1 18 2 2 3 1 4 3 5 4 6 5 7 17 8 16 9 14 10 15 11 13 12
REMARK SMILES IDX 7 14 9 15 8 16 10 17 11 18 12 19
REMARK H PARENT
REMARK Flexibility Score: 70.00
ROOT
ATOM      1  C   UNL     1      14.816  -5.935 -30.876  1.00  0.00     0.216 C 
ATOM      2  C   UNL     1      16.311  -6.339 -30.607  1.00  0.00     0.070 C 
ATOM      3  C   UNL     1      16.645  -5.620 -29.333  1.00  0.00     0.037 C 
ATOM      4  C   UNL     1      17.784  -5.731 -28.648  1.00  0.00     0.021 C 
ATOM      5  C   UNL     1      15.494  -4.860 -28.931  1.00  0.00     0.334 C 
ATOM      6  O   UNL     1      15.415  -4.128 -27.910  1.00  0.00    -0.247 OA
ATOM      7  O   UNL     1      14.458  -5.047 -29.817  1.00  0.00    -0.455 OA
ENDROOT
BRANCH   2   8
ATOM      8  C   UNL     1      17.281  -5.922 -31.764  1.00  0.00     0.017 C 
BRANCH   8   9
ATOM      9  C   UNL     1      16.574  -5.791 -33.134  1.00  0.00     0.031 C 
BRANCH   9  10
ATOM     10  C   UNL     1      17.018  -6.796 -34.196  1.00  0.00    -0.077 C 
ATOM     11  C   UNL     1      17.998  -6.332 -35.248  1.00  0.00     0.039 C 
ATOM     12  C   UNL     1      16.669  -8.111 -34.221  1.00  0.00    -0.028 CG0
ATOM     13  G   UNL     1      15.600  -8.785 -33.397  1.00  0.00     0.000 G0
ENDBRANCH   9  10
ENDBRANCH   8   9
ENDBRANCH   2   8
BRANCH   1  14
ATOM     14  C   UNL     1      13.834  -7.133 -30.848  1.00  0.00     0.192 C 
ATOM     15  C   UNL     1      13.513  -8.027 -32.012  1.00  0.00     0.096 C 
ATOM     16  O   UNL     1      12.747  -6.882 -31.725  1.00  0.00    -0.362 OA
ATOM     17  C   UNL     1      12.759  -9.316 -31.678  1.00  0.00     0.045 C 
BRANCH  15  18
ATOM     18  C   UNL     1      14.282  -7.989 -33.356  1.00  0.00     0.042 C 
BRANCH  18  19
ATOM     19  C   UNL     1      15.596  -8.785 -33.399  1.00  0.00     0.030 CG0
ATOM     20  G   UNL     1      16.679  -8.124 -34.217  1.00  0.00     0.000 G0
ENDBRANCH  18  19
ENDBRANCH  15  18
ENDBRANCH   1  14
TORSDOF 0
ENDMDL
MODEL 7
REMARK VINA RESULT:    -3.607      2.142      3.575
REMARK INTER + INTRA:          -5.218
REMARK INTER:                  -4.886
REMARK INTRA:                  -0.332
REMARK UNBOUND:                -0.346
REMARK SMILES C=C1C(=O)O[C@@H]2[C@H]3O[C@@]3(C)CCC=C(C)CC[C@@H]12
REMARK SMILES IDX 6 1 18 2 2 3 1 4 3 5 4 6 5 7 17 8 16 9 14 10 15 11 13 12
REMARK SMILES IDX 7 14 9 15 8 16 10 17 11 18 12 19
REMARK H PARENT
REMARK Flexibility Score: 70.00
ROOT
ATOM      1  C   UNL     1      14.216  -7.319 -35.519  1.00  0.00     0.216 C 
ATOM      2  C   UNL     1      14.566  -6.241 -34.430  1.00  0.00     0.070 C 
ATOM      3  C   UNL     1      15.965  -5.830 -34.782  1.00  0.00     0.037 C 
ATOM      4  C   UNL     1      16.665  -4.857 -34.196  1.00  0.00     0.021 C 
ATOM      5  C   UNL     1      16.390  -6.604 -35.915  1.00  0.00     0.334 C 
ATOM      6  O   UNL     1      17.514  -6.530 -36.477  1.00  0.00    -0.247 OA
ATOM      7  O   UNL     1      15.386  -7.449 -36.326  1.00  0.00    -0.455 OA
ENDROOT
BRANCH   2   8
ATOM      8  C   UNL     1      14.488  -6.793 -32.967  1.00  0.00     0.017 C 
BRANCH   8   9
ATOM      9  C   UNL     1      13.038  -6.986 -32.465  1.00  0.00     0.031 C 
BRANCH   9  10
ATOM     10  C   UNL     1      12.567  -8.436 -32.370  1.00  0.00    -0.077 C 
ATOM     11  C   UNL     1      13.248  -9.342 -31.371  1.00  0.00     0.039 C 
ATOM     12  C   UNL     1      11.517  -8.963 -33.057  1.00  0.00    -0.028 CG0
ATOM     13  G   UNL     1      10.777  -8.334 -34.213  1.00  0.00     0.000 G0
ENDBRANCH   9  10
ENDBRANCH   8   9
ENDBRANCH   2   8
BRANCH   1  14
ATOM     14  C   UNL     1      13.040  -6.912 -36.441  1.00  0.00     0.192 C 
ATOM     15  C   UNL     1      11.726  -7.632 -36.552  1.00  0.00     0.096 C 
ATOM     16  O   UNL     1      12.807  -7.932 -37.400  1.00  0.00    -0.362 OA
ATOM     17  C   UNL     1      10.613  -6.884 -37.290  1.00  0.00     0.045 C 
BRANCH  15  18
ATOM     18  C   UNL     1      11.295  -8.774 -35.599  1.00  0.00     0.042 C 
BRANCH  18  19
ATOM     19  C   UNL     1      10.771  -8.338 -34.222  1.00  0.00     0.030 CG0
ATOM     20  G   UNL     1      11.516  -8.957 -33.065  1.00  0.00     0.000 G0
ENDBRANCH  18  19
ENDBRANCH  15  18
ENDBRANCH   1  14
TORSDOF 0
ENDMDL
MODEL 8
REMARK VINA RESULT:    -3.524      2.808      4.751
REMARK INTER + INTRA:          -5.105
REMARK INTER:                  -5.076
REMARK INTRA:                  -0.030
REMARK UNBOUND:                -0.346
REMARK SMILES C=C1C(=O)O[C@@H]2[C@H]3O[C@@]3(C)CCC=C(C)CC[C@@H]12
REMARK SMILES IDX 6 1 18 2 2 3 1 4 3 5 4 6 5 7 17 8 16 9 14 10 15 11 13 12
REMARK SMILES IDX 7 14 9 15 8 16 10 17 11 18 12 19
REMARK H PARENT
REMARK Flexibility Score: 70.00
ROOT
ATOM      1  C   UNL     1      11.935  -7.348 -35.094  1.00  0.00     0.216 C 
ATOM      2  C   UNL     1      11.516  -8.355 -33.963  1.00  0.00     0.070 C 
ATOM      3  C   UNL     1      10.020  -8.240 -33.927  1.00  0.00     0.037 C 
ATOM      4  C   UNL     1       9.196  -8.980 -33.185  1.00  0.00     0.021 C 
ATOM      5  C   UNL     1       9.622  -7.256 -34.895  1.00  0.00     0.334 C 
ATOM      6  O   UNL     1       8.440  -6.894 -35.134  1.00  0.00    -0.247 OA
ATOM      7  O   UNL     1      10.721  -6.754 -35.553  1.00  0.00    -0.455 OA
ENDROOT
BRANCH   2   8
ATOM      8  C   UNL     1      12.143  -8.015 -32.569  1.00  0.00     0.017 C 
BRANCH   8   9
ATOM      9  C   UNL     1      12.764  -6.599 -32.509  1.00  0.00     0.031 C 
BRANCH   9  10
ATOM     10  C   UNL     1      14.262  -6.555 -32.212  1.00  0.00    -0.077 C 
ATOM     11  C   UNL     1      14.698  -6.447 -30.770  1.00  0.00     0.039 C 
ATOM     12  C   UNL     1      15.247  -6.695 -33.141  1.00  0.00    -0.028 CG0
ATOM     13  G   UNL     1      15.094  -6.660 -34.642  1.00  0.00     0.000 G0
ENDBRANCH   9  10
ENDBRANCH   8   9
ENDBRANCH   2   8
BRANCH   1  14
ATOM     14  C   UNL     1      12.625  -8.024 -36.304  1.00  0.00     0.192 C 
ATOM     15  C   UNL     1      14.101  -8.269 -36.444  1.00  0.00     0.096 C 
ATOM     16  O   UNL     1      13.495  -7.099 -36.938  1.00  0.00    -0.362 OA
ATOM     17  C   UNL     1      14.519  -9.215 -37.571  1.00  0.00     0.045 C 
BRANCH  15  18
ATOM     18  C   UNL     1      15.115  -8.053 -35.293  1.00  0.00     0.042 C 
BRANCH  18  19
ATOM     19  C   UNL     1      15.109  -6.659 -34.646  1.00  0.00     0.030 CG0
ATOM     20  G   UNL     1      15.235  -6.688 -33.142  1.00  0.00     0.000 G0
ENDBRANCH  18  19
ENDBRANCH  15  18
ENDBRANCH   1  14
TORSDOF 0
ENDMDL
MODEL 9
REMARK VINA RESULT:    -3.521      2.876      4.958
REMARK INTER + INTRA:          -5.102
REMARK INTER:                  -4.880
REMARK INTRA:                  -0.222
REMARK UNBOUND:                -0.346
REMARK SMILES C=C1C(=O)O[C@@H]2[C@H]3O[C@@]3(C)CCC=C(C)CC[C@@H]12
REMARK SMILES IDX 6 1 18 2 2 3 1 4 3 5 4 6 5 7 17 8 16 9 14 10 15 11 13 12
REMARK SMILES IDX 7 14 9 15 8 16 10 17 11 18 12 19
REMARK H PARENT
REMARK Flexibility Score: 70.00
ROOT
ATOM      1  C   UNL     1      13.070  -6.794 -36.167  1.00  0.00     0.216 C 
ATOM      2  C   UNL     1      14.203  -6.312 -35.191  1.00  0.00     0.070 C 
ATOM      3  C   UNL     1      14.758  -5.094 -35.871  1.00  0.00     0.037 C 
ATOM      4  C   UNL     1      15.684  -4.274 -35.374  1.00  0.00     0.021 C 
ATOM      5  C   UNL     1      14.056  -4.914 -37.112  1.00  0.00     0.334 C 
ATOM      6  O   UNL     1      14.263  -3.996 -37.948  1.00  0.00    -0.247 OA
ATOM      7  O   UNL     1      13.098  -5.888 -37.270  1.00  0.00    -0.455 OA
ENDROOT
BRANCH   2   8
ATOM      8  C   UNL     1      15.318  -7.387 -34.958  1.00  0.00     0.017 C 
BRANCH   8   9
ATOM      9  C   UNL     1      15.624  -7.632 -33.462  1.00  0.00     0.031 C 
BRANCH   9  10
ATOM     10  C   UNL     1      15.205  -9.001 -32.926  1.00  0.00    -0.077 C 
ATOM     11  C   UNL     1      16.271 -10.060 -32.769  1.00  0.00     0.039 C 
ATOM     12  C   UNL     1      13.956  -9.320 -32.492  1.00  0.00    -0.028 CG0
ATOM     13  G   UNL     1      12.693  -8.515 -32.681  1.00  0.00     0.000 G0
ENDBRANCH   9  10
ENDBRANCH   8   9
ENDBRANCH   2   8
BRANCH   1  14
ATOM     14  C   UNL     1      11.653  -6.749 -35.545  1.00  0.00     0.192 C 
ATOM     15  C   UNL     1      11.081  -7.765 -34.597  1.00  0.00     0.096 C 
ATOM     16  O   UNL     1      10.899  -7.866 -35.988  1.00  0.00    -0.362 OA
ATOM     17  C   UNL     1       9.791  -7.361 -33.880  1.00  0.00     0.045 C 
BRANCH  15  18
ATOM     18  C   UNL     1      11.918  -8.899 -33.955  1.00  0.00     0.042 C 
BRANCH  18  19
ATOM     19  C   UNL     1      12.694  -8.524 -32.684  1.00  0.00     0.030 CG0
ATOM     20  G   UNL     1      13.957  -9.326 -32.485  1.00  0.00     0.000 G0
ENDBRANCH  18  19
ENDBRANCH  15  18
ENDBRANCH   1  14
TORSDOF 0
ENDMDL
