MODEL 1
REMARK VINA RESULT:    -4.687      0.000      0.000
REMARK INTER + INTRA:          -5.376
REMARK INTER:                  -5.646
REMARK INTRA:                   0.271
REMARK UNBOUND:                 0.271
REMARK SMILES O=c1c(O)c(-c2ccc(O)c(O)c2)oc2cc(O)cc(O)c12
REMARK SMILES IDX 5 1 3 2 2 3 1 4 22 5 20 6 19 7 17 8 16 9 15 10 14 11 6 12
REMARK SMILES IDX 7 13 8 14 9 15 13 16 11 17 10 18 12 20 4 22 21 24 18 26
REMARK H PARENT 10 19 12 21 4 23 21 25 18 27
REMARK Flexibility Score: inf
ROOT
ATOM      1  C   UNL     1     148.134  15.685  35.350  1.00  0.00     0.180 A 
ATOM      2  C   UNL     1     148.184  15.655  33.945  1.00  0.00     0.208 A 
ATOM      3  C   UNL     1     148.404  14.429  33.298  1.00  0.00     0.238 A 
ATOM      4  O   UNL     1     148.394  14.400  32.040  1.00  0.00    -0.285 OA
ATOM      5  C   UNL     1     148.588  13.251  34.062  1.00  0.00     0.111 A 
ATOM      6  C   UNL     1     148.858  11.963  33.512  1.00  0.00     0.134 A 
ATOM      7  C   UNL     1     148.891  10.845  34.355  1.00  0.00     0.093 A 
ATOM      8  C   UNL     1     148.730  10.980  35.736  1.00  0.00     0.123 A 
ATOM      9  C   UNL     1     148.526  12.242  36.289  1.00  0.00     0.094 A 
ATOM     10  C   UNL     1     148.451  13.371  35.469  1.00  0.00     0.146 A 
ATOM     11  O   UNL     1     148.244  14.553  36.036  1.00  0.00    -0.452 OA
ENDROOT
BRANCH   1  12
ATOM     12  C   UNL     1     147.930  16.942  36.105  1.00  0.00     0.025 A 
ATOM     13  C   UNL     1     147.177  18.001  35.571  1.00  0.00     0.016 A 
ATOM     14  C   UNL     1     147.018  19.186  36.291  1.00  0.00     0.051 A 
ATOM     15  C   UNL     1     147.616  19.347  37.546  1.00  0.00     0.157 A 
ATOM     16  C   UNL     1     148.549  17.108  37.352  1.00  0.00     0.062 A 
ATOM     17  C   UNL     1     148.395  18.294  38.083  1.00  0.00     0.158 A 
BRANCH  15  18
ATOM     18  O   UNL     1     147.415  20.554  38.216  1.00  0.00    -0.504 OA
ATOM     19  H   UNL     1     146.676  21.206  37.998  1.00  0.00     0.293 HD
ENDBRANCH  15  18
BRANCH  17  20
ATOM     20  O   UNL     1     149.030  18.382  39.324  1.00  0.00    -0.504 OA
ATOM     21  H   UNL     1     149.480  19.218  39.669  1.00  0.00     0.293 HD
ENDBRANCH  17  20
ENDBRANCH   1  12
BRANCH   2  22
ATOM     22  O   UNL     1     147.979  16.825  33.209  1.00  0.00    -0.502 OA
ATOM     23  H   UNL     1     147.924  16.830  32.198  1.00  0.00     0.293 HD
ENDBRANCH   2  22
BRANCH   6  24
ATOM     24  O   UNL     1     149.125  11.731  32.159  1.00  0.00    -0.507 OA
ATOM     25  H   UNL     1     148.680  11.018  31.601  1.00  0.00     0.293 HD
ENDBRANCH   6  24
BRANCH   8  26
ATOM     26  O   UNL     1     148.781   9.866  36.570  1.00  0.00    -0.508 OA
ATOM     27  H   UNL     1     149.660   9.415  36.801  1.00  0.00     0.293 HD
ENDBRANCH   8  26
TORSDOF 6
ENDMDL
MODEL 2
REMARK VINA RESULT:    -3.053      2.386      7.054
REMARK INTER + INTRA:          -3.407
REMARK INTER:                  -3.532
REMARK INTRA:                   0.124
REMARK UNBOUND:                 0.271
REMARK SMILES O=c1c(O)c(-c2ccc(O)c(O)c2)oc2cc(O)cc(O)c12
REMARK SMILES IDX 5 1 3 2 2 3 1 4 22 5 20 6 19 7 17 8 16 9 15 10 14 11 6 12
REMARK SMILES IDX 7 13 8 14 9 15 13 16 11 17 10 18 12 20 4 22 21 24 18 26
REMARK H PARENT 10 19 12 21 4 23 21 25 18 27
REMARK Flexibility Score: inf
ROOT
ATOM      1  C   UNL     1     148.422  15.629  34.580  1.00  0.00     0.180 A 
ATOM      2  C   UNL     1     148.362  16.356  35.782  1.00  0.00     0.208 A 
ATOM      3  C   UNL     1     148.519  17.751  35.743  1.00  0.00     0.238 A 
ATOM      4  O   UNL     1     148.410  18.401  36.815  1.00  0.00    -0.285 OA
ATOM      5  C   UNL     1     148.752  18.399  34.506  1.00  0.00     0.111 A 
ATOM      6  C   UNL     1     148.967  19.802  34.356  1.00  0.00     0.134 A 
ATOM      7  C   UNL     1     149.057  20.353  33.071  1.00  0.00     0.093 A 
ATOM      8  C   UNL     1     149.006  19.542  31.935  1.00  0.00     0.123 A 
ATOM      9  C   UNL     1     148.857  18.164  32.074  1.00  0.00     0.094 A 
ATOM     10  C   UNL     1     148.728  17.590  33.341  1.00  0.00     0.146 A 
ATOM     11  O   UNL     1     148.576  16.274  33.429  1.00  0.00    -0.452 OA
ENDROOT
BRANCH   1  12
ATOM     12  C   UNL     1     148.290  14.155  34.543  1.00  0.00     0.025 A 
ATOM     13  C   UNL     1     149.125  13.367  33.734  1.00  0.00     0.016 A 
ATOM     14  C   UNL     1     148.965  11.980  33.697  1.00  0.00     0.051 A 
ATOM     15  C   UNL     1     147.965  11.355  34.451  1.00  0.00     0.157 A 
ATOM     16  C   UNL     1     147.273  13.534  35.282  1.00  0.00     0.062 A 
ATOM     17  C   UNL     1     147.105  12.143  35.252  1.00  0.00     0.158 A 
BRANCH  15  18
ATOM     18  O   UNL     1     147.862   9.965  34.374  1.00  0.00    -0.504 OA
ATOM     19  H   UNL     1     147.000   9.454  34.503  1.00  0.00     0.293 HD
ENDBRANCH  15  18
BRANCH  17  20
ATOM     20  O   UNL     1     146.079  11.593  36.024  1.00  0.00    -0.504 OA
ATOM     21  H   UNL     1     146.158  10.722  36.529  1.00  0.00     0.293 HD
ENDBRANCH  17  20
ENDBRANCH   1  12
BRANCH   2  22
ATOM     22  O   UNL     1     148.109  15.698  36.989  1.00  0.00    -0.502 OA
ATOM     23  H   UNL     1     148.593  15.932  37.847  1.00  0.00     0.293 HD
ENDBRANCH   2  22
BRANCH   6  24
ATOM     24  O   UNL     1     149.124  20.688  35.425  1.00  0.00    -0.507 OA
ATOM     25  H   UNL     1     148.638  21.567  35.518  1.00  0.00     0.293 HD
ENDBRANCH   6  24
BRANCH   8  26
ATOM     26  O   UNL     1     149.113  20.095  30.661  1.00  0.00    -0.508 OA
ATOM     27  H   UNL     1     149.535  19.583  29.894  1.00  0.00     0.293 HD
ENDBRANCH   8  26
TORSDOF 6
ENDMDL
MODEL 3
REMARK VINA RESULT:    -2.579      1.477      6.666
REMARK INTER + INTRA:          -2.836
REMARK INTER:                  -3.306
REMARK INTRA:                   0.470
REMARK UNBOUND:                 0.271
REMARK SMILES O=c1c(O)c(-c2ccc(O)c(O)c2)oc2cc(O)cc(O)c12
REMARK SMILES IDX 5 1 3 2 2 3 1 4 22 5 20 6 19 7 17 8 16 9 15 10 14 11 6 12
REMARK SMILES IDX 7 13 8 14 9 15 13 16 11 17 10 18 12 20 4 22 21 24 18 26
REMARK H PARENT 10 19 12 21 4 23 21 25 18 27
REMARK Flexibility Score: inf
ROOT
ATOM      1  C   UNL     1     149.017  15.918  35.200  1.00  0.00     0.180 A 
ATOM      2  C   UNL     1     148.959  17.120  34.475  1.00  0.00     0.208 A 
ATOM      3  C   UNL     1     148.891  18.335  35.175  1.00  0.00     0.238 A 
ATOM      4  O   UNL     1     148.894  19.411  34.522  1.00  0.00    -0.285 OA
ATOM      5  C   UNL     1     148.865  18.332  36.591  1.00  0.00     0.111 A 
ATOM      6  C   UNL     1     148.755  19.502  37.401  1.00  0.00     0.134 A 
ATOM      7  C   UNL     1     148.871  19.390  38.792  1.00  0.00     0.093 A 
ATOM      8  C   UNL     1     149.025  18.145  39.405  1.00  0.00     0.123 A 
ATOM      9  C   UNL     1     149.072  16.991  38.626  1.00  0.00     0.094 A 
ATOM     10  C   UNL     1     148.997  17.074  37.233  1.00  0.00     0.146 A 
ATOM     11  O   UNL     1     149.057  15.951  36.527  1.00  0.00    -0.452 OA
ENDROOT
BRANCH   1  12
ATOM     12  C   UNL     1     149.066  14.597  34.533  1.00  0.00     0.025 A 
ATOM     13  C   UNL     1     149.051  14.485  33.133  1.00  0.00     0.016 A 
ATOM     14  C   UNL     1     149.073  13.227  32.526  1.00  0.00     0.051 A 
ATOM     15  C   UNL     1     149.098  12.061  33.299  1.00  0.00     0.157 A 
ATOM     16  C   UNL     1     149.069  13.429  35.310  1.00  0.00     0.062 A 
ATOM     17  C   UNL     1     149.092  12.163  34.711  1.00  0.00     0.158 A 
BRANCH  15  18
ATOM     18  O   UNL     1     149.124  10.835  32.631  1.00  0.00    -0.504 OA
ATOM     19  H   UNL     1     149.426  10.718  31.675  1.00  0.00     0.293 HD
ENDBRANCH  15  18
BRANCH  17  20
ATOM     20  O   UNL     1     149.106  11.045  35.548  1.00  0.00    -0.504 OA
ATOM     21  H   UNL     1     148.798  10.126  35.267  1.00  0.00     0.293 HD
ENDBRANCH  17  20
ENDBRANCH   1  12
BRANCH   2  22
ATOM     22  O   UNL     1     149.008  17.102  33.078  1.00  0.00    -0.502 OA
ATOM     23  H   UNL     1     149.815  17.424  32.558  1.00  0.00     0.293 HD
ENDBRANCH   2  22
BRANCH   6  24
ATOM     24  O   UNL     1     148.509  20.782  36.897  1.00  0.00    -0.507 OA
ATOM     25  H   UNL     1     148.411  21.612  37.462  1.00  0.00     0.293 HD
ENDBRANCH   6  24
BRANCH   8  26
ATOM     26  O   UNL     1     149.123  18.041  40.791  1.00  0.00    -0.508 OA
ATOM     27  H   UNL     1     149.244  18.859  41.377  1.00  0.00     0.293 HD
ENDBRANCH   8  26
TORSDOF 6
ENDMDL
