MODEL 1
REMARK VINA RESULT:    -4.240      0.000      0.000
REMARK INTER + INTRA:          -6.039
REMARK INTER:                  -5.727
REMARK INTRA:                  -0.312
REMARK UNBOUND:                -0.312
REMARK SMILES C[C@@H](O)[C@H](O)[C@@H](O)[C@H](O)C=O
REMARK SMILES IDX 4 1 2 2 1 3 3 4 6 6 8 7 10 8 11 9 9 10 7 12 5 14
REMARK H PARENT 3 5 9 11 7 13 5 15
REMARK Flexibility Score: inf
ROOT
ATOM      1  C   UNL     1     120.956  71.414   4.957  1.00  0.00     0.174 C 
ENDROOT
BRANCH   1   2
ATOM      2  C   UNL     1     120.216  71.438   3.585  1.00  0.00     0.142 C 
ATOM      3  C   UNL     1     120.916  72.280   2.512  1.00  0.00     0.041 C 
BRANCH   2   4
ATOM      4  O   UNL     1     120.027  70.136   3.093  1.00  0.00    -0.391 OA
ATOM      5  H   UNL     1     119.345  69.705   3.671  1.00  0.00     0.211 HD
ENDBRANCH   2   4
ENDBRANCH   1   2
BRANCH   1   6
ATOM      6  C   UNL     1     120.117  70.944   6.183  1.00  0.00     0.181 C 
BRANCH   6   7
ATOM      7  C   UNL     1     120.808  71.213   7.541  1.00  0.00     0.209 C 
BRANCH   7   8
ATOM      8  C   UNL     1     120.201  72.416   8.209  1.00  0.00     0.258 C 
ATOM      9  O   UNL     1     120.808  73.476   8.244  1.00  0.00    -0.300 OA
ENDBRANCH   7   8
BRANCH   7  10
ATOM     10  O   UNL     1     120.659  70.104   8.392  1.00  0.00    -0.383 OA
ATOM     11  H   UNL     1     121.234  69.380   8.035  1.00  0.00     0.211 HD
ENDBRANCH   7  10
ENDBRANCH   6   7
BRANCH   6  12
ATOM     12  O   UNL     1     119.875  69.561   6.072  1.00  0.00    -0.387 OA
ATOM     13  H   UNL     1     119.070  69.448   5.503  1.00  0.00     0.211 HD
ENDBRANCH   6  12
ENDBRANCH   1   6
BRANCH   1  14
ATOM     14  O   UNL     1     122.130  70.645   4.846  1.00  0.00    -0.388 OA
ATOM     15  H   UNL     1     122.770  70.966   5.531  1.00  0.00     0.211 HD
ENDBRANCH   1  14
TORSDOF 8
ENDMDL
MODEL 2
REMARK VINA RESULT:    -3.589      1.269      4.630
REMARK INTER + INTRA:          -5.160
REMARK INTER:                  -4.796
REMARK INTRA:                  -0.364
REMARK UNBOUND:                -0.312
REMARK SMILES C[C@@H](O)[C@H](O)[C@@H](O)[C@H](O)C=O
REMARK SMILES IDX 4 1 2 2 1 3 3 4 6 6 8 7 10 8 11 9 9 10 7 12 5 14
REMARK H PARENT 3 5 9 11 7 13 5 15
REMARK Flexibility Score: inf
ROOT
ATOM      1  C   UNL     1     120.410  71.390   7.631  1.00  0.00     0.174 C 
ENDROOT
BRANCH   1   2
ATOM      2  C   UNL     1     119.927  72.381   8.733  1.00  0.00     0.142 C 
ATOM      3  C   UNL     1     120.110  71.861  10.164  1.00  0.00     0.041 C 
BRANCH   2   4
ATOM      4  O   UNL     1     120.573  73.622   8.611  1.00  0.00    -0.391 OA
ATOM      5  H   UNL     1     121.536  73.466   8.799  1.00  0.00     0.211 HD
ENDBRANCH   2   4
ENDBRANCH   1   2
BRANCH   1   6
ATOM      6  C   UNL     1     119.875  71.652   6.190  1.00  0.00     0.181 C 
BRANCH   6   7
ATOM      7  C   UNL     1     120.385  70.626   5.149  1.00  0.00     0.209 C 
BRANCH   7   8
ATOM      8  C   UNL     1     119.875  70.974   3.778  1.00  0.00     0.258 C 
ATOM      9  O   UNL     1     120.517  70.672   2.784  1.00  0.00    -0.300 OA
ENDBRANCH   7   8
BRANCH   7  10
ATOM     10  O   UNL     1     121.790  70.621   5.118  1.00  0.00    -0.383 OA
ATOM     11  H   UNL     1     122.095  69.893   5.718  1.00  0.00     0.211 HD
ENDBRANCH   7  10
ENDBRANCH   6   7
BRANCH   6  12
ATOM     12  O   UNL     1     120.272  72.939   5.779  1.00  0.00    -0.387 OA
ATOM     13  H   UNL     1     119.664  73.588   6.218  1.00  0.00     0.211 HD
ENDBRANCH   6  12
ENDBRANCH   1   6
BRANCH   1  14
ATOM     14  O   UNL     1     121.816  71.338   7.626  1.00  0.00    -0.388 OA
ATOM     15  H   UNL     1     122.150  72.067   8.209  1.00  0.00     0.211 HD
ENDBRANCH   1  14
TORSDOF 8
ENDMDL
MODEL 3
REMARK VINA RESULT:    -3.571      1.076      4.553
REMARK INTER + INTRA:          -5.135
REMARK INTER:                  -4.845
REMARK INTRA:                  -0.290
REMARK UNBOUND:                -0.312
REMARK SMILES C[C@@H](O)[C@H](O)[C@@H](O)[C@H](O)C=O
REMARK SMILES IDX 4 1 2 2 1 3 3 4 6 6 8 7 10 8 11 9 9 10 7 12 5 14
REMARK H PARENT 3 5 9 11 7 13 5 15
REMARK Flexibility Score: inf
ROOT
ATOM      1  C   UNL     1     119.876  71.148   5.845  1.00  0.00     0.174 C 
ENDROOT
BRANCH   1   2
ATOM      2  C   UNL     1     119.982  72.022   7.131  1.00  0.00     0.142 C 
ATOM      3  C   UNL     1     121.186  71.685   8.018  1.00  0.00     0.041 C 
BRANCH   2   4
ATOM      4  O   UNL     1     120.020  73.388   6.808  1.00  0.00    -0.391 OA
ATOM      5  H   UNL     1     120.829  73.530   6.250  1.00  0.00     0.211 HD
ENDBRANCH   2   4
ENDBRANCH   1   2
BRANCH   1   6
ATOM      6  C   UNL     1     120.849  71.513   4.683  1.00  0.00     0.181 C 
BRANCH   6   7
ATOM      7  C   UNL     1     120.219  71.351   3.279  1.00  0.00     0.209 C 
BRANCH   7   8
ATOM      8  C   UNL     1     121.159  71.862   2.221  1.00  0.00     0.258 C 
ATOM      9  O   UNL     1     120.967  71.599   1.044  1.00  0.00    -0.300 OA
ENDBRANCH   7   8
BRANCH   7  10
ATOM     10  O   UNL     1     119.945  69.997   3.021  1.00  0.00    -0.383 OA
ATOM     11  H   UNL     1     119.433  69.648   3.795  1.00  0.00     0.211 HD
ENDBRANCH   7  10
ENDBRANCH   6   7
BRANCH   6  12
ATOM     12  O   UNL     1     121.987  70.687   4.760  1.00  0.00    -0.387 OA
ATOM     13  H   UNL     1     122.132  70.302   3.857  1.00  0.00     0.211 HD
ENDBRANCH   6  12
ENDBRANCH   1   6
BRANCH   1  14
ATOM     14  O   UNL     1     120.012  69.789   6.185  1.00  0.00    -0.388 OA
ATOM     15  H   UNL     1     120.833  69.446   5.747  1.00  0.00     0.211 HD
ENDBRANCH   1  14
TORSDOF 8
ENDMDL
MODEL 4
REMARK VINA RESULT:    -3.425      1.393      2.532
REMARK INTER + INTRA:          -4.938
REMARK INTER:                  -4.387
REMARK INTRA:                  -0.551
REMARK UNBOUND:                -0.312
REMARK SMILES C[C@@H](O)[C@H](O)[C@@H](O)[C@H](O)C=O
REMARK SMILES IDX 4 1 2 2 1 3 3 4 6 6 8 7 10 8 11 9 9 10 7 12 5 14
REMARK H PARENT 3 5 9 11 7 13 5 15
REMARK Flexibility Score: inf
ROOT
ATOM      1  C   UNL     1     119.894  72.062   6.196  1.00  0.00     0.174 C 
ENDROOT
BRANCH   1   2
ATOM      2  C   UNL     1     120.310  71.084   5.054  1.00  0.00     0.142 C 
ATOM      3  C   UNL     1     120.062  71.630   3.643  1.00  0.00     0.041 C 
BRANCH   2   4
ATOM      4  O   UNL     1     121.661  70.721   5.173  1.00  0.00    -0.391 OA
ATOM      5  H   UNL     1     122.014  70.616   4.251  1.00  0.00     0.211 HD
ENDBRANCH   2   4
ENDBRANCH   1   2
BRANCH   1   6
ATOM      6  C   UNL     1     120.250  71.616   7.646  1.00  0.00     0.181 C 
BRANCH   6   7
ATOM      7  C   UNL     1     119.926  72.687   8.716  1.00  0.00     0.209 C 
BRANCH   7   8
ATOM      8  C   UNL     1     119.982  72.086  10.093  1.00  0.00     0.258 C 
ATOM      9  O   UNL     1     120.140  70.883  10.237  1.00  0.00    -0.300 OA
ENDBRANCH   7   8
BRANCH   7  10
ATOM     10  O   UNL     1     120.853  73.741   8.647  1.00  0.00    -0.383 OA
ATOM     11  H   UNL     1     121.703  73.364   8.303  1.00  0.00     0.211 HD
ENDBRANCH   7  10
ENDBRANCH   6   7
BRANCH   6  12
ATOM     12  O   UNL     1     121.626  71.323   7.712  1.00  0.00    -0.387 OA
ATOM     13  H   UNL     1     122.084  71.916   7.063  1.00  0.00     0.211 HD
ENDBRANCH   6  12
ENDBRANCH   1   6
BRANCH   1  14
ATOM     14  O   UNL     1     120.418  73.341   5.936  1.00  0.00    -0.388 OA
ATOM     15  H   UNL     1     120.069  73.960   6.628  1.00  0.00     0.211 HD
ENDBRANCH   1  14
TORSDOF 8
ENDMDL
MODEL 5
REMARK VINA RESULT:    -2.788     11.024     13.792
REMARK INTER + INTRA:          -4.078
REMARK INTER:                  -3.368
REMARK INTRA:                  -0.710
REMARK UNBOUND:                -0.312
REMARK SMILES C[C@@H](O)[C@H](O)[C@@H](O)[C@H](O)C=O
REMARK SMILES IDX 4 1 2 2 1 3 3 4 6 6 8 7 10 8 11 9 9 10 7 12 5 14
REMARK H PARENT 3 5 9 11 7 13 5 15
REMARK Flexibility Score: inf
ROOT
ATOM      1  C   UNL     1     120.023  67.145  -5.701  1.00  0.00     0.174 C 
ENDROOT
BRANCH   1   2
ATOM      2  C   UNL     1     120.022  68.704  -5.693  1.00  0.00     0.142 C 
ATOM      3  C   UNL     1     120.173  69.321  -4.298  1.00  0.00     0.041 C 
BRANCH   2   4
ATOM      4  O   UNL     1     121.030  69.211  -6.529  1.00  0.00    -0.391 OA
ATOM      5  H   UNL     1     121.898  69.003  -6.094  1.00  0.00     0.211 HD
ENDBRANCH   2   4
ENDBRANCH   1   2
BRANCH   1   6
ATOM      6  C   UNL     1     120.398  66.464  -7.053  1.00  0.00     0.181 C 
BRANCH   6   7
ATOM      7  C   UNL     1     119.916  64.998  -7.157  1.00  0.00     0.209 C 
BRANCH   7   8
ATOM      8  C   UNL     1     120.245  64.434  -8.512  1.00  0.00     0.258 C 
ATOM      9  O   UNL     1     121.406  64.246  -8.839  1.00  0.00    -0.300 OA
ENDBRANCH   7   8
BRANCH   7  10
ATOM     10  O   UNL     1     120.543  64.208  -6.178  1.00  0.00    -0.383 OA
ATOM     11  H   UNL     1     121.443  63.974  -6.520  1.00  0.00     0.211 HD
ENDBRANCH   7  10
ENDBRANCH   6   7
BRANCH   6  12
ATOM     12  O   UNL     1     121.798  66.486  -7.205  1.00  0.00    -0.387 OA
ATOM     13  H   UNL     1     122.102  65.544  -7.264  1.00  0.00     0.211 HD
ENDBRANCH   6  12
ENDBRANCH   1   6
BRANCH   1  14
ATOM     14  O   UNL     1     120.853  66.668  -4.669  1.00  0.00    -0.388 OA
ATOM     15  H   UNL     1     121.425  67.419  -4.367  1.00  0.00     0.211 HD
ENDBRANCH   1  14
TORSDOF 8
ENDMDL
MODEL 6
REMARK VINA RESULT:    -2.694     10.782     13.392
REMARK INTER + INTRA:          -3.951
REMARK INTER:                  -3.290
REMARK INTRA:                  -0.661
REMARK UNBOUND:                -0.312
REMARK SMILES C[C@@H](O)[C@H](O)[C@@H](O)[C@H](O)C=O
REMARK SMILES IDX 4 1 2 2 1 3 3 4 6 6 8 7 10 8 11 9 9 10 7 12 5 14
REMARK H PARENT 3 5 9 11 7 13 5 15
REMARK Flexibility Score: inf
ROOT
ATOM      1  C   UNL     1     120.771  66.502  -7.760  1.00  0.00     0.174 C 
ENDROOT
BRANCH   1   2
ATOM      2  C   UNL     1     120.554  65.037  -8.247  1.00  0.00     0.142 C 
ATOM      3  C   UNL     1     121.775  64.423  -8.942  1.00  0.00     0.041 C 
BRANCH   2   4
ATOM      4  O   UNL     1     120.168  64.207  -7.183  1.00  0.00    -0.391 OA
ATOM      5  H   UNL     1     119.505  64.715  -6.646  1.00  0.00     0.211 HD
ENDBRANCH   2   4
ENDBRANCH   1   2
BRANCH   1   6
ATOM      6  C   UNL     1     120.362  66.805  -6.287  1.00  0.00     0.181 C 
BRANCH   6   7
ATOM      7  C   UNL     1     120.122  68.309  -6.011  1.00  0.00     0.209 C 
BRANCH   7   8
ATOM      8  C   UNL     1     120.247  68.598  -4.541  1.00  0.00     0.258 C 
ATOM      9  O   UNL     1     119.875  67.779  -3.715  1.00  0.00    -0.300 OA
ENDBRANCH   7   8
BRANCH   7  10
ATOM     10  O   UNL     1     121.065  69.088  -6.704  1.00  0.00    -0.383 OA
ATOM     11  H   UNL     1     121.338  69.825  -6.101  1.00  0.00     0.211 HD
ENDBRANCH   7  10
ENDBRANCH   6   7
BRANCH   6  12
ATOM     12  O   UNL     1     121.379  66.351  -5.425  1.00  0.00    -0.387 OA
ATOM     13  H   UNL     1     120.977  65.666  -4.830  1.00  0.00     0.211 HD
ENDBRANCH   6  12
ENDBRANCH   1   6
BRANCH   1  14
ATOM     14  O   UNL     1     122.108  66.880  -7.982  1.00  0.00    -0.388 OA
ATOM     15  H   UNL     1     122.199  67.837  -7.740  1.00  0.00     0.211 HD
ENDBRANCH   1  14
TORSDOF 8
ENDMDL
MODEL 7
REMARK VINA RESULT:    -2.658      2.753      5.558
REMARK INTER + INTRA:          -3.903
REMARK INTER:                  -3.675
REMARK INTRA:                  -0.227
REMARK UNBOUND:                -0.312
REMARK SMILES C[C@@H](O)[C@H](O)[C@@H](O)[C@H](O)C=O
REMARK SMILES IDX 4 1 2 2 1 3 3 4 6 6 8 7 10 8 11 9 9 10 7 12 5 14
REMARK H PARENT 3 5 9 11 7 13 5 15
REMARK Flexibility Score: inf
ROOT
ATOM      1  C   UNL     1     120.613  71.469   3.168  1.00  0.00     0.174 C 
ENDROOT
BRANCH   1   2
ATOM      2  C   UNL     1     119.875  72.222   4.317  1.00  0.00     0.142 C 
ATOM      3  C   UNL     1     120.184  71.681   5.718  1.00  0.00     0.041 C 
BRANCH   2   4
ATOM      4  O   UNL     1     120.164  73.596   4.283  1.00  0.00    -0.391 OA
ATOM      5  H   UNL     1     121.063  73.692   3.873  1.00  0.00     0.211 HD
ENDBRANCH   2   4
ENDBRANCH   1   2
BRANCH   1   6
ATOM      6  C   UNL     1     120.071  71.712   1.727  1.00  0.00     0.181 C 
BRANCH   6   7
ATOM      7  C   UNL     1     119.875  70.410   0.915  1.00  0.00     0.209 C 
BRANCH   7   8
ATOM      8  C   UNL     1     120.980  70.249  -0.092  1.00  0.00     0.258 C 
ATOM      9  O   UNL     1     121.771  69.322  -0.001  1.00  0.00    -0.300 OA
ENDBRANCH   7   8
BRANCH   7  10
ATOM     10  O   UNL     1     119.882  69.296   1.772  1.00  0.00    -0.383 OA
ATOM     11  H   UNL     1     119.484  68.537   1.272  1.00  0.00     0.211 HD
ENDBRANCH   7  10
ENDBRANCH   6   7
BRANCH   6  12
ATOM     12  O   UNL     1     120.972  72.541   1.031  1.00  0.00    -0.387 OA
ATOM     13  H   UNL     1     121.877  72.364   1.397  1.00  0.00     0.211 HD
ENDBRANCH   6  12
ENDBRANCH   1   6
BRANCH   1  14
ATOM     14  O   UNL     1     121.990  71.755   3.225  1.00  0.00    -0.388 OA
ATOM     15  H   UNL     1     122.259  72.132   2.349  1.00  0.00     0.211 HD
ENDBRANCH   1  14
TORSDOF 8
ENDMDL
