MODEL 1
REMARK VINA RESULT:    92.120      0.000      0.000
REMARK INTER + INTRA:         144.328
REMARK INTER:                 145.973
REMARK INTRA:                  -1.645
REMARK UNBOUND:                -1.645
REMARK SMILES C[C@@H]1O[C@@H](O[C@@H]2[C@@H](Oc3cc(O)c4c(c3)O[C@@H](c3ccc(O)cc3)CC4=O)O[C@H](CO)[C@H](O)[C@H]2O)[C@@H](O)[C@@H](O)[C@H]1O
REMARK SMILES IDX 6 1 34 2 32 3 29 4 28 5 7 6 5 7 4 8 1 9 2 10 40 11 3 12
REMARK SMILES IDX 38 13 36 14 41 15 39 17 37 19 35 21 8 23 9 24 10 25 15 26
REMARK SMILES IDX 11 27 14 28 13 29 16 30 26 31 17 32 27 33 25 34 12 35 18 37
REMARK SMILES IDX 19 38 24 39 20 40 23 41 21 42 22 43 33 45 30 47 31 48
REMARK H PARENT 41 16 39 18 37 20 35 22 12 36 22 44 33 46 31 49
REMARK Flexibility Score: inf
ROOT
ATOM      1  C   UNL     1     -41.883  29.450 -21.001  1.00  0.00     0.221 C 
ATOM      2  C   UNL     1     -41.660  31.004 -21.122  1.00  0.00     0.181 C 
ATOM      3  C   UNL     1     -42.972  31.841 -21.341  1.00  0.00     0.177 C 
ATOM      4  C   UNL     1     -44.106  31.191 -20.555  1.00  0.00     0.179 C 
ATOM      5  O   UNL     1     -44.372  29.887 -21.023  1.00  0.00    -0.332 OA
ATOM      6  C   UNL     1     -43.334  28.932 -20.736  1.00  0.00     0.339 C 
ENDROOT
BRANCH   1   7
ATOM      7  O   UNL     1     -41.107  28.644 -21.893  1.00  0.00    -0.337 OA
BRANCH   7   8
ATOM      8  C   UNL     1     -39.814  28.248 -21.424  1.00  0.00     0.282 C 
ATOM      9  C   UNL     1     -37.608  29.482 -19.657  1.00  0.00     0.041 C 
ATOM     10  C   UNL     1     -37.552  28.919 -21.092  1.00  0.00     0.150 C 
ATOM     11  C   UNL     1     -37.188  27.364 -21.079  1.00  0.00     0.174 C 
ATOM     12  O   UNL     1     -38.776  29.156 -21.758  1.00  0.00    -0.344 OA
ATOM     13  C   UNL     1     -37.973  26.605 -22.149  1.00  0.00     0.179 C 
ATOM     14  C   UNL     1     -39.484  26.780 -21.815  1.00  0.00     0.202 C 
BRANCH  11  15
ATOM     15  O   UNL     1     -35.799  27.194 -21.319  1.00  0.00    -0.388 OA
ATOM     16  H   UNL     1     -35.372  26.949 -20.435  1.00  0.00     0.211 HD
ENDBRANCH  11  15
BRANCH  13  17
ATOM     17  O   UNL     1     -37.682  27.076 -23.434  1.00  0.00    -0.387 OA
ATOM     18  H   UNL     1     -37.233  26.330 -23.899  1.00  0.00     0.211 HD
ENDBRANCH  13  17
BRANCH  14  19
ATOM     19  O   UNL     1     -40.282  26.271 -22.823  1.00  0.00    -0.385 OA
ATOM     20  H   UNL     1     -40.088  26.793 -23.650  1.00  0.00     0.211 HD
ENDBRANCH  14  19
ENDBRANCH   7   8
ENDBRANCH   1   7
BRANCH   2  21
ATOM     21  O   UNL     1     -41.003  31.481 -19.972  1.00  0.00    -0.387 OA
ATOM     22  H   UNL     1     -40.021  31.220 -20.057  1.00  0.00     0.211 HD
ENDBRANCH   2  21
BRANCH   6  23
ATOM     23  O   UNL     1     -43.506  28.353 -19.394  1.00  0.00    -0.462 OA
BRANCH  23  24
ATOM     24  C   UNL     1     -42.836  27.180 -18.965  1.00  0.00     0.130 A 
ATOM     25  C   UNL     1     -42.510  26.183 -19.885  1.00  0.00     0.093 A 
ATOM     26  C   UNL     1     -42.497  26.998 -17.614  1.00  0.00     0.094 A 
ATOM     27  C   UNL     1     -42.051  24.940 -19.395  1.00  0.00     0.133 A 
ATOM     28  C   UNL     1     -42.234  25.709 -17.141  1.00  0.00     0.138 A 
ATOM     29  C   UNL     1     -42.297  24.646 -18.045  1.00  0.00     0.102 A 
ATOM     30  O   UNL     1     -41.850  25.467 -15.780  1.00  0.00    -0.484 OA
ATOM     31  C   UNL     1     -42.515  23.291 -17.502  1.00  0.00     0.174 C 
ATOM     32  C   UNL     1     -41.587  24.088 -15.398  1.00  0.00     0.211 C 
ATOM     33  O   UNL     1     -42.504  22.284 -18.244  1.00  0.00    -0.294 OA
ATOM     34  C   UNL     1     -42.765  23.203 -16.007  1.00  0.00     0.131 C 
BRANCH  27  35
ATOM     35  O   UNL     1     -41.010  24.277 -20.065  1.00  0.00    -0.507 OA
ATOM     36  H   UNL     1     -40.365  23.682 -19.542  1.00  0.00     0.293 HD
ENDBRANCH  27  35
BRANCH  32  37
ATOM     37  C   UNL     1     -41.251  23.935 -13.893  1.00  0.00    -0.007 A 
ATOM     38  C   UNL     1     -42.278  23.885 -12.935  1.00  0.00     0.011 A 
ATOM     39  C   UNL     1     -39.970  24.340 -13.495  1.00  0.00     0.011 A 
ATOM     40  C   UNL     1     -42.069  24.369 -11.630  1.00  0.00     0.046 A 
ATOM     41  C   UNL     1     -39.803  24.885 -12.237  1.00  0.00     0.046 A 
ATOM     42  C   UNL     1     -40.882  24.995 -11.319  1.00  0.00     0.115 A 
BRANCH  42  43
ATOM     43  O   UNL     1     -40.737  25.715 -10.143  1.00  0.00    -0.508 OA
ATOM     44  H   UNL     1     -39.933  26.348 -10.005  1.00  0.00     0.293 HD
ENDBRANCH  42  43
ENDBRANCH  32  37
ENDBRANCH  23  24
ENDBRANCH   6  23
BRANCH   3  45
ATOM     45  O   UNL     1     -43.365  31.971 -22.686  1.00  0.00    -0.387 OA
ATOM     46  H   UNL     1     -43.998  32.743 -22.704  1.00  0.00     0.211 HD
ENDBRANCH   3  45
BRANCH   4  47
ATOM     47  C   UNL     1     -45.425  32.016 -20.561  1.00  0.00     0.191 C 
BRANCH  47  48
ATOM     48  O   UNL     1     -45.681  32.542 -21.852  1.00  0.00    -0.394 OA
ATOM     49  H   UNL     1     -45.180  33.409 -21.883  1.00  0.00     0.210 HD
ENDBRANCH  47  48
ENDBRANCH   4  47
TORSDOF 14
ENDMDL
MODEL 2
REMARK VINA RESULT:    92.881      5.059      9.032
REMARK INTER + INTRA:         145.534
REMARK INTER:                 146.772
REMARK INTRA:                  -1.238
REMARK UNBOUND:                -1.645
REMARK SMILES C[C@@H]1O[C@@H](O[C@@H]2[C@@H](Oc3cc(O)c4c(c3)O[C@@H](c3ccc(O)cc3)CC4=O)O[C@H](CO)[C@H](O)[C@H]2O)[C@@H](O)[C@@H](O)[C@H]1O
REMARK SMILES IDX 6 1 34 2 32 3 29 4 28 5 7 6 5 7 4 8 1 9 2 10 40 11 3 12
REMARK SMILES IDX 38 13 36 14 41 15 39 17 37 19 35 21 8 23 9 24 10 25 15 26
REMARK SMILES IDX 11 27 14 28 13 29 16 30 26 31 17 32 27 33 25 34 12 35 18 37
REMARK SMILES IDX 19 38 24 39 20 40 23 41 21 42 22 43 33 45 30 47 31 48
REMARK H PARENT 41 16 39 18 37 20 35 22 12 36 22 44 33 46 31 49
REMARK Flexibility Score: inf
ROOT
ATOM      1  C   UNL     1     -39.548  28.931 -21.637  1.00  0.00     0.221 C 
ATOM      2  C   UNL     1     -39.870  27.485 -22.170  1.00  0.00     0.181 C 
ATOM      3  C   UNL     1     -38.607  26.603 -22.479  1.00  0.00     0.177 C 
ATOM      4  C   UNL     1     -37.522  26.923 -21.456  1.00  0.00     0.179 C 
ATOM      5  O   UNL     1     -37.111  28.270 -21.551  1.00  0.00    -0.332 OA
ATOM      6  C   UNL     1     -38.100  29.222 -21.122  1.00  0.00     0.339 C 
ENDROOT
BRANCH   1   7
ATOM      7  O   UNL     1     -40.160  30.005 -22.359  1.00  0.00    -0.337 OA
BRANCH   7   8
ATOM      8  C   UNL     1     -41.532  30.270 -22.053  1.00  0.00     0.282 C 
ATOM      9  C   UNL     1     -44.209  30.214 -23.584  1.00  0.00     0.041 C 
ATOM     10  C   UNL     1     -43.536  31.341 -22.773  1.00  0.00     0.150 C 
ATOM     11  C   UNL     1     -44.001  31.296 -21.245  1.00  0.00     0.174 C 
ATOM     12  O   UNL     1     -42.130  31.252 -22.886  1.00  0.00    -0.344 OA
ATOM     13  C   UNL     1     -42.841  31.630 -20.306  1.00  0.00     0.179 C 
ATOM     14  C   UNL     1     -41.742  30.552 -20.538  1.00  0.00     0.202 C 
BRANCH  11  15
ATOM     15  O   UNL     1     -45.048  32.231 -21.034  1.00  0.00    -0.388 OA
ATOM     16  H   UNL     1     -44.980  32.924 -21.769  1.00  0.00     0.211 HD
ENDBRANCH  11  15
BRANCH  13  17
ATOM     17  O   UNL     1     -42.344  32.917 -20.538  1.00  0.00    -0.387 OA
ATOM     18  H   UNL     1     -42.750  33.492 -19.847  1.00  0.00     0.211 HD
ENDBRANCH  13  17
BRANCH  14  19
ATOM     19  O   UNL     1     -40.580  30.866 -19.857  1.00  0.00    -0.385 OA
ATOM     20  H   UNL     1     -40.702  30.579 -18.910  1.00  0.00     0.211 HD
ENDBRANCH  14  19
ENDBRANCH   7   8
ENDBRANCH   1   7
BRANCH   2  21
ATOM     21  O   UNL     1     -40.682  26.806 -21.242  1.00  0.00    -0.387 OA
ATOM     22  H   UNL     1     -41.583  27.284 -21.226  1.00  0.00     0.211 HD
ENDBRANCH   2  21
BRANCH   6  23
ATOM     23  O   UNL     1     -38.035  29.432 -19.667  1.00  0.00    -0.462 OA
BRANCH  23  24
ATOM     24  C   UNL     1     -36.981  30.137 -19.032  1.00  0.00     0.130 A 
ATOM     25  C   UNL     1     -36.873  31.520 -19.181  1.00  0.00     0.093 A 
ATOM     26  C   UNL     1     -36.030  29.460 -18.253  1.00  0.00     0.094 A 
ATOM     27  C   UNL     1     -35.696  32.155 -18.728  1.00  0.00     0.133 A 
ATOM     28  C   UNL     1     -34.798  30.068 -17.992  1.00  0.00     0.138 A 
ATOM     29  C   UNL     1     -34.570  31.347 -18.504  1.00  0.00     0.102 A 
ATOM     30  O   UNL     1     -33.801  29.437 -17.175  1.00  0.00    -0.484 OA
ATOM     31  C   UNL     1     -33.171  31.784 -18.671  1.00  0.00     0.174 C 
ATOM     32  C   UNL     1     -32.560  30.166 -16.958  1.00  0.00     0.211 C 
ATOM     33  O   UNL     1     -32.892  32.944 -19.048  1.00  0.00    -0.294 OA
ATOM     34  C   UNL     1     -32.106  30.744 -18.373  1.00  0.00     0.131 C 
BRANCH  27  35
ATOM     35  O   UNL     1     -35.788  33.401 -18.086  1.00  0.00    -0.507 OA
ATOM     36  H   UNL     1     -35.304  34.212 -18.475  1.00  0.00     0.293 HD
ENDBRANCH  27  35
BRANCH  32  37
ATOM     37  C   UNL     1     -31.532  29.364 -16.123  1.00  0.00    -0.007 A 
ATOM     38  C   UNL     1     -30.171  29.366 -16.476  1.00  0.00     0.011 A 
ATOM     39  C   UNL     1     -32.036  28.297 -15.367  1.00  0.00     0.011 A 
ATOM     40  C   UNL     1     -29.356  28.250 -16.204  1.00  0.00     0.046 A 
ATOM     41  C   UNL     1     -31.247  27.180 -15.179  1.00  0.00     0.046 A 
ATOM     42  C   UNL     1     -29.921  27.106 -15.684  1.00  0.00     0.115 A 
BRANCH  42  43
ATOM     43  O   UNL     1     -29.219  25.911 -15.652  1.00  0.00    -0.508 OA
ATOM     44  H   UNL     1     -29.657  25.048 -15.290  1.00  0.00     0.293 HD
ENDBRANCH  42  43
ENDBRANCH  32  37
ENDBRANCH  23  24
ENDBRANCH   6  23
BRANCH   3  45
ATOM     45  O   UNL     1     -38.079  26.770 -23.772  1.00  0.00    -0.387 OA
ATOM     46  H   UNL     1     -38.265  25.911 -24.247  1.00  0.00     0.211 HD
ENDBRANCH   3  45
BRANCH   4  47
ATOM     47  C   UNL     1     -36.274  25.999 -21.557  1.00  0.00     0.191 C 
BRANCH  47  48
ATOM     48  O   UNL     1     -35.169  26.574 -20.880  1.00  0.00    -0.394 OA
ATOM     49  H   UNL     1     -35.552  26.954 -20.036  1.00  0.00     0.210 HD
ENDBRANCH  47  48
ENDBRANCH   4  47
TORSDOF 14
ENDMDL
MODEL 3
REMARK VINA RESULT:    93.810      5.624      8.846
REMARK INTER + INTRA:         147.006
REMARK INTER:                 148.218
REMARK INTRA:                  -1.212
REMARK UNBOUND:                -1.645
REMARK SMILES C[C@@H]1O[C@@H](O[C@@H]2[C@@H](Oc3cc(O)c4c(c3)O[C@@H](c3ccc(O)cc3)CC4=O)O[C@H](CO)[C@H](O)[C@H]2O)[C@@H](O)[C@@H](O)[C@H]1O
REMARK SMILES IDX 6 1 34 2 32 3 29 4 28 5 7 6 5 7 4 8 1 9 2 10 40 11 3 12
REMARK SMILES IDX 38 13 36 14 41 15 39 17 37 19 35 21 8 23 9 24 10 25 15 26
REMARK SMILES IDX 11 27 14 28 13 29 16 30 26 31 17 32 27 33 25 34 12 35 18 37
REMARK SMILES IDX 19 38 24 39 20 40 23 41 21 42 22 43 33 45 30 47 31 48
REMARK H PARENT 41 16 39 18 37 20 35 22 12 36 22 44 33 46 31 49
REMARK Flexibility Score: inf
ROOT
ATOM      1  C   UNL     1     -39.127  29.396 -21.909  1.00  0.00     0.221 C 
ATOM      2  C   UNL     1     -39.842  28.089 -22.418  1.00  0.00     0.181 C 
ATOM      3  C   UNL     1     -38.922  26.816 -22.473  1.00  0.00     0.177 C 
ATOM      4  C   UNL     1     -37.947  26.865 -21.301  1.00  0.00     0.179 C 
ATOM      5  O   UNL     1     -37.095  27.987 -21.390  1.00  0.00    -0.332 OA
ATOM      6  C   UNL     1     -37.753  29.247 -21.176  1.00  0.00     0.339 C 
ENDROOT
BRANCH   1   7
ATOM      7  O   UNL     1     -39.233  30.533 -22.771  1.00  0.00    -0.337 OA
BRANCH   7   8
ATOM      8  C   UNL     1     -38.241  30.644 -23.796  1.00  0.00     0.282 C 
ATOM      9  C   UNL     1     -35.693  29.107 -24.610  1.00  0.00     0.041 C 
ATOM     10  C   UNL     1     -35.910  30.602 -24.291  1.00  0.00     0.150 C 
ATOM     11  C   UNL     1     -36.268  31.419 -25.615  1.00  0.00     0.174 C 
ATOM     12  O   UNL     1     -36.913  30.750 -23.306  1.00  0.00    -0.344 OA
ATOM     13  C   UNL     1     -37.322  32.490 -25.333  1.00  0.00     0.179 C 
ATOM     14  C   UNL     1     -38.597  31.753 -24.826  1.00  0.00     0.202 C 
BRANCH  11  15
ATOM     15  O   UNL     1     -35.101  32.045 -26.124  1.00  0.00    -0.388 OA
ATOM     16  H   UNL     1     -35.043  32.960 -25.695  1.00  0.00     0.211 HD
ENDBRANCH  11  15
BRANCH  13  17
ATOM     17  O   UNL     1     -36.871  33.423 -24.394  1.00  0.00    -0.387 OA
ATOM     18  H   UNL     1     -36.518  32.896 -23.638  1.00  0.00     0.211 HD
ENDBRANCH  13  17
BRANCH  14  19
ATOM     19  O   UNL     1     -39.551  32.650 -24.382  1.00  0.00    -0.385 OA
ATOM     20  H   UNL     1     -39.895  32.312 -23.510  1.00  0.00     0.211 HD
ENDBRANCH  14  19
ENDBRANCH   7   8
ENDBRANCH   1   7
BRANCH   2  21
ATOM     21  O   UNL     1     -40.957  27.809 -21.606  1.00  0.00    -0.387 OA
ATOM     22  H   UNL     1     -40.843  28.344 -20.745  1.00  0.00     0.211 HD
ENDBRANCH   2  21
BRANCH   6  23
ATOM     23  O   UNL     1     -37.825  29.569 -19.742  1.00  0.00    -0.462 OA
BRANCH  23  24
ATOM     24  C   UNL     1     -36.795  30.255 -19.050  1.00  0.00     0.130 A 
ATOM     25  C   UNL     1     -36.712  31.646 -19.115  1.00  0.00     0.093 A 
ATOM     26  C   UNL     1     -35.842  29.551 -18.295  1.00  0.00     0.094 A 
ATOM     27  C   UNL     1     -35.555  32.276 -18.606  1.00  0.00     0.133 A 
ATOM     28  C   UNL     1     -34.627  30.166 -17.979  1.00  0.00     0.138 A 
ATOM     29  C   UNL     1     -34.416  31.477 -18.411  1.00  0.00     0.102 A 
ATOM     30  O   UNL     1     -33.631  29.507 -17.183  1.00  0.00    -0.484 OA
ATOM     31  C   UNL     1     -33.023  31.949 -18.528  1.00  0.00     0.174 C 
ATOM     32  C   UNL     1     -32.409  30.244 -16.903  1.00  0.00     0.211 C 
ATOM     33  O   UNL     1     -32.762  33.134 -18.833  1.00  0.00    -0.294 OA
ATOM     34  C   UNL     1     -31.944  30.913 -18.274  1.00  0.00     0.131 C 
BRANCH  27  35
ATOM     35  O   UNL     1     -35.681  33.479 -17.894  1.00  0.00    -0.507 OA
ATOM     36  H   UNL     1     -35.984  33.465 -16.918  1.00  0.00     0.293 HD
ENDBRANCH  27  35
BRANCH  32  37
ATOM     37  C   UNL     1     -31.377  29.414 -16.100  1.00  0.00    -0.007 A 
ATOM     38  C   UNL     1     -30.065  29.254 -16.576  1.00  0.00     0.011 A 
ATOM     39  C   UNL     1     -31.898  28.465 -15.209  1.00  0.00     0.011 A 
ATOM     40  C   UNL     1     -29.330  28.089 -16.283  1.00  0.00     0.046 A 
ATOM     41  C   UNL     1     -31.197  27.294 -14.996  1.00  0.00     0.046 A 
ATOM     42  C   UNL     1     -29.941  27.050 -15.613  1.00  0.00     0.115 A 
BRANCH  42  43
ATOM     43  O   UNL     1     -29.350  25.798 -15.540  1.00  0.00    -0.508 OA
ATOM     44  H   UNL     1     -28.323  25.695 -15.568  1.00  0.00     0.293 HD
ENDBRANCH  42  43
ENDBRANCH  32  37
ENDBRANCH  23  24
ENDBRANCH   6  23
BRANCH   3  45
ATOM     45  O   UNL     1     -38.194  26.672 -23.668  1.00  0.00    -0.387 OA
ATOM     46  H   UNL     1     -37.270  26.419 -23.386  1.00  0.00     0.211 HD
ENDBRANCH   3  45
BRANCH   4  47
ATOM     47  C   UNL     1     -37.084  25.578 -21.151  1.00  0.00     0.191 C 
BRANCH  47  48
ATOM     48  O   UNL     1     -37.889  24.478 -20.760  1.00  0.00    -0.394 OA
ATOM     49  H   UNL     1     -37.923  24.525 -19.760  1.00  0.00     0.210 HD
ENDBRANCH  47  48
ENDBRANCH   4  47
TORSDOF 14
ENDMDL
MODEL 4
REMARK VINA RESULT:    94.256      6.201     10.836
REMARK INTER + INTRA:         147.713
REMARK INTER:                 145.667
REMARK INTRA:                   2.046
REMARK UNBOUND:                -1.645
REMARK SMILES C[C@@H]1O[C@@H](O[C@@H]2[C@@H](Oc3cc(O)c4c(c3)O[C@@H](c3ccc(O)cc3)CC4=O)O[C@H](CO)[C@H](O)[C@H]2O)[C@@H](O)[C@@H](O)[C@H]1O
REMARK SMILES IDX 6 1 34 2 32 3 29 4 28 5 7 6 5 7 4 8 1 9 2 10 40 11 3 12
REMARK SMILES IDX 38 13 36 14 41 15 39 17 37 19 35 21 8 23 9 24 10 25 15 26
REMARK SMILES IDX 11 27 14 28 13 29 16 30 26 31 17 32 27 33 25 34 12 35 18 37
REMARK SMILES IDX 19 38 24 39 20 40 23 41 21 42 22 43 33 45 30 47 31 48
REMARK H PARENT 41 16 39 18 37 20 35 22 12 36 22 44 33 46 31 49
REMARK Flexibility Score: inf
ROOT
ATOM      1  C   UNL     1     -32.164  28.858 -16.482  1.00  0.00     0.221 C 
ATOM      2  C   UNL     1     -30.949  29.685 -15.915  1.00  0.00     0.181 C 
ATOM      3  C   UNL     1     -30.466  30.860 -16.841  1.00  0.00     0.177 C 
ATOM      4  C   UNL     1     -31.680  31.474 -17.529  1.00  0.00     0.179 C 
ATOM      5  O   UNL     1     -32.324  30.536 -18.365  1.00  0.00    -0.332 OA
ATOM      6  C   UNL     1     -32.989  29.473 -17.659  1.00  0.00     0.339 C 
ENDROOT
BRANCH   1   7
ATOM      7  O   UNL     1     -31.965  27.443 -16.557  1.00  0.00    -0.337 OA
BRANCH   7   8
ATOM      8  C   UNL     1     -30.790  26.935 -15.918  1.00  0.00     0.282 C 
ATOM      9  C   UNL     1     -28.380  25.195 -16.742  1.00  0.00     0.041 C 
ATOM     10  C   UNL     1     -29.397  25.029 -15.593  1.00  0.00     0.150 C 
ATOM     11  C   UNL     1     -28.877  25.749 -14.265  1.00  0.00     0.174 C 
ATOM     12  O   UNL     1     -30.662  25.523 -15.985  1.00  0.00    -0.344 OA
ATOM     13  C   UNL     1     -30.028  26.422 -13.516  1.00  0.00     0.179 C 
ATOM     14  C   UNL     1     -30.632  27.490 -14.474  1.00  0.00     0.202 C 
BRANCH  11  15
ATOM     15  O   UNL     1     -28.265  24.796 -13.410  1.00  0.00    -0.388 OA
ATOM     16  H   UNL     1     -28.864  23.979 -13.398  1.00  0.00     0.211 HD
ENDBRANCH  11  15
BRANCH  13  17
ATOM     17  O   UNL     1     -30.996  25.494 -13.118  1.00  0.00    -0.387 OA
ATOM     18  H   UNL     1     -30.537  24.873 -12.502  1.00  0.00     0.211 HD
ENDBRANCH  13  17
BRANCH  14  19
ATOM     19  O   UNL     1     -31.789  28.036 -13.950  1.00  0.00    -0.385 OA
ATOM     20  H   UNL     1     -32.559  27.621 -14.429  1.00  0.00     0.211 HD
ENDBRANCH  14  19
ENDBRANCH   7   8
ENDBRANCH   1   7
BRANCH   2  21
ATOM     21  O   UNL     1     -31.278  30.208 -14.651  1.00  0.00    -0.387 OA
ATOM     22  H   UNL     1     -31.438  29.415 -14.030  1.00  0.00     0.211 HD
ENDBRANCH   2  21
BRANCH   6  23
ATOM     23  O   UNL     1     -34.350  29.872 -17.265  1.00  0.00    -0.462 OA
BRANCH  23  24
ATOM     24  C   UNL     1     -35.323  30.327 -18.190  1.00  0.00     0.130 A 
ATOM     25  C   UNL     1     -35.754  31.654 -18.159  1.00  0.00     0.093 A 
ATOM     26  C   UNL     1     -35.871  29.455 -19.145  1.00  0.00     0.094 A 
ATOM     27  C   UNL     1     -36.875  32.015 -18.938  1.00  0.00     0.133 A 
ATOM     28  C   UNL     1     -37.089  29.779 -19.750  1.00  0.00     0.138 A 
ATOM     29  C   UNL     1     -37.707  30.979 -19.394  1.00  0.00     0.102 A 
ATOM     30  O   UNL     1     -37.679  28.942 -20.755  1.00  0.00    -0.484 OA
ATOM     31  C   UNL     1     -39.160  31.101 -19.619  1.00  0.00     0.174 C 
ATOM     32  C   UNL     1     -38.943  29.381 -21.328  1.00  0.00     0.211 C 
ATOM     33  O   UNL     1     -39.765  32.173 -19.397  1.00  0.00    -0.294 OA
ATOM     34  C   UNL     1     -39.866  29.852 -20.115  1.00  0.00     0.131 C 
BRANCH  27  35
ATOM     35  O   UNL     1     -36.881  33.248 -19.610  1.00  0.00    -0.507 OA
ATOM     36  H   UNL     1     -36.091  33.887 -19.508  1.00  0.00     0.293 HD
ENDBRANCH  27  35
BRANCH  32  37
ATOM     37  C   UNL     1     -39.523  28.371 -22.348  1.00  0.00    -0.007 A 
ATOM     38  C   UNL     1     -40.913  28.229 -22.500  1.00  0.00     0.011 A 
ATOM     39  C   UNL     1     -38.687  27.308 -22.719  1.00  0.00     0.011 A 
ATOM     40  C   UNL     1     -41.474  26.995 -22.880  1.00  0.00     0.046 A 
ATOM     41  C   UNL     1     -39.255  26.083 -23.012  1.00  0.00     0.046 A 
ATOM     42  C   UNL     1     -40.662  25.888 -23.000  1.00  0.00     0.115 A 
BRANCH  42  43
ATOM     43  O   UNL     1     -41.198  24.614 -23.107  1.00  0.00    -0.508 OA
ATOM     44  H   UNL     1     -41.447  24.071 -22.264  1.00  0.00     0.293 HD
ENDBRANCH  42  43
ENDBRANCH  32  37
ENDBRANCH  23  24
ENDBRANCH   6  23
BRANCH   3  45
ATOM     45  O   UNL     1     -29.527  30.485 -17.819  1.00  0.00    -0.387 OA
ATOM     46  H   UNL     1     -28.770  30.071 -17.316  1.00  0.00     0.211 HD
ENDBRANCH   3  45
BRANCH   4  47
ATOM     47  C   UNL     1     -31.353  32.753 -18.353  1.00  0.00     0.191 C 
BRANCH  47  48
ATOM     48  O   UNL     1     -32.117  33.854 -17.892  1.00  0.00    -0.394 OA
ATOM     49  H   UNL     1     -32.412  34.330 -18.723  1.00  0.00     0.210 HD
ENDBRANCH  47  48
ENDBRANCH   4  47
TORSDOF 14
ENDMDL
MODEL 5
REMARK VINA RESULT:    94.481      5.903     10.521
REMARK INTER + INTRA:         148.069
REMARK INTER:                 144.124
REMARK INTRA:                   3.945
REMARK UNBOUND:                -1.645
REMARK SMILES C[C@@H]1O[C@@H](O[C@@H]2[C@@H](Oc3cc(O)c4c(c3)O[C@@H](c3ccc(O)cc3)CC4=O)O[C@H](CO)[C@H](O)[C@H]2O)[C@@H](O)[C@@H](O)[C@H]1O
REMARK SMILES IDX 6 1 34 2 32 3 29 4 28 5 7 6 5 7 4 8 1 9 2 10 40 11 3 12
REMARK SMILES IDX 38 13 36 14 41 15 39 17 37 19 35 21 8 23 9 24 10 25 15 26
REMARK SMILES IDX 11 27 14 28 13 29 16 30 26 31 17 32 27 33 25 34 12 35 18 37
REMARK SMILES IDX 19 38 24 39 20 40 23 41 21 42 22 43 33 45 30 47 31 48
REMARK H PARENT 41 16 39 18 37 20 35 22 12 36 22 44 33 46 31 49
REMARK Flexibility Score: inf
ROOT
ATOM      1  C   UNL     1     -32.468  28.789 -16.785  1.00  0.00     0.221 C 
ATOM      2  C   UNL     1     -31.391  29.649 -16.024  1.00  0.00     0.181 C 
ATOM      3  C   UNL     1     -30.811  30.855 -16.849  1.00  0.00     0.177 C 
ATOM      4  C   UNL     1     -31.923  31.435 -17.717  1.00  0.00     0.179 C 
ATOM      5  O   UNL     1     -32.390  30.487 -18.653  1.00  0.00    -0.332 OA
ATOM      6  C   UNL     1     -33.118  29.392 -18.072  1.00  0.00     0.339 C 
ENDROOT
BRANCH   1   7
ATOM      7  O   UNL     1     -32.207  27.383 -16.840  1.00  0.00    -0.337 OA
BRANCH   7   8
ATOM      8  C   UNL     1     -31.006  26.937 -16.202  1.00  0.00     0.282 C 
ATOM      9  C   UNL     1     -28.610  25.149 -16.960  1.00  0.00     0.041 C 
ATOM     10  C   UNL     1     -29.585  25.074 -15.767  1.00  0.00     0.150 C 
ATOM     11  C   UNL     1     -29.027  25.906 -14.523  1.00  0.00     0.174 C 
ATOM     12  O   UNL     1     -30.868  25.525 -16.155  1.00  0.00    -0.344 OA
ATOM     13  C   UNL     1     -30.157  26.632 -13.794  1.00  0.00     0.179 C 
ATOM     14  C   UNL     1     -30.804  27.613 -14.816  1.00  0.00     0.202 C 
BRANCH  11  15
ATOM     15  O   UNL     1     -28.378  25.032 -13.613  1.00  0.00    -0.388 OA
ATOM     16  H   UNL     1     -28.653  24.089 -13.858  1.00  0.00     0.211 HD
ENDBRANCH  11  15
BRANCH  13  17
ATOM     17  O   UNL     1     -31.103  25.736 -13.286  1.00  0.00    -0.387 OA
ATOM     18  H   UNL     1     -31.752  26.284 -12.783  1.00  0.00     0.211 HD
ENDBRANCH  13  17
BRANCH  14  19
ATOM     19  O   UNL     1     -31.948  28.193 -14.300  1.00  0.00    -0.385 OA
ATOM     20  H   UNL     1     -32.497  27.465 -13.898  1.00  0.00     0.211 HD
ENDBRANCH  14  19
ENDBRANCH   7   8
ENDBRANCH   1   7
BRANCH   2  21
ATOM     21  O   UNL     1     -31.936  30.141 -14.823  1.00  0.00    -0.387 OA
ATOM     22  H   UNL     1     -31.469  29.654 -14.059  1.00  0.00     0.211 HD
ENDBRANCH   2  21
BRANCH   6  23
ATOM     23  O   UNL     1     -34.539  29.735 -17.897  1.00  0.00    -0.462 OA
BRANCH  23  24
ATOM     24  C   UNL     1     -35.575  29.172 -18.684  1.00  0.00     0.130 A 
ATOM     25  C   UNL     1     -35.304  28.103 -19.538  1.00  0.00     0.093 A 
ATOM     26  C   UNL     1     -36.882  29.682 -18.623  1.00  0.00     0.094 A 
ATOM     27  C   UNL     1     -36.296  27.716 -20.466  1.00  0.00     0.133 A 
ATOM     28  C   UNL     1     -37.769  29.419 -19.671  1.00  0.00     0.138 A 
ATOM     29  C   UNL     1     -37.323  28.634 -20.736  1.00  0.00     0.102 A 
ATOM     30  O   UNL     1     -39.126  29.886 -19.647  1.00  0.00    -0.484 OA
ATOM     31  C   UNL     1     -38.028  28.757 -22.027  1.00  0.00     0.174 C 
ATOM     32  C   UNL     1     -39.967  29.544 -20.785  1.00  0.00     0.211 C 
ATOM     33  O   UNL     1     -37.733  28.028 -23.000  1.00  0.00    -0.294 OA
ATOM     34  C   UNL     1     -39.108  29.821 -22.099  1.00  0.00     0.131 C 
BRANCH  27  35
ATOM     35  O   UNL     1     -36.510  26.351 -20.718  1.00  0.00    -0.507 OA
ATOM     36  H   UNL     1     -37.309  25.874 -20.295  1.00  0.00     0.293 HD
ENDBRANCH  27  35
BRANCH  32  37
ATOM     37  C   UNL     1     -41.386  30.157 -20.687  1.00  0.00    -0.007 A 
ATOM     38  C   UNL     1     -42.468  29.561 -21.360  1.00  0.00     0.011 A 
ATOM     39  C   UNL     1     -41.458  31.517 -20.356  1.00  0.00     0.011 A 
ATOM     40  C   UNL     1     -43.544  30.342 -21.824  1.00  0.00     0.046 A 
ATOM     41  C   UNL     1     -42.480  32.280 -20.886  1.00  0.00     0.046 A 
ATOM     42  C   UNL     1     -43.487  31.714 -21.712  1.00  0.00     0.115 A 
BRANCH  42  43
ATOM     43  O   UNL     1     -44.385  32.526 -22.387  1.00  0.00    -0.508 OA
ATOM     44  H   UNL     1     -44.334  33.554 -22.306  1.00  0.00     0.293 HD
ENDBRANCH  42  43
ENDBRANCH  32  37
ENDBRANCH  23  24
ENDBRANCH   6  23
BRANCH   3  45
ATOM     45  O   UNL     1     -29.715  30.529 -17.669  1.00  0.00    -0.387 OA
ATOM     46  H   UNL     1     -29.091  31.305 -17.597  1.00  0.00     0.211 HD
ENDBRANCH   3  45
BRANCH   4  47
ATOM     47  C   UNL     1     -31.517  32.738 -18.466  1.00  0.00     0.191 C 
BRANCH  47  48
ATOM     48  O   UNL     1     -32.188  33.860 -17.918  1.00  0.00    -0.394 OA
ATOM     49  H   UNL     1     -31.528  34.612 -17.982  1.00  0.00     0.210 HD
ENDBRANCH  47  48
ENDBRANCH   4  47
TORSDOF 14
ENDMDL
