MODEL 1
REMARK VINA RESULT:     7.121      0.000      0.000
REMARK INTER + INTRA:          14.547
REMARK INTER:                  15.447
REMARK INTRA:                  -0.900
REMARK UNBOUND:                -0.900
REMARK SMILES CCCCCCCCCCCCCCCCCCCCCC(=O)[O-]
REMARK SMILES IDX 12 1 11 2 10 3 9 4 8 5 7 6 6 7 5 8 4 9 3 10 2 11 1 12 13 13
REMARK SMILES IDX 14 14 15 15 16 16 17 17 18 18 19 19 20 20 21 21 22 22 23 23
REMARK SMILES IDX 24 24
REMARK H PARENT
REMARK Flexibility Score: inf
ROOT
ATOM      1  C   UNL     1      12.618  17.776  -5.783  1.00  0.00     0.000 C 
ENDROOT
BRANCH   1   2
ATOM      2  C   UNL     1      13.854  17.629  -6.680  1.00  0.00     0.000 C 
BRANCH   2   3
ATOM      3  C   UNL     1      13.819  16.303  -7.452  1.00  0.00     0.000 C 
BRANCH   3   4
ATOM      4  C   UNL     1      15.208  15.858  -7.944  1.00  0.00    -0.000 C 
BRANCH   4   5
ATOM      5  C   UNL     1      15.513  16.181  -9.420  1.00  0.00    -0.000 C 
BRANCH   5   6
ATOM      6  C   UNL     1      16.886  16.832  -9.678  1.00  0.00    -0.000 C 
BRANCH   6   7
ATOM      7  C   UNL     1      17.148  17.248 -11.140  1.00  0.00    -0.000 C 
BRANCH   7   8
ATOM      8  C   UNL     1      18.273  18.281 -11.330  1.00  0.00    -0.000 C 
BRANCH   8   9
ATOM      9  C   UNL     1      17.799  19.741 -11.448  1.00  0.00    -0.000 C 
BRANCH   9  10
ATOM     10  C   UNL     1      18.195  20.418 -12.777  1.00  0.00    -0.000 C 
BRANCH  10  11
ATOM     11  C   UNL     1      19.229  21.537 -12.581  1.00  0.00    -0.003 C 
ATOM     12  C   UNL     1      20.646  20.974 -12.521  1.00  0.00     0.004 C 
ENDBRANCH  10  11
ENDBRANCH   9  10
ENDBRANCH   8   9
ENDBRANCH   7   8
ENDBRANCH   6   7
ENDBRANCH   5   6
ENDBRANCH   4   5
ENDBRANCH   3   4
ENDBRANCH   2   3
ENDBRANCH   1   2
BRANCH   1  13
ATOM     13  C   UNL     1      11.802  16.476  -5.752  1.00  0.00     0.000 C 
BRANCH  13  14
ATOM     14  C   UNL     1      11.708  15.856  -4.346  1.00  0.00     0.000 C 
BRANCH  14  15
ATOM     15  C   UNL     1      10.810  14.610  -4.238  1.00  0.00     0.000 C 
BRANCH  15  16
ATOM     16  C   UNL     1      11.057  13.803  -2.952  1.00  0.00     0.000 C 
BRANCH  16  17
ATOM     17  C   UNL     1      10.634  14.561  -1.683  1.00  0.00     0.000 C 
BRANCH  17  18
ATOM     18  C   UNL     1      10.368  13.639  -0.473  1.00  0.00     0.000 C 
BRANCH  18  19
ATOM     19  C   UNL     1      11.592  13.535   0.453  1.00  0.00     0.000 C 
BRANCH  19  20
ATOM     20  C   UNL     1      11.464  14.415   1.707  1.00  0.00     0.006 C 
BRANCH  20  21
ATOM     21  C   UNL     1      10.056  15.001   1.876  1.00  0.00     0.053 C 
BRANCH  21  22
ATOM     22  C   UNL     1      10.078  16.483   1.667  1.00  0.00     0.041 C 
ATOM     23  O   UNL     1       9.041  17.168   1.870  1.00  0.00    -0.550 OA
ATOM     24  O   UNL     1      11.257  17.114   1.290  1.00  0.00    -0.550 OA
ENDBRANCH  21  22
ENDBRANCH  20  21
ENDBRANCH  19  20
ENDBRANCH  18  19
ENDBRANCH  17  18
ENDBRANCH  16  17
ENDBRANCH  15  16
ENDBRANCH  14  15
ENDBRANCH  13  14
ENDBRANCH   1  13
TORSDOF 20
ENDMDL
MODEL 2
REMARK VINA RESULT:     7.469      1.338      2.478
REMARK INTER + INTRA:          15.302
REMARK INTER:                  16.258
REMARK INTRA:                  -0.956
REMARK UNBOUND:                -0.900
REMARK SMILES CCCCCCCCCCCCCCCCCCCCCC(=O)[O-]
REMARK SMILES IDX 12 1 11 2 10 3 9 4 8 5 7 6 6 7 5 8 4 9 3 10 2 11 1 12 13 13
REMARK SMILES IDX 14 14 15 15 16 16 17 17 18 18 19 19 20 20 21 21 22 22 23 23
REMARK SMILES IDX 24 24
REMARK H PARENT
REMARK Flexibility Score: inf
ROOT
ATOM      1  C   UNL     1      13.840  16.180  -7.787  1.00  0.00     0.000 C 
ENDROOT
BRANCH   1   2
ATOM      2  C   UNL     1      15.035  15.972  -8.725  1.00  0.00     0.000 C 
BRANCH   2   3
ATOM      3  C   UNL     1      14.600  15.281 -10.025  1.00  0.00     0.000 C 
BRANCH   3   4
ATOM      4  C   UNL     1      15.310  15.843 -11.270  1.00  0.00    -0.000 C 
BRANCH   4   5
ATOM      5  C   UNL     1      15.601  14.811 -12.378  1.00  0.00    -0.000 C 
BRANCH   5   6
ATOM      6  C   UNL     1      16.579  15.283 -13.472  1.00  0.00    -0.000 C 
BRANCH   6   7
ATOM      7  C   UNL     1      17.893  15.902 -12.950  1.00  0.00    -0.000 C 
BRANCH   7   8
ATOM      8  C   UNL     1      17.947  17.440 -12.991  1.00  0.00    -0.000 C 
BRANCH   8   9
ATOM      9  C   UNL     1      18.369  18.109 -11.670  1.00  0.00    -0.000 C 
BRANCH   9  10
ATOM     10  C   UNL     1      17.912  19.578 -11.543  1.00  0.00    -0.000 C 
BRANCH  10  11
ATOM     11  C   UNL     1      18.378  20.441 -12.724  1.00  0.00    -0.003 C 
ATOM     12  C   UNL     1      19.775  21.004 -12.478  1.00  0.00     0.004 C 
ENDBRANCH  10  11
ENDBRANCH   9  10
ENDBRANCH   8   9
ENDBRANCH   7   8
ENDBRANCH   6   7
ENDBRANCH   5   6
ENDBRANCH   4   5
ENDBRANCH   3   4
ENDBRANCH   2   3
ENDBRANCH   1   2
BRANCH   1  13
ATOM     13  C   UNL     1      14.063  17.392  -6.872  1.00  0.00     0.000 C 
BRANCH  13  14
ATOM     14  C   UNL     1      12.808  17.778  -6.067  1.00  0.00     0.000 C 
BRANCH  14  15
ATOM     15  C   UNL     1      11.803  16.635  -5.832  1.00  0.00     0.000 C 
BRANCH  15  16
ATOM     16  C   UNL     1      12.003  15.930  -4.480  1.00  0.00     0.000 C 
BRANCH  16  17
ATOM     17  C   UNL     1      10.847  14.978  -4.130  1.00  0.00     0.000 C 
BRANCH  17  18
ATOM     18  C   UNL     1      11.139  14.074  -2.913  1.00  0.00     0.000 C 
BRANCH  18  19
ATOM     19  C   UNL     1      10.317  14.481  -1.679  1.00  0.00     0.000 C 
BRANCH  19  20
ATOM     20  C   UNL     1      10.524  13.534  -0.487  1.00  0.00     0.006 C 
BRANCH  20  21
ATOM     21  C   UNL     1      11.186  14.228   0.711  1.00  0.00     0.053 C 
BRANCH  21  22
ATOM     22  C   UNL     1      10.303  15.316   1.236  1.00  0.00     0.041 C 
ATOM     23  O   UNL     1       9.154  15.045   1.674  1.00  0.00    -0.550 OA
ATOM     24  O   UNL     1      10.766  16.625   1.283  1.00  0.00    -0.550 OA
ENDBRANCH  21  22
ENDBRANCH  20  21
ENDBRANCH  19  20
ENDBRANCH  18  19
ENDBRANCH  17  18
ENDBRANCH  16  17
ENDBRANCH  15  16
ENDBRANCH  14  15
ENDBRANCH  13  14
ENDBRANCH   1  13
TORSDOF 20
ENDMDL
MODEL 3
REMARK VINA RESULT:     7.682      1.198      1.968
REMARK INTER + INTRA:          15.764
REMARK INTER:                  16.836
REMARK INTRA:                  -1.072
REMARK UNBOUND:                -0.900
REMARK SMILES CCCCCCCCCCCCCCCCCCCCCC(=O)[O-]
REMARK SMILES IDX 12 1 11 2 10 3 9 4 8 5 7 6 6 7 5 8 4 9 3 10 2 11 1 12 13 13
REMARK SMILES IDX 14 14 15 15 16 16 17 17 18 18 19 19 20 20 21 21 22 22 23 23
REMARK SMILES IDX 24 24
REMARK H PARENT
REMARK Flexibility Score: inf
ROOT
ATOM      1  C   UNL     1      13.301  16.572  -7.374  1.00  0.00     0.000 C 
ENDROOT
BRANCH   1   2
ATOM      2  C   UNL     1      14.715  16.453  -7.955  1.00  0.00     0.000 C 
BRANCH   2   3
ATOM      3  C   UNL     1      14.759  15.422  -9.092  1.00  0.00     0.000 C 
BRANCH   3   4
ATOM      4  C   UNL     1      15.278  16.011 -10.416  1.00  0.00    -0.000 C 
BRANCH   4   5
ATOM      5  C   UNL     1      15.379  15.007 -11.582  1.00  0.00    -0.000 C 
BRANCH   5   6
ATOM      6  C   UNL     1      15.894  15.597 -12.909  1.00  0.00    -0.000 C 
BRANCH   6   7
ATOM      7  C   UNL     1      17.424  15.780 -12.992  1.00  0.00    -0.000 C 
BRANCH   7   8
ATOM      8  C   UNL     1      17.901  17.243 -13.047  1.00  0.00    -0.000 C 
BRANCH   8   9
ATOM      9  C   UNL     1      18.304  17.845 -11.689  1.00  0.00    -0.000 C 
BRANCH   9  10
ATOM     10  C   UNL     1      17.889  19.322 -11.516  1.00  0.00    -0.000 C 
BRANCH  10  11
ATOM     11  C   UNL     1      18.343  20.200 -12.691  1.00  0.00    -0.003 C 
ATOM     12  C   UNL     1      19.692  20.852 -12.405  1.00  0.00     0.004 C 
ENDBRANCH  10  11
ENDBRANCH   9  10
ENDBRANCH   8   9
ENDBRANCH   7   8
ENDBRANCH   6   7
ENDBRANCH   5   6
ENDBRANCH   4   5
ENDBRANCH   3   4
ENDBRANCH   2   3
ENDBRANCH   1   2
BRANCH   1  13
ATOM     13  C   UNL     1      13.297  17.435  -6.104  1.00  0.00     0.000 C 
BRANCH  13  14
ATOM     14  C   UNL     1      12.314  16.928  -5.033  1.00  0.00     0.000 C 
BRANCH  14  15
ATOM     15  C   UNL     1      11.283  15.897  -5.527  1.00  0.00     0.000 C 
BRANCH  15  16
ATOM     16  C   UNL     1      11.189  14.660  -4.617  1.00  0.00     0.000 C 
BRANCH  16  17
ATOM     17  C   UNL     1      10.592  14.982  -3.236  1.00  0.00     0.000 C 
BRANCH  17  18
ATOM     18  C   UNL     1      10.987  13.966  -2.142  1.00  0.00     0.000 C 
BRANCH  18  19
ATOM     19  C   UNL     1      10.182  14.171  -0.847  1.00  0.00     0.000 C 
BRANCH  19  20
ATOM     20  C   UNL     1      11.071  14.205   0.406  1.00  0.00     0.006 C 
BRANCH  20  21
ATOM     21  C   UNL     1      10.386  14.887   1.598  1.00  0.00     0.053 C 
BRANCH  21  22
ATOM     22  C   UNL     1      10.465  16.375   1.464  1.00  0.00     0.041 C 
ATOM     23  O   UNL     1      11.585  16.950   1.434  1.00  0.00    -0.550 OA
ATOM     24  O   UNL     1       9.302  17.124   1.328  1.00  0.00    -0.550 OA
ENDBRANCH  21  22
ENDBRANCH  20  21
ENDBRANCH  19  20
ENDBRANCH  18  19
ENDBRANCH  17  18
ENDBRANCH  16  17
ENDBRANCH  15  16
ENDBRANCH  14  15
ENDBRANCH  13  14
ENDBRANCH   1  13
TORSDOF 20
ENDMDL
MODEL 4
REMARK VINA RESULT:     7.894      5.608     12.529
REMARK INTER + INTRA:          16.224
REMARK INTER:                  17.299
REMARK INTRA:                  -1.075
REMARK UNBOUND:                -0.900
REMARK SMILES CCCCCCCCCCCCCCCCCCCCCC(=O)[O-]
REMARK SMILES IDX 12 1 11 2 10 3 9 4 8 5 7 6 6 7 5 8 4 9 3 10 2 11 1 12 13 13
REMARK SMILES IDX 14 14 15 15 16 16 17 17 18 18 19 19 20 20 21 21 22 22 23 23
REMARK SMILES IDX 24 24
REMARK H PARENT
REMARK Flexibility Score: inf
ROOT
ATOM      1  C   UNL     1      11.686  17.019  -5.964  1.00  0.00     0.000 C 
ENDROOT
BRANCH   1   2
ATOM      2  C   UNL     1      11.979  15.890  -4.969  1.00  0.00     0.000 C 
BRANCH   2   3
ATOM      3  C   UNL     1      10.678  15.253  -4.460  1.00  0.00     0.000 C 
BRANCH   3   4
ATOM      4  C   UNL     1      10.919  14.159  -3.403  1.00  0.00    -0.000 C 
BRANCH   4   5
ATOM      5  C   UNL     1      10.942  14.656  -1.944  1.00  0.00    -0.000 C 
BRANCH   5   6
ATOM      6  C   UNL     1      10.720  13.564  -0.878  1.00  0.00    -0.000 C 
BRANCH   6   7
ATOM      7  C   UNL     1      11.979  13.166  -0.080  1.00  0.00    -0.000 C 
BRANCH   7   8
ATOM      8  C   UNL     1      11.832  13.253   1.450  1.00  0.00    -0.000 C 
BRANCH   8   9
ATOM      9  C   UNL     1      11.081  14.497   1.959  1.00  0.00    -0.000 C 
BRANCH   9  10
ATOM     10  C   UNL     1      11.961  15.763   2.045  1.00  0.00    -0.000 C 
BRANCH  10  11
ATOM     11  C   UNL     1      11.199  17.036   1.649  1.00  0.00    -0.003 C 
ATOM     12  C   UNL     1       9.740  16.728   1.326  1.00  0.00     0.004 C 
ENDBRANCH  10  11
ENDBRANCH   9  10
ENDBRANCH   8   9
ENDBRANCH   7   8
ENDBRANCH   6   7
ENDBRANCH   5   6
ENDBRANCH   4   5
ENDBRANCH   3   4
ENDBRANCH   2   3
ENDBRANCH   1   2
BRANCH   1  13
ATOM     13  C   UNL     1      12.862  18.003  -6.044  1.00  0.00     0.000 C 
BRANCH  13  14
ATOM     14  C   UNL     1      14.089  17.418  -6.768  1.00  0.00     0.000 C 
BRANCH  14  15
ATOM     15  C   UNL     1      13.774  16.358  -7.839  1.00  0.00     0.000 C 
BRANCH  15  16
ATOM     16  C   UNL     1      15.028  15.622  -8.341  1.00  0.00     0.000 C 
BRANCH  16  17
ATOM     17  C   UNL     1      15.542  16.170  -9.683  1.00  0.00     0.000 C 
BRANCH  17  18
ATOM     18  C   UNL     1      15.118  15.320 -10.900  1.00  0.00     0.000 C 
BRANCH  18  19
ATOM     19  C   UNL     1      15.687  15.875 -12.217  1.00  0.00     0.000 C 
BRANCH  19  20
ATOM     20  C   UNL     1      16.277  14.778 -13.118  1.00  0.00     0.006 C 
BRANCH  20  21
ATOM     21  C   UNL     1      17.650  15.159 -13.689  1.00  0.00     0.053 C 
BRANCH  21  22
ATOM     22  C   UNL     1      18.718  14.292 -13.101  1.00  0.00     0.041 C 
ATOM     23  O   UNL     1      19.703  14.811 -12.511  1.00  0.00    -0.550 OA
ATOM     24  O   UNL     1      18.606  12.908 -13.166  1.00  0.00    -0.550 OA
ENDBRANCH  21  22
ENDBRANCH  20  21
ENDBRANCH  19  20
ENDBRANCH  18  19
ENDBRANCH  17  18
ENDBRANCH  16  17
ENDBRANCH  15  16
ENDBRANCH  14  15
ENDBRANCH  13  14
ENDBRANCH   1  13
TORSDOF 20
ENDMDL
MODEL 5
REMARK VINA RESULT:     7.971      5.042     12.614
REMARK INTER + INTRA:          16.391
REMARK INTER:                  17.432
REMARK INTRA:                  -1.041
REMARK UNBOUND:                -0.900
REMARK SMILES CCCCCCCCCCCCCCCCCCCCCC(=O)[O-]
REMARK SMILES IDX 12 1 11 2 10 3 9 4 8 5 7 6 6 7 5 8 4 9 3 10 2 11 1 12 13 13
REMARK SMILES IDX 14 14 15 15 16 16 17 17 18 18 19 19 20 20 21 21 22 22 23 23
REMARK SMILES IDX 24 24
REMARK H PARENT
REMARK Flexibility Score: inf
ROOT
ATOM      1  C   UNL     1      13.828  17.571  -6.897  1.00  0.00     0.000 C 
ENDROOT
BRANCH   1   2
ATOM      2  C   UNL     1      12.736  17.722  -5.831  1.00  0.00     0.000 C 
BRANCH   2   3
ATOM      3  C   UNL     1      11.869  16.457  -5.749  1.00  0.00     0.000 C 
BRANCH   3   4
ATOM      4  C   UNL     1      11.765  15.893  -4.320  1.00  0.00    -0.000 C 
BRANCH   4   5
ATOM      5  C   UNL     1      10.742  14.753  -4.142  1.00  0.00    -0.000 C 
BRANCH   5   6
ATOM      6  C   UNL     1      11.117  13.699  -3.081  1.00  0.00    -0.000 C 
BRANCH   6   7
ATOM      7  C   UNL     1      11.138  14.216  -1.627  1.00  0.00    -0.000 C 
BRANCH   7   8
ATOM      8  C   UNL     1       9.791  14.133  -0.888  1.00  0.00    -0.000 C 
BRANCH   8   9
ATOM      9  C   UNL     1       9.813  14.653   0.561  1.00  0.00    -0.000 C 
BRANCH   9  10
ATOM     10  C   UNL     1      11.135  15.348   0.952  1.00  0.00    -0.000 C 
BRANCH  10  11
ATOM     11  C   UNL     1      11.853  14.637   2.107  1.00  0.00    -0.003 C 
ATOM     12  C   UNL     1      12.333  13.250   1.688  1.00  0.00     0.004 C 
ENDBRANCH  10  11
ENDBRANCH   9  10
ENDBRANCH   8   9
ENDBRANCH   7   8
ENDBRANCH   6   7
ENDBRANCH   5   6
ENDBRANCH   4   5
ENDBRANCH   3   4
ENDBRANCH   2   3
ENDBRANCH   1   2
BRANCH   1  13
ATOM     13  C   UNL     1      13.706  16.225  -7.625  1.00  0.00     0.000 C 
BRANCH  13  14
ATOM     14  C   UNL     1      14.925  15.905  -8.509  1.00  0.00     0.000 C 
BRANCH  14  15
ATOM     15  C   UNL     1      14.595  15.448  -9.941  1.00  0.00     0.000 C 
BRANCH  15  16
ATOM     16  C   UNL     1      15.634  15.914 -10.975  1.00  0.00     0.000 C 
BRANCH  16  17
ATOM     17  C   UNL     1      15.489  15.199 -12.329  1.00  0.00     0.000 C 
BRANCH  17  18
ATOM     18  C   UNL     1      16.665  15.461 -13.294  1.00  0.00     0.000 C 
BRANCH  18  19
ATOM     19  C   UNL     1      17.796  16.259 -12.622  1.00  0.00     0.000 C 
BRANCH  19  20
ATOM     20  C   UNL     1      17.882  17.708 -13.127  1.00  0.00     0.006 C 
BRANCH  20  21
ATOM     21  C   UNL     1      18.274  18.696 -12.019  1.00  0.00     0.053 C 
BRANCH  21  22
ATOM     22  C   UNL     1      18.517  20.056 -12.596  1.00  0.00     0.041 C 
ATOM     23  O   UNL     1      19.634  20.618 -12.444  1.00  0.00    -0.550 OA
ATOM     24  O   UNL     1      17.524  20.685 -13.337  1.00  0.00    -0.550 OA
ENDBRANCH  21  22
ENDBRANCH  20  21
ENDBRANCH  19  20
ENDBRANCH  18  19
ENDBRANCH  17  18
ENDBRANCH  16  17
ENDBRANCH  15  16
ENDBRANCH  14  15
ENDBRANCH  13  14
ENDBRANCH   1  13
TORSDOF 20
ENDMDL
MODEL 6
REMARK VINA RESULT:     8.089      5.080     12.769
REMARK INTER + INTRA:          16.646
REMARK INTER:                  17.529
REMARK INTRA:                  -0.883
REMARK UNBOUND:                -0.900
REMARK SMILES CCCCCCCCCCCCCCCCCCCCCC(=O)[O-]
REMARK SMILES IDX 12 1 11 2 10 3 9 4 8 5 7 6 6 7 5 8 4 9 3 10 2 11 1 12 13 13
REMARK SMILES IDX 14 14 15 15 16 16 17 17 18 18 19 19 20 20 21 21 22 22 23 23
REMARK SMILES IDX 24 24
REMARK H PARENT
REMARK Flexibility Score: inf
ROOT
ATOM      1  C   UNL     1      12.489  17.827  -5.797  1.00  0.00     0.000 C 
ENDROOT
BRANCH   1   2
ATOM      2  C   UNL     1      11.514  16.644  -5.766  1.00  0.00     0.000 C 
BRANCH   2   3
ATOM      3  C   UNL     1      11.892  15.647  -4.662  1.00  0.00     0.000 C 
BRANCH   3   4
ATOM      4  C   UNL     1      10.780  14.623  -4.372  1.00  0.00    -0.000 C 
BRANCH   4   5
ATOM      5  C   UNL     1      10.981  13.785  -3.093  1.00  0.00    -0.000 C 
BRANCH   5   6
ATOM      6  C   UNL     1      10.395  14.404  -1.808  1.00  0.00    -0.000 C 
BRANCH   6   7
ATOM      7  C   UNL     1      10.429  13.487  -0.568  1.00  0.00    -0.000 C 
BRANCH   7   8
ATOM      8  C   UNL     1      11.721  13.569   0.265  1.00  0.00    -0.000 C 
BRANCH   8   9
ATOM      9  C   UNL     1      11.536  14.101   1.698  1.00  0.00    -0.000 C 
BRANCH   9  10
ATOM     10  C   UNL     1      10.223  14.888   1.904  1.00  0.00    -0.000 C 
BRANCH  10  11
ATOM     11  C   UNL     1      10.425  16.406   1.787  1.00  0.00    -0.003 C 
ATOM     12  C   UNL     1       9.137  17.159   2.108  1.00  0.00     0.004 C 
ENDBRANCH  10  11
ENDBRANCH   9  10
ENDBRANCH   8   9
ENDBRANCH   7   8
ENDBRANCH   6   7
ENDBRANCH   5   6
ENDBRANCH   4   5
ENDBRANCH   3   4
ENDBRANCH   2   3
ENDBRANCH   1   2
BRANCH   1  13
ATOM     13  C   UNL     1      13.847  17.406  -6.377  1.00  0.00     0.000 C 
BRANCH  13  14
ATOM     14  C   UNL     1      13.720  16.469  -7.592  1.00  0.00     0.000 C 
BRANCH  14  15
ATOM     15  C   UNL     1      15.044  15.867  -8.097  1.00  0.00     0.000 C 
BRANCH  15  16
ATOM     16  C   UNL     1      15.341  16.218  -9.565  1.00  0.00     0.000 C 
BRANCH  16  17
ATOM     17  C   UNL     1      16.731  16.848  -9.757  1.00  0.00     0.000 C 
BRANCH  17  18
ATOM     18  C   UNL     1      17.114  17.056 -11.238  1.00  0.00     0.000 C 
BRANCH  18  19
ATOM     19  C   UNL     1      18.350  17.959 -11.393  1.00  0.00     0.000 C 
BRANCH  19  20
ATOM     20  C   UNL     1      17.993  19.454 -11.435  1.00  0.00     0.006 C 
BRANCH  20  21
ATOM     21  C   UNL     1      18.360  20.111 -12.772  1.00  0.00     0.053 C 
BRANCH  21  22
ATOM     22  C   UNL     1      19.277  21.272 -12.548  1.00  0.00     0.041 C 
ATOM     23  O   UNL     1      18.846  22.451 -12.659  1.00  0.00    -0.550 OA
ATOM     24  O   UNL     1      20.598  21.055 -12.175  1.00  0.00    -0.550 OA
ENDBRANCH  21  22
ENDBRANCH  20  21
ENDBRANCH  19  20
ENDBRANCH  18  19
ENDBRANCH  17  18
ENDBRANCH  16  17
ENDBRANCH  15  16
ENDBRANCH  14  15
ENDBRANCH  13  14
ENDBRANCH   1  13
TORSDOF 20
ENDMDL
MODEL 7
REMARK VINA RESULT:     8.239      2.543      3.090
REMARK INTER + INTRA:          16.972
REMARK INTER:                  18.042
REMARK INTRA:                  -1.071
REMARK UNBOUND:                -0.900
REMARK SMILES CCCCCCCCCCCCCCCCCCCCCC(=O)[O-]
REMARK SMILES IDX 12 1 11 2 10 3 9 4 8 5 7 6 6 7 5 8 4 9 3 10 2 11 1 12 13 13
REMARK SMILES IDX 14 14 15 15 16 16 17 17 18 18 19 19 20 20 21 21 22 22 23 23
REMARK SMILES IDX 24 24
REMARK H PARENT
REMARK Flexibility Score: inf
ROOT
ATOM      1  C   UNL     1      12.658  17.333  -5.468  1.00  0.00     0.000 C 
ENDROOT
BRANCH   1   2
ATOM      2  C   UNL     1      13.772  17.591  -6.490  1.00  0.00     0.000 C 
BRANCH   2   3
ATOM      3  C   UNL     1      13.715  16.572  -7.637  1.00  0.00     0.000 C 
BRANCH   3   4
ATOM      4  C   UNL     1      15.069  15.888  -7.900  1.00  0.00    -0.000 C 
BRANCH   4   5
ATOM      5  C   UNL     1      15.489  15.820  -9.382  1.00  0.00    -0.000 C 
BRANCH   5   6
ATOM      6  C   UNL     1      14.353  15.481 -10.368  1.00  0.00    -0.000 C 
BRANCH   6   7
ATOM      7  C   UNL     1      14.751  14.536 -11.522  1.00  0.00    -0.000 C 
BRANCH   7   8
ATOM      8  C   UNL     1      15.354  15.233 -12.754  1.00  0.00    -0.000 C 
BRANCH   8   9
ATOM      9  C   UNL     1      16.598  14.545 -13.344  1.00  0.00    -0.000 C 
BRANCH   9  10
ATOM     10  C   UNL     1      17.865  15.428 -13.325  1.00  0.00    -0.000 C 
BRANCH  10  11
ATOM     11  C   UNL     1      19.157  14.600 -13.267  1.00  0.00    -0.003 C 
ATOM     12  C   UNL     1      18.854  13.104 -13.287  1.00  0.00     0.004 C 
ENDBRANCH  10  11
ENDBRANCH   9  10
ENDBRANCH   8   9
ENDBRANCH   7   8
ENDBRANCH   6   7
ENDBRANCH   5   6
ENDBRANCH   4   5
ENDBRANCH   3   4
ENDBRANCH   2   3
ENDBRANCH   1   2
BRANCH   1  13
ATOM     13  C   UNL     1      11.564  16.433  -6.062  1.00  0.00     0.000 C 
BRANCH  13  14
ATOM     14  C   UNL     1      10.692  15.758  -4.988  1.00  0.00     0.000 C 
BRANCH  14  15
ATOM     15  C   UNL     1      11.450  14.843  -4.008  1.00  0.00     0.000 C 
BRANCH  15  16
ATOM     16  C   UNL     1      10.988  15.012  -2.551  1.00  0.00     0.000 C 
BRANCH  16  17
ATOM     17  C   UNL     1      10.595  13.679  -1.893  1.00  0.00     0.000 C 
BRANCH  17  18
ATOM     18  C   UNL     1      10.328  13.795  -0.377  1.00  0.00     0.000 C 
BRANCH  18  19
ATOM     19  C   UNL     1      11.622  13.686   0.448  1.00  0.00     0.000 C 
BRANCH  19  20
ATOM     20  C   UNL     1      11.572  14.511   1.744  1.00  0.00     0.006 C 
BRANCH  20  21
ATOM     21  C   UNL     1      10.222  15.212   1.946  1.00  0.00     0.053 C 
BRANCH  21  22
ATOM     22  C   UNL     1      10.370  16.690   1.768  1.00  0.00     0.041 C 
ATOM     23  O   UNL     1      11.502  17.232   1.875  1.00  0.00    -0.550 OA
ATOM     24  O   UNL     1       9.264  17.465   1.442  1.00  0.00    -0.550 OA
ENDBRANCH  21  22
ENDBRANCH  20  21
ENDBRANCH  19  20
ENDBRANCH  18  19
ENDBRANCH  17  18
ENDBRANCH  16  17
ENDBRANCH  15  16
ENDBRANCH  14  15
ENDBRANCH  13  14
ENDBRANCH   1  13
TORSDOF 20
ENDMDL
