MODEL 1
REMARK VINA RESULT:    -3.721      0.000      0.000
REMARK INTER + INTRA:          -4.692
REMARK INTER:                  -4.591
REMARK INTRA:                  -0.102
REMARK UNBOUND:                -0.102
REMARK SMILES CCCCCC(=O)[O-]
REMARK SMILES IDX 4 1 5 2 6 3 7 4 8 5 3 6 2 7 1 8
REMARK H PARENT
REMARK Flexibility Score: inf
ROOT
ATOM      1  C   UNL     1       4.516   5.006   1.674  1.00  0.00     0.006 C 
ENDROOT
BRANCH   1   2
ATOM      2  C   UNL     1       4.556   6.446   1.147  1.00  0.00     0.053 C 
BRANCH   2   3
ATOM      3  C   UNL     1       3.285   7.161   1.487  1.00  0.00     0.041 C 
ATOM      4  O   UNL     1       2.893   8.125   0.778  1.00  0.00    -0.550 OA
ATOM      5  O   UNL     1       2.511   6.733   2.557  1.00  0.00    -0.550 OA
ENDBRANCH   2   3
ENDBRANCH   1   2
BRANCH   1   6
ATOM      6  C   UNL     1       5.554   4.099   0.995  1.00  0.00     0.000 C 
BRANCH   6   7
ATOM      7  C   UNL     1       6.903   4.801   0.782  1.00  0.00    -0.003 C 
ATOM      8  C   UNL     1       7.943   4.307   1.784  1.00  0.00     0.004 C 
ENDBRANCH   6   7
ENDBRANCH   1   6
TORSDOF 4
ENDMDL
MODEL 2
REMARK VINA RESULT:    -3.397      1.204      1.639
REMARK INTER + INTRA:          -4.293
REMARK INTER:                  -4.143
REMARK INTRA:                  -0.149
REMARK UNBOUND:                -0.102
REMARK SMILES CCCCCC(=O)[O-]
REMARK SMILES IDX 4 1 5 2 6 3 7 4 8 5 3 6 2 7 1 8
REMARK H PARENT
REMARK Flexibility Score: inf
ROOT
ATOM      1  C   UNL     1       4.446   6.168   1.235  1.00  0.00     0.006 C 
ENDROOT
BRANCH   1   2
ATOM      2  C   UNL     1       4.515   7.131   2.428  1.00  0.00     0.053 C 
BRANCH   2   3
ATOM      3  C   UNL     1       3.281   7.011   3.266  1.00  0.00     0.041 C 
ATOM      4  O   UNL     1       2.144   7.024   2.724  1.00  0.00    -0.550 OA
ATOM      5  O   UNL     1       3.386   6.836   4.639  1.00  0.00    -0.550 OA
ENDBRANCH   2   3
ENDBRANCH   1   2
BRANCH   1   6
ATOM      6  C   UNL     1       4.708   4.708   1.637  1.00  0.00     0.000 C 
BRANCH   6   7
ATOM      7  C   UNL     1       5.819   4.055   0.800  1.00  0.00    -0.003 C 
ATOM      8  C   UNL     1       7.198   4.381   1.368  1.00  0.00     0.004 C 
ENDBRANCH   6   7
ENDBRANCH   1   6
TORSDOF 4
ENDMDL
MODEL 3
REMARK VINA RESULT:    -3.372      2.783      4.409
REMARK INTER + INTRA:          -4.262
REMARK INTER:                  -4.154
REMARK INTRA:                  -0.108
REMARK UNBOUND:                -0.102
REMARK SMILES CCCCCC(=O)[O-]
REMARK SMILES IDX 4 1 5 2 6 3 7 4 8 5 3 6 2 7 1 8
REMARK H PARENT
REMARK Flexibility Score: inf
ROOT
ATOM      1  C   UNL     1       4.515   4.902   0.882  1.00  0.00     0.006 C 
ENDROOT
BRANCH   1   2
ATOM      2  C   UNL     1       5.925   4.337   1.101  1.00  0.00     0.053 C 
BRANCH   2   3
ATOM      3  C   UNL     1       6.930   5.128   0.324  1.00  0.00     0.041 C 
ATOM      4  O   UNL     1       8.125   4.737   0.252  1.00  0.00    -0.550 OA
ATOM      5  O   UNL     1       6.537   6.271  -0.360  1.00  0.00    -0.550 OA
ENDBRANCH   2   3
ENDBRANCH   1   2
BRANCH   1   6
ATOM      6  C   UNL     1       3.995   5.680   2.101  1.00  0.00     0.000 C 
BRANCH   6   7
ATOM      7  C   UNL     1       3.339   7.014   1.713  1.00  0.00    -0.003 C 
ATOM      8  C   UNL     1       2.554   7.601   2.883  1.00  0.00     0.004 C 
ENDBRANCH   6   7
ENDBRANCH   1   6
TORSDOF 4
ENDMDL
MODEL 4
REMARK VINA RESULT:    -3.309      2.827      4.376
REMARK INTER + INTRA:          -4.184
REMARK INTER:                  -4.092
REMARK INTRA:                  -0.093
REMARK UNBOUND:                -0.102
REMARK SMILES CCCCCC(=O)[O-]
REMARK SMILES IDX 4 1 5 2 6 3 7 4 8 5 3 6 2 7 1 8
REMARK H PARENT
REMARK Flexibility Score: inf
ROOT
ATOM      1  C   UNL     1       4.464   5.038   0.757  1.00  0.00     0.006 C 
ENDROOT
BRANCH   1   2
ATOM      2  C   UNL     1       5.652   4.099   1.006  1.00  0.00     0.053 C 
BRANCH   2   3
ATOM      3  C   UNL     1       6.944   4.828   0.807  1.00  0.00     0.041 C 
ATOM      4  O   UNL     1       7.111   5.552  -0.210  1.00  0.00    -0.550 OA
ATOM      5  O   UNL     1       7.944   4.747   1.766  1.00  0.00    -0.550 OA
ENDBRANCH   2   3
ENDBRANCH   1   2
BRANCH   1   6
ATOM      6  C   UNL     1       4.073   5.842   2.006  1.00  0.00     0.000 C 
BRANCH   6   7
ATOM      7  C   UNL     1       3.404   7.181   1.662  1.00  0.00    -0.003 C 
ATOM      8  C   UNL     1       2.483   7.641   2.789  1.00  0.00     0.004 C 
ENDBRANCH   6   7
ENDBRANCH   1   6
TORSDOF 4
ENDMDL
MODEL 5
REMARK VINA RESULT:    -2.989      1.401      2.045
REMARK INTER + INTRA:          -3.789
REMARK INTER:                  -3.578
REMARK INTRA:                  -0.211
REMARK UNBOUND:                -0.102
REMARK SMILES CCCCCC(=O)[O-]
REMARK SMILES IDX 4 1 5 2 6 3 7 4 8 5 3 6 2 7 1 8
REMARK H PARENT
REMARK Flexibility Score: inf
ROOT
ATOM      1  C   UNL     1       5.646   7.667   1.770  1.00  0.00     0.006 C 
ENDROOT
BRANCH   1   2
ATOM      2  C   UNL     1       4.514   7.012   0.966  1.00  0.00     0.053 C 
BRANCH   2   3
ATOM      3  C   UNL     1       3.587   6.273   1.879  1.00  0.00     0.041 C 
ATOM      4  O   UNL     1       3.814   5.071   2.174  1.00  0.00    -0.550 OA
ATOM      5  O   UNL     1       2.498   6.926   2.442  1.00  0.00    -0.550 OA
ENDBRANCH   2   3
ENDBRANCH   1   2
BRANCH   1   6
ATOM      6  C   UNL     1       6.854   6.736   1.956  1.00  0.00     0.000 C 
BRANCH   6   7
ATOM      7  C   UNL     1       7.051   5.779   0.771  1.00  0.00    -0.003 C 
ATOM      8  C   UNL     1       7.124   4.329   1.243  1.00  0.00     0.004 C 
ENDBRANCH   6   7
ENDBRANCH   1   6
TORSDOF 4
ENDMDL
MODEL 6
REMARK VINA RESULT:    -2.895      2.514      2.959
REMARK INTER + INTRA:          -3.674
REMARK INTER:                  -3.461
REMARK INTRA:                  -0.213
REMARK UNBOUND:                -0.102
REMARK SMILES CCCCCC(=O)[O-]
REMARK SMILES IDX 4 1 5 2 6 3 7 4 8 5 3 6 2 7 1 8
REMARK H PARENT
REMARK Flexibility Score: inf
ROOT
ATOM      1  C   UNL     1       5.191   6.691   1.713  1.00  0.00     0.006 C 
ENDROOT
BRANCH   1   2
ATOM      2  C   UNL     1       4.898   7.675   0.573  1.00  0.00     0.053 C 
BRANCH   2   3
ATOM      3  C   UNL     1       6.001   7.647  -0.437  1.00  0.00     0.041 C 
ATOM      4  O   UNL     1       5.732   7.630  -1.667  1.00  0.00    -0.550 OA
ATOM      5  O   UNL     1       7.325   7.688  -0.023  1.00  0.00    -0.550 OA
ENDBRANCH   2   3
ENDBRANCH   1   2
BRANCH   1   6
ATOM      6  C   UNL     1       4.410   5.375   1.574  1.00  0.00     0.000 C 
BRANCH   6   7
ATOM      7  C   UNL     1       5.193   4.302   0.801  1.00  0.00    -0.003 C 
ATOM      8  C   UNL     1       6.675   4.335   1.166  1.00  0.00     0.004 C 
ENDBRANCH   6   7
ENDBRANCH   1   6
TORSDOF 4
ENDMDL
MODEL 7
REMARK VINA RESULT:    -2.690      2.360      3.065
REMARK INTER + INTRA:          -3.421
REMARK INTER:                  -3.238
REMARK INTRA:                  -0.182
REMARK UNBOUND:                -0.102
REMARK SMILES CCCCCC(=O)[O-]
REMARK SMILES IDX 4 1 5 2 6 3 7 4 8 5 3 6 2 7 1 8
REMARK H PARENT
REMARK Flexibility Score: inf
ROOT
ATOM      1  C   UNL     1       7.030   4.522   1.313  1.00  0.00     0.006 C 
ENDROOT
BRANCH   1   2
ATOM      2  C   UNL     1       6.115   5.181   0.272  1.00  0.00     0.053 C 
BRANCH   2   3
ATOM      3  C   UNL     1       4.700   4.732   0.463  1.00  0.00     0.041 C 
ATOM      4  O   UNL     1       4.143   4.012  -0.407  1.00  0.00    -0.550 OA
ATOM      5  O   UNL     1       4.014   5.066   1.622  1.00  0.00    -0.550 OA
ENDBRANCH   2   3
ENDBRANCH   1   2
BRANCH   1   6
ATOM      6  C   UNL     1       7.790   5.549   2.167  1.00  0.00     0.000 C 
BRANCH   6   7
ATOM      7  C   UNL     1       7.488   6.998   1.756  1.00  0.00    -0.003 C 
ATOM      8  C   UNL     1       6.709   7.728   2.847  1.00  0.00     0.004 C 
ENDBRANCH   6   7
ENDBRANCH   1   6
TORSDOF 4
ENDMDL
MODEL 8
REMARK VINA RESULT:    -2.674      2.671      4.316
REMARK INTER + INTRA:          -3.400
REMARK INTER:                  -3.215
REMARK INTRA:                  -0.185
REMARK UNBOUND:                -0.102
REMARK SMILES CCCCCC(=O)[O-]
REMARK SMILES IDX 4 1 5 2 6 3 7 4 8 5 3 6 2 7 1 8
REMARK H PARENT
REMARK Flexibility Score: inf
ROOT
ATOM      1  C   UNL     1       5.068   7.540   1.168  1.00  0.00     0.006 C 
ENDROOT
BRANCH   1   2
ATOM      2  C   UNL     1       5.616   6.826  -0.076  1.00  0.00     0.053 C 
BRANCH   2   3
ATOM      3  C   UNL     1       6.224   5.512   0.303  1.00  0.00     0.041 C 
ATOM      4  O   UNL     1       5.550   4.666   0.948  1.00  0.00    -0.550 OA
ATOM      5  O   UNL     1       7.517   5.203  -0.096  1.00  0.00    -0.550 OA
ENDBRANCH   2   3
ENDBRANCH   1   2
BRANCH   1   6
ATOM      6  C   UNL     1       3.609   7.988   0.997  1.00  0.00     0.000 C 
BRANCH   6   7
ATOM      7  C   UNL     1       2.719   7.564   2.175  1.00  0.00    -0.003 C 
ATOM      8  C   UNL     1       3.430   6.544   3.060  1.00  0.00     0.004 C 
ENDBRANCH   6   7
ENDBRANCH   1   6
TORSDOF 4
ENDMDL
MODEL 9
REMARK VINA RESULT:    -2.486     21.036     21.824
REMARK INTER + INTRA:          -3.169
REMARK INTER:                  -3.064
REMARK INTRA:                  -0.106
REMARK UNBOUND:                -0.102
REMARK SMILES CCCCCC(=O)[O-]
REMARK SMILES IDX 4 1 5 2 6 3 7 4 8 5 3 6 2 7 1 8
REMARK H PARENT
REMARK Flexibility Score: inf
ROOT
ATOM      1  C   UNL     1      -9.618 -10.518  -4.331  1.00  0.00     0.006 C 
ENDROOT
BRANCH   1   2
ATOM      2  C   UNL     1     -10.106 -11.373  -3.154  1.00  0.00     0.053 C 
BRANCH   2   3
ATOM      3  C   UNL     1      -9.700 -10.752  -1.855  1.00  0.00     0.041 C 
ATOM      4  O   UNL     1     -10.085  -9.589  -1.562  1.00  0.00    -0.550 OA
ATOM      5  O   UNL     1      -8.937 -11.474  -0.947  1.00  0.00    -0.550 OA
ENDBRANCH   2   3
ENDBRANCH   1   2
BRANCH   1   6
ATOM      6  C   UNL     1      -8.099 -10.614  -4.542  1.00  0.00     0.000 C 
BRANCH   6   7
ATOM      7  C   UNL     1      -7.552  -9.482  -5.424  1.00  0.00    -0.003 C 
ATOM      8  C   UNL     1      -6.029  -9.413  -5.347  1.00  0.00     0.004 C 
ENDBRANCH   6   7
ENDBRANCH   1   6
TORSDOF 4
ENDMDL
