MODEL 1
REMARK VINA RESULT:    -4.204      0.000      0.000
REMARK INTER + INTRA:          -4.327
REMARK INTER:                  -4.327
REMARK INTRA:                   0.000
REMARK UNBOUND:                 0.000
REMARK SMILES Oc1ccc2[nH]ccc2c1
REMARK SMILES IDX 3 1 4 2 5 3 9 4 8 5 7 6 6 7 10 8 2 9 1 11
REMARK H PARENT 6 10 1 12
REMARK Flexibility Score: inf
ROOT
ATOM      1  C   UNL     1     107.766 136.058 198.235  1.00  0.00     0.048 A 
ATOM      2  C   UNL     1     109.019 135.894 198.852  1.00  0.00     0.030 A 
ATOM      3  C   UNL     1     109.867 136.998 198.909  1.00  0.00     0.046 A 
ATOM      4  C   UNL     1     109.506 138.209 198.384  1.00  0.00     0.003 A 
ATOM      5  C   UNL     1     110.552 139.080 198.600  1.00  0.00     0.028 A 
ATOM      6  C   UNL     1     111.519 138.329 199.262  1.00  0.00     0.083 A 
ATOM      7  N   UNL     1     111.096 137.058 199.449  1.00  0.00    -0.361 N 
ATOM      8  C   UNL     1     108.274 138.407 197.766  1.00  0.00     0.056 A 
ATOM      9  C   UNL     1     107.391 137.312 197.691  1.00  0.00     0.116 A 
ATOM     10  H   UNL     1     111.620 136.285 199.917  1.00  0.00     0.166 HD
ENDROOT
BRANCH   9  11
ATOM     11  O   UNL     1     106.150 137.475 197.080  1.00  0.00    -0.508 OA
ATOM     12  H   UNL     1     105.974 137.134 196.142  1.00  0.00     0.293 HD
ENDBRANCH   9  11
TORSDOF 1
ENDMDL
MODEL 2
REMARK VINA RESULT:    -3.938      1.155      2.626
REMARK INTER + INTRA:          -4.054
REMARK INTER:                  -4.054
REMARK INTRA:                   0.000
REMARK UNBOUND:                 0.000
REMARK SMILES Oc1ccc2[nH]ccc2c1
REMARK SMILES IDX 3 1 4 2 5 3 9 4 8 5 7 6 6 7 10 8 2 9 1 11
REMARK H PARENT 6 10 1 12
REMARK Flexibility Score: inf
ROOT
ATOM      1  C   UNL     1     108.719 138.466 197.542  1.00  0.00     0.048 A 
ATOM      2  C   UNL     1     109.756 137.773 198.192  1.00  0.00     0.030 A 
ATOM      3  C   UNL     1     109.443 136.561 198.806  1.00  0.00     0.046 A 
ATOM      4  C   UNL     1     108.173 136.050 198.784  1.00  0.00     0.003 A 
ATOM      5  C   UNL     1     108.197 134.856 199.470  1.00  0.00     0.028 A 
ATOM      6  C   UNL     1     109.517 134.701 199.883  1.00  0.00     0.083 A 
ATOM      7  N   UNL     1     110.275 135.744 199.474  1.00  0.00    -0.361 N 
ATOM      8  C   UNL     1     107.124 136.712 198.149  1.00  0.00     0.056 A 
ATOM      9  C   UNL     1     107.404 137.940 197.519  1.00  0.00     0.116 A 
ATOM     10  H   UNL     1     111.295 135.884 199.646  1.00  0.00     0.166 HD
ENDROOT
BRANCH   9  11
ATOM     11  O   UNL     1     106.378 138.627 196.875  1.00  0.00    -0.508 OA
ATOM     12  H   UNL     1     105.407 138.367 196.999  1.00  0.00     0.293 HD
ENDBRANCH   9  11
TORSDOF 1
ENDMDL
MODEL 3
REMARK VINA RESULT:    -3.786      2.794      3.529
REMARK INTER + INTRA:          -3.897
REMARK INTER:                  -3.897
REMARK INTRA:                   0.000
REMARK UNBOUND:                 0.000
REMARK SMILES Oc1ccc2[nH]ccc2c1
REMARK SMILES IDX 3 1 4 2 5 3 9 4 8 5 7 6 6 7 10 8 2 9 1 11
REMARK H PARENT 6 10 1 12
REMARK Flexibility Score: inf
ROOT
ATOM      1  C   UNL     1     108.277 134.951 199.710  1.00  0.00     0.048 A 
ATOM      2  C   UNL     1     107.166 135.568 199.107  1.00  0.00     0.030 A 
ATOM      3  C   UNL     1     107.393 136.704 198.332  1.00  0.00     0.046 A 
ATOM      4  C   UNL     1     108.651 137.214 198.156  1.00  0.00     0.003 A 
ATOM      5  C   UNL     1     108.536 138.324 197.348  1.00  0.00     0.028 A 
ATOM      6  C   UNL     1     107.177 138.432 197.070  1.00  0.00     0.083 A 
ATOM      7  N   UNL     1     106.483 137.439 197.673  1.00  0.00    -0.361 N 
ATOM      8  C   UNL     1     109.773 136.628 198.739  1.00  0.00     0.056 A 
ATOM      9  C   UNL     1     109.580 135.478 199.529  1.00  0.00     0.116 A 
ATOM     10  H   UNL     1     105.452 137.282 197.633  1.00  0.00     0.166 HD
ENDROOT
BRANCH   9  11
ATOM     11  O   UNL     1     110.679 134.867 200.127  1.00  0.00    -0.508 OA
ATOM     12  H   UNL     1     110.715 134.702 201.126  1.00  0.00     0.293 HD
ENDBRANCH   9  11
TORSDOF 1
ENDMDL
MODEL 4
REMARK VINA RESULT:    -3.750      2.299      3.554
REMARK INTER + INTRA:          -3.859
REMARK INTER:                  -3.859
REMARK INTRA:                   0.000
REMARK UNBOUND:                 0.000
REMARK SMILES Oc1ccc2[nH]ccc2c1
REMARK SMILES IDX 3 1 4 2 5 3 9 4 8 5 7 6 6 7 10 8 2 9 1 11
REMARK H PARENT 6 10 1 12
REMARK Flexibility Score: inf
ROOT
ATOM      1  C   UNL     1     108.110 138.339 197.407  1.00  0.00     0.048 A 
ATOM      2  C   UNL     1     107.115 137.526 197.980  1.00  0.00     0.030 A 
ATOM      3  C   UNL     1     107.525 136.405 198.699  1.00  0.00     0.046 A 
ATOM      4  C   UNL     1     108.849 136.093 198.851  1.00  0.00     0.003 A 
ATOM      5  C   UNL     1     108.917 134.941 199.604  1.00  0.00     0.028 A 
ATOM      6  C   UNL     1     107.593 134.606 199.876  1.00  0.00     0.083 A 
ATOM      7  N   UNL     1     106.747 135.504 199.321  1.00  0.00    -0.361 N 
ATOM      8  C   UNL     1     109.859 136.876 198.297  1.00  0.00     0.056 A 
ATOM      9  C   UNL     1     109.482 138.017 197.564  1.00  0.00     0.116 A 
ATOM     10  H   UNL     1     105.704 135.494 199.369  1.00  0.00     0.166 HD
ENDROOT
BRANCH   9  11
ATOM     11  O   UNL     1     110.466 138.823 196.996  1.00  0.00    -0.508 OA
ATOM     12  H   UNL     1     111.109 138.462 196.301  1.00  0.00     0.293 HD
ENDBRANCH   9  11
TORSDOF 1
ENDMDL
MODEL 5
REMARK VINA RESULT:    -3.566      2.509      3.607
REMARK INTER + INTRA:          -3.670
REMARK INTER:                  -3.670
REMARK INTRA:                   0.000
REMARK UNBOUND:                 0.000
REMARK SMILES Oc1ccc2[nH]ccc2c1
REMARK SMILES IDX 3 1 4 2 5 3 9 4 8 5 7 6 6 7 10 8 2 9 1 11
REMARK H PARENT 6 10 1 12
REMARK Flexibility Score: inf
ROOT
ATOM      1  C   UNL     1     111.257 137.041 199.392  1.00  0.00     0.048 A 
ATOM      2  C   UNL     1     110.181 136.180 199.105  1.00  0.00     0.030 A 
ATOM      3  C   UNL     1     109.037 136.736 198.536  1.00  0.00     0.046 A 
ATOM      4  C   UNL     1     108.948 138.074 198.260  1.00  0.00     0.003 A 
ATOM      5  C   UNL     1     107.705 138.299 197.709  1.00  0.00     0.028 A 
ATOM      6  C   UNL     1     107.089 137.051 197.680  1.00  0.00     0.083 A 
ATOM      7  N   UNL     1     107.907 136.100 198.185  1.00  0.00    -0.361 N 
ATOM      8  C   UNL     1     109.994 138.953 198.532  1.00  0.00     0.056 A 
ATOM      9  C   UNL     1     111.166 138.426 199.107  1.00  0.00     0.116 A 
ATOM     10  H   UNL     1     107.698 135.081 198.282  1.00  0.00     0.166 HD
ENDROOT
BRANCH   9  11
ATOM     11  O   UNL     1     112.231 139.277 199.392  1.00  0.00    -0.508 OA
ATOM     12  H   UNL     1     112.433 140.083 198.813  1.00  0.00     0.293 HD
ENDBRANCH   9  11
TORSDOF 1
ENDMDL
MODEL 6
REMARK VINA RESULT:    -3.562     17.237     17.977
REMARK INTER + INTRA:          -3.666
REMARK INTER:                  -3.666
REMARK INTRA:                   0.000
REMARK UNBOUND:                 0.000
REMARK SMILES Oc1ccc2[nH]ccc2c1
REMARK SMILES IDX 3 1 4 2 5 3 9 4 8 5 7 6 6 7 10 8 2 9 1 11
REMARK H PARENT 6 10 1 12
REMARK Flexibility Score: inf
ROOT
ATOM      1  C   UNL     1     111.857 137.895 216.628  1.00  0.00     0.048 A 
ATOM      2  C   UNL     1     110.678 138.604 216.923  1.00  0.00     0.030 A 
ATOM      3  C   UNL     1     109.484 138.137 216.378  1.00  0.00     0.046 A 
ATOM      4  C   UNL     1     109.444 137.026 215.580  1.00  0.00     0.003 A 
ATOM      5  C   UNL     1     108.131 136.833 215.209  1.00  0.00     0.028 A 
ATOM      6  C   UNL     1     107.425 137.866 215.819  1.00  0.00     0.083 A 
ATOM      7  N   UNL     1     108.256 138.659 216.533  1.00  0.00    -0.361 N 
ATOM      8  C   UNL     1     110.591 136.301 215.268  1.00  0.00     0.056 A 
ATOM      9  C   UNL     1     111.817 136.744 215.801  1.00  0.00     0.116 A 
ATOM     10  H   UNL     1     107.993 139.504 217.087  1.00  0.00     0.166 HD
ENDROOT
BRANCH   9  11
ATOM     11  O   UNL     1     112.984 136.043 215.510  1.00  0.00    -0.508 OA
ATOM     12  H   UNL     1     113.319 135.300 216.111  1.00  0.00     0.293 HD
ENDBRANCH   9  11
TORSDOF 1
ENDMDL
MODEL 7
REMARK VINA RESULT:    -3.544      1.567      2.222
REMARK INTER + INTRA:          -3.648
REMARK INTER:                  -3.648
REMARK INTRA:                   0.000
REMARK UNBOUND:                 0.000
REMARK SMILES Oc1ccc2[nH]ccc2c1
REMARK SMILES IDX 3 1 4 2 5 3 9 4 8 5 7 6 6 7 10 8 2 9 1 11
REMARK H PARENT 6 10 1 12
REMARK Flexibility Score: inf
ROOT
ATOM      1  C   UNL     1     107.043 137.363 197.857  1.00  0.00     0.048 A 
ATOM      2  C   UNL     1     107.944 138.266 197.263  1.00  0.00     0.030 A 
ATOM      3  C   UNL     1     109.295 138.140 197.579  1.00  0.00     0.046 A 
ATOM      4  C   UNL     1     109.745 137.175 198.438  1.00  0.00     0.003 A 
ATOM      5  C   UNL     1     111.112 137.317 198.538  1.00  0.00     0.028 A 
ATOM      6  C   UNL     1     111.427 138.391 197.711  1.00  0.00     0.083 A 
ATOM      7  N   UNL     1     110.314 138.890 197.127  1.00  0.00    -0.361 N 
ATOM      8  C   UNL     1     108.881 136.266 199.044  1.00  0.00     0.056 A 
ATOM      9  C   UNL     1     107.508 136.364 198.748  1.00  0.00     0.116 A 
ATOM     10  H   UNL     1     110.261 139.694 196.462  1.00  0.00     0.166 HD
ENDROOT
BRANCH   9  11
ATOM     11  O   UNL     1     106.615 135.471 199.336  1.00  0.00    -0.508 OA
ATOM     12  H   UNL     1     106.833 135.002 200.207  1.00  0.00     0.293 HD
ENDBRANCH   9  11
TORSDOF 1
ENDMDL
MODEL 8
REMARK VINA RESULT:    -3.505      2.622      4.068
REMARK INTER + INTRA:          -3.607
REMARK INTER:                  -3.607
REMARK INTRA:                   0.000
REMARK UNBOUND:                 0.000
REMARK SMILES Oc1ccc2[nH]ccc2c1
REMARK SMILES IDX 3 1 4 2 5 3 9 4 8 5 7 6 6 7 10 8 2 9 1 11
REMARK H PARENT 6 10 1 12
REMARK Flexibility Score: inf
ROOT
ATOM      1  C   UNL     1     111.205 138.399 199.127  1.00  0.00     0.048 A 
ATOM      2  C   UNL     1     110.044 138.951 198.556  1.00  0.00     0.030 A 
ATOM      3  C   UNL     1     108.976 138.095 198.294  1.00  0.00     0.046 A 
ATOM      4  C   UNL     1     109.041 136.757 198.577  1.00  0.00     0.003 A 
ATOM      5  C   UNL     1     107.839 136.199 198.204  1.00  0.00     0.028 A 
ATOM      6  C   UNL     1     107.087 137.256 197.700  1.00  0.00     0.083 A 
ATOM      7  N   UNL     1     107.786 138.413 197.758  1.00  0.00    -0.361 N 
ATOM      8  C   UNL     1     110.175 136.178 199.141  1.00  0.00     0.056 A 
ATOM      9  C   UNL     1     111.274 137.014 199.420  1.00  0.00     0.116 A 
ATOM     10  H   UNL     1     107.464 139.356 197.448  1.00  0.00     0.166 HD
ENDROOT
BRANCH   9  11
ATOM     11  O   UNL     1     112.424 136.467 199.984  1.00  0.00    -0.508 OA
ATOM     12  H   UNL     1     112.984 136.986 200.650  1.00  0.00     0.293 HD
ENDBRANCH   9  11
TORSDOF 1
ENDMDL
MODEL 9
REMARK VINA RESULT:    -3.495     12.834     13.586
REMARK INTER + INTRA:          -3.597
REMARK INTER:                  -3.597
REMARK INTRA:                   0.000
REMARK UNBOUND:                 0.000
REMARK SMILES Oc1ccc2[nH]ccc2c1
REMARK SMILES IDX 3 1 4 2 5 3 9 4 8 5 7 6 6 7 10 8 2 9 1 11
REMARK H PARENT 6 10 1 12
REMARK Flexibility Score: inf
ROOT
ATOM      1  C   UNL     1     112.184 136.111 211.845  1.00  0.00     0.048 A 
ATOM      2  C   UNL     1     113.091 135.076 212.135  1.00  0.00     0.030 A 
ATOM      3  C   UNL     1     114.264 135.008 211.386  1.00  0.00     0.046 A 
ATOM      4  C   UNL     1     114.538 135.914 210.396  1.00  0.00     0.003 A 
ATOM      5  C   UNL     1     115.758 135.576 209.855  1.00  0.00     0.028 A 
ATOM      6  C   UNL     1     116.172 134.452 210.564  1.00  0.00     0.083 A 
ATOM      7  N   UNL     1     115.256 134.110 211.499  1.00  0.00    -0.361 N 
ATOM      8  C   UNL     1     113.661 136.951 210.083  1.00  0.00     0.056 A 
ATOM      9  C   UNL     1     112.465 137.049 210.820  1.00  0.00     0.116 A 
ATOM     10  H   UNL     1     115.311 133.310 212.167  1.00  0.00     0.166 HD
ENDROOT
BRANCH   9  11
ATOM     11  O   UNL     1     111.567 138.073 210.534  1.00  0.00    -0.508 OA
ATOM     12  H   UNL     1     111.807 138.825 209.898  1.00  0.00     0.293 HD
ENDBRANCH   9  11
TORSDOF 1
ENDMDL
