MODEL 1
REMARK VINA RESULT:    -3.383      0.000      0.000
REMARK INTER + INTRA:          -3.679
REMARK INTER:                  -3.679
REMARK INTRA:                   0.000
REMARK UNBOUND:                 0.000
REMARK SMILES [NH3+]CC(=O)[O-]
REMARK SMILES IDX 2 1 1 2 3 6 4 7 5 8
REMARK H PARENT 1 3 1 4 1 5
REMARK Flexibility Score: inf
ROOT
ATOM      1  C   UNL     1     -32.615  47.431 -15.818  1.00  0.00     0.312 C 
ENDROOT
BRANCH   1   2
ATOM      2  N   UNL     1     -32.988  47.096 -14.445  1.00  0.00    -0.353 N 
ATOM      3  H   UNL     1     -33.804  46.442 -14.445  1.00  0.00     0.344 HD
ATOM      4  H   UNL     1     -32.179  46.627 -13.976  1.00  0.00     0.344 HD
ATOM      5  H   UNL     1     -33.230  47.965 -13.916  1.00  0.00     0.344 HD
ENDBRANCH   1   2
BRANCH   1   6
ATOM      6  C   UNL     1     -31.929  48.761 -15.870  1.00  0.00     0.096 C 
ATOM      7  O   UNL     1     -31.996  49.547 -14.888  1.00  0.00    -0.544 OA
ATOM      8  O   UNL     1     -31.173  49.110 -16.982  1.00  0.00    -0.544 OA
ENDBRANCH   1   6
TORSDOF 2
ENDMDL
MODEL 2
REMARK VINA RESULT:    -3.359     15.795     16.228
REMARK INTER + INTRA:          -3.653
REMARK INTER:                  -3.653
REMARK INTRA:                   0.000
REMARK UNBOUND:                 0.000
REMARK SMILES [NH3+]CC(=O)[O-]
REMARK SMILES IDX 2 1 1 2 3 6 4 7 5 8
REMARK H PARENT 1 3 1 4 1 5
REMARK Flexibility Score: inf
ROOT
ATOM      1  C   UNL     1     -20.251  54.274  -5.167  1.00  0.00     0.312 C 
ENDROOT
BRANCH   1   2
ATOM      2  N   UNL     1     -19.700  54.222  -6.520  1.00  0.00    -0.353 N 
ATOM      3  H   UNL     1     -18.733  54.621  -6.529  1.00  0.00     0.344 HD
ATOM      4  H   UNL     1     -19.657  53.225  -6.833  1.00  0.00     0.344 HD
ATOM      5  H   UNL     1     -20.310  54.758  -7.178  1.00  0.00     0.344 HD
ENDBRANCH   1   2
BRANCH   1   6
ATOM      6  C   UNL     1     -21.735  54.474  -5.209  1.00  0.00     0.096 C 
ATOM      7  O   UNL     1     -22.283  54.938  -6.243  1.00  0.00    -0.544 OA
ATOM      8  O   UNL     1     -22.517  54.100  -4.123  1.00  0.00    -0.544 OA
ENDBRANCH   1   6
TORSDOF 2
ENDMDL
MODEL 3
REMARK VINA RESULT:    -3.321      0.235      1.455
REMARK INTER + INTRA:          -3.613
REMARK INTER:                  -3.613
REMARK INTRA:                   0.000
REMARK UNBOUND:                 0.000
REMARK SMILES [NH3+]CC(=O)[O-]
REMARK SMILES IDX 2 1 1 2 3 6 4 7 5 8
REMARK H PARENT 1 3 1 4 1 5
REMARK Flexibility Score: inf
ROOT
ATOM      1  C   UNL     1     -32.645  47.267 -15.714  1.00  0.00     0.312 C 
ENDROOT
BRANCH   1   2
ATOM      2  N   UNL     1     -33.035  47.131 -14.311  1.00  0.00    -0.353 N 
ATOM      3  H   UNL     1     -32.794  46.174 -13.964  1.00  0.00     0.344 HD
ATOM      4  H   UNL     1     -32.515  47.838 -13.742  1.00  0.00     0.344 HD
ATOM      5  H   UNL     1     -34.061  47.298 -14.205  1.00  0.00     0.344 HD
ENDBRANCH   1   2
BRANCH   1   6
ATOM      6  C   UNL     1     -31.971  48.583 -15.949  1.00  0.00     0.096 C 
ATOM      7  O   UNL     1     -31.475  48.848 -17.076  1.00  0.00    -0.544 OA
ATOM      8  O   UNL     1     -31.936  49.536 -14.940  1.00  0.00    -0.544 OA
ENDBRANCH   1   6
TORSDOF 2
ENDMDL
MODEL 4
REMARK VINA RESULT:    -3.151      2.482      2.775
REMARK INTER + INTRA:          -3.427
REMARK INTER:                  -3.427
REMARK INTRA:                   0.000
REMARK UNBOUND:                 0.000
REMARK SMILES [NH3+]CC(=O)[O-]
REMARK SMILES IDX 2 1 1 2 3 6 4 7 5 8
REMARK H PARENT 1 3 1 4 1 5
REMARK Flexibility Score: inf
ROOT
ATOM      1  C   UNL     1     -31.633  49.084 -16.084  1.00  0.00     0.312 C 
ENDROOT
BRANCH   1   2
ATOM      2  N   UNL     1     -31.425  49.061 -17.531  1.00  0.00    -0.353 N 
ATOM      3  H   UNL     1     -32.114  48.416 -17.981  1.00  0.00     0.344 HD
ATOM      4  H   UNL     1     -31.565  50.025 -17.911  1.00  0.00     0.344 HD
ATOM      5  H   UNL     1     -30.452  48.748 -17.749  1.00  0.00     0.344 HD
ENDBRANCH   1   2
BRANCH   1   6
ATOM      6  C   UNL     1     -32.759  48.174 -15.698  1.00  0.00     0.096 C 
ATOM      7  O   UNL     1     -32.539  46.956 -15.471  1.00  0.00    -0.544 OA
ATOM      8  O   UNL     1     -34.041  48.684 -15.541  1.00  0.00    -0.544 OA
ENDBRANCH   1   6
TORSDOF 2
ENDMDL
MODEL 5
REMARK VINA RESULT:    -3.058     16.138     16.511
REMARK INTER + INTRA:          -3.326
REMARK INTER:                  -3.326
REMARK INTRA:                   0.000
REMARK UNBOUND:                 0.000
REMARK SMILES [NH3+]CC(=O)[O-]
REMARK SMILES IDX 2 1 1 2 3 6 4 7 5 8
REMARK H PARENT 1 3 1 4 1 5
REMARK Flexibility Score: inf
ROOT
ATOM      1  C   UNL     1     -21.095  53.997  -3.762  1.00  0.00     0.312 C 
ENDROOT
BRANCH   1   2
ATOM      2  N   UNL     1     -22.439  54.341  -3.300  1.00  0.00    -0.353 N 
ATOM      3  H   UNL     1     -22.615  53.913  -2.361  1.00  0.00     0.344 HD
ATOM      4  H   UNL     1     -22.516  55.380  -3.218  1.00  0.00     0.344 HD
ATOM      5  H   UNL     1     -23.153  54.000  -3.983  1.00  0.00     0.344 HD
ENDBRANCH   1   2
BRANCH   1   6
ATOM      6  C   UNL     1     -20.942  54.309  -5.219  1.00  0.00     0.096 C 
ATOM      7  O   UNL     1     -19.895  53.973  -5.832  1.00  0.00    -0.544 OA
ATOM      8  O   UNL     1     -21.977  54.925  -5.910  1.00  0.00    -0.544 OA
ENDBRANCH   1   6
TORSDOF 2
ENDMDL
MODEL 6
REMARK VINA RESULT:    -3.005     16.321     16.736
REMARK INTER + INTRA:          -3.268
REMARK INTER:                  -3.268
REMARK INTRA:                   0.000
REMARK UNBOUND:                 0.000
REMARK SMILES [NH3+]CC(=O)[O-]
REMARK SMILES IDX 2 1 1 2 3 6 4 7 5 8
REMARK H PARENT 1 3 1 4 1 5
REMARK Flexibility Score: inf
ROOT
ATOM      1  C   UNL     1     -31.547  37.267  -1.888  1.00  0.00     0.312 C 
ENDROOT
BRANCH   1   2
ATOM      2  N   UNL     1     -31.329  38.214  -0.796  1.00  0.00    -0.353 N 
ATOM      3  H   UNL     1     -31.217  37.698   0.108  1.00  0.00     0.344 HD
ATOM      4  H   UNL     1     -30.457  38.759  -0.985  1.00  0.00     0.344 HD
ATOM      5  H   UNL     1     -32.136  38.876  -0.727  1.00  0.00     0.344 HD
ENDBRANCH   1   2
BRANCH   1   6
ATOM      6  C   UNL     1     -31.106  37.856  -3.193  1.00  0.00     0.096 C 
ATOM      7  O   UNL     1     -29.974  37.572  -3.666  1.00  0.00    -0.544 OA
ATOM      8  O   UNL     1     -31.965  38.678  -3.910  1.00  0.00    -0.544 OA
ENDBRANCH   1   6
TORSDOF 2
ENDMDL
MODEL 7
REMARK VINA RESULT:    -2.938      2.196      2.232
REMARK INTER + INTRA:          -3.196
REMARK INTER:                  -3.196
REMARK INTRA:                   0.000
REMARK UNBOUND:                 0.000
REMARK SMILES [NH3+]CC(=O)[O-]
REMARK SMILES IDX 2 1 1 2 3 6 4 7 5 8
REMARK H PARENT 1 3 1 4 1 5
REMARK Flexibility Score: inf
ROOT
ATOM      1  C   UNL     1     -33.753  48.797 -15.764  1.00  0.00     0.312 C 
ENDROOT
BRANCH   1   2
ATOM      2  N   UNL     1     -34.125  49.141 -17.136  1.00  0.00    -0.353 N 
ATOM      3  H   UNL     1     -35.146  48.970 -17.283  1.00  0.00     0.344 HD
ATOM      4  H   UNL     1     -33.925  50.155 -17.299  1.00  0.00     0.344 HD
ATOM      5  H   UNL     1     -33.569  48.572 -17.813  1.00  0.00     0.344 HD
ENDBRANCH   1   2
BRANCH   1   6
ATOM      6  C   UNL     1     -32.530  47.932 -15.750  1.00  0.00     0.096 C 
ATOM      7  O   UNL     1     -32.445  46.969 -14.944  1.00  0.00    -0.544 OA
ATOM      8  O   UNL     1     -31.507  48.160 -16.662  1.00  0.00    -0.544 OA
ENDBRANCH   1   6
TORSDOF 2
ENDMDL
MODEL 8
REMARK VINA RESULT:    -2.937      1.587      2.027
REMARK INTER + INTRA:          -3.194
REMARK INTER:                  -3.194
REMARK INTRA:                   0.000
REMARK UNBOUND:                 0.000
REMARK SMILES [NH3+]CC(=O)[O-]
REMARK SMILES IDX 2 1 1 2 3 6 4 7 5 8
REMARK H PARENT 1 3 1 4 1 5
REMARK Flexibility Score: inf
ROOT
ATOM      1  C   UNL     1     -32.264  49.483 -14.883  1.00  0.00     0.312 C 
ENDROOT
BRANCH   1   2
ATOM      2  N   UNL     1     -33.668  49.258 -14.543  1.00  0.00    -0.353 N 
ATOM      3  H   UNL     1     -34.094  48.576 -15.212  1.00  0.00     0.344 HD
ATOM      4  H   UNL     1     -33.726  48.863 -13.576  1.00  0.00     0.344 HD
ATOM      5  H   UNL     1     -34.195  50.160 -14.574  1.00  0.00     0.344 HD
ENDBRANCH   1   2
BRANCH   1   6
ATOM      6  C   UNL     1     -31.878  48.680 -16.087  1.00  0.00     0.096 C 
ATOM      7  O   UNL     1     -31.134  49.181 -16.970  1.00  0.00    -0.544 OA
ATOM      8  O   UNL     1     -32.297  47.361 -16.207  1.00  0.00    -0.544 OA
ENDBRANCH   1   6
TORSDOF 2
ENDMDL
MODEL 9
REMARK VINA RESULT:    -2.913     16.606     17.037
REMARK INTER + INTRA:          -3.169
REMARK INTER:                  -3.169
REMARK INTRA:                   0.000
REMARK UNBOUND:                 0.000
REMARK SMILES [NH3+]CC(=O)[O-]
REMARK SMILES IDX 2 1 1 2 3 6 4 7 5 8
REMARK H PARENT 1 3 1 4 1 5
REMARK Flexibility Score: inf
ROOT
ATOM      1  C   UNL     1     -30.789  37.991  -3.580  1.00  0.00     0.312 C 
ENDROOT
BRANCH   1   2
ATOM      2  N   UNL     1     -29.501  37.419  -3.968  1.00  0.00    -0.353 N 
ATOM      3  H   UNL     1     -29.276  37.680  -4.955  1.00  0.00     0.344 HD
ATOM      4  H   UNL     1     -28.756  37.798  -3.340  1.00  0.00     0.344 HD
ATOM      5  H   UNL     1     -29.527  36.378  -3.874  1.00  0.00     0.344 HD
ENDBRANCH   1   2
BRANCH   1   6
ATOM      6  C   UNL     1     -31.631  36.971  -2.879  1.00  0.00     0.096 C 
ATOM      7  O   UNL     1     -31.403  36.681  -1.675  1.00  0.00    -0.544 OA
ATOM      8  O   UNL     1     -32.699  36.378  -3.539  1.00  0.00    -0.544 OA
ENDBRANCH   1   6
TORSDOF 2
ENDMDL
