MODEL 1
REMARK VINA RESULT:    -4.500      0.000      0.000
REMARK INTER + INTRA:         -10.667
REMARK INTER:                  -8.709
REMARK INTRA:                  -1.958
REMARK UNBOUND:                -1.958
REMARK SMILES CCCCCCCCCCCCCCCCCC(=O)[O-]
REMARK SMILES IDX 10 1 11 2 12 3 13 4 14 5 15 6 16 7 17 8 18 9 19 10 20 11
REMARK SMILES IDX 9 12 8 13 7 14 6 15 5 16 4 17 3 18 2 19 1 20
REMARK H PARENT
REMARK Flexibility Score: inf
ROOT
ATOM      1  C   UNL     1      44.923   8.134  18.331  1.00  0.00     0.000 C 
ENDROOT
BRANCH   1   2
ATOM      2  C   UNL     1      45.905   8.490  19.466  1.00  0.00     0.000 C 
BRANCH   2   3
ATOM      3  C   UNL     1      46.730   7.308  20.015  1.00  0.00     0.000 C 
BRANCH   3   4
ATOM      4  C   UNL     1      46.988   7.345  21.531  1.00  0.00     0.000 C 
BRANCH   4   5
ATOM      5  C   UNL     1      46.696   8.718  22.153  1.00  0.00     0.000 C 
BRANCH   5   6
ATOM      6  C   UNL     1      45.796   8.583  23.386  1.00  0.00     0.000 C 
BRANCH   6   7
ATOM      7  C   UNL     1      44.315   8.734  23.007  1.00  0.00     0.006 C 
BRANCH   7   8
ATOM      8  C   UNL     1      43.661   9.943  23.690  1.00  0.00     0.053 C 
BRANCH   8   9
ATOM      9  C   UNL     1      42.983   9.560  24.969  1.00  0.00     0.041 C 
ATOM     10  O   UNL     1      43.663   9.180  25.958  1.00  0.00    -0.550 OA
ATOM     11  O   UNL     1      41.596   9.591  25.059  1.00  0.00    -0.550 OA
ENDBRANCH   8   9
ENDBRANCH   7   8
ENDBRANCH   6   7
ENDBRANCH   5   6
ENDBRANCH   4   5
ENDBRANCH   3   4
ENDBRANCH   2   3
ENDBRANCH   1   2
BRANCH   1  12
ATOM     12  C   UNL     1      44.485   9.318  17.451  1.00  0.00     0.000 C 
BRANCH  12  13
ATOM     13  C   UNL     1      45.659  10.228  17.049  1.00  0.00    -0.000 C 
BRANCH  13  14
ATOM     14  C   UNL     1      46.593   9.567  16.022  1.00  0.00    -0.000 C 
BRANCH  14  15
ATOM     15  C   UNL     1      46.030   9.620  14.592  1.00  0.00    -0.000 C 
BRANCH  15  16
ATOM     16  C   UNL     1      46.038   8.247  13.902  1.00  0.00    -0.000 C 
BRANCH  16  17
ATOM     17  C   UNL     1      44.789   7.413  14.222  1.00  0.00    -0.000 C 
BRANCH  17  18
ATOM     18  C   UNL     1      45.136   6.233  15.137  1.00  0.00    -0.000 C 
BRANCH  18  19
ATOM     19  C   UNL     1      46.642   5.948  15.120  1.00  0.00    -0.003 C 
ATOM     20  C   UNL     1      47.212   5.911  16.536  1.00  0.00     0.004 C 
ENDBRANCH  18  19
ENDBRANCH  17  18
ENDBRANCH  16  17
ENDBRANCH  15  16
ENDBRANCH  14  15
ENDBRANCH  13  14
ENDBRANCH  12  13
ENDBRANCH   1  12
TORSDOF 16
ENDMDL
MODEL 2
REMARK VINA RESULT:    -4.491      1.226      3.030
REMARK INTER + INTRA:         -10.650
REMARK INTER:                  -8.604
REMARK INTRA:                  -2.046
REMARK UNBOUND:                -1.958
REMARK SMILES CCCCCCCCCCCCCCCCCC(=O)[O-]
REMARK SMILES IDX 10 1 11 2 12 3 13 4 14 5 15 6 16 7 17 8 18 9 19 10 20 11
REMARK SMILES IDX 9 12 8 13 7 14 6 15 5 16 4 17 3 18 2 19 1 20
REMARK H PARENT
REMARK Flexibility Score: inf
ROOT
ATOM      1  C   UNL     1      47.277   6.787  16.764  1.00  0.00     0.000 C 
ENDROOT
BRANCH   1   2
ATOM      2  C   UNL     1      46.524   6.477  18.075  1.00  0.00     0.000 C 
BRANCH   2   3
ATOM      3  C   UNL     1      46.528   7.614  19.118  1.00  0.00     0.000 C 
BRANCH   3   4
ATOM      4  C   UNL     1      46.813   7.169  20.562  1.00  0.00     0.000 C 
BRANCH   4   5
ATOM      5  C   UNL     1      46.300   8.170  21.607  1.00  0.00     0.000 C 
BRANCH   5   6
ATOM      6  C   UNL     1      44.791   8.395  21.459  1.00  0.00     0.000 C 
BRANCH   6   7
ATOM      7  C   UNL     1      44.152   8.752  22.809  1.00  0.00     0.006 C 
BRANCH   7   8
ATOM      8  C   UNL     1      45.201   9.040  23.891  1.00  0.00     0.053 C 
BRANCH   8   9
ATOM      9  C   UNL     1      44.571   9.274  25.230  1.00  0.00     0.041 C 
ATOM     10  O   UNL     1      44.981   8.648  26.242  1.00  0.00    -0.550 OA
ATOM     11  O   UNL     1      43.507  10.161  25.353  1.00  0.00    -0.550 OA
ENDBRANCH   8   9
ENDBRANCH   7   8
ENDBRANCH   6   7
ENDBRANCH   5   6
ENDBRANCH   4   5
ENDBRANCH   3   4
ENDBRANCH   2   3
ENDBRANCH   1   2
BRANCH   1  12
ATOM     12  C   UNL     1      47.205   5.684  15.694  1.00  0.00     0.000 C 
BRANCH  12  13
ATOM     13  C   UNL     1      46.395   6.107  14.456  1.00  0.00    -0.000 C 
BRANCH  13  14
ATOM     14  C   UNL     1      44.988   5.487  14.431  1.00  0.00    -0.000 C 
BRANCH  14  15
ATOM     15  C   UNL     1      43.971   6.298  15.251  1.00  0.00    -0.000 C 
BRANCH  15  16
ATOM     16  C   UNL     1      44.140   7.814  15.070  1.00  0.00    -0.000 C 
BRANCH  16  17
ATOM     17  C   UNL     1      44.059   8.584  16.397  1.00  0.00    -0.000 C 
BRANCH  17  18
ATOM     18  C   UNL     1      45.067   9.738  16.424  1.00  0.00    -0.000 C 
BRANCH  18  19
ATOM     19  C   UNL     1      45.880   9.791  15.125  1.00  0.00    -0.003 C 
ATOM     20  C   UNL     1      47.264  10.387  15.364  1.00  0.00     0.004 C 
ENDBRANCH  18  19
ENDBRANCH  17  18
ENDBRANCH  16  17
ENDBRANCH  15  16
ENDBRANCH  14  15
ENDBRANCH  13  14
ENDBRANCH  12  13
ENDBRANCH   1  12
TORSDOF 16
ENDMDL
MODEL 3
REMARK VINA RESULT:    -4.324      4.174      8.689
REMARK INTER + INTRA:         -10.327
REMARK INTER:                  -8.811
REMARK INTRA:                  -1.516
REMARK UNBOUND:                -1.958
REMARK SMILES CCCCCCCCCCCCCCCCCC(=O)[O-]
REMARK SMILES IDX 10 1 11 2 12 3 13 4 14 5 15 6 16 7 17 8 18 9 19 10 20 11
REMARK SMILES IDX 9 12 8 13 7 14 6 15 5 16 4 17 3 18 2 19 1 20
REMARK H PARENT
REMARK Flexibility Score: inf
ROOT
ATOM      1  C   UNL     1      46.771   6.830  20.630  1.00  0.00     0.000 C 
ENDROOT
BRANCH   1   2
ATOM      2  C   UNL     1      46.349   7.889  19.591  1.00  0.00     0.000 C 
BRANCH   2   3
ATOM      3  C   UNL     1      46.394   7.421  18.122  1.00  0.00     0.000 C 
BRANCH   3   4
ATOM      4  C   UNL     1      46.359   8.551  17.079  1.00  0.00     0.000 C 
BRANCH   4   5
ATOM      5  C   UNL     1      45.517   8.198  15.845  1.00  0.00     0.000 C 
BRANCH   5   6
ATOM      6  C   UNL     1      44.687   6.932  16.089  1.00  0.00     0.000 C 
BRANCH   6   7
ATOM      7  C   UNL     1      44.702   6.017  14.856  1.00  0.00     0.006 C 
BRANCH   7   8
ATOM      8  C   UNL     1      46.050   6.052  14.123  1.00  0.00     0.053 C 
BRANCH   8   9
ATOM      9  C   UNL     1      46.997   5.017  14.651  1.00  0.00     0.041 C 
ATOM     10  O   UNL     1      46.955   3.838  14.212  1.00  0.00    -0.550 OA
ATOM     11  O   UNL     1      47.904   5.348  15.650  1.00  0.00    -0.550 OA
ENDBRANCH   8   9
ENDBRANCH   7   8
ENDBRANCH   6   7
ENDBRANCH   5   6
ENDBRANCH   4   5
ENDBRANCH   3   4
ENDBRANCH   2   3
ENDBRANCH   1   2
BRANCH   1  12
ATOM     12  C   UNL     1      47.610   7.365  21.804  1.00  0.00     0.000 C 
BRANCH  12  13
ATOM     13  C   UNL     1      46.760   8.092  22.861  1.00  0.00    -0.000 C 
BRANCH  13  14
ATOM     14  C   UNL     1      46.687   9.609  22.618  1.00  0.00    -0.000 C 
BRANCH  14  15
ATOM     15  C   UNL     1      45.252  10.096  22.360  1.00  0.00    -0.000 C 
BRANCH  15  16
ATOM     16  C   UNL     1      44.193   9.055  22.756  1.00  0.00    -0.000 C 
BRANCH  16  17
ATOM     17  C   UNL     1      43.458   9.418  24.055  1.00  0.00    -0.000 C 
BRANCH  17  18
ATOM     18  C   UNL     1      44.034  10.697  24.673  1.00  0.00    -0.000 C 
BRANCH  18  19
ATOM     19  C   UNL     1      44.918  10.374  25.882  1.00  0.00    -0.003 C 
ATOM     20  C   UNL     1      44.798   8.904  26.276  1.00  0.00     0.004 C 
ENDBRANCH  18  19
ENDBRANCH  17  18
ENDBRANCH  16  17
ENDBRANCH  15  16
ENDBRANCH  14  15
ENDBRANCH  13  14
ENDBRANCH  12  13
ENDBRANCH   1  12
TORSDOF 16
ENDMDL
MODEL 4
REMARK VINA RESULT:    -4.304      1.614      2.621
REMARK INTER + INTRA:         -10.288
REMARK INTER:                  -8.130
REMARK INTRA:                  -2.158
REMARK UNBOUND:                -1.958
REMARK SMILES CCCCCCCCCCCCCCCCCC(=O)[O-]
REMARK SMILES IDX 10 1 11 2 12 3 13 4 14 5 15 6 16 7 17 8 18 9 19 10 20 11
REMARK SMILES IDX 9 12 8 13 7 14 6 15 5 16 4 17 3 18 2 19 1 20
REMARK H PARENT
REMARK Flexibility Score: inf
ROOT
ATOM      1  C   UNL     1      44.544   8.507  20.380  1.00  0.00     0.000 C 
ENDROOT
BRANCH   1   2
ATOM      2  C   UNL     1      46.010   8.332  19.933  1.00  0.00     0.000 C 
BRANCH   2   3
ATOM      3  C   UNL     1      46.686   7.025  20.398  1.00  0.00     0.000 C 
BRANCH   3   4
ATOM      4  C   UNL     1      47.759   7.201  21.487  1.00  0.00     0.000 C 
BRANCH   4   5
ATOM      5  C   UNL     1      47.171   7.619  22.842  1.00  0.00     0.000 C 
BRANCH   5   6
ATOM      6  C   UNL     1      47.475   9.091  23.142  1.00  0.00     0.000 C 
BRANCH   6   7
ATOM      7  C   UNL     1      46.215   9.827  23.624  1.00  0.00     0.006 C 
BRANCH   7   8
ATOM      8  C   UNL     1      45.119   8.859  24.090  1.00  0.00     0.053 C 
BRANCH   8   9
ATOM      9  C   UNL     1      44.238   9.476  25.132  1.00  0.00     0.041 C 
ATOM     10  O   UNL     1      42.986   9.447  25.001  1.00  0.00    -0.550 OA
ATOM     11  O   UNL     1      44.800  10.114  26.232  1.00  0.00    -0.550 OA
ENDBRANCH   8   9
ENDBRANCH   7   8
ENDBRANCH   6   7
ENDBRANCH   5   6
ENDBRANCH   4   5
ENDBRANCH   3   4
ENDBRANCH   2   3
ENDBRANCH   1   2
BRANCH   1  12
ATOM     12  C   UNL     1      44.112   9.961  20.643  1.00  0.00     0.000 C 
BRANCH  12  13
ATOM     13  C   UNL     1      44.317  10.874  19.421  1.00  0.00    -0.000 C 
BRANCH  13  14
ATOM     14  C   UNL     1      43.062  10.968  18.538  1.00  0.00    -0.000 C 
BRANCH  14  15
ATOM     15  C   UNL     1      43.194  10.160  17.237  1.00  0.00    -0.000 C 
BRANCH  15  16
ATOM     16  C   UNL     1      44.657   9.862  16.872  1.00  0.00    -0.000 C 
BRANCH  16  17
ATOM     17  C   UNL     1      44.797   8.703  15.874  1.00  0.00    -0.000 C 
BRANCH  17  18
ATOM     18  C   UNL     1      44.462   7.363  16.538  1.00  0.00    -0.000 C 
BRANCH  18  19
ATOM     19  C   UNL     1      44.128   6.296  15.489  1.00  0.00    -0.003 C 
ATOM     20  C   UNL     1      43.422   6.911  14.283  1.00  0.00     0.004 C 
ENDBRANCH  18  19
ENDBRANCH  17  18
ENDBRANCH  16  17
ENDBRANCH  15  16
ENDBRANCH  14  15
ENDBRANCH  13  14
ENDBRANCH  12  13
ENDBRANCH   1  12
TORSDOF 16
ENDMDL
MODEL 5
REMARK VINA RESULT:    -4.293      3.801      8.415
REMARK INTER + INTRA:         -10.266
REMARK INTER:                  -8.708
REMARK INTRA:                  -1.558
REMARK UNBOUND:                -1.958
REMARK SMILES CCCCCCCCCCCCCCCCCC(=O)[O-]
REMARK SMILES IDX 10 1 11 2 12 3 13 4 14 5 15 6 16 7 17 8 18 9 19 10 20 11
REMARK SMILES IDX 9 12 8 13 7 14 6 15 5 16 4 17 3 18 2 19 1 20
REMARK H PARENT
REMARK Flexibility Score: inf
ROOT
ATOM      1  C   UNL     1      46.766   6.791  21.140  1.00  0.00     0.000 C 
ENDROOT
BRANCH   1   2
ATOM      2  C   UNL     1      46.760   7.384  19.716  1.00  0.00     0.000 C 
BRANCH   2   3
ATOM      3  C   UNL     1      45.473   8.140  19.327  1.00  0.00     0.000 C 
BRANCH   3   4
ATOM      4  C   UNL     1      45.692   9.572  18.809  1.00  0.00     0.000 C 
BRANCH   4   5
ATOM      5  C   UNL     1      45.904   9.632  17.290  1.00  0.00     0.000 C 
BRANCH   5   6
ATOM      6  C   UNL     1      44.613   9.277  16.541  1.00  0.00     0.000 C 
BRANCH   6   7
ATOM      7  C   UNL     1      44.882   8.240  15.440  1.00  0.00     0.006 C 
BRANCH   7   8
ATOM      8  C   UNL     1      45.101   6.832  16.010  1.00  0.00     0.053 C 
BRANCH   8   9
ATOM      9  C   UNL     1      46.447   6.286  15.641  1.00  0.00     0.041 C 
ATOM     10  O   UNL     1      47.263   5.955  16.540  1.00  0.00    -0.550 OA
ATOM     11  O   UNL     1      46.811   6.174  14.305  1.00  0.00    -0.550 OA
ENDBRANCH   8   9
ENDBRANCH   7   8
ENDBRANCH   6   7
ENDBRANCH   5   6
ENDBRANCH   4   5
ENDBRANCH   3   4
ENDBRANCH   2   3
ENDBRANCH   1   2
BRANCH   1  12
ATOM     12  C   UNL     1      47.639   7.546  22.158  1.00  0.00     0.000 C 
BRANCH  12  13
ATOM     13  C   UNL     1      47.042   8.905  22.562  1.00  0.00    -0.000 C 
BRANCH  13  14
ATOM     14  C   UNL     1      46.066   8.793  23.745  1.00  0.00    -0.000 C 
BRANCH  14  15
ATOM     15  C   UNL     1      44.597   8.736  23.293  1.00  0.00    -0.000 C 
BRANCH  15  16
ATOM     16  C   UNL     1      44.042  10.116  22.911  1.00  0.00    -0.000 C 
BRANCH  16  17
ATOM     17  C   UNL     1      43.189  10.744  24.023  1.00  0.00    -0.000 C 
BRANCH  17  18
ATOM     18  C   UNL     1      42.691   9.676  25.002  1.00  0.00    -0.000 C 
BRANCH  18  19
ATOM     19  C   UNL     1      41.165   9.727  25.143  1.00  0.00    -0.003 C 
ATOM     20  C   UNL     1      40.627  11.117  24.811  1.00  0.00     0.004 C 
ENDBRANCH  18  19
ENDBRANCH  17  18
ENDBRANCH  16  17
ENDBRANCH  15  16
ENDBRANCH  14  15
ENDBRANCH  13  14
ENDBRANCH  12  13
ENDBRANCH   1  12
TORSDOF 16
ENDMDL
MODEL 6
REMARK VINA RESULT:    -4.268      2.473      3.282
REMARK INTER + INTRA:         -10.217
REMARK INTER:                  -8.123
REMARK INTRA:                  -2.094
REMARK UNBOUND:                -1.958
REMARK SMILES CCCCCCCCCCCCCCCCCC(=O)[O-]
REMARK SMILES IDX 10 1 11 2 12 3 13 4 14 5 15 6 16 7 17 8 18 9 19 10 20 11
REMARK SMILES IDX 9 12 8 13 7 14 6 15 5 16 4 17 3 18 2 19 1 20
REMARK H PARENT
REMARK Flexibility Score: inf
ROOT
ATOM      1  C   UNL     1      45.997   9.533  18.391  1.00  0.00     0.000 C 
ENDROOT
BRANCH   1   2
ATOM      2  C   UNL     1      44.500   9.193  18.543  1.00  0.00     0.000 C 
BRANCH   2   3
ATOM      3  C   UNL     1      43.753   9.991  19.631  1.00  0.00     0.000 C 
BRANCH   3   4
ATOM      4  C   UNL     1      44.636  10.504  20.782  1.00  0.00     0.000 C 
BRANCH   4   5
ATOM      5  C   UNL     1      44.159  10.022  22.159  1.00  0.00     0.000 C 
BRANCH   5   6
ATOM      6  C   UNL     1      44.575   8.568  22.408  1.00  0.00     0.000 C 
BRANCH   6   7
ATOM      7  C   UNL     1      45.766   8.494  23.377  1.00  0.00     0.006 C 
BRANCH   7   8
ATOM      8  C   UNL     1      47.113   8.616  22.652  1.00  0.00     0.053 C 
BRANCH   8   9
ATOM      9  C   UNL     1      47.496   7.337  21.972  1.00  0.00     0.041 C 
ATOM     10  O   UNL     1      48.203   6.487  22.574  1.00  0.00    -0.550 OA
ATOM     11  O   UNL     1      47.099   7.099  20.661  1.00  0.00    -0.550 OA
ENDBRANCH   8   9
ENDBRANCH   7   8
ENDBRANCH   6   7
ENDBRANCH   5   6
ENDBRANCH   4   5
ENDBRANCH   3   4
ENDBRANCH   2   3
ENDBRANCH   1   2
BRANCH   1  12
ATOM     12  C   UNL     1      46.355  10.357  17.141  1.00  0.00     0.000 C 
BRANCH  12  13
ATOM     13  C   UNL     1      45.380  10.123  15.974  1.00  0.00    -0.000 C 
BRANCH  13  14
ATOM     14  C   UNL     1      46.100   9.716  14.677  1.00  0.00    -0.000 C 
BRANCH  14  15
ATOM     15  C   UNL     1      45.564   8.397  14.095  1.00  0.00    -0.000 C 
BRANCH  15  16
ATOM     16  C   UNL     1      44.483   7.756  14.979  1.00  0.00    -0.000 C 
BRANCH  16  17
ATOM     17  C   UNL     1      44.929   6.420  15.591  1.00  0.00    -0.000 C 
BRANCH  17  18
ATOM     18  C   UNL     1      46.170   5.875  14.875  1.00  0.00    -0.000 C 
BRANCH  18  19
ATOM     19  C   UNL     1      47.320   5.646  15.862  1.00  0.00    -0.003 C 
ATOM     20  C   UNL     1      47.020   6.286  17.215  1.00  0.00     0.004 C 
ENDBRANCH  18  19
ENDBRANCH  17  18
ENDBRANCH  16  17
ENDBRANCH  15  16
ENDBRANCH  14  15
ENDBRANCH  13  14
ENDBRANCH  12  13
ENDBRANCH   1  12
TORSDOF 16
ENDMDL
MODEL 7
REMARK VINA RESULT:    -4.265      4.160      8.193
REMARK INTER + INTRA:         -10.212
REMARK INTER:                  -8.343
REMARK INTRA:                  -1.869
REMARK UNBOUND:                -1.958
REMARK SMILES CCCCCCCCCCCCCCCCCC(=O)[O-]
REMARK SMILES IDX 10 1 11 2 12 3 13 4 14 5 15 6 16 7 17 8 18 9 19 10 20 11
REMARK SMILES IDX 9 12 8 13 7 14 6 15 5 16 4 17 3 18 2 19 1 20
REMARK H PARENT
REMARK Flexibility Score: inf
ROOT
ATOM      1  C   UNL     1      45.112   8.655  19.953  1.00  0.00     0.000 C 
ENDROOT
BRANCH   1   2
ATOM      2  C   UNL     1      46.329   7.874  19.415  1.00  0.00     0.000 C 
BRANCH   2   3
ATOM      3  C   UNL     1      46.302   7.579  17.902  1.00  0.00     0.000 C 
BRANCH   3   4
ATOM      4  C   UNL     1      45.160   8.260  17.128  1.00  0.00     0.000 C 
BRANCH   4   5
ATOM      5  C   UNL     1      44.224   7.256  16.438  1.00  0.00     0.000 C 
BRANCH   5   6
ATOM      6  C   UNL     1      44.549   7.139  14.944  1.00  0.00     0.000 C 
BRANCH   6   7
ATOM      7  C   UNL     1      45.316   5.842  14.647  1.00  0.00     0.006 C 
BRANCH   7   8
ATOM      8  C   UNL     1      46.818   6.087  14.454  1.00  0.00     0.053 C 
BRANCH   8   9
ATOM      9  C   UNL     1      47.643   4.998  15.070  1.00  0.00     0.041 C 
ATOM     10  O   UNL     1      47.938   5.042  16.293  1.00  0.00    -0.550 OA
ATOM     11  O   UNL     1      48.113   3.952  14.286  1.00  0.00    -0.550 OA
ENDBRANCH   8   9
ENDBRANCH   7   8
ENDBRANCH   6   7
ENDBRANCH   5   6
ENDBRANCH   4   5
ENDBRANCH   3   4
ENDBRANCH   2   3
ENDBRANCH   1   2
BRANCH   1  12
ATOM     12  C   UNL     1      45.396  10.115  20.346  1.00  0.00     0.000 C 
BRANCH  12  13
ATOM     13  C   UNL     1      44.355  10.681  21.328  1.00  0.00    -0.000 C 
BRANCH  13  14
ATOM     14  C   UNL     1      43.920   9.652  22.384  1.00  0.00    -0.000 C 
BRANCH  14  15
ATOM     15  C   UNL     1      44.339  10.054  23.808  1.00  0.00    -0.000 C 
BRANCH  15  16
ATOM     16  C   UNL     1      45.160   8.962  24.513  1.00  0.00    -0.000 C 
BRANCH  16  17
ATOM     17  C   UNL     1      46.068   8.185  23.550  1.00  0.00    -0.000 C 
BRANCH  17  18
ATOM     18  C   UNL     1      47.338   8.981  23.229  1.00  0.00    -0.000 C 
BRANCH  18  19
ATOM     19  C   UNL     1      48.397   8.087  22.573  1.00  0.00    -0.003 C 
ATOM     20  C   UNL     1      47.902   6.649  22.446  1.00  0.00     0.004 C 
ENDBRANCH  18  19
ENDBRANCH  17  18
ENDBRANCH  16  17
ENDBRANCH  15  16
ENDBRANCH  14  15
ENDBRANCH  13  14
ENDBRANCH  12  13
ENDBRANCH   1  12
TORSDOF 16
ENDMDL
MODEL 8
REMARK VINA RESULT:    -4.212      4.193      7.823
REMARK INTER + INTRA:         -10.109
REMARK INTER:                  -7.906
REMARK INTRA:                  -2.203
REMARK UNBOUND:                -1.958
REMARK SMILES CCCCCCCCCCCCCCCCCC(=O)[O-]
REMARK SMILES IDX 10 1 11 2 12 3 13 4 14 5 15 6 16 7 17 8 18 9 19 10 20 11
REMARK SMILES IDX 9 12 8 13 7 14 6 15 5 16 4 17 3 18 2 19 1 20
REMARK H PARENT
REMARK Flexibility Score: inf
ROOT
ATOM      1  C   UNL     1      44.145   8.482  21.530  1.00  0.00     0.000 C 
ENDROOT
BRANCH   1   2
ATOM      2  C   UNL     1      44.235   9.616  20.487  1.00  0.00     0.000 C 
BRANCH   2   3
ATOM      3  C   UNL     1      45.659   9.943  19.995  1.00  0.00     0.000 C 
BRANCH   3   4
ATOM      4  C   UNL     1      45.910   9.669  18.503  1.00  0.00     0.000 C 
BRANCH   4   5
ATOM      5  C   UNL     1      45.858   8.174  18.154  1.00  0.00     0.000 C 
BRANCH   5   6
ATOM      6  C   UNL     1      44.599   7.842  17.346  1.00  0.00     0.000 C 
BRANCH   6   7
ATOM      7  C   UNL     1      44.944   6.995  16.111  1.00  0.00     0.006 C 
BRANCH   7   8
ATOM      8  C   UNL     1      46.457   6.920  15.863  1.00  0.00     0.053 C 
BRANCH   8   9
ATOM      9  C   UNL     1      46.841   5.662  15.146  1.00  0.00     0.041 C 
ATOM     10  O   UNL     1      47.965   5.133  15.352  1.00  0.00    -0.550 OA
ATOM     11  O   UNL     1      45.970   5.091  14.225  1.00  0.00    -0.550 OA
ENDBRANCH   8   9
ENDBRANCH   7   8
ENDBRANCH   6   7
ENDBRANCH   5   6
ENDBRANCH   4   5
ENDBRANCH   3   4
ENDBRANCH   2   3
ENDBRANCH   1   2
BRANCH   1  12
ATOM     12  C   UNL     1      43.766   8.931  22.952  1.00  0.00     0.000 C 
BRANCH  12  13
ATOM     13  C   UNL     1      43.792  10.461  23.120  1.00  0.00    -0.000 C 
BRANCH  13  14
ATOM     14  C   UNL     1      44.743  10.915  24.240  1.00  0.00    -0.000 C 
BRANCH  14  15
ATOM     15  C   UNL     1      45.998  10.033  24.342  1.00  0.00    -0.000 C 
BRANCH  15  16
ATOM     16  C   UNL     1      47.094  10.446  23.347  1.00  0.00    -0.000 C 
BRANCH  16  17
ATOM     17  C   UNL     1      48.025   9.284  22.970  1.00  0.00    -0.000 C 
BRANCH  17  18
ATOM     18  C   UNL     1      47.293   7.941  23.066  1.00  0.00    -0.000 C 
BRANCH  18  19
ATOM     19  C   UNL     1      47.998   6.869  22.226  1.00  0.00    -0.003 C 
ATOM     20  C   UNL     1      47.200   6.542  20.967  1.00  0.00     0.004 C 
ENDBRANCH  18  19
ENDBRANCH  17  18
ENDBRANCH  16  17
ENDBRANCH  15  16
ENDBRANCH  14  15
ENDBRANCH  13  14
ENDBRANCH  12  13
ENDBRANCH   1  12
TORSDOF 16
ENDMDL
MODEL 9
REMARK VINA RESULT:    -4.183      4.227      8.626
REMARK INTER + INTRA:         -10.053
REMARK INTER:                  -8.020
REMARK INTRA:                  -2.033
REMARK UNBOUND:                -1.958
REMARK SMILES CCCCCCCCCCCCCCCCCC(=O)[O-]
REMARK SMILES IDX 10 1 11 2 12 3 13 4 14 5 15 6 16 7 17 8 18 9 19 10 20 11
REMARK SMILES IDX 9 12 8 13 7 14 6 15 5 16 4 17 3 18 2 19 1 20
REMARK H PARENT
REMARK Flexibility Score: inf
ROOT
ATOM      1  C   UNL     1      44.152   9.632  20.609  1.00  0.00     0.000 C 
ENDROOT
BRANCH   1   2
ATOM      2  C   UNL     1      45.083   9.709  19.381  1.00  0.00     0.000 C 
BRANCH   2   3
ATOM      3  C   UNL     1      44.374   9.607  18.014  1.00  0.00     0.000 C 
BRANCH   3   4
ATOM      4  C   UNL     1      44.429   8.218  17.356  1.00  0.00     0.000 C 
BRANCH   4   5
ATOM      5  C   UNL     1      45.642   7.391  17.808  1.00  0.00     0.000 C 
BRANCH   5   6
ATOM      6  C   UNL     1      46.515   6.997  16.611  1.00  0.00     0.000 C 
BRANCH   6   7
ATOM      7  C   UNL     1      45.985   7.624  15.313  1.00  0.00     0.006 C 
BRANCH   7   8
ATOM      8  C   UNL     1      46.305   6.767  14.081  1.00  0.00     0.053 C 
BRANCH   8   9
ATOM      9  C   UNL     1      45.766   5.376  14.216  1.00  0.00     0.041 C 
ATOM     10  O   UNL     1      46.550   4.392  14.238  1.00  0.00    -0.550 OA
ATOM     11  O   UNL     1      44.394   5.164  14.285  1.00  0.00    -0.550 OA
ENDBRANCH   8   9
ENDBRANCH   7   8
ENDBRANCH   6   7
ENDBRANCH   5   6
ENDBRANCH   4   5
ENDBRANCH   3   4
ENDBRANCH   2   3
ENDBRANCH   1   2
BRANCH   1  12
ATOM     12  C   UNL     1      44.477   8.504  21.604  1.00  0.00     0.000 C 
BRANCH  12  13
ATOM     13  C   UNL     1      45.983   8.197  21.686  1.00  0.00    -0.000 C 
BRANCH  13  14
ATOM     14  C   UNL     1      46.561   8.454  23.087  1.00  0.00    -0.000 C 
BRANCH  14  15
ATOM     15  C   UNL     1      47.372   9.760  23.160  1.00  0.00    -0.000 C 
BRANCH  15  16
ATOM     16  C   UNL     1      46.496  10.982  23.475  1.00  0.00    -0.000 C 
BRANCH  16  17
ATOM     17  C   UNL     1      45.798  10.879  24.839  1.00  0.00    -0.000 C 
BRANCH  17  18
ATOM     18  C   UNL     1      44.274  10.867  24.676  1.00  0.00    -0.000 C 
BRANCH  18  19
ATOM     19  C   UNL     1      43.676   9.554  25.196  1.00  0.00    -0.003 C 
ATOM     20  C   UNL     1      44.578   8.916  26.249  1.00  0.00     0.004 C 
ENDBRANCH  18  19
ENDBRANCH  17  18
ENDBRANCH  16  17
ENDBRANCH  15  16
ENDBRANCH  14  15
ENDBRANCH  13  14
ENDBRANCH  12  13
ENDBRANCH   1  12
TORSDOF 16
ENDMDL
