MODEL 1
REMARK VINA RESULT:    -3.997      0.000      0.000
REMARK INTER + INTRA:          -4.305
REMARK INTER:                  -4.932
REMARK INTRA:                   0.627
REMARK UNBOUND:                 0.627
REMARK SMILES C=C1[C@@H]2CC[C@H]3[C@@H]2C(C)(C)CCC[C@@]13C
REMARK SMILES IDX 14 1 6 2 7 3 3 4 2 5 1 6 4 7 5 8 15 9 8 10 9 11 10 12 11 13
REMARK SMILES IDX 13 15 12 16
REMARK H PARENT
REMARK Flexibility Score: 80.00
ROOT
ATOM      1  C   UNL     1     138.994 142.243 132.741  1.00  0.00    -0.008 C 
ATOM      2  C   UNL     1     139.188 142.518 131.198  1.00  0.00     0.003 C 
ATOM      3  C   UNL     1     140.363 143.515 131.124  1.00  0.00     0.006 C 
ATOM      4  C   UNL     1     139.731 144.487 132.122  1.00  0.00     0.019 C 
ATOM      5  C   UNL     1     139.415 143.586 133.282  1.00  0.00    -0.068 C 
ATOM      6  C   UNL     1     139.422 143.957 134.568  1.00  0.00     0.009 C 
ATOM      7  C   UNL     1     138.384 144.791 131.421  1.00  0.00     0.008 C 
ATOM      8  C   UNL     1     138.060 143.461 130.695  1.00  0.00     0.005 C 
ATOM      9  C   UNL     1     137.525 141.929 133.135  1.00  0.00     0.016 C 
ENDROOT
BRANCH   3  10
ATOM     10  C   UNL     1     141.851 143.005 131.353  1.00  0.00    -0.032 C 
ATOM     11  C   UNL     1     142.555 142.957 129.969  1.00  0.00     0.011 C 
ATOM     12  C   UNL     1     142.667 144.000 132.217  1.00  0.00     0.011 C 
BRANCH  10  13
ATOM     13  C   UNL     1     141.969 141.563 131.924  1.00  0.00     0.007 CG0
ATOM     14  G   UNL     1     141.369 141.343 133.310  1.00  0.00     0.000 G0
ENDBRANCH  10  13
ENDBRANCH   3  10
BRANCH   1  15
ATOM     15  C   UNL     1     139.872 141.071 133.257  1.00  0.00     0.011 C 
BRANCH  15  16
ATOM     16  C   UNL     1     141.373 141.336 133.313  1.00  0.00     0.001 CG0
ATOM     17  G   UNL     1     141.977 141.566 131.930  1.00  0.00     0.000 G0
ENDBRANCH  15  16
ENDBRANCH   1  15
TORSDOF 0
ENDMDL
MODEL 2
REMARK VINA RESULT:    -3.957      2.288      3.894
REMARK INTER + INTRA:          -4.255
REMARK INTER:                  -4.880
REMARK INTRA:                   0.625
REMARK UNBOUND:                 0.627
REMARK SMILES C=C1[C@@H]2CC[C@H]3[C@@H]2C(C)(C)CCC[C@@]13C
REMARK SMILES IDX 14 1 6 2 7 3 3 4 2 5 1 6 4 7 5 8 15 9 8 10 9 11 10 12 11 13
REMARK SMILES IDX 13 15 12 16
REMARK H PARENT
REMARK Flexibility Score: 80.00
ROOT
ATOM      1  C   UNL     1     140.019 139.037 132.675  1.00  0.00    -0.008 C 
ATOM      2  C   UNL     1     139.621 139.377 131.185  1.00  0.00     0.003 C 
ATOM      3  C   UNL     1     138.547 140.478 131.310  1.00  0.00     0.006 C 
ATOM      4  C   UNL     1     137.693 139.673 132.290  1.00  0.00     0.019 C 
ATOM      5  C   UNL     1     138.695 139.300 133.347  1.00  0.00    -0.068 C 
ATOM      6  C   UNL     1     138.419 139.140 134.646  1.00  0.00     0.009 C 
ATOM      7  C   UNL     1     137.426 138.393 131.464  1.00  0.00     0.008 C 
ATOM      8  C   UNL     1     138.717 138.246 130.620  1.00  0.00     0.005 C 
ATOM      9  C   UNL     1     140.455 137.561 132.879  1.00  0.00     0.016 C 
ENDROOT
BRANCH   3  10
ATOM     10  C   UNL     1     138.976 141.966 131.672  1.00  0.00    -0.032 C 
ATOM     11  C   UNL     1     138.879 142.817 130.376  1.00  0.00     0.011 C 
ATOM     12  C   UNL     1     137.995 142.610 132.685  1.00  0.00     0.011 C 
BRANCH  10  13
ATOM     13  C   UNL     1     140.445 142.124 132.157  1.00  0.00     0.007 CG0
ATOM     14  G   UNL     1     140.802 141.396 133.451  1.00  0.00     0.000 G0
ENDBRANCH  10  13
ENDBRANCH   3  10
BRANCH   1  15
ATOM     15  C   UNL     1     141.167 139.936 133.209  1.00  0.00     0.011 C 
BRANCH  15  16
ATOM     16  C   UNL     1     140.810 141.400 133.452  1.00  0.00     0.001 CG0
ATOM     17  G   UNL     1     140.444 142.133 132.164  1.00  0.00     0.000 G0
ENDBRANCH  15  16
ENDBRANCH   1  15
TORSDOF 0
ENDMDL
MODEL 3
REMARK VINA RESULT:    -3.950      2.851      5.424
REMARK INTER + INTRA:          -4.248
REMARK INTER:                  -4.880
REMARK INTRA:                   0.633
REMARK UNBOUND:                 0.627
REMARK SMILES C=C1[C@@H]2CC[C@H]3[C@@H]2C(C)(C)CCC[C@@]13C
REMARK SMILES IDX 14 1 6 2 7 3 3 4 2 5 1 6 4 7 5 8 15 9 8 10 9 11 10 12 11 13
REMARK SMILES IDX 13 15 12 16
REMARK H PARENT
REMARK Flexibility Score: 80.00
ROOT
ATOM      1  C   UNL     1     143.167 139.937 132.618  1.00  0.00    -0.008 C 
ATOM      2  C   UNL     1     142.847 139.541 131.123  1.00  0.00     0.003 C 
ATOM      3  C   UNL     1     141.644 138.578 131.224  1.00  0.00     0.006 C 
ATOM      4  C   UNL     1     142.327 137.674 132.250  1.00  0.00     0.019 C 
ATOM      5  C   UNL     1     142.755 138.658 133.302  1.00  0.00    -0.068 C 
ATOM      6  C   UNL     1     142.839 138.396 134.612  1.00  0.00     0.009 C 
ATOM      7  C   UNL     1     143.607 137.269 131.479  1.00  0.00     0.008 C 
ATOM      8  C   UNL     1     143.907 138.522 130.619  1.00  0.00     0.005 C 
ATOM      9  C   UNL     1     144.670 140.236 132.872  1.00  0.00     0.016 C 
ENDROOT
BRANCH   3  10
ATOM     10  C   UNL     1     140.192 139.154 131.520  1.00  0.00    -0.032 C 
ATOM     11  C   UNL     1     139.380 139.098 130.196  1.00  0.00     0.011 C 
ATOM     12  C   UNL     1     139.424 138.267 132.534  1.00  0.00     0.011 C 
BRANCH  10  13
ATOM     13  C   UNL     1     140.155 140.644 131.961  1.00  0.00     0.007 CG0
ATOM     14  G   UNL     1     140.865 140.969 133.273  1.00  0.00     0.000 G0
ENDBRANCH  10  13
ENDBRANCH   3  10
BRANCH   1  15
ATOM     15  C   UNL     1     142.362 141.175 133.097  1.00  0.00     0.011 C 
BRANCH  15  16
ATOM     16  C   UNL     1     140.860 140.968 133.273  1.00  0.00     0.001 CG0
ATOM     17  G   UNL     1     140.156 140.649 131.957  1.00  0.00     0.000 G0
ENDBRANCH  15  16
ENDBRANCH   1  15
TORSDOF 0
ENDMDL
MODEL 4
REMARK VINA RESULT:    -3.928      2.277      3.858
REMARK INTER + INTRA:          -4.220
REMARK INTER:                  -4.847
REMARK INTRA:                   0.627
REMARK UNBOUND:                 0.627
REMARK SMILES C=C1[C@@H]2CC[C@H]3[C@@H]2C(C)(C)CCC[C@@]13C
REMARK SMILES IDX 14 1 6 2 7 3 3 4 2 5 1 6 4 7 5 8 15 9 8 10 9 11 10 12 11 13
REMARK SMILES IDX 13 15 12 16
REMARK H PARENT
REMARK Flexibility Score: 80.00
ROOT
ATOM      1  C   UNL     1     142.092 143.160 132.976  1.00  0.00    -0.008 C 
ATOM      2  C   UNL     1     142.495 142.685 131.524  1.00  0.00     0.003 C 
ATOM      3  C   UNL     1     143.512 141.546 131.754  1.00  0.00     0.006 C 
ATOM      4  C   UNL     1     144.390 142.385 132.684  1.00  0.00     0.019 C 
ATOM      5  C   UNL     1     143.393 142.888 133.690  1.00  0.00    -0.068 C 
ATOM      6  C   UNL     1     143.658 143.137 134.978  1.00  0.00     0.009 C 
ATOM      7  C   UNL     1     144.731 143.582 131.765  1.00  0.00     0.008 C 
ATOM      8  C   UNL     1     143.461 143.723 130.889  1.00  0.00     0.005 C 
ATOM      9  C   UNL     1     141.727 144.667 133.056  1.00  0.00     0.016 C 
ENDROOT
BRANCH   3  10
ATOM     10  C   UNL     1     143.005 140.115 132.224  1.00  0.00    -0.032 C 
ATOM     11  C   UNL     1     143.077 139.160 131.000  1.00  0.00     0.011 C 
ATOM     12  C   UNL     1     143.939 139.505 133.301  1.00  0.00     0.011 C 
BRANCH  10  13
ATOM     13  C   UNL     1     141.524 140.065 132.696  1.00  0.00     0.007 CG0
ATOM     14  G   UNL     1     141.188 140.904 133.927  1.00  0.00     0.000 G0
ENDBRANCH  10  13
ENDBRANCH   3  10
BRANCH   1  15
ATOM     15  C   UNL     1     140.895 142.362 133.558  1.00  0.00     0.011 C 
BRANCH  15  16
ATOM     16  C   UNL     1     141.175 140.906 133.919  1.00  0.00     0.001 CG0
ATOM     17  G   UNL     1     141.532 140.061 132.699  1.00  0.00     0.000 G0
ENDBRANCH  15  16
ENDBRANCH   1  15
TORSDOF 0
ENDMDL
MODEL 5
REMARK VINA RESULT:    -3.867      2.808      5.039
REMARK INTER + INTRA:          -4.144
REMARK INTER:                  -4.774
REMARK INTRA:                   0.630
REMARK UNBOUND:                 0.627
REMARK SMILES C=C1[C@@H]2CC[C@H]3[C@@H]2C(C)(C)CCC[C@@]13C
REMARK SMILES IDX 14 1 6 2 7 3 3 4 2 5 1 6 4 7 5 8 15 9 8 10 9 11 10 12 11 13
REMARK SMILES IDX 13 15 12 16
REMARK H PARENT
REMARK Flexibility Score: 80.00
ROOT
ATOM      1  C   UNL     1     139.985 141.093 134.412  1.00  0.00    -0.008 C 
ATOM      2  C   UNL     1     139.294 142.510 134.502  1.00  0.00     0.003 C 
ATOM      3  C   UNL     1     138.120 142.310 135.484  1.00  0.00     0.006 C 
ATOM      4  C   UNL     1     137.564 141.103 134.728  1.00  0.00     0.019 C 
ATOM      5  C   UNL     1     138.773 140.218 134.613  1.00  0.00    -0.068 C 
ATOM      6  C   UNL     1     138.749 138.880 134.600  1.00  0.00     0.009 C 
ATOM      7  C   UNL     1     137.332 141.716 133.326  1.00  0.00     0.008 C 
ATOM      8  C   UNL     1     138.466 142.765 133.211  1.00  0.00     0.005 C 
ATOM      9  C   UNL     1     140.643 140.810 133.034  1.00  0.00     0.016 C 
ENDROOT
BRANCH   3  10
ATOM     10  C   UNL     1     138.402 142.203 137.045  1.00  0.00    -0.032 C 
ATOM     11  C   UNL     1     137.967 143.544 137.699  1.00  0.00     0.011 C 
ATOM     12  C   UNL     1     137.536 141.101 137.705  1.00  0.00     0.011 C 
BRANCH  10  13
ATOM     13  C   UNL     1     139.898 142.027 137.430  1.00  0.00     0.007 CG0
ATOM     14  G   UNL     1     140.567 140.747 136.935  1.00  0.00     0.000 G0
ENDBRANCH  10  13
ENDBRANCH   3  10
BRANCH   1  15
ATOM     15  C   UNL     1     141.077 140.887 135.497  1.00  0.00     0.011 C 
BRANCH  15  16
ATOM     16  C   UNL     1     140.576 140.759 136.932  1.00  0.00     0.001 CG0
ATOM     17  G   UNL     1     139.893 142.031 137.428  1.00  0.00     0.000 G0
ENDBRANCH  15  16
ENDBRANCH   1  15
TORSDOF 0
ENDMDL
MODEL 6
REMARK VINA RESULT:    -3.834      3.604      5.796
REMARK INTER + INTRA:          -4.104
REMARK INTER:                  -4.728
REMARK INTRA:                   0.625
REMARK UNBOUND:                 0.627
REMARK SMILES C=C1[C@@H]2CC[C@H]3[C@@H]2C(C)(C)CCC[C@@]13C
REMARK SMILES IDX 14 1 6 2 7 3 3 4 2 5 1 6 4 7 5 8 15 9 8 10 9 11 10 12 11 13
REMARK SMILES IDX 13 15 12 16
REMARK H PARENT
REMARK Flexibility Score: 80.00
ROOT
ATOM      1  C   UNL     1     142.191 141.093 134.373  1.00  0.00    -0.008 C 
ATOM      2  C   UNL     1     142.800 139.642 134.504  1.00  0.00     0.003 C 
ATOM      3  C   UNL     1     144.024 139.814 135.428  1.00  0.00     0.006 C 
ATOM      4  C   UNL     1     144.619 140.950 134.595  1.00  0.00     0.019 C 
ATOM      5  C   UNL     1     143.460 141.900 134.485  1.00  0.00    -0.068 C 
ATOM      6  C   UNL     1     143.562 143.232 134.407  1.00  0.00     0.009 C 
ATOM      7  C   UNL     1     144.755 140.260 133.216  1.00  0.00     0.008 C 
ATOM      8  C   UNL     1     143.557 139.278 133.196  1.00  0.00     0.005 C 
ATOM      9  C   UNL     1     141.494 141.352 133.010  1.00  0.00     0.016 C 
ENDROOT
BRANCH   3  10
ATOM     10  C   UNL     1     143.814 140.008 136.992  1.00  0.00    -0.032 C 
ATOM     11  C   UNL     1     144.190 138.673 137.692  1.00  0.00     0.011 C 
ATOM     12  C   UNL     1     144.775 141.081 137.567  1.00  0.00     0.011 C 
BRANCH  10  13
ATOM     13  C   UNL     1     142.349 140.300 137.426  1.00  0.00     0.007 CG0
ATOM     14  G   UNL     1     141.740 141.593 136.890  1.00  0.00     0.000 G0
ENDBRANCH  10  13
ENDBRANCH   3  10
BRANCH   1  15
ATOM     15  C   UNL     1     141.159 141.413 135.488  1.00  0.00     0.011 C 
BRANCH  15  16
ATOM     16  C   UNL     1     141.728 141.588 136.893  1.00  0.00     0.001 CG0
ATOM     17  G   UNL     1     142.349 140.303 137.436  1.00  0.00     0.000 G0
ENDBRANCH  15  16
ENDBRANCH   1  15
TORSDOF 0
ENDMDL
MODEL 7
REMARK VINA RESULT:    -3.776      1.788      3.076
REMARK INTER + INTRA:          -4.032
REMARK INTER:                  -4.668
REMARK INTRA:                   0.635
REMARK UNBOUND:                 0.627
REMARK SMILES C=C1[C@@H]2CC[C@H]3[C@@H]2C(C)(C)CCC[C@@]13C
REMARK SMILES IDX 14 1 6 2 7 3 3 4 2 5 1 6 4 7 5 8 15 9 8 10 9 11 10 12 11 13
REMARK SMILES IDX 13 15 12 16
REMARK H PARENT
REMARK Flexibility Score: 80.00
ROOT
ATOM      1  C   UNL     1     140.546 142.863 133.637  1.00  0.00    -0.008 C 
ATOM      2  C   UNL     1     141.452 144.117 133.318  1.00  0.00     0.003 C 
ATOM      3  C   UNL     1     142.897 143.621 133.536  1.00  0.00     0.006 C 
ATOM      4  C   UNL     1     142.604 143.077 134.934  1.00  0.00     0.019 C 
ATOM      5  C   UNL     1     141.404 142.206 134.689  1.00  0.00    -0.068 C 
ATOM      6  C   UNL     1     141.114 141.088 135.365  1.00  0.00     0.009 C 
ATOM      7  C   UNL     1     142.087 144.352 135.643  1.00  0.00     0.008 C 
ATOM      8  C   UNL     1     141.379 145.123 134.500  1.00  0.00     0.005 C 
ATOM      9  C   UNL     1     139.155 143.235 134.218  1.00  0.00     0.016 C 
ENDROOT
BRANCH   3  10
ATOM     10  C   UNL     1     143.585 142.684 132.451  1.00  0.00    -0.032 C 
ATOM     11  C   UNL     1     144.617 143.541 131.668  1.00  0.00     0.011 C 
ATOM     12  C   UNL     1     144.392 141.540 133.117  1.00  0.00     0.011 C 
BRANCH  10  13
ATOM     13  C   UNL     1     142.621 142.115 131.371  1.00  0.00     0.007 CG0
ATOM     14  G   UNL     1     141.517 141.193 131.881  1.00  0.00     0.000 G0
ENDBRANCH  10  13
ENDBRANCH   3  10
BRANCH   1  15
ATOM     15  C   UNL     1     140.304 141.965 132.394  1.00  0.00     0.011 C 
BRANCH  15  16
ATOM     16  C   UNL     1     141.517 141.195 131.881  1.00  0.00     0.001 CG0
ATOM     17  G   UNL     1     142.618 142.117 131.364  1.00  0.00     0.000 G0
ENDBRANCH  15  16
ENDBRANCH   1  15
TORSDOF 0
ENDMDL
MODEL 8
REMARK VINA RESULT:    -3.771      1.377      2.933
REMARK INTER + INTRA:          -4.026
REMARK INTER:                  -4.661
REMARK INTRA:                   0.635
REMARK UNBOUND:                 0.627
REMARK SMILES C=C1[C@@H]2CC[C@H]3[C@@H]2C(C)(C)CCC[C@@]13C
REMARK SMILES IDX 14 1 6 2 7 3 3 4 2 5 1 6 4 7 5 8 15 9 8 10 9 11 10 12 11 13
REMARK SMILES IDX 13 15 12 16
REMARK H PARENT
REMARK Flexibility Score: 80.00
ROOT
ATOM      1  C   UNL     1     139.538 140.637 133.426  1.00  0.00    -0.008 C 
ATOM      2  C   UNL     1     138.266 141.523 133.122  1.00  0.00     0.003 C 
ATOM      3  C   UNL     1     138.726 142.972 133.392  1.00  0.00     0.006 C 
ATOM      4  C   UNL     1     139.263 142.646 134.787  1.00  0.00     0.019 C 
ATOM      5  C   UNL     1     140.164 141.475 134.512  1.00  0.00    -0.068 C 
ATOM      6  C   UNL     1     141.282 141.189 135.190  1.00  0.00     0.009 C 
ATOM      7  C   UNL     1     137.993 142.076 135.464  1.00  0.00     0.008 C 
ATOM      8  C   UNL     1     137.250 141.389 134.291  1.00  0.00     0.005 C 
ATOM      9  C   UNL     1     139.193 139.219 133.957  1.00  0.00     0.016 C 
ENDROOT
BRANCH   3  10
ATOM     10  C   UNL     1     139.658 143.716 132.341  1.00  0.00    -0.032 C 
ATOM     11  C   UNL     1     138.783 144.751 131.580  1.00  0.00     0.011 C 
ATOM     12  C   UNL     1     140.773 144.530 133.045  1.00  0.00     0.011 C 
BRANCH  10  13
ATOM     13  C   UNL     1     140.263 142.801 131.238  1.00  0.00     0.007 CG0
ATOM     14  G   UNL     1     141.209 141.707 131.726  1.00  0.00     0.000 G0
ENDBRANCH  10  13
ENDBRANCH   3  10
BRANCH   1  15
ATOM     15  C   UNL     1     140.454 140.457 132.186  1.00  0.00     0.011 C 
BRANCH  15  16
ATOM     16  C   UNL     1     141.203 141.702 131.722  1.00  0.00     0.001 CG0
ATOM     17  G   UNL     1     140.262 142.807 131.247  1.00  0.00     0.000 G0
ENDBRANCH  15  16
ENDBRANCH   1  15
TORSDOF 0
ENDMDL
MODEL 9
REMARK VINA RESULT:    -3.735      1.451      3.759
REMARK INTER + INTRA:          -3.982
REMARK INTER:                  -4.614
REMARK INTRA:                   0.632
REMARK UNBOUND:                 0.627
REMARK SMILES C=C1[C@@H]2CC[C@H]3[C@@H]2C(C)(C)CCC[C@@]13C
REMARK SMILES IDX 14 1 6 2 7 3 3 4 2 5 1 6 4 7 5 8 15 9 8 10 9 11 10 12 11 13
REMARK SMILES IDX 13 15 12 16
REMARK H PARENT
REMARK Flexibility Score: 80.00
ROOT
ATOM      1  C   UNL     1     140.853 143.257 133.199  1.00  0.00    -0.008 C 
ATOM      2  C   UNL     1     140.791 142.303 134.456  1.00  0.00     0.003 C 
ATOM      3  C   UNL     1     139.431 141.583 134.332  1.00  0.00     0.006 C 
ATOM      4  C   UNL     1     138.644 142.884 134.172  1.00  0.00     0.019 C 
ATOM      5  C   UNL     1     139.383 143.563 133.054  1.00  0.00    -0.068 C 
ATOM      6  C   UNL     1     138.828 144.375 132.146  1.00  0.00     0.009 C 
ATOM      7  C   UNL     1     139.035 143.625 135.473  1.00  0.00     0.008 C 
ATOM      8  C   UNL     1     140.485 143.142 135.729  1.00  0.00     0.005 C 
ATOM      9  C   UNL     1     141.662 144.559 133.449  1.00  0.00     0.016 C 
ENDROOT
BRANCH   3  10
ATOM     10  C   UNL     1     139.249 140.413 133.271  1.00  0.00    -0.032 C 
ATOM     11  C   UNL     1     139.239 139.066 134.046  1.00  0.00     0.011 C 
ATOM     12  C   UNL     1     137.878 140.506 132.552  1.00  0.00     0.011 C 
BRANCH  10  13
ATOM     13  C   UNL     1     140.401 140.281 132.235  1.00  0.00     0.007 CG0
ATOM     14  G   UNL     1     140.599 141.474 131.304  1.00  0.00     0.000 G0
ENDBRANCH  10  13
ENDBRANCH   3  10
BRANCH   1  15
ATOM     15  C   UNL     1     141.462 142.566 131.950  1.00  0.00     0.011 C 
BRANCH  15  16
ATOM     16  C   UNL     1     140.609 141.477 131.307  1.00  0.00     0.001 CG0
ATOM     17  G   UNL     1     140.397 140.279 132.230  1.00  0.00     0.000 G0
ENDBRANCH  15  16
ENDBRANCH   1  15
TORSDOF 0
ENDMDL
