MODEL 1
REMARK VINA RESULT:    -2.226      0.000      0.000
REMARK INTER + INTRA:         -10.014
REMARK INTER:                  -5.871
REMARK INTRA:                  -4.144
REMARK UNBOUND:                -4.144
REMARK SMILES CCCCCCCCCCCCCCCCCCCCCCCCCCCCCC(=O)[O-]
REMARK SMILES IDX 16 1 17 2 18 3 19 4 20 5 21 6 22 7 23 8 24 9 25 10 26 11
REMARK SMILES IDX 27 12 28 13 29 14 30 15 31 16 32 17 15 18 14 19 13 20 12 21
REMARK SMILES IDX 11 22 10 23 9 24 8 25 7 26 6 27 5 28 4 29 3 30 2 31 1 32
REMARK H PARENT
REMARK Flexibility Score: inf
ROOT
ATOM      1  C   UNL     1      23.121   4.015  25.917  1.00  0.00     0.000 C 
ENDROOT
BRANCH   1   2
ATOM      2  C   UNL     1      22.941   2.537  26.309  1.00  0.00     0.000 C 
BRANCH   2   3
ATOM      3  C   UNL     1      22.288   2.361  27.693  1.00  0.00     0.000 C 
BRANCH   3   4
ATOM      4  C   UNL     1      21.093   1.390  27.754  1.00  0.00     0.000 C 
BRANCH   4   5
ATOM      5  C   UNL     1      20.347   1.210  26.419  1.00  0.00     0.000 C 
BRANCH   5   6
ATOM      6  C   UNL     1      18.836   1.484  26.527  1.00  0.00     0.000 C 
BRANCH   6   7
ATOM      7  C   UNL     1      18.433   2.822  25.869  1.00  0.00     0.000 C 
BRANCH   7   8
ATOM      8  C   UNL     1      18.492   4.034  26.818  1.00  0.00     0.000 C 
BRANCH   8   9
ATOM      9  C   UNL     1      19.866   4.711  26.941  1.00  0.00     0.000 C 
BRANCH   9  10
ATOM     10  C   UNL     1      19.996   6.067  26.219  1.00  0.00     0.000 C 
BRANCH  10  11
ATOM     11  C   UNL     1      20.273   5.944  24.706  1.00  0.00     0.000 C 
BRANCH  11  12
ATOM     12  C   UNL     1      19.901   7.229  23.942  1.00  0.00     0.000 C 
BRANCH  12  13
ATOM     13  C   UNL     1      20.885   8.381  24.202  1.00  0.00     0.006 C 
BRANCH  13  14
ATOM     14  C   UNL     1      20.306   9.739  23.785  1.00  0.00     0.053 C 
BRANCH  14  15
ATOM     15  C   UNL     1      19.455   9.593  22.564  1.00  0.00     0.041 C 
ATOM     16  O   UNL     1      18.196   9.647  22.648  1.00  0.00    -0.550 OA
ATOM     17  O   UNL     1      20.054   9.386  21.328  1.00  0.00    -0.550 OA
ENDBRANCH  14  15
ENDBRANCH  13  14
ENDBRANCH  12  13
ENDBRANCH  11  12
ENDBRANCH  10  11
ENDBRANCH   9  10
ENDBRANCH   8   9
ENDBRANCH   7   8
ENDBRANCH   6   7
ENDBRANCH   5   6
ENDBRANCH   4   5
ENDBRANCH   3   4
ENDBRANCH   2   3
ENDBRANCH   1   2
BRANCH   1  18
ATOM     18  C   UNL     1      23.677   4.877  27.061  1.00  0.00     0.000 C 
BRANCH  18  19
ATOM     19  C   UNL     1      23.754   6.386  26.762  1.00  0.00     0.000 C 
BRANCH  19  20
ATOM     20  C   UNL     1      24.604   7.186  27.773  1.00  0.00     0.000 C 
BRANCH  20  21
ATOM     21  C   UNL     1      25.001   8.564  27.217  1.00  0.00     0.000 C 
BRANCH  21  22
ATOM     22  C   UNL     1      24.254   9.729  27.892  1.00  0.00     0.000 C 
BRANCH  22  23
ATOM     23  C   UNL     1      22.910  10.118  27.244  1.00  0.00     0.000 C 
BRANCH  23  24
ATOM     24  C   UNL     1      21.657   9.899  28.116  1.00  0.00    -0.000 C 
BRANCH  24  25
ATOM     25  C   UNL     1      20.632   8.902  27.543  1.00  0.00    -0.000 C 
BRANCH  25  26
ATOM     26  C   UNL     1      19.198   9.151  28.039  1.00  0.00    -0.000 C 
BRANCH  26  27
ATOM     27  C   UNL     1      18.299   9.585  26.873  1.00  0.00    -0.000 C 
BRANCH  27  28
ATOM     28  C   UNL     1      16.893   8.977  26.990  1.00  0.00    -0.000 C 
BRANCH  28  29
ATOM     29  C   UNL     1      16.654   7.849  25.970  1.00  0.00    -0.000 C 
BRANCH  29  30
ATOM     30  C   UNL     1      15.414   8.098  25.099  1.00  0.00    -0.000 C 
BRANCH  30  31
ATOM     31  C   UNL     1      15.600   7.506  23.700  1.00  0.00    -0.003 C 
ATOM     32  C   UNL     1      16.807   6.571  23.660  1.00  0.00     0.004 C 
ENDBRANCH  30  31
ENDBRANCH  29  30
ENDBRANCH  28  29
ENDBRANCH  27  28
ENDBRANCH  26  27
ENDBRANCH  25  26
ENDBRANCH  24  25
ENDBRANCH  23  24
ENDBRANCH  22  23
ENDBRANCH  21  22
ENDBRANCH  20  21
ENDBRANCH  19  20
ENDBRANCH  18  19
ENDBRANCH   1  18
TORSDOF 28
ENDMDL
MODEL 2
REMARK VINA RESULT:    -2.085      1.529      4.751
REMARK INTER + INTRA:          -9.641
REMARK INTER:                  -5.529
REMARK INTRA:                  -4.112
REMARK UNBOUND:                -4.144
REMARK SMILES CCCCCCCCCCCCCCCCCCCCCCCCCCCCCC(=O)[O-]
REMARK SMILES IDX 16 1 17 2 18 3 19 4 20 5 21 6 22 7 23 8 24 9 25 10 26 11
REMARK SMILES IDX 27 12 28 13 29 14 30 15 31 16 32 17 15 18 14 19 13 20 12 21
REMARK SMILES IDX 11 22 10 23 9 24 8 25 7 26 6 27 5 28 4 29 3 30 2 31 1 32
REMARK H PARENT
REMARK Flexibility Score: inf
ROOT
ATOM      1  C   UNL     1      21.403   3.236  23.988  1.00  0.00     0.000 C 
ENDROOT
BRANCH   1   2
ATOM      2  C   UNL     1      19.989   3.692  24.392  1.00  0.00     0.000 C 
BRANCH   2   3
ATOM      3  C   UNL     1      19.281   2.689  25.324  1.00  0.00     0.000 C 
BRANCH   3   4
ATOM      4  C   UNL     1      19.139   3.124  26.796  1.00  0.00     0.000 C 
BRANCH   4   5
ATOM      5  C   UNL     1      18.273   4.379  27.010  1.00  0.00     0.000 C 
BRANCH   5   6
ATOM      6  C   UNL     1      18.866   5.355  28.043  1.00  0.00     0.000 C 
BRANCH   6   7
ATOM      7  C   UNL     1      18.115   6.704  28.075  1.00  0.00     0.000 C 
BRANCH   7   8
ATOM      8  C   UNL     1      16.605   6.592  27.792  1.00  0.00     0.000 C 
BRANCH   8   9
ATOM      9  C   UNL     1      15.780   7.852  28.097  1.00  0.00     0.000 C 
BRANCH   9  10
ATOM     10  C   UNL     1      15.479   8.749  26.880  1.00  0.00     0.000 C 
BRANCH  10  11
ATOM     11  C   UNL     1      16.434   9.953  26.740  1.00  0.00     0.000 C 
BRANCH  11  12
ATOM     12  C   UNL     1      17.133   9.983  25.367  1.00  0.00     0.000 C 
BRANCH  12  13
ATOM     13  C   UNL     1      16.821   8.743  24.513  1.00  0.00     0.006 C 
BRANCH  13  14
ATOM     14  C   UNL     1      18.082   7.930  24.194  1.00  0.00     0.053 C 
BRANCH  14  15
ATOM     15  C   UNL     1      18.992   8.706  23.297  1.00  0.00     0.041 C 
ATOM     16  O   UNL     1      20.240   8.518  23.330  1.00  0.00    -0.550 OA
ATOM     17  O   UNL     1      18.461   9.650  22.428  1.00  0.00    -0.550 OA
ENDBRANCH  14  15
ENDBRANCH  13  14
ENDBRANCH  12  13
ENDBRANCH  11  12
ENDBRANCH  10  11
ENDBRANCH   9  10
ENDBRANCH   8   9
ENDBRANCH   7   8
ENDBRANCH   6   7
ENDBRANCH   5   6
ENDBRANCH   4   5
ENDBRANCH   3   4
ENDBRANCH   2   3
ENDBRANCH   1   2
BRANCH   1  18
ATOM     18  C   UNL     1      22.475   3.616  25.021  1.00  0.00     0.000 C 
BRANCH  18  19
ATOM     19  C   UNL     1      23.062   2.434  25.816  1.00  0.00     0.000 C 
BRANCH  19  20
ATOM     20  C   UNL     1      22.577   2.358  27.281  1.00  0.00     0.000 C 
BRANCH  20  21
ATOM     21  C   UNL     1      23.036   3.578  28.097  1.00  0.00     0.000 C 
BRANCH  21  22
ATOM     22  C   UNL     1      21.998   4.715  28.124  1.00  0.00     0.000 C 
BRANCH  22  23
ATOM     23  C   UNL     1      22.577   6.141  28.025  1.00  0.00     0.000 C 
BRANCH  23  24
ATOM     24  C   UNL     1      24.082   6.233  27.699  1.00  0.00    -0.000 C 
BRANCH  24  25
ATOM     25  C   UNL     1      24.733   7.592  28.017  1.00  0.00    -0.000 C 
BRANCH  25  26
ATOM     26  C   UNL     1      25.460   8.215  26.813  1.00  0.00    -0.000 C 
BRANCH  26  27
ATOM     27  C   UNL     1      25.268   9.738  26.804  1.00  0.00    -0.000 C 
BRANCH  27  28
ATOM     28  C   UNL     1      23.804  10.122  27.069  1.00  0.00    -0.000 C 
BRANCH  28  29
ATOM     29  C   UNL     1      22.891   9.827  25.866  1.00  0.00    -0.000 C 
BRANCH  29  30
ATOM     30  C   UNL     1      21.404  10.024  26.193  1.00  0.00    -0.000 C 
BRANCH  30  31
ATOM     31  C   UNL     1      20.959   9.075  27.309  1.00  0.00    -0.003 C 
ATOM     32  C   UNL     1      19.766   9.649  28.070  1.00  0.00     0.004 C 
ENDBRANCH  30  31
ENDBRANCH  29  30
ENDBRANCH  28  29
ENDBRANCH  27  28
ENDBRANCH  26  27
ENDBRANCH  25  26
ENDBRANCH  24  25
ENDBRANCH  23  24
ENDBRANCH  22  23
ENDBRANCH  21  22
ENDBRANCH  20  21
ENDBRANCH  19  20
ENDBRANCH  18  19
ENDBRANCH   1  18
TORSDOF 28
ENDMDL
MODEL 3
REMARK VINA RESULT:    -1.996      1.916      5.551
REMARK INTER + INTRA:          -9.407
REMARK INTER:                  -5.116
REMARK INTRA:                  -4.291
REMARK UNBOUND:                -4.144
REMARK SMILES CCCCCCCCCCCCCCCCCCCCCCCCCCCCCC(=O)[O-]
REMARK SMILES IDX 16 1 17 2 18 3 19 4 20 5 21 6 22 7 23 8 24 9 25 10 26 11
REMARK SMILES IDX 27 12 28 13 29 14 30 15 31 16 32 17 15 18 14 19 13 20 12 21
REMARK SMILES IDX 11 22 10 23 9 24 8 25 7 26 6 27 5 28 4 29 3 30 2 31 1 32
REMARK H PARENT
REMARK Flexibility Score: inf
ROOT
ATOM      1  C   UNL     1      20.681   3.938  24.150  1.00  0.00     0.000 C 
ENDROOT
BRANCH   1   2
ATOM      2  C   UNL     1      21.123   5.327  23.653  1.00  0.00     0.000 C 
BRANCH   2   3
ATOM      3  C   UNL     1      20.381   6.478  24.360  1.00  0.00     0.000 C 
BRANCH   3   4
ATOM      4  C   UNL     1      19.177   7.067  23.599  1.00  0.00     0.000 C 
BRANCH   4   5
ATOM      5  C   UNL     1      17.816   6.464  23.992  1.00  0.00     0.000 C 
BRANCH   5   6
ATOM      6  C   UNL     1      16.619   7.282  23.475  1.00  0.00     0.000 C 
BRANCH   6   7
ATOM      7  C   UNL     1      15.561   7.533  24.572  1.00  0.00     0.000 C 
BRANCH   7   8
ATOM      8  C   UNL     1      16.116   7.474  26.008  1.00  0.00     0.000 C 
BRANCH   8   9
ATOM      9  C   UNL     1      15.184   8.022  27.100  1.00  0.00     0.000 C 
BRANCH   9  10
ATOM     10  C   UNL     1      15.741   9.218  27.898  1.00  0.00     0.000 C 
BRANCH  10  11
ATOM     11  C   UNL     1      16.962   9.894  27.238  1.00  0.00     0.000 C 
BRANCH  11  12
ATOM     12  C   UNL     1      18.287   9.215  27.635  1.00  0.00     0.000 C 
BRANCH  12  13
ATOM     13  C   UNL     1      19.508  10.125  27.425  1.00  0.00     0.006 C 
BRANCH  13  14
ATOM     14  C   UNL     1      20.105   9.974  26.020  1.00  0.00     0.053 C 
BRANCH  14  15
ATOM     15  C   UNL     1      21.595   9.874  26.092  1.00  0.00     0.041 C 
ATOM     16  O   UNL     1      22.195   9.997  27.196  1.00  0.00    -0.550 OA
ATOM     17  O   UNL     1      22.327   9.656  24.932  1.00  0.00    -0.550 OA
ENDBRANCH  14  15
ENDBRANCH  13  14
ENDBRANCH  12  13
ENDBRANCH  11  12
ENDBRANCH  10  11
ENDBRANCH   9  10
ENDBRANCH   8   9
ENDBRANCH   7   8
ENDBRANCH   6   7
ENDBRANCH   5   6
ENDBRANCH   4   5
ENDBRANCH   3   4
ENDBRANCH   2   3
ENDBRANCH   1   2
BRANCH   1  18
ATOM     18  C   UNL     1      21.756   2.858  23.950  1.00  0.00     0.000 C 
BRANCH  18  19
ATOM     19  C   UNL     1      21.270   1.410  24.149  1.00  0.00     0.000 C 
BRANCH  19  20
ATOM     20  C   UNL     1      21.254   0.948  25.622  1.00  0.00     0.000 C 
BRANCH  20  21
ATOM     21  C   UNL     1      22.529   1.378  26.368  1.00  0.00     0.000 C 
BRANCH  21  22
ATOM     22  C   UNL     1      22.261   2.403  27.486  1.00  0.00     0.000 C 
BRANCH  22  23
ATOM     23  C   UNL     1      23.429   3.361  27.797  1.00  0.00     0.000 C 
BRANCH  23  24
ATOM     24  C   UNL     1      23.695   4.458  26.746  1.00  0.00    -0.000 C 
BRANCH  24  25
ATOM     25  C   UNL     1      23.903   5.872  27.322  1.00  0.00    -0.000 C 
BRANCH  25  26
ATOM     26  C   UNL     1      22.654   6.763  27.212  1.00  0.00    -0.000 C 
BRANCH  26  27
ATOM     27  C   UNL     1      21.539   6.233  28.125  1.00  0.00    -0.000 C 
BRANCH  27  28
ATOM     28  C   UNL     1      20.259   5.931  27.331  1.00  0.00    -0.000 C 
BRANCH  28  29
ATOM     29  C   UNL     1      19.309   4.984  28.086  1.00  0.00    -0.000 C 
BRANCH  29  30
ATOM     30  C   UNL     1      18.423   4.162  27.139  1.00  0.00    -0.000 C 
BRANCH  30  31
ATOM     31  C   UNL     1      18.711   2.665  27.282  1.00  0.00    -0.003 C 
ATOM     32  C   UNL     1      17.619   1.975  28.097  1.00  0.00     0.004 C 
ENDBRANCH  30  31
ENDBRANCH  29  30
ENDBRANCH  28  29
ENDBRANCH  27  28
ENDBRANCH  26  27
ENDBRANCH  25  26
ENDBRANCH  24  25
ENDBRANCH  23  24
ENDBRANCH  22  23
ENDBRANCH  21  22
ENDBRANCH  20  21
ENDBRANCH  19  20
ENDBRANCH  18  19
ENDBRANCH   1  18
TORSDOF 28
ENDMDL
MODEL 4
REMARK VINA RESULT:    -1.977      1.851      6.476
REMARK INTER + INTRA:          -9.358
REMARK INTER:                  -6.610
REMARK INTRA:                  -2.748
REMARK UNBOUND:                -4.144
REMARK SMILES CCCCCCCCCCCCCCCCCCCCCCCCCCCCCC(=O)[O-]
REMARK SMILES IDX 16 1 17 2 18 3 19 4 20 5 21 6 22 7 23 8 24 9 25 10 26 11
REMARK SMILES IDX 27 12 28 13 29 14 30 15 31 16 32 17 15 18 14 19 13 20 12 21
REMARK SMILES IDX 11 22 10 23 9 24 8 25 7 26 6 27 5 28 4 29 3 30 2 31 1 32
REMARK H PARENT
REMARK Flexibility Score: inf
ROOT
ATOM      1  C   UNL     1      21.247   3.279  23.729  1.00  0.00     0.000 C 
ENDROOT
BRANCH   1   2
ATOM      2  C   UNL     1      21.300   4.749  24.185  1.00  0.00     0.000 C 
BRANCH   2   3
ATOM      3  C   UNL     1      19.903   5.387  24.309  1.00  0.00     0.000 C 
BRANCH   3   4
ATOM      4  C   UNL     1      19.875   6.924  24.423  1.00  0.00     0.000 C 
BRANCH   4   5
ATOM      5  C   UNL     1      19.585   7.657  23.100  1.00  0.00     0.000 C 
BRANCH   5   6
ATOM      6  C   UNL     1      18.967   9.052  23.304  1.00  0.00     0.000 C 
BRANCH   6   7
ATOM      7  C   UNL     1      17.425   9.006  23.374  1.00  0.00     0.000 C 
BRANCH   7   8
ATOM      8  C   UNL     1      16.842   7.589  23.529  1.00  0.00     0.000 C 
BRANCH   8   9
ATOM      9  C   UNL     1      15.362   7.522  23.936  1.00  0.00     0.000 C 
BRANCH   9  10
ATOM     10  C   UNL     1      15.053   8.009  25.366  1.00  0.00     0.000 C 
BRANCH  10  11
ATOM     11  C   UNL     1      15.207   9.534  25.553  1.00  0.00     0.000 C 
BRANCH  11  12
ATOM     12  C   UNL     1      14.875   9.978  26.990  1.00  0.00     0.000 C 
BRANCH  12  13
ATOM     13  C   UNL     1      15.863   9.422  28.028  1.00  0.00     0.006 C 
BRANCH  13  14
ATOM     14  C   UNL     1      17.233  10.106  27.944  1.00  0.00     0.053 C 
BRANCH  14  15
ATOM     15  C   UNL     1      18.252   9.172  27.375  1.00  0.00     0.041 C 
ATOM     16  O   UNL     1      19.281   9.618  26.795  1.00  0.00    -0.550 OA
ATOM     17  O   UNL     1      18.060   7.800  27.475  1.00  0.00    -0.550 OA
ENDBRANCH  14  15
ENDBRANCH  13  14
ENDBRANCH  12  13
ENDBRANCH  11  12
ENDBRANCH  10  11
ENDBRANCH   9  10
ENDBRANCH   8   9
ENDBRANCH   7   8
ENDBRANCH   6   7
ENDBRANCH   5   6
ENDBRANCH   4   5
ENDBRANCH   3   4
ENDBRANCH   2   3
ENDBRANCH   1   2
BRANCH   1  18
ATOM     18  C   UNL     1      21.411   2.283  24.887  1.00  0.00     0.000 C 
BRANCH  18  19
ATOM     19  C   UNL     1      20.186   2.154  25.812  1.00  0.00     0.000 C 
BRANCH  19  20
ATOM     20  C   UNL     1      20.491   1.489  27.173  1.00  0.00     0.000 C 
BRANCH  20  21
ATOM     21  C   UNL     1      21.967   1.071  27.284  1.00  0.00     0.000 C 
BRANCH  21  22
ATOM     22  C   UNL     1      22.819   2.060  28.100  1.00  0.00     0.000 C 
BRANCH  22  23
ATOM     23  C   UNL     1      23.981   2.722  27.332  1.00  0.00     0.000 C 
BRANCH  23  24
ATOM     24  C   UNL     1      24.280   4.190  27.703  1.00  0.00    -0.000 C 
BRANCH  24  25
ATOM     25  C   UNL     1      23.043   5.032  28.068  1.00  0.00    -0.000 C 
BRANCH  25  26
ATOM     26  C   UNL     1      22.892   6.295  27.204  1.00  0.00    -0.000 C 
BRANCH  26  27
ATOM     27  C   UNL     1      21.601   7.041  27.571  1.00  0.00    -0.000 C 
BRANCH  27  28
ATOM     28  C   UNL     1      21.879   8.511  27.918  1.00  0.00    -0.000 C 
BRANCH  28  29
ATOM     29  C   UNL     1      23.165   9.038  27.256  1.00  0.00    -0.000 C 
BRANCH  29  30
ATOM     30  C   UNL     1      23.879  10.092  28.115  1.00  0.00    -0.000 C 
BRANCH  30  31
ATOM     31  C   UNL     1      25.392   9.857  28.124  1.00  0.00    -0.003 C 
ATOM     32  C   UNL     1      25.739   8.514  27.487  1.00  0.00     0.004 C 
ENDBRANCH  30  31
ENDBRANCH  29  30
ENDBRANCH  28  29
ENDBRANCH  27  28
ENDBRANCH  26  27
ENDBRANCH  25  26
ENDBRANCH  24  25
ENDBRANCH  23  24
ENDBRANCH  22  23
ENDBRANCH  21  22
ENDBRANCH  20  21
ENDBRANCH  19  20
ENDBRANCH  18  19
ENDBRANCH   1  18
TORSDOF 28
ENDMDL
MODEL 5
REMARK VINA RESULT:    -1.976      1.891      5.016
REMARK INTER + INTRA:          -9.355
REMARK INTER:                  -7.382
REMARK INTRA:                  -1.973
REMARK UNBOUND:                -4.144
REMARK SMILES CCCCCCCCCCCCCCCCCCCCCCCCCCCCCC(=O)[O-]
REMARK SMILES IDX 16 1 17 2 18 3 19 4 20 5 21 6 22 7 23 8 24 9 25 10 26 11
REMARK SMILES IDX 27 12 28 13 29 14 30 15 31 16 32 17 15 18 14 19 13 20 12 21
REMARK SMILES IDX 11 22 10 23 9 24 8 25 7 26 6 27 5 28 4 29 3 30 2 31 1 32
REMARK H PARENT
REMARK Flexibility Score: inf
ROOT
ATOM      1  C   UNL     1      21.489   2.863  23.862  1.00  0.00     0.000 C 
ENDROOT
BRANCH   1   2
ATOM      2  C   UNL     1      22.889   3.068  24.470  1.00  0.00     0.000 C 
BRANCH   2   3
ATOM      3  C   UNL     1      22.922   2.823  25.991  1.00  0.00     0.000 C 
BRANCH   3   4
ATOM      4  C   UNL     1      24.221   3.238  26.711  1.00  0.00     0.000 C 
BRANCH   4   5
ATOM      5  C   UNL     1      24.053   4.392  27.717  1.00  0.00     0.000 C 
BRANCH   5   6
ATOM      6  C   UNL     1      22.797   5.244  27.456  1.00  0.00     0.000 C 
BRANCH   6   7
ATOM      7  C   UNL     1      23.070   6.756  27.614  1.00  0.00     0.000 C 
BRANCH   7   8
ATOM      8  C   UNL     1      24.508   7.095  28.052  1.00  0.00     0.000 C 
BRANCH   8   9
ATOM      9  C   UNL     1      24.930   8.559  27.859  1.00  0.00     0.000 C 
BRANCH   9  10
ATOM     10  C   UNL     1      25.840   8.825  26.644  1.00  0.00     0.000 C 
BRANCH  10  11
ATOM     11  C   UNL     1      25.499  10.122  25.880  1.00  0.00     0.000 C 
BRANCH  11  12
ATOM     12  C   UNL     1      24.130  10.040  25.180  1.00  0.00     0.000 C 
BRANCH  12  13
ATOM     13  C   UNL     1      22.953  10.077  26.169  1.00  0.00     0.006 C 
BRANCH  13  14
ATOM     14  C   UNL     1      21.598  10.119  25.452  1.00  0.00     0.053 C 
BRANCH  14  15
ATOM     15  C   UNL     1      20.711   9.021  25.943  1.00  0.00     0.041 C 
ATOM     16  O   UNL     1      19.727   9.276  26.693  1.00  0.00    -0.550 OA
ATOM     17  O   UNL     1      20.976   7.707  25.580  1.00  0.00    -0.550 OA
ENDBRANCH  14  15
ENDBRANCH  13  14
ENDBRANCH  12  13
ENDBRANCH  11  12
ENDBRANCH  10  11
ENDBRANCH   9  10
ENDBRANCH   8   9
ENDBRANCH   7   8
ENDBRANCH   6   7
ENDBRANCH   5   6
ENDBRANCH   4   5
ENDBRANCH   3   4
ENDBRANCH   2   3
ENDBRANCH   1   2
BRANCH   1  18
ATOM     18  C   UNL     1      20.807   1.574  24.345  1.00  0.00     0.000 C 
BRANCH  18  19
ATOM     19  C   UNL     1      20.004   1.713  25.653  1.00  0.00     0.000 C 
BRANCH  19  20
ATOM     20  C   UNL     1      19.509   3.147  25.939  1.00  0.00     0.000 C 
BRANCH  20  21
ATOM     21  C   UNL     1      18.268   3.151  26.847  1.00  0.00     0.000 C 
BRANCH  21  22
ATOM     22  C   UNL     1      18.252   4.320  27.849  1.00  0.00     0.000 C 
BRANCH  22  23
ATOM     23  C   UNL     1      18.917   5.621  27.357  1.00  0.00     0.000 C 
BRANCH  23  24
ATOM     24  C   UNL     1      18.169   6.927  27.698  1.00  0.00    -0.000 C 
BRANCH  24  25
ATOM     25  C   UNL     1      16.700   6.742  28.123  1.00  0.00    -0.000 C 
BRANCH  25  26
ATOM     26  C   UNL     1      15.696   7.129  27.024  1.00  0.00    -0.000 C 
BRANCH  26  27
ATOM     27  C   UNL     1      16.385   7.979  25.948  1.00  0.00    -0.000 C 
BRANCH  27  28
ATOM     28  C   UNL     1      15.900   7.604  24.539  1.00  0.00    -0.000 C 
BRANCH  28  29
ATOM     29  C   UNL     1      17.064   7.351  23.565  1.00  0.00    -0.000 C 
BRANCH  29  30
ATOM     30  C   UNL     1      18.213   8.354  23.747  1.00  0.00    -0.000 C 
BRANCH  30  31
ATOM     31  C   UNL     1      18.113   9.491  22.727  1.00  0.00    -0.003 C 
ATOM     32  C   UNL     1      19.308   9.477  21.776  1.00  0.00     0.004 C 
ENDBRANCH  30  31
ENDBRANCH  29  30
ENDBRANCH  28  29
ENDBRANCH  27  28
ENDBRANCH  26  27
ENDBRANCH  25  26
ENDBRANCH  24  25
ENDBRANCH  23  24
ENDBRANCH  22  23
ENDBRANCH  21  22
ENDBRANCH  20  21
ENDBRANCH  19  20
ENDBRANCH  18  19
ENDBRANCH   1  18
TORSDOF 28
ENDMDL
MODEL 6
REMARK VINA RESULT:    -1.908      2.652      4.504
REMARK INTER + INTRA:          -9.174
REMARK INTER:                  -6.401
REMARK INTRA:                  -2.772
REMARK UNBOUND:                -4.144
REMARK SMILES CCCCCCCCCCCCCCCCCCCCCCCCCCCCCC(=O)[O-]
REMARK SMILES IDX 16 1 17 2 18 3 19 4 20 5 21 6 22 7 23 8 24 9 25 10 26 11
REMARK SMILES IDX 27 12 28 13 29 14 30 15 31 16 32 17 15 18 14 19 13 20 12 21
REMARK SMILES IDX 11 22 10 23 9 24 8 25 7 26 6 27 5 28 4 29 3 30 2 31 1 32
REMARK H PARENT
REMARK Flexibility Score: inf
ROOT
ATOM      1  C   UNL     1      24.230   4.245  27.515  1.00  0.00     0.000 C 
ENDROOT
BRANCH   1   2
ATOM      2  C   UNL     1      22.873   3.527  27.639  1.00  0.00     0.000 C 
BRANCH   2   3
ATOM      3  C   UNL     1      21.747   4.459  28.125  1.00  0.00     0.000 C 
BRANCH   3   4
ATOM      4  C   UNL     1      20.309   3.980  27.838  1.00  0.00     0.000 C 
BRANCH   4   5
ATOM      5  C   UNL     1      19.221   5.037  28.100  1.00  0.00     0.000 C 
BRANCH   5   6
ATOM      6  C   UNL     1      19.135   6.105  26.995  1.00  0.00     0.000 C 
BRANCH   6   7
ATOM      7  C   UNL     1      20.172   5.875  25.875  1.00  0.00     0.000 C 
BRANCH   7   8
ATOM      8  C   UNL     1      19.567   5.385  24.545  1.00  0.00     0.000 C 
BRANCH   8   9
ATOM      9  C   UNL     1      20.565   4.771  23.551  1.00  0.00     0.000 C 
BRANCH   9  10
ATOM     10  C   UNL     1      21.632   3.852  24.177  1.00  0.00     0.000 C 
BRANCH  10  11
ATOM     11  C   UNL     1      21.958   2.604  23.329  1.00  0.00     0.000 C 
BRANCH  11  12
ATOM     12  C   UNL     1      21.960   1.314  24.172  1.00  0.00     0.000 C 
BRANCH  12  13
ATOM     13  C   UNL     1      21.076   1.420  25.425  1.00  0.00     0.006 C 
BRANCH  13  14
ATOM     14  C   UNL     1      19.675   0.841  25.193  1.00  0.00     0.053 C 
BRANCH  14  15
ATOM     15  C   UNL     1      18.703   1.410  26.176  1.00  0.00     0.041 C 
ATOM     16  O   UNL     1      17.888   2.309  25.827  1.00  0.00    -0.550 OA
ATOM     17  O   UNL     1      18.704   0.954  27.488  1.00  0.00    -0.550 OA
ENDBRANCH  14  15
ENDBRANCH  13  14
ENDBRANCH  12  13
ENDBRANCH  11  12
ENDBRANCH  10  11
ENDBRANCH   9  10
ENDBRANCH   8   9
ENDBRANCH   7   8
ENDBRANCH   6   7
ENDBRANCH   5   6
ENDBRANCH   4   5
ENDBRANCH   3   4
ENDBRANCH   2   3
ENDBRANCH   1   2
BRANCH   1  18
ATOM     18  C   UNL     1      24.103   5.684  26.993  1.00  0.00     0.000 C 
BRANCH  18  19
ATOM     19  C   UNL     1      24.135   6.776  28.079  1.00  0.00     0.000 C 
BRANCH  19  20
ATOM     20  C   UNL     1      25.127   7.924  27.790  1.00  0.00     0.000 C 
BRANCH  20  21
ATOM     21  C   UNL     1      24.450   9.087  27.046  1.00  0.00     0.000 C 
BRANCH  21  22
ATOM     22  C   UNL     1      22.917   8.956  26.981  1.00  0.00     0.000 C 
BRANCH  22  23
ATOM     23  C   UNL     1      22.189  10.079  26.214  1.00  0.00     0.000 C 
BRANCH  23  24
ATOM     24  C   UNL     1      20.657  10.124  26.385  1.00  0.00    -0.000 C 
BRANCH  24  25
ATOM     25  C   UNL     1      19.852   9.852  25.101  1.00  0.00    -0.000 C 
BRANCH  25  26
ATOM     26  C   UNL     1      20.473   8.760  24.214  1.00  0.00    -0.000 C 
BRANCH  26  27
ATOM     27  C   UNL     1      19.939   8.871  22.779  1.00  0.00    -0.000 C 
BRANCH  27  28
ATOM     28  C   UNL     1      18.775   9.870  22.687  1.00  0.00    -0.000 C 
BRANCH  28  29
ATOM     29  C   UNL     1      17.488   9.334  23.338  1.00  0.00    -0.000 C 
BRANCH  29  30
ATOM     30  C   UNL     1      17.559   7.828  23.631  1.00  0.00    -0.000 C 
BRANCH  30  31
ATOM     31  C   UNL     1      16.255   7.330  24.258  1.00  0.00    -0.003 C 
ATOM     32  C   UNL     1      16.157   7.755  25.722  1.00  0.00     0.004 C 
ENDBRANCH  30  31
ENDBRANCH  29  30
ENDBRANCH  28  29
ENDBRANCH  27  28
ENDBRANCH  26  27
ENDBRANCH  25  26
ENDBRANCH  24  25
ENDBRANCH  23  24
ENDBRANCH  22  23
ENDBRANCH  21  22
ENDBRANCH  20  21
ENDBRANCH  19  20
ENDBRANCH  18  19
ENDBRANCH   1  18
TORSDOF 28
ENDMDL
MODEL 7
REMARK VINA RESULT:    -1.855      2.343      5.067
REMARK INTER + INTRA:          -9.035
REMARK INTER:                  -6.262
REMARK INTRA:                  -2.772
REMARK UNBOUND:                -4.144
REMARK SMILES CCCCCCCCCCCCCCCCCCCCCCCCCCCCCC(=O)[O-]
REMARK SMILES IDX 16 1 17 2 18 3 19 4 20 5 21 6 22 7 23 8 24 9 25 10 26 11
REMARK SMILES IDX 27 12 28 13 29 14 30 15 31 16 32 17 15 18 14 19 13 20 12 21
REMARK SMILES IDX 11 22 10 23 9 24 8 25 7 26 6 27 5 28 4 29 3 30 2 31 1 32
REMARK H PARENT
REMARK Flexibility Score: inf
ROOT
ATOM      1  C   UNL     1      18.278   6.604  24.544  1.00  0.00     0.000 C 
ENDROOT
BRANCH   1   2
ATOM      2  C   UNL     1      18.779   5.204  24.143  1.00  0.00     0.000 C 
BRANCH   2   3
ATOM      3  C   UNL     1      19.060   4.300  25.359  1.00  0.00     0.000 C 
BRANCH   3   4
ATOM      4  C   UNL     1      18.676   2.815  25.194  1.00  0.00     0.000 C 
BRANCH   4   5
ATOM      5  C   UNL     1      19.255   1.883  26.273  1.00  0.00     0.000 C 
BRANCH   5   6
ATOM      6  C   UNL     1      20.715   1.477  26.003  1.00  0.00     0.000 C 
BRANCH   6   7
ATOM      7  C   UNL     1      21.724   2.424  26.690  1.00  0.00     0.000 C 
BRANCH   7   8
ATOM      8  C   UNL     1      22.992   2.703  25.860  1.00  0.00     0.000 C 
BRANCH   8   9
ATOM      9  C   UNL     1      24.028   3.623  26.525  1.00  0.00     0.000 C 
BRANCH   9  10
ATOM     10  C   UNL     1      23.705   4.034  27.975  1.00  0.00     0.000 C 
BRANCH  10  11
ATOM     11  C   UNL     1      23.233   5.496  28.119  1.00  0.00     0.000 C 
BRANCH  11  12
ATOM     12  C   UNL     1      23.640   6.359  26.909  1.00  0.00     0.000 C 
BRANCH  12  13
ATOM     13  C   UNL     1      23.673   7.861  27.234  1.00  0.00     0.006 C 
BRANCH  13  14
ATOM     14  C   UNL     1      25.008   8.287  27.858  1.00  0.00     0.053 C 
BRANCH  14  15
ATOM     15  C   UNL     1      25.678   9.319  27.008  1.00  0.00     0.041 C 
ATOM     16  O   UNL     1      26.748   9.870  27.389  1.00  0.00    -0.550 OA
ATOM     17  O   UNL     1      25.113   9.683  25.792  1.00  0.00    -0.550 OA
ENDBRANCH  14  15
ENDBRANCH  13  14
ENDBRANCH  12  13
ENDBRANCH  11  12
ENDBRANCH  10  11
ENDBRANCH   9  10
ENDBRANCH   8   9
ENDBRANCH   7   8
ENDBRANCH   6   7
ENDBRANCH   5   6
ENDBRANCH   4   5
ENDBRANCH   3   4
ENDBRANCH   2   3
ENDBRANCH   1   2
BRANCH   1  18
ATOM     18  C   UNL     1      17.698   7.396  23.362  1.00  0.00     0.000 C 
BRANCH  18  19
ATOM     19  C   UNL     1      17.143   8.788  23.720  1.00  0.00     0.000 C 
BRANCH  19  20
ATOM     20  C   UNL     1      18.168   9.933  23.572  1.00  0.00     0.000 C 
BRANCH  20  21
ATOM     21  C   UNL     1      19.155   9.668  22.423  1.00  0.00     0.000 C 
BRANCH  21  22
ATOM     22  C   UNL     1      20.568   9.295  22.909  1.00  0.00     0.000 C 
BRANCH  22  23
ATOM     23  C   UNL     1      20.952   9.835  24.302  1.00  0.00     0.000 C 
BRANCH  23  24
ATOM     24  C   UNL     1      20.702   8.877  25.485  1.00  0.00    -0.000 C 
BRANCH  24  25
ATOM     25  C   UNL     1      21.183   9.397  26.853  1.00  0.00    -0.000 C 
BRANCH  25  26
ATOM     26  C   UNL     1      20.041   9.595  27.863  1.00  0.00    -0.000 C 
BRANCH  26  27
ATOM     27  C   UNL     1      18.784  10.114  27.152  1.00  0.00    -0.000 C 
BRANCH  27  28
ATOM     28  C   UNL     1      17.544   9.288  27.526  1.00  0.00    -0.000 C 
BRANCH  28  29
ATOM     29  C   UNL     1      16.229  10.011  27.180  1.00  0.00    -0.000 C 
BRANCH  29  30
ATOM     30  C   UNL     1      15.020   9.064  27.181  1.00  0.00    -0.000 C 
BRANCH  30  31
ATOM     31  C   UNL     1      15.436   7.645  26.784  1.00  0.00    -0.003 C 
ATOM     32  C   UNL     1      15.708   6.792  28.021  1.00  0.00     0.004 C 
ENDBRANCH  30  31
ENDBRANCH  29  30
ENDBRANCH  28  29
ENDBRANCH  27  28
ENDBRANCH  26  27
ENDBRANCH  25  26
ENDBRANCH  24  25
ENDBRANCH  23  24
ENDBRANCH  22  23
ENDBRANCH  21  22
ENDBRANCH  20  21
ENDBRANCH  19  20
ENDBRANCH  18  19
ENDBRANCH   1  18
TORSDOF 28
ENDMDL
MODEL 8
REMARK VINA RESULT:    -1.826      1.524      5.535
REMARK INTER + INTRA:          -8.959
REMARK INTER:                  -6.643
REMARK INTRA:                  -2.316
REMARK UNBOUND:                -4.144
REMARK SMILES CCCCCCCCCCCCCCCCCCCCCCCCCCCCCC(=O)[O-]
REMARK SMILES IDX 16 1 17 2 18 3 19 4 20 5 21 6 22 7 23 8 24 9 25 10 26 11
REMARK SMILES IDX 27 12 28 13 29 14 30 15 31 16 32 17 15 18 14 19 13 20 12 21
REMARK SMILES IDX 11 22 10 23 9 24 8 25 7 26 6 27 5 28 4 29 3 30 2 31 1 32
REMARK H PARENT
REMARK Flexibility Score: inf
ROOT
ATOM      1  C   UNL     1      19.264   2.742  26.555  1.00  0.00     0.000 C 
ENDROOT
BRANCH   1   2
ATOM      2  C   UNL     1      18.658   3.282  25.246  1.00  0.00     0.000 C 
BRANCH   2   3
ATOM      3  C   UNL     1      18.611   4.821  25.200  1.00  0.00     0.000 C 
BRANCH   3   4
ATOM      4  C   UNL     1      18.346   5.443  23.814  1.00  0.00     0.000 C 
BRANCH   4   5
ATOM      5  C   UNL     1      17.524   6.745  23.845  1.00  0.00     0.000 C 
BRANCH   5   6
ATOM      6  C   UNL     1      16.181   6.630  23.102  1.00  0.00     0.000 C 
BRANCH   6   7
ATOM      7  C   UNL     1      15.019   7.283  23.882  1.00  0.00     0.000 C 
BRANCH   7   8
ATOM      8  C   UNL     1      15.388   8.613  24.567  1.00  0.00     0.000 C 
BRANCH   8   9
ATOM      9  C   UNL     1      14.962   8.741  26.038  1.00  0.00     0.000 C 
BRANCH   9  10
ATOM     10  C   UNL     1      15.994   8.233  27.065  1.00  0.00     0.000 C 
BRANCH  10  11
ATOM     11  C   UNL     1      17.191   9.185  27.271  1.00  0.00     0.000 C 
BRANCH  11  12
ATOM     12  C   UNL     1      17.426  10.094  26.050  1.00  0.00     0.000 C 
BRANCH  12  13
ATOM     13  C   UNL     1      18.706   9.732  25.277  1.00  0.00     0.006 C 
BRANCH  13  14
ATOM     14  C   UNL     1      18.516   9.852  23.760  1.00  0.00     0.053 C 
BRANCH  14  15
ATOM     15  C   UNL     1      19.784   9.510  23.045  1.00  0.00     0.041 C 
ATOM     16  O   UNL     1      20.839   9.257  23.692  1.00  0.00    -0.550 OA
ATOM     17  O   UNL     1      19.806   9.482  21.656  1.00  0.00    -0.550 OA
ENDBRANCH  14  15
ENDBRANCH  13  14
ENDBRANCH  12  13
ENDBRANCH  11  12
ENDBRANCH  10  11
ENDBRANCH   9  10
ENDBRANCH   8   9
ENDBRANCH   7   8
ENDBRANCH   6   7
ENDBRANCH   5   6
ENDBRANCH   4   5
ENDBRANCH   3   4
ENDBRANCH   2   3
ENDBRANCH   1   2
BRANCH   1  18
ATOM     18  C   UNL     1      19.524   3.843  27.595  1.00  0.00     0.000 C 
BRANCH  18  19
ATOM     19  C   UNL     1      18.278   4.639  28.026  1.00  0.00     0.000 C 
BRANCH  19  20
ATOM     20  C   UNL     1      18.507   6.163  28.125  1.00  0.00     0.000 C 
BRANCH  20  21
ATOM     21  C   UNL     1      19.849   6.579  27.499  1.00  0.00     0.000 C 
BRANCH  21  22
ATOM     22  C   UNL     1      20.425   7.874  28.102  1.00  0.00     0.000 C 
BRANCH  22  23
ATOM     23  C   UNL     1      21.329   8.696  27.161  1.00  0.00     0.000 C 
BRANCH  23  24
ATOM     24  C   UNL     1      22.755   8.146  26.951  1.00  0.00    -0.000 C 
BRANCH  24  25
ATOM     25  C   UNL     1      23.195   7.078  27.970  1.00  0.00    -0.000 C 
BRANCH  25  26
ATOM     26  C   UNL     1      24.267   6.121  27.423  1.00  0.00    -0.000 C 
BRANCH  26  27
ATOM     27  C   UNL     1      23.775   4.669  27.500  1.00  0.00    -0.000 C 
BRANCH  27  28
ATOM     28  C   UNL     1      24.696   3.721  26.716  1.00  0.00    -0.000 C 
BRANCH  28  29
ATOM     29  C   UNL     1      24.027   3.174  25.442  1.00  0.00    -0.000 C 
BRANCH  29  30
ATOM     30  C   UNL     1      22.523   3.476  25.391  1.00  0.00    -0.000 C 
BRANCH  30  31
ATOM     31  C   UNL     1      21.996   3.392  23.956  1.00  0.00    -0.003 C 
ATOM     32  C   UNL     1      21.554   1.969  23.619  1.00  0.00     0.004 C 
ENDBRANCH  30  31
ENDBRANCH  29  30
ENDBRANCH  28  29
ENDBRANCH  27  28
ENDBRANCH  26  27
ENDBRANCH  25  26
ENDBRANCH  24  25
ENDBRANCH  23  24
ENDBRANCH  22  23
ENDBRANCH  21  22
ENDBRANCH  20  21
ENDBRANCH  19  20
ENDBRANCH  18  19
ENDBRANCH   1  18
TORSDOF 28
ENDMDL
