MODEL 1
REMARK VINA RESULT:    -2.250      0.000      0.000
REMARK INTER + INTRA:          -2.250
REMARK INTER:                  -2.250
REMARK INTRA:                   0.000
REMARK UNBOUND:                 0.000
REMARK SMILES CC(=O)[O-]
REMARK SMILES IDX 1 1 2 2 3 3 4 4
REMARK H PARENT
REMARK Flexibility Score: inf
ROOT
ATOM      1  C   UNL     1      12.747 -27.676  25.158  1.00  0.00     0.063 C 
ATOM      2  C   UNL     1      12.451 -28.930  24.409  1.00  0.00     0.038 C 
ATOM      3  O   UNL     1      13.211 -29.928  24.520  1.00  0.00    -0.550 OA
ATOM      4  O   UNL     1      11.365 -28.984  23.544  1.00  0.00    -0.550 OA
ENDROOT
TORSDOF 0
ENDMDL
MODEL 2
REMARK VINA RESULT:    -2.201     10.997     11.402
REMARK INTER + INTRA:          -2.201
REMARK INTER:                  -2.201
REMARK INTRA:                   0.000
REMARK UNBOUND:                 0.000
REMARK SMILES CC(=O)[O-]
REMARK SMILES IDX 1 1 2 2 3 3 4 4
REMARK H PARENT
REMARK Flexibility Score: inf
ROOT
ATOM      1  C   UNL     1      16.398 -39.122  29.076  1.00  0.00     0.063 C 
ATOM      2  C   UNL     1      16.302 -38.922  27.601  1.00  0.00     0.038 C 
ATOM      3  O   UNL     1      15.175 -38.845  27.046  1.00  0.00    -0.550 OA
ATOM      4  O   UNL     1      17.456 -38.874  26.829  1.00  0.00    -0.550 OA
ENDROOT
TORSDOF 0
ENDMDL
MODEL 3
REMARK VINA RESULT:    -2.195     10.503     11.172
REMARK INTER + INTRA:          -2.195
REMARK INTER:                  -2.195
REMARK INTRA:                   0.000
REMARK UNBOUND:                 0.000
REMARK SMILES CC(=O)[O-]
REMARK SMILES IDX 1 1 2 2 3 3 4 4
REMARK H PARENT
REMARK Flexibility Score: inf
ROOT
ATOM      1  C   UNL     1      15.718 -39.125  28.691  1.00  0.00     0.063 C 
ATOM      2  C   UNL     1      16.619 -37.942  28.794  1.00  0.00     0.038 C 
ATOM      3  O   UNL     1      16.752 -37.161  27.815  1.00  0.00    -0.550 OA
ATOM      4  O   UNL     1      17.355 -37.726  29.952  1.00  0.00    -0.550 OA
ENDROOT
TORSDOF 0
ENDMDL
MODEL 4
REMARK VINA RESULT:    -2.174     10.481     11.054
REMARK INTER + INTRA:          -2.174
REMARK INTER:                  -2.174
REMARK INTRA:                   0.000
REMARK UNBOUND:                 0.000
REMARK SMILES CC(=O)[O-]
REMARK SMILES IDX 1 1 2 2 3 3 4 4
REMARK H PARENT
REMARK Flexibility Score: inf
ROOT
ATOM      1  C   UNL     1      15.647 -39.125  28.706  1.00  0.00     0.063 C 
ATOM      2  C   UNL     1      16.590 -37.974  28.805  1.00  0.00     0.038 C 
ATOM      3  O   UNL     1      17.206 -37.752  29.880  1.00  0.00    -0.550 OA
ATOM      4  O   UNL     1      16.751 -37.112  27.727  1.00  0.00    -0.550 OA
ENDROOT
TORSDOF 0
ENDMDL
MODEL 5
REMARK VINA RESULT:    -2.169     12.601     12.958
REMARK INTER + INTRA:          -2.169
REMARK INTER:                  -2.169
REMARK INTRA:                   0.000
REMARK UNBOUND:                 0.000
REMARK SMILES CC(=O)[O-]
REMARK SMILES IDX 1 1 2 2 3 3 4 4
REMARK H PARENT
REMARK Flexibility Score: inf
ROOT
ATOM      1  C   UNL     1      23.253 -25.313  19.377  1.00  0.00     0.063 C 
ATOM      2  C   UNL     1      23.729 -24.385  20.442  1.00  0.00     0.038 C 
ATOM      3  O   UNL     1      23.270 -24.474  21.611  1.00  0.00    -0.550 OA
ATOM      4  O   UNL     1      24.642 -23.384  20.136  1.00  0.00    -0.550 OA
ENDROOT
TORSDOF 0
ENDMDL
MODEL 6
REMARK VINA RESULT:    -2.161     12.564     12.883
REMARK INTER + INTRA:          -2.161
REMARK INTER:                  -2.161
REMARK INTRA:                   0.000
REMARK UNBOUND:                 0.000
REMARK SMILES CC(=O)[O-]
REMARK SMILES IDX 1 1 2 2 3 3 4 4
REMARK H PARENT
REMARK Flexibility Score: inf
ROOT
ATOM      1  C   UNL     1      23.066 -24.679  21.479  1.00  0.00     0.063 C 
ATOM      2  C   UNL     1      23.741 -24.446  20.170  1.00  0.00     0.038 C 
ATOM      3  O   UNL     1      24.609 -23.541  20.059  1.00  0.00    -0.550 OA
ATOM      4  O   UNL     1      23.375 -25.190  19.055  1.00  0.00    -0.550 OA
ENDROOT
TORSDOF 0
ENDMDL
MODEL 7
REMARK VINA RESULT:    -2.144     11.673     11.972
REMARK INTER + INTRA:          -2.144
REMARK INTER:                  -2.144
REMARK INTRA:                   0.000
REMARK UNBOUND:                 0.000
REMARK SMILES CC(=O)[O-]
REMARK SMILES IDX 1 1 2 2 3 3 4 4
REMARK H PARENT
REMARK Flexibility Score: inf
ROOT
ATOM      1  C   UNL     1      23.422 -27.069  20.010  1.00  0.00     0.063 C 
ATOM      2  C   UNL     1      22.779 -25.747  19.758  1.00  0.00     0.038 C 
ATOM      3  O   UNL     1      21.537 -25.609  19.908  1.00  0.00    -0.550 OA
ATOM      4  O   UNL     1      23.542 -24.678  19.305  1.00  0.00    -0.550 OA
ENDROOT
TORSDOF 0
ENDMDL
MODEL 8
REMARK VINA RESULT:    -2.142     12.545     12.889
REMARK INTER + INTRA:          -2.142
REMARK INTER:                  -2.142
REMARK INTRA:                   0.000
REMARK UNBOUND:                 0.000
REMARK SMILES CC(=O)[O-]
REMARK SMILES IDX 1 1 2 2 3 3 4 4
REMARK H PARENT
REMARK Flexibility Score: inf
ROOT
ATOM      1  C   UNL     1      22.908 -25.029  21.215  1.00  0.00     0.063 C 
ATOM      2  C   UNL     1      23.638 -24.564  20.001  1.00  0.00     0.038 C 
ATOM      3  O   UNL     1      23.490 -25.166  18.905  1.00  0.00    -0.550 OA
ATOM      4  O   UNL     1      24.525 -23.498  20.087  1.00  0.00    -0.550 OA
ENDROOT
TORSDOF 0
ENDMDL
MODEL 9
REMARK VINA RESULT:    -2.076     11.407     11.759
REMARK INTER + INTRA:          -2.076
REMARK INTER:                  -2.076
REMARK INTRA:                   0.000
REMARK UNBOUND:                 0.000
REMARK SMILES CC(=O)[O-]
REMARK SMILES IDX 1 1 2 2 3 3 4 4
REMARK H PARENT
REMARK Flexibility Score: inf
ROOT
ATOM      1  C   UNL     1      21.271 -25.871  20.172  1.00  0.00     0.063 C 
ATOM      2  C   UNL     1      22.708 -25.888  19.773  1.00  0.00     0.038 C 
ATOM      3  O   UNL     1      23.289 -24.816  19.460  1.00  0.00    -0.550 OA
ATOM      4  O   UNL     1      23.395 -27.093  19.696  1.00  0.00    -0.550 OA
ENDROOT
TORSDOF 0
ENDMDL
