MODEL 1
REMARK VINA RESULT:    -4.760      0.000      0.000
REMARK INTER + INTRA:          -6.808
REMARK INTER:                  -6.430
REMARK INTRA:                  -0.379
REMARK UNBOUND:                -0.379
REMARK SMILES O=C[C@@H](O)[C@@H](O)[C@H](O)CO
REMARK SMILES IDX 7 1 9 2 10 3 5 5 3 6 2 7 1 8 4 9 6 11 8 13
REMARK H PARENT 10 4 4 10 6 12 8 14
REMARK Flexibility Score: inf
ROOT
ATOM      1  C   UNL     1      27.029 -16.444   5.569  1.00  0.00     0.171 C 
ENDROOT
BRANCH   1   2
ATOM      2  C   UNL     1      26.655 -17.795   4.924  1.00  0.00     0.190 C 
BRANCH   2   3
ATOM      3  O   UNL     1      25.310 -18.112   5.165  1.00  0.00    -0.394 OA
ATOM      4  H   UNL     1      25.240 -19.101   5.125  1.00  0.00     0.210 HD
ENDBRANCH   2   3
ENDBRANCH   1   2
BRANCH   1   5
ATOM      5  C   UNL     1      26.377 -16.270   6.971  1.00  0.00     0.181 C 
BRANCH   5   6
ATOM      6  C   UNL     1      27.053 -17.103   8.096  1.00  0.00     0.209 C 
BRANCH   6   7
ATOM      7  C   UNL     1      27.775 -16.238   9.102  1.00  0.00     0.258 C 
ATOM      8  O   UNL     1      28.790 -15.642   8.779  1.00  0.00    -0.300 OA
ENDBRANCH   6   7
BRANCH   6   9
ATOM      9  O   UNL     1      26.138 -17.965   8.728  1.00  0.00    -0.383 OA
ATOM     10  H   UNL     1      25.253 -17.516   8.746  1.00  0.00     0.211 HD
ENDBRANCH   6   9
ENDBRANCH   5   6
BRANCH   5  11
ATOM     11  O   UNL     1      26.302 -14.911   7.329  1.00  0.00    -0.387 OA
ATOM     12  H   UNL     1      26.106 -14.387   6.509  1.00  0.00     0.211 HD
ENDBRANCH   5  11
ENDBRANCH   1   5
BRANCH   1  13
ATOM     13  O   UNL     1      26.695 -15.380   4.710  1.00  0.00    -0.388 OA
ATOM     14  H   UNL     1      27.520 -15.092   4.239  1.00  0.00     0.211 HD
ENDBRANCH   1  13
TORSDOF 8
ENDMDL
MODEL 2
REMARK VINA RESULT:    -4.743      1.228      2.423
REMARK INTER + INTRA:          -6.785
REMARK INTER:                  -6.270
REMARK INTRA:                  -0.515
REMARK UNBOUND:                -0.379
REMARK SMILES O=C[C@@H](O)[C@@H](O)[C@H](O)CO
REMARK SMILES IDX 7 1 9 2 10 3 5 5 3 6 2 7 1 8 4 9 6 11 8 13
REMARK H PARENT 10 4 4 10 6 12 8 14
REMARK Flexibility Score: inf
ROOT
ATOM      1  C   UNL     1      26.053 -16.993   5.879  1.00  0.00     0.171 C 
ENDROOT
BRANCH   1   2
ATOM      2  C   UNL     1      27.003 -16.720   4.694  1.00  0.00     0.190 C 
BRANCH   2   3
ATOM      3  O   UNL     1      27.014 -15.357   4.363  1.00  0.00    -0.394 OA
ATOM      4  H   UNL     1      27.274 -15.299   3.407  1.00  0.00     0.210 HD
ENDBRANCH   2   3
ENDBRANCH   1   2
BRANCH   1   5
ATOM      5  C   UNL     1      26.820 -17.080   7.231  1.00  0.00     0.181 C 
BRANCH   5   6
ATOM      6  C   UNL     1      27.180 -15.700   7.849  1.00  0.00     0.209 C 
BRANCH   6   7
ATOM      7  C   UNL     1      28.613 -15.305   7.586  1.00  0.00     0.258 C 
ATOM      8  O   UNL     1      28.876 -14.515   6.694  1.00  0.00    -0.300 OA
ENDBRANCH   6   7
BRANCH   6   9
ATOM      9  O   UNL     1      26.288 -14.695   7.433  1.00  0.00    -0.383 OA
ATOM     10  H   UNL     1      25.587 -15.116   6.872  1.00  0.00     0.211 HD
ENDBRANCH   6   9
ENDBRANCH   5   6
BRANCH   5  11
ATOM     11  O   UNL     1      26.123 -17.879   8.156  1.00  0.00    -0.387 OA
ATOM     12  H   UNL     1      25.181 -17.951   7.853  1.00  0.00     0.211 HD
ENDBRANCH   5  11
ENDBRANCH   1   5
BRANCH   1  13
ATOM     13  O   UNL     1      25.293 -18.154   5.642  1.00  0.00    -0.388 OA
ATOM     14  H   UNL     1      24.333 -17.902   5.651  1.00  0.00     0.211 HD
ENDBRANCH   1  13
TORSDOF 8
ENDMDL
MODEL 3
REMARK VINA RESULT:    -4.711      1.392      2.001
REMARK INTER + INTRA:          -6.743
REMARK INTER:                  -6.205
REMARK INTRA:                  -0.537
REMARK UNBOUND:                -0.379
REMARK SMILES O=C[C@@H](O)[C@@H](O)[C@H](O)CO
REMARK SMILES IDX 7 1 9 2 10 3 5 5 3 6 2 7 1 8 4 9 6 11 8 13
REMARK H PARENT 10 4 4 10 6 12 8 14
REMARK Flexibility Score: inf
ROOT
ATOM      1  C   UNL     1      27.052 -16.808   5.414  1.00  0.00     0.171 C 
ENDROOT
BRANCH   1   2
ATOM      2  C   UNL     1      26.488 -18.121   4.832  1.00  0.00     0.190 C 
BRANCH   2   3
ATOM      3  O   UNL     1      25.108 -18.223   5.066  1.00  0.00    -0.394 OA
ATOM      4  H   UNL     1      24.812 -17.339   5.406  1.00  0.00     0.210 HD
ENDBRANCH   2   3
ENDBRANCH   1   2
BRANCH   1   5
ATOM      5  C   UNL     1      27.193 -16.873   6.963  1.00  0.00     0.181 C 
BRANCH   5   6
ATOM      6  C   UNL     1      27.404 -15.490   7.642  1.00  0.00     0.209 C 
BRANCH   6   7
ATOM      7  C   UNL     1      28.641 -14.783   7.143  1.00  0.00     0.258 C 
ATOM      8  O   UNL     1      28.548 -13.922   6.284  1.00  0.00    -0.300 OA
ENDBRANCH   6   7
BRANCH   6   9
ATOM      9  O   UNL     1      26.265 -14.673   7.523  1.00  0.00    -0.383 OA
ATOM     10  H   UNL     1      25.488 -15.169   7.891  1.00  0.00     0.211 HD
ENDBRANCH   6   9
ENDBRANCH   5   6
BRANCH   5  11
ATOM     11  O   UNL     1      26.108 -17.557   7.541  1.00  0.00    -0.387 OA
ATOM     12  H   UNL     1      26.334 -17.748   8.489  1.00  0.00     0.211 HD
ENDBRANCH   5  11
ENDBRANCH   1   5
BRANCH   1  13
ATOM     13  O   UNL     1      26.262 -15.714   5.014  1.00  0.00    -0.388 OA
ATOM     14  H   UNL     1      26.827 -14.898   5.042  1.00  0.00     0.211 HD
ENDBRANCH   1  13
TORSDOF 8
ENDMDL
MODEL 4
REMARK VINA RESULT:    -4.689      0.789      1.601
REMARK INTER + INTRA:          -6.712
REMARK INTER:                  -6.000
REMARK INTRA:                  -0.712
REMARK UNBOUND:                -0.379
REMARK SMILES O=C[C@@H](O)[C@@H](O)[C@H](O)CO
REMARK SMILES IDX 7 1 9 2 10 3 5 5 3 6 2 7 1 8 4 9 6 11 8 13
REMARK H PARENT 10 4 4 10 6 12 8 14
REMARK Flexibility Score: inf
ROOT
ATOM      1  C   UNL     1      25.962 -16.774   5.506  1.00  0.00     0.171 C 
ENDROOT
BRANCH   1   2
ATOM      2  C   UNL     1      27.153 -16.872   4.530  1.00  0.00     0.190 C 
BRANCH   2   3
ATOM      3  O   UNL     1      27.206 -15.749   3.690  1.00  0.00    -0.394 OA
ATOM      4  H   UNL     1      26.368 -15.752   3.158  1.00  0.00     0.210 HD
ENDBRANCH   2   3
ENDBRANCH   1   2
BRANCH   1   5
ATOM      5  C   UNL     1      26.362 -16.086   6.843  1.00  0.00     0.181 C 
BRANCH   5   6
ATOM      6  C   UNL     1      27.138 -17.006   7.827  1.00  0.00     0.209 C 
BRANCH   6   7
ATOM      7  C   UNL     1      28.062 -16.230   8.736  1.00  0.00     0.258 C 
ATOM      8  O   UNL     1      29.179 -15.922   8.353  1.00  0.00    -0.300 OA
ENDBRANCH   6   7
BRANCH   6   9
ATOM      9  O   UNL     1      26.268 -17.830   8.565  1.00  0.00    -0.383 OA
ATOM     10  H   UNL     1      25.359 -17.744   8.178  1.00  0.00     0.211 HD
ENDBRANCH   6   9
ENDBRANCH   5   6
BRANCH   5  11
ATOM     11  O   UNL     1      27.070 -14.893   6.605  1.00  0.00    -0.387 OA
ATOM     12  H   UNL     1      26.657 -14.440   5.825  1.00  0.00     0.211 HD
ENDBRANCH   5  11
ENDBRANCH   1   5
BRANCH   1  13
ATOM     13  O   UNL     1      25.404 -18.047   5.729  1.00  0.00    -0.388 OA
ATOM     14  H   UNL     1      25.922 -18.709   5.200  1.00  0.00     0.211 HD
ENDBRANCH   1  13
TORSDOF 8
ENDMDL
MODEL 5
REMARK VINA RESULT:    -4.531      1.009      3.858
REMARK INTER + INTRA:          -6.499
REMARK INTER:                  -5.771
REMARK INTRA:                  -0.729
REMARK UNBOUND:                -0.379
REMARK SMILES O=C[C@@H](O)[C@@H](O)[C@H](O)CO
REMARK SMILES IDX 7 1 9 2 10 3 5 5 3 6 2 7 1 8 4 9 6 11 8 13
REMARK H PARENT 10 4 4 10 6 12 8 14
REMARK Flexibility Score: inf
ROOT
ATOM      1  C   UNL     1      27.326 -15.296   7.857  1.00  0.00     0.171 C 
ENDROOT
BRANCH   1   2
ATOM      2  C   UNL     1      28.750 -15.865   8.033  1.00  0.00     0.190 C 
BRANCH   2   3
ATOM      3  O   UNL     1      28.733 -17.023   8.825  1.00  0.00    -0.394 OA
ATOM      4  H   UNL     1      29.095 -17.757   8.264  1.00  0.00     0.210 HD
ENDBRANCH   2   3
ENDBRANCH   1   2
BRANCH   1   5
ATOM      5  C   UNL     1      26.424 -16.240   7.011  1.00  0.00     0.181 C 
BRANCH   5   6
ATOM      6  C   UNL     1      26.948 -16.500   5.570  1.00  0.00     0.209 C 
BRANCH   6   7
ATOM      7  C   UNL     1      26.479 -17.824   5.015  1.00  0.00     0.258 C 
ATOM      8  O   UNL     1      25.303 -18.141   5.101  1.00  0.00    -0.300 OA
ENDBRANCH   6   7
BRANCH   6   9
ATOM      9  O   UNL     1      26.629 -15.440   4.701  1.00  0.00    -0.383 OA
ATOM     10  H   UNL     1      26.664 -14.595   5.220  1.00  0.00     0.211 HD
ENDBRANCH   6   9
ENDBRANCH   5   6
BRANCH   5  11
ATOM     11  O   UNL     1      26.187 -17.452   7.686  1.00  0.00    -0.387 OA
ATOM     12  H   UNL     1      26.575 -18.187   7.143  1.00  0.00     0.211 HD
ENDBRANCH   5  11
ENDBRANCH   1   5
BRANCH   1  13
ATOM     13  O   UNL     1      27.379 -14.003   7.306  1.00  0.00    -0.388 OA
ATOM     14  H   UNL     1      28.260 -13.892   6.862  1.00  0.00     0.211 HD
ENDBRANCH   1  13
TORSDOF 8
ENDMDL
MODEL 6
REMARK VINA RESULT:    -4.495      1.094      1.883
REMARK INTER + INTRA:          -6.451
REMARK INTER:                  -5.774
REMARK INTRA:                  -0.676
REMARK UNBOUND:                -0.379
REMARK SMILES O=C[C@@H](O)[C@@H](O)[C@H](O)CO
REMARK SMILES IDX 7 1 9 2 10 3 5 5 3 6 2 7 1 8 4 9 6 11 8 13
REMARK H PARENT 10 4 4 10 6 12 8 14
REMARK Flexibility Score: inf
ROOT
ATOM      1  C   UNL     1      27.053 -16.527   5.564  1.00  0.00     0.171 C 
ENDROOT
BRANCH   1   2
ATOM      2  C   UNL     1      26.678 -17.899   4.966  1.00  0.00     0.190 C 
BRANCH   2   3
ATOM      3  O   UNL     1      25.302 -18.143   5.096  1.00  0.00    -0.394 OA
ATOM      4  H   UNL     1      24.850 -17.594   4.404  1.00  0.00     0.210 HD
ENDBRANCH   2   3
ENDBRANCH   1   2
BRANCH   1   5
ATOM      5  C   UNL     1      27.164 -16.580   7.116  1.00  0.00     0.181 C 
BRANCH   5   6
ATOM      6  C   UNL     1      27.141 -15.186   7.805  1.00  0.00     0.209 C 
BRANCH   6   7
ATOM      7  C   UNL     1      27.788 -15.206   9.169  1.00  0.00     0.258 C 
ATOM      8  O   UNL     1      27.548 -16.114   9.947  1.00  0.00    -0.300 OA
ENDBRANCH   6   7
BRANCH   6   9
ATOM      9  O   UNL     1      27.705 -14.191   6.985  1.00  0.00    -0.383 OA
ATOM     10  H   UNL     1      27.011 -13.890   6.343  1.00  0.00     0.211 HD
ENDBRANCH   6   9
ENDBRANCH   5   6
BRANCH   5  11
ATOM     11  O   UNL     1      26.183 -17.428   7.663  1.00  0.00    -0.387 OA
ATOM     12  H   UNL     1      26.607 -17.966   8.381  1.00  0.00     0.211 HD
ENDBRANCH   5  11
ENDBRANCH   1   5
BRANCH   1  13
ATOM     13  O   UNL     1      26.139 -15.542   5.146  1.00  0.00    -0.388 OA
ATOM     14  H   UNL     1      26.618 -14.674   5.103  1.00  0.00     0.211 HD
ENDBRANCH   1  13
TORSDOF 8
ENDMDL
MODEL 7
REMARK VINA RESULT:    -4.481      5.812      7.179
REMARK INTER + INTRA:          -6.431
REMARK INTER:                  -5.915
REMARK INTRA:                  -0.516
REMARK UNBOUND:                -0.379
REMARK SMILES O=C[C@@H](O)[C@@H](O)[C@H](O)CO
REMARK SMILES IDX 7 1 9 2 10 3 5 5 3 6 2 7 1 8 4 9 6 11 8 13
REMARK H PARENT 10 4 4 10 6 12 8 14
REMARK Flexibility Score: inf
ROOT
ATOM      1  C   UNL     1      28.372 -11.360   7.954  1.00  0.00     0.171 C 
ENDROOT
BRANCH   1   2
ATOM      2  C   UNL     1      27.919 -12.530   8.853  1.00  0.00     0.190 C 
BRANCH   2   3
ATOM      3  O   UNL     1      28.036 -12.195  10.210  1.00  0.00    -0.394 OA
ATOM      4  H   UNL     1      28.739 -11.498  10.271  1.00  0.00     0.210 HD
ENDBRANCH   2   3
ENDBRANCH   1   2
BRANCH   1   5
ATOM      5  C   UNL     1      29.610 -10.622   8.542  1.00  0.00     0.181 C 
BRANCH   5   6
ATOM      6  C   UNL     1      30.506  -9.932   7.475  1.00  0.00     0.209 C 
BRANCH   6   7
ATOM      7  C   UNL     1      31.870  -9.570   8.013  1.00  0.00     0.258 C 
ATOM      8  O   UNL     1      32.138  -9.774   9.186  1.00  0.00    -0.300 OA
ENDBRANCH   6   7
BRANCH   6   9
ATOM      9  O   UNL     1      30.607 -10.703   6.302  1.00  0.00    -0.383 OA
ATOM     10  H   UNL     1      29.690 -10.939   6.007  1.00  0.00     0.211 HD
ENDBRANCH   6   9
ENDBRANCH   5   6
BRANCH   5  11
ATOM     11  O   UNL     1      29.227  -9.710   9.543  1.00  0.00    -0.387 OA
ATOM     12  H   UNL     1      28.830 -10.225  10.293  1.00  0.00     0.211 HD
ENDBRANCH   5  11
ENDBRANCH   1   5
BRANCH   1  13
ATOM     13  O   UNL     1      27.303 -10.473   7.728  1.00  0.00    -0.388 OA
ATOM     14  H   UNL     1      27.511  -9.939   6.917  1.00  0.00     0.211 HD
ENDBRANCH   1  13
TORSDOF 8
ENDMDL
MODEL 8
REMARK VINA RESULT:    -4.457      4.838      6.228
REMARK INTER + INTRA:          -6.399
REMARK INTER:                  -5.606
REMARK INTRA:                  -0.793
REMARK UNBOUND:                -0.379
REMARK SMILES O=C[C@@H](O)[C@@H](O)[C@H](O)CO
REMARK SMILES IDX 7 1 9 2 10 3 5 5 3 6 2 7 1 8 4 9 6 11 8 13
REMARK H PARENT 10 4 4 10 6 12 8 14
REMARK Flexibility Score: inf
ROOT
ATOM      1  C   UNL     1      27.579 -12.605   8.930  1.00  0.00     0.171 C 
ENDROOT
BRANCH   1   2
ATOM      2  C   UNL     1      28.488 -13.399   7.968  1.00  0.00     0.190 C 
BRANCH   2   3
ATOM      3  O   UNL     1      28.244 -13.039   6.634  1.00  0.00    -0.394 OA
ATOM      4  H   UNL     1      28.847 -13.594   6.075  1.00  0.00     0.210 HD
ENDBRANCH   2   3
ENDBRANCH   1   2
BRANCH   1   5
ATOM      5  C   UNL     1      27.777 -11.069   8.780  1.00  0.00     0.181 C 
BRANCH   5   6
ATOM      6  C   UNL     1      29.243 -10.592   8.978  1.00  0.00     0.209 C 
BRANCH   6   7
ATOM      7  C   UNL     1      29.823  -9.972   7.729  1.00  0.00     0.258 C 
ATOM      8  O   UNL     1      30.188 -10.683   6.807  1.00  0.00    -0.300 OA
ENDBRANCH   6   7
BRANCH   6   9
ATOM      9  O   UNL     1      29.364  -9.727  10.081  1.00  0.00    -0.383 OA
ATOM     10  H   UNL     1      28.457  -9.569  10.451  1.00  0.00     0.211 HD
ENDBRANCH   6   9
ENDBRANCH   5   6
BRANCH   5  11
ATOM     11  O   UNL     1      27.261 -10.611   7.553  1.00  0.00    -0.387 OA
ATOM     12  H   UNL     1      26.981 -11.401   7.022  1.00  0.00     0.211 HD
ENDBRANCH   5  11
ENDBRANCH   1   5
BRANCH   1  13
ATOM     13  O   UNL     1      27.786 -13.024  10.258  1.00  0.00    -0.388 OA
ATOM     14  H   UNL     1      27.049 -12.660  10.815  1.00  0.00     0.211 HD
ENDBRANCH   1  13
TORSDOF 8
ENDMDL
MODEL 9
REMARK VINA RESULT:    -4.424      4.943      6.531
REMARK INTER + INTRA:          -6.355
REMARK INTER:                  -5.829
REMARK INTRA:                  -0.526
REMARK UNBOUND:                -0.379
REMARK SMILES O=C[C@@H](O)[C@@H](O)[C@H](O)CO
REMARK SMILES IDX 7 1 9 2 10 3 5 5 3 6 2 7 1 8 4 9 6 11 8 13
REMARK H PARENT 10 4 4 10 6 12 8 14
REMARK Flexibility Score: inf
ROOT
ATOM      1  C   UNL     1      29.349 -10.712   9.144  1.00  0.00     0.171 C 
ENDROOT
BRANCH   1   2
ATOM      2  C   UNL     1      30.461  -9.983   8.361  1.00  0.00     0.190 C 
BRANCH   2   3
ATOM      3  O   UNL     1      29.917  -9.039   7.478  1.00  0.00    -0.394 OA
ATOM      4  H   UNL     1      29.572  -9.546   6.697  1.00  0.00     0.210 HD
ENDBRANCH   2   3
ENDBRANCH   1   2
BRANCH   1   5
ATOM      5  C   UNL     1      28.325 -11.399   8.194  1.00  0.00     0.181 C 
BRANCH   5   6
ATOM      6  C   UNL     1      27.605 -12.630   8.815  1.00  0.00     0.209 C 
BRANCH   6   7
ATOM      7  C   UNL     1      27.968 -13.922   8.122  1.00  0.00     0.258 C 
ATOM      8  O   UNL     1      28.495 -13.898   7.022  1.00  0.00    -0.300 OA
ENDBRANCH   6   7
BRANCH   6   9
ATOM      9  O   UNL     1      27.824 -12.715  10.203  1.00  0.00    -0.383 OA
ATOM     10  H   UNL     1      28.583 -13.336  10.358  1.00  0.00     0.211 HD
ENDBRANCH   6   9
ENDBRANCH   5   6
BRANCH   5  11
ATOM     11  O   UNL     1      27.392 -10.469   7.699  1.00  0.00    -0.387 OA
ATOM     12  H   UNL     1      26.556 -10.957   7.482  1.00  0.00     0.211 HD
ENDBRANCH   5  11
ENDBRANCH   1   5
BRANCH   1  13
ATOM     13  O   UNL     1      28.713  -9.827  10.034  1.00  0.00    -0.388 OA
ATOM     14  H   UNL     1      28.715 -10.240  10.936  1.00  0.00     0.211 HD
ENDBRANCH   1  13
TORSDOF 8
ENDMDL
