MODEL 1
REMARK VINA RESULT:    -4.318      0.000      0.000
REMARK INTER + INTRA:          -6.645
REMARK INTER:                  -6.338
REMARK INTRA:                  -0.306
REMARK UNBOUND:                -0.306
REMARK SMILES O=C([O-])CCCCCCCC(=O)[O-]
REMARK SMILES IDX 7 1 6 2 5 3 4 4 2 5 1 6 3 7 8 8 9 9 10 10 11 11 12 12 13 13
REMARK H PARENT
REMARK Flexibility Score: inf
ROOT
ATOM      1  C   UNL     1      -3.819  37.081  18.754  1.00  0.00     0.000 C 
ENDROOT
BRANCH   1   2
ATOM      2  C   UNL     1      -3.847  36.738  20.251  1.00  0.00     0.000 C 
BRANCH   2   3
ATOM      3  C   UNL     1      -4.470  35.362  20.533  1.00  0.00     0.006 C 
BRANCH   3   4
ATOM      4  C   UNL     1      -5.867  35.461  21.160  1.00  0.00     0.053 C 
BRANCH   4   5
ATOM      5  C   UNL     1      -5.769  35.464  22.653  1.00  0.00     0.041 C 
ATOM      6  O   UNL     1      -6.125  36.477  23.309  1.00  0.00    -0.550 OA
ATOM      7  O   UNL     1      -5.331  34.329  23.323  1.00  0.00    -0.550 OA
ENDBRANCH   4   5
ENDBRANCH   3   4
ENDBRANCH   2   3
ENDBRANCH   1   2
BRANCH   1   8
ATOM      8  C   UNL     1      -2.376  37.241  18.254  1.00  0.00     0.000 C 
BRANCH   8   9
ATOM      9  C   UNL     1      -2.153  36.619  16.863  1.00  0.00     0.006 C 
BRANCH   9  10
ATOM     10  C   UNL     1      -3.446  36.312  16.091  1.00  0.00     0.053 C 
BRANCH  10  11
ATOM     11  C   UNL     1      -3.395  36.821  14.683  1.00  0.00     0.041 C 
ATOM     12  O   UNL     1      -2.436  36.503  13.930  1.00  0.00    -0.550 OA
ATOM     13  O   UNL     1      -4.387  37.673  14.214  1.00  0.00    -0.550 OA
ENDBRANCH  10  11
ENDBRANCH   9  10
ENDBRANCH   8   9
ENDBRANCH   1   8
TORSDOF 8
ENDMDL
MODEL 2
REMARK VINA RESULT:    -4.307      1.024      7.310
REMARK INTER + INTRA:          -6.628
REMARK INTER:                  -6.382
REMARK INTRA:                  -0.245
REMARK UNBOUND:                -0.306
REMARK SMILES O=C([O-])CCCCCCCC(=O)[O-]
REMARK SMILES IDX 7 1 6 2 5 3 4 4 2 5 1 6 3 7 8 8 9 9 10 10 11 11 12 12 13 13
REMARK H PARENT
REMARK Flexibility Score: inf
ROOT
ATOM      1  C   UNL     1      -4.160  36.142  19.371  1.00  0.00     0.000 C 
ENDROOT
BRANCH   1   2
ATOM      2  C   UNL     1      -3.128  37.244  19.082  1.00  0.00     0.000 C 
BRANCH   2   3
ATOM      3  C   UNL     1      -2.657  37.244  17.620  1.00  0.00     0.006 C 
BRANCH   3   4
ATOM      4  C   UNL     1      -3.374  36.190  16.766  1.00  0.00     0.053 C 
BRANCH   4   5
ATOM      5  C   UNL     1      -3.434  36.629  15.337  1.00  0.00     0.041 C 
ATOM      6  O   UNL     1      -3.134  35.827  14.414  1.00  0.00    -0.550 OA
ATOM      7  O   UNL     1      -3.868  37.910  15.020  1.00  0.00    -0.550 OA
ENDBRANCH   4   5
ENDBRANCH   3   4
ENDBRANCH   2   3
ENDBRANCH   1   2
BRANCH   1   8
ATOM      8  C   UNL     1      -5.277  36.664  20.286  1.00  0.00     0.000 C 
BRANCH   8   9
ATOM      9  C   UNL     1      -5.758  35.612  21.302  1.00  0.00     0.006 C 
BRANCH   9  10
ATOM     10  C   UNL     1      -6.125  36.184  22.681  1.00  0.00     0.053 C 
BRANCH  10  11
ATOM     11  C   UNL     1      -5.633  35.316  23.799  1.00  0.00     0.041 C 
ATOM     12  O   UNL     1      -5.048  34.230  23.546  1.00  0.00    -0.550 OA
ATOM     13  O   UNL     1      -5.851  35.690  25.119  1.00  0.00    -0.550 OA
ENDBRANCH  10  11
ENDBRANCH   9  10
ENDBRANCH   8   9
ENDBRANCH   1   8
TORSDOF 8
ENDMDL
MODEL 3
REMARK VINA RESULT:    -4.274      1.033      1.771
REMARK INTER + INTRA:          -6.579
REMARK INTER:                  -6.324
REMARK INTRA:                  -0.256
REMARK UNBOUND:                -0.306
REMARK SMILES O=C([O-])CCCCCCCC(=O)[O-]
REMARK SMILES IDX 7 1 6 2 5 3 4 4 2 5 1 6 3 7 8 8 9 9 10 10 11 11 12 12 13 13
REMARK H PARENT
REMARK Flexibility Score: inf
ROOT
ATOM      1  C   UNL     1      -4.265  35.969  19.937  1.00  0.00     0.000 C 
ENDROOT
BRANCH   1   2
ATOM      2  C   UNL     1      -5.737  35.667  20.254  1.00  0.00     0.000 C 
BRANCH   2   3
ATOM      3  C   UNL     1      -5.934  35.097  21.668  1.00  0.00     0.006 C 
BRANCH   3   4
ATOM      4  C   UNL     1      -6.125  36.192  22.726  1.00  0.00     0.053 C 
BRANCH   4   5
ATOM      5  C   UNL     1      -6.000  35.616  24.101  1.00  0.00     0.041 C 
ATOM      6  O   UNL     1      -5.762  34.390  24.256  1.00  0.00    -0.550 OA
ATOM      7  O   UNL     1      -6.099  36.444  25.213  1.00  0.00    -0.550 OA
ENDBRANCH   4   5
ENDBRANCH   3   4
ENDBRANCH   2   3
ENDBRANCH   1   2
BRANCH   1   8
ATOM      8  C   UNL     1      -4.130  37.296  19.175  1.00  0.00     0.000 C 
BRANCH   8   9
ATOM      9  C   UNL     1      -3.085  37.232  18.046  1.00  0.00     0.006 C 
BRANCH   9  10
ATOM     10  C   UNL     1      -3.367  36.161  16.980  1.00  0.00     0.053 C 
BRANCH  10  11
ATOM     11  C   UNL     1      -3.123  36.669  15.592  1.00  0.00     0.041 C 
ATOM     12  O   UNL     1      -2.236  36.139  14.871  1.00  0.00    -0.550 OA
ATOM     13  O   UNL     1      -3.849  37.749  15.108  1.00  0.00    -0.550 OA
ENDBRANCH  10  11
ENDBRANCH   9  10
ENDBRANCH   8   9
ENDBRANCH   1   8
TORSDOF 8
ENDMDL
MODEL 4
REMARK VINA RESULT:    -4.189      1.035      7.410
REMARK INTER + INTRA:          -6.454
REMARK INTER:                  -6.201
REMARK INTRA:                  -0.253
REMARK UNBOUND:                -0.306
REMARK SMILES O=C([O-])CCCCCCCC(=O)[O-]
REMARK SMILES IDX 7 1 6 2 5 3 4 4 2 5 1 6 3 7 8 8 9 9 10 10 11 11 12 12 13 13
REMARK H PARENT
REMARK Flexibility Score: inf
ROOT
ATOM      1  C   UNL     1      -4.287  35.947  19.850  1.00  0.00     0.000 C 
ENDROOT
BRANCH   1   2
ATOM      2  C   UNL     1      -3.724  37.297  19.382  1.00  0.00     0.000 C 
BRANCH   2   3
ATOM      3  C   UNL     1      -2.833  37.167  18.136  1.00  0.00     0.006 C 
BRANCH   3   4
ATOM      4  C   UNL     1      -3.437  36.243  17.070  1.00  0.00     0.053 C 
BRANCH   4   5
ATOM      5  C   UNL     1      -3.048  36.703  15.701  1.00  0.00     0.041 C 
ATOM      6  O   UNL     1      -2.011  36.248  15.150  1.00  0.00    -0.550 OA
ATOM      7  O   UNL     1      -3.857  37.597  15.012  1.00  0.00    -0.550 OA
ENDBRANCH   4   5
ENDBRANCH   3   4
ENDBRANCH   2   3
ENDBRANCH   1   2
BRANCH   1   8
ATOM      8  C   UNL     1      -5.769  36.074  20.234  1.00  0.00     0.000 C 
BRANCH   8   9
ATOM      9  C   UNL     1      -6.119  35.313  21.526  1.00  0.00     0.006 C 
BRANCH   9  10
ATOM     10  C   UNL     1      -6.083  36.173  22.799  1.00  0.00     0.053 C 
BRANCH  10  11
ATOM     11  C   UNL     1      -5.871  35.347  24.031  1.00  0.00     0.041 C 
ATOM     12  O   UNL     1      -6.125  35.828  25.167  1.00  0.00    -0.550 OA
ATOM     13  O   UNL     1      -5.362  34.059  23.926  1.00  0.00    -0.550 OA
ENDBRANCH  10  11
ENDBRANCH   9  10
ENDBRANCH   8   9
ENDBRANCH   1   8
TORSDOF 8
ENDMDL
MODEL 5
REMARK VINA RESULT:    -3.550      2.072      6.843
REMARK INTER + INTRA:          -5.517
REMARK INTER:                  -5.155
REMARK INTRA:                  -0.362
REMARK UNBOUND:                -0.306
REMARK SMILES O=C([O-])CCCCCCCC(=O)[O-]
REMARK SMILES IDX 7 1 6 2 5 3 4 4 2 5 1 6 3 7 8 8 9 9 10 10 11 11 12 12 13 13
REMARK H PARENT
REMARK Flexibility Score: inf
ROOT
ATOM      1  C   UNL     1      -4.191  37.099  19.005  1.00  0.00     0.000 C 
ENDROOT
BRANCH   1   2
ATOM      2  C   UNL     1      -2.667  37.152  18.821  1.00  0.00     0.000 C 
BRANCH   2   3
ATOM      3  C   UNL     1      -2.247  37.115  17.343  1.00  0.00     0.006 C 
BRANCH   3   4
ATOM      4  C   UNL     1      -3.098  36.148  16.509  1.00  0.00     0.053 C 
BRANCH   4   5
ATOM      5  C   UNL     1      -3.334  36.706  15.142  1.00  0.00     0.041 C 
ATOM      6  O   UNL     1      -3.083  36.012  14.122  1.00  0.00    -0.550 OA
ATOM      7  O   UNL     1      -3.875  37.976  14.993  1.00  0.00    -0.550 OA
ENDBRANCH   4   5
ENDBRANCH   3   4
ENDBRANCH   2   3
ENDBRANCH   1   2
BRANCH   1   8
ATOM      8  C   UNL     1      -4.565  36.287  20.253  1.00  0.00     0.000 C 
BRANCH   8   9
ATOM      9  C   UNL     1      -5.372  37.104  21.278  1.00  0.00     0.006 C 
BRANCH   9  10
ATOM     10  C   UNL     1      -5.728  38.527  20.816  1.00  0.00     0.053 C 
BRANCH  10  11
ATOM     11  C   UNL     1      -5.752  39.499  21.955  1.00  0.00     0.041 C 
ATOM     12  O   UNL     1      -6.125  40.687  21.765  1.00  0.00    -0.550 OA
ATOM     13  O   UNL     1      -5.331  39.102  23.218  1.00  0.00    -0.550 OA
ENDBRANCH  10  11
ENDBRANCH   9  10
ENDBRANCH   8   9
ENDBRANCH   1   8
TORSDOF 8
ENDMDL
MODEL 6
REMARK VINA RESULT:    -3.521      2.362      3.094
REMARK INTER + INTRA:          -5.475
REMARK INTER:                  -5.167
REMARK INTRA:                  -0.308
REMARK UNBOUND:                -0.306
REMARK SMILES O=C([O-])CCCCCCCC(=O)[O-]
REMARK SMILES IDX 7 1 6 2 5 3 4 4 2 5 1 6 3 7 8 8 9 9 10 10 11 11 12 12 13 13
REMARK H PARENT
REMARK Flexibility Score: inf
ROOT
ATOM      1  C   UNL     1      -4.794  35.741  19.658  1.00  0.00     0.000 C 
ENDROOT
BRANCH   1   2
ATOM      2  C   UNL     1      -5.572  36.505  20.740  1.00  0.00     0.000 C 
BRANCH   2   3
ATOM      3  C   UNL     1      -4.990  37.901  21.013  1.00  0.00     0.006 C 
BRANCH   3   4
ATOM      4  C   UNL     1      -6.061  39.000  21.011  1.00  0.00     0.053 C 
BRANCH   4   5
ATOM      5  C   UNL     1      -5.860  39.926  22.168  1.00  0.00     0.041 C 
ATOM      6  O   UNL     1      -5.410  39.489  23.259  1.00  0.00    -0.550 OA
ATOM      7  O   UNL     1      -6.125  41.282  22.027  1.00  0.00    -0.550 OA
ENDBRANCH   4   5
ENDBRANCH   3   4
ENDBRANCH   2   3
ENDBRANCH   1   2
BRANCH   1   8
ATOM      8  C   UNL     1      -3.855  36.682  18.889  1.00  0.00     0.000 C 
BRANCH   8   9
ATOM      9  C   UNL     1      -3.588  36.213  17.447  1.00  0.00     0.006 C 
BRANCH   9  10
ATOM     10  C   UNL     1      -2.896  37.259  16.558  1.00  0.00     0.053 C 
BRANCH  10  11
ATOM     11  C   UNL     1      -3.305  37.136  15.122  1.00  0.00     0.041 C 
ATOM     12  O   UNL     1      -4.161  37.924  14.638  1.00  0.00    -0.550 OA
ATOM     13  O   UNL     1      -2.768  36.131  14.328  1.00  0.00    -0.550 OA
ENDBRANCH  10  11
ENDBRANCH   9  10
ENDBRANCH   8   9
ENDBRANCH   1   8
TORSDOF 8
ENDMDL
MODEL 7
REMARK VINA RESULT:    -2.960      1.544      7.294
REMARK INTER + INTRA:          -4.651
REMARK INTER:                  -4.334
REMARK INTRA:                  -0.317
REMARK UNBOUND:                -0.306
REMARK SMILES O=C([O-])CCCCCCCC(=O)[O-]
REMARK SMILES IDX 7 1 6 2 5 3 4 4 2 5 1 6 3 7 8 8 9 9 10 10 11 11 12 12 13 13
REMARK H PARENT
REMARK Flexibility Score: inf
ROOT
ATOM      1  C   UNL     1      -4.850  35.425  19.813  1.00  0.00     0.000 C 
ENDROOT
BRANCH   1   2
ATOM      2  C   UNL     1      -4.686  36.930  20.074  1.00  0.00     0.000 C 
BRANCH   2   3
ATOM      3  C   UNL     1      -4.180  37.694  18.840  1.00  0.00     0.006 C 
BRANCH   3   4
ATOM      4  C   UNL     1      -2.891  37.095  18.261  1.00  0.00     0.053 C 
BRANCH   4   5
ATOM      5  C   UNL     1      -3.122  36.615  16.863  1.00  0.00     0.041 C 
ATOM      6  O   UNL     1      -3.263  35.386  16.630  1.00  0.00    -0.550 OA
ATOM      7  O   UNL     1      -3.229  37.529  15.823  1.00  0.00    -0.550 OA
ENDBRANCH   4   5
ENDBRANCH   3   4
ENDBRANCH   2   3
ENDBRANCH   1   2
BRANCH   1   8
ATOM      8  C   UNL     1      -5.002  34.653  21.131  1.00  0.00     0.000 C 
BRANCH   8   9
ATOM      9  C   UNL     1      -5.951  35.348  22.125  1.00  0.00     0.006 C 
BRANCH   9  10
ATOM     10  C   UNL     1      -5.834  34.844  23.572  1.00  0.00     0.053 C 
BRANCH  10  11
ATOM     11  C   UNL     1      -5.982  35.953  24.568  1.00  0.00     0.041 C 
ATOM     12  O   UNL     1      -6.125  35.690  25.792  1.00  0.00    -0.550 OA
ATOM     13  O   UNL     1      -5.998  37.275  24.141  1.00  0.00    -0.550 OA
ENDBRANCH  10  11
ENDBRANCH   9  10
ENDBRANCH   8   9
ENDBRANCH   1   8
TORSDOF 8
ENDMDL
MODEL 8
REMARK VINA RESULT:    -1.566      1.976      2.545
REMARK INTER + INTRA:          -2.606
REMARK INTER:                  -2.174
REMARK INTRA:                  -0.432
REMARK UNBOUND:                -0.306
REMARK SMILES O=C([O-])CCCCCCCC(=O)[O-]
REMARK SMILES IDX 7 1 6 2 5 3 4 4 2 5 1 6 3 7 8 8 9 9 10 10 11 11 12 12 13 13
REMARK H PARENT
REMARK Flexibility Score: inf
ROOT
ATOM      1  C   UNL     1      -5.010  34.401  18.081  1.00  0.00     0.000 C 
ENDROOT
BRANCH   1   2
ATOM      2  C   UNL     1      -5.541  34.600  19.509  1.00  0.00     0.000 C 
BRANCH   2   3
ATOM      3  C   UNL     1      -4.654  35.534  20.346  1.00  0.00     0.006 C 
BRANCH   3   4
ATOM      4  C   UNL     1      -5.456  36.363  21.359  1.00  0.00     0.053 C 
BRANCH   4   5
ATOM      5  C   UNL     1      -5.428  37.811  20.986  1.00  0.00     0.041 C 
ATOM      6  O   UNL     1      -5.138  38.158  19.811  1.00  0.00    -0.550 OA
ATOM      7  O   UNL     1      -5.770  38.777  21.924  1.00  0.00    -0.550 OA
ENDBRANCH   4   5
ENDBRANCH   3   4
ENDBRANCH   2   3
ENDBRANCH   1   2
BRANCH   1   8
ATOM      8  C   UNL     1      -4.217  35.631  17.615  1.00  0.00     0.000 C 
BRANCH   8   9
ATOM      9  C   UNL     1      -3.139  35.287  16.571  1.00  0.00     0.006 C 
BRANCH   9  10
ATOM     10  C   UNL     1      -2.496  36.510  15.896  1.00  0.00     0.053 C 
BRANCH  10  11
ATOM     11  C   UNL     1      -3.475  37.263  15.047  1.00  0.00     0.041 C 
ATOM     12  O   UNL     1      -3.884  38.398  15.410  1.00  0.00    -0.550 OA
ATOM     13  O   UNL     1      -3.960  36.697  13.875  1.00  0.00    -0.550 OA
ENDBRANCH  10  11
ENDBRANCH   9  10
ENDBRANCH   8   9
ENDBRANCH   1   8
TORSDOF 8
ENDMDL
