MODEL 1
REMARK VINA RESULT:    -3.417      0.000      0.000
REMARK INTER + INTRA:          -4.939
REMARK INTER:                  -4.616
REMARK INTRA:                  -0.323
REMARK UNBOUND:                -0.323
REMARK SMILES CCCCCCCC(=O)[O-]
REMARK SMILES IDX 5 1 6 2 7 3 8 4 9 5 10 6 4 7 3 8 2 9 1 10
REMARK H PARENT
REMARK Flexibility Score: inf
ROOT
ATOM      1  C   UNL     1       0.935  -9.659 -41.683  1.00  0.00     0.000 C 
ENDROOT
BRANCH   1   2
ATOM      2  C   UNL     1       2.250 -10.394 -41.969  1.00  0.00     0.006 C 
BRANCH   2   3
ATOM      3  C   UNL     1       1.987 -11.794 -42.532  1.00  0.00     0.053 C 
BRANCH   3   4
ATOM      4  C   UNL     1       2.174 -11.807 -44.015  1.00  0.00     0.041 C 
ATOM      5  O   UNL     1       2.242 -12.902 -44.636  1.00  0.00    -0.550 OA
ATOM      6  O   UNL     1       2.323 -10.614 -44.709  1.00  0.00    -0.550 OA
ENDBRANCH   3   4
ENDBRANCH   2   3
ENDBRANCH   1   2
BRANCH   1   7
ATOM      7  C   UNL     1      -0.193 -10.652 -41.368  1.00  0.00     0.000 C 
BRANCH   7   8
ATOM      8  C   UNL     1      -1.422 -10.458 -42.270  1.00  0.00    -0.000 C 
BRANCH   8   9
ATOM      9  C   UNL     1      -1.735  -8.979 -42.534  1.00  0.00    -0.003 C 
ATOM     10  C   UNL     1      -2.590  -8.389 -41.416  1.00  0.00     0.004 C 
ENDBRANCH   8   9
ENDBRANCH   7   8
ENDBRANCH   1   7
TORSDOF 6
ENDMDL
MODEL 2
REMARK VINA RESULT:    -3.353      1.753      2.626
REMARK INTER + INTRA:          -4.852
REMARK INTER:                  -4.422
REMARK INTRA:                  -0.431
REMARK UNBOUND:                -0.323
REMARK SMILES CCCCCCCC(=O)[O-]
REMARK SMILES IDX 5 1 6 2 7 3 8 4 9 5 10 6 4 7 3 8 2 9 1 10
REMARK H PARENT
REMARK Flexibility Score: inf
ROOT
ATOM      1  C   UNL     1      -0.941 -10.150 -42.187  1.00  0.00     0.000 C 
ENDROOT
BRANCH   1   2
ATOM      2  C   UNL     1       0.472  -9.882 -42.718  1.00  0.00     0.006 C 
BRANCH   2   3
ATOM      3  C   UNL     1       1.510  -9.971 -41.596  1.00  0.00     0.053 C 
BRANCH   3   4
ATOM      4  C   UNL     1       2.543 -11.004 -41.916  1.00  0.00     0.041 C 
ATOM      5  O   UNL     1       3.741 -10.830 -41.569  1.00  0.00    -0.550 OA
ATOM      6  O   UNL     1       2.194 -12.135 -42.643  1.00  0.00    -0.550 OA
ENDBRANCH   3   4
ENDBRANCH   2   3
ENDBRANCH   1   2
BRANCH   1   7
ATOM      7  C   UNL     1      -1.857  -8.941 -42.426  1.00  0.00     0.000 C 
BRANCH   7   8
ATOM      8  C   UNL     1      -2.427  -8.361 -41.122  1.00  0.00    -0.000 C 
BRANCH   8   9
ATOM      9  C   UNL     1      -1.774  -8.965 -39.871  1.00  0.00    -0.003 C 
ATOM     10  C   UNL     1      -1.128  -7.883 -39.011  1.00  0.00     0.004 C 
ENDBRANCH   8   9
ENDBRANCH   7   8
ENDBRANCH   1   7
TORSDOF 6
ENDMDL
MODEL 3
REMARK VINA RESULT:    -3.343      1.305      1.779
REMARK INTER + INTRA:          -4.839
REMARK INTER:                  -4.573
REMARK INTRA:                  -0.266
REMARK UNBOUND:                -0.323
REMARK SMILES CCCCCCCC(=O)[O-]
REMARK SMILES IDX 5 1 6 2 7 3 8 4 9 5 10 6 4 7 3 8 2 9 1 10
REMARK H PARENT
REMARK Flexibility Score: inf
ROOT
ATOM      1  C   UNL     1      -0.167 -10.152 -42.112  1.00  0.00     0.000 C 
ENDROOT
BRANCH   1   2
ATOM      2  C   UNL     1       1.227  -9.540 -42.292  1.00  0.00     0.006 C 
BRANCH   2   3
ATOM      3  C   UNL     1       2.282 -10.627 -42.516  1.00  0.00     0.053 C 
BRANCH   3   4
ATOM      4  C   UNL     1       2.206 -11.153 -43.914  1.00  0.00     0.041 C 
ATOM      5  O   UNL     1       2.103 -12.391 -44.121  1.00  0.00    -0.550 OA
ATOM      6  O   UNL     1       2.300 -10.281 -44.991  1.00  0.00    -0.550 OA
ENDBRANCH   3   4
ENDBRANCH   2   3
ENDBRANCH   1   2
BRANCH   1   7
ATOM      7  C   UNL     1      -1.263  -9.101 -42.340  1.00  0.00     0.000 C 
BRANCH   7   8
ATOM      8  C   UNL     1      -2.053  -8.782 -41.061  1.00  0.00    -0.000 C 
BRANCH   8   9
ATOM      9  C   UNL     1      -1.218  -8.973 -39.787  1.00  0.00    -0.003 C 
ATOM     10  C   UNL     1      -1.192  -7.697 -38.950  1.00  0.00     0.004 C 
ENDBRANCH   8   9
ENDBRANCH   7   8
ENDBRANCH   1   7
TORSDOF 6
ENDMDL
MODEL 4
REMARK VINA RESULT:    -3.314      4.440      5.827
REMARK INTER + INTRA:          -4.799
REMARK INTER:                  -4.535
REMARK INTRA:                  -0.265
REMARK UNBOUND:                -0.323
REMARK SMILES CCCCCCCC(=O)[O-]
REMARK SMILES IDX 5 1 6 2 7 3 8 4 9 5 10 6 4 7 3 8 2 9 1 10
REMARK H PARENT
REMARK Flexibility Score: inf
ROOT
ATOM      1  C   UNL     1      -2.103  -8.517 -40.710  1.00  0.00     0.000 C 
ENDROOT
BRANCH   1   2
ATOM      2  C   UNL     1      -0.960  -8.687 -39.702  1.00  0.00     0.006 C 
BRANCH   2   3
ATOM      3  C   UNL     1      -1.082  -7.679 -38.555  1.00  0.00     0.053 C 
BRANCH   3   4
ATOM      4  C   UNL     1      -0.625  -8.290 -37.269  1.00  0.00     0.041 C 
ATOM      5  O   UNL     1      -0.502  -9.540 -37.170  1.00  0.00    -0.550 OA
ATOM      6  O   UNL     1      -0.382  -7.486 -36.164  1.00  0.00    -0.550 OA
ENDBRANCH   3   4
ENDBRANCH   2   3
ENDBRANCH   1   2
BRANCH   1   7
ATOM      7  C   UNL     1      -1.643  -8.879 -42.130  1.00  0.00     0.000 C 
BRANCH   7   8
ATOM      8  C   UNL     1      -0.547  -9.956 -42.141  1.00  0.00    -0.000 C 
BRANCH   8   9
ATOM      9  C   UNL     1       0.780  -9.443 -42.718  1.00  0.00    -0.003 C 
ATOM     10  C   UNL     1       1.969 -10.001 -41.940  1.00  0.00     0.004 C 
ENDBRANCH   8   9
ENDBRANCH   7   8
ENDBRANCH   1   7
TORSDOF 6
ENDMDL
MODEL 5
REMARK VINA RESULT:    -3.261      2.725      3.323
REMARK INTER + INTRA:          -4.728
REMARK INTER:                  -4.545
REMARK INTRA:                  -0.183
REMARK UNBOUND:                -0.323
REMARK SMILES CCCCCCCC(=O)[O-]
REMARK SMILES IDX 5 1 6 2 7 3 8 4 9 5 10 6 4 7 3 8 2 9 1 10
REMARK H PARENT
REMARK Flexibility Score: inf
ROOT
ATOM      1  C   UNL     1      -0.687  -9.512 -40.644  1.00  0.00     0.000 C 
ENDROOT
BRANCH   1   2
ATOM      2  C   UNL     1       0.731  -9.898 -41.081  1.00  0.00     0.006 C 
BRANCH   2   3
ATOM      3  C   UNL     1       0.974  -9.534 -42.548  1.00  0.00     0.053 C 
BRANCH   3   4
ATOM      4  C   UNL     1       2.050 -10.393 -43.131  1.00  0.00     0.041 C 
ATOM      5  O   UNL     1       2.102 -10.588 -44.374  1.00  0.00    -0.550 OA
ATOM      6  O   UNL     1       2.967 -11.021 -42.297  1.00  0.00    -0.550 OA
ENDBRANCH   3   4
ENDBRANCH   2   3
ENDBRANCH   1   2
BRANCH   1   7
ATOM      7  C   UNL     1      -0.709  -9.071 -39.173  1.00  0.00     0.000 C 
BRANCH   7   8
ATOM      8  C   UNL     1      -1.217  -7.632 -38.994  1.00  0.00    -0.000 C 
BRANCH   8   9
ATOM      9  C   UNL     1      -0.706  -6.981 -37.701  1.00  0.00    -0.003 C 
ATOM     10  C   UNL     1      -0.351  -8.037 -36.657  1.00  0.00     0.004 C 
ENDBRANCH   8   9
ENDBRANCH   7   8
ENDBRANCH   1   7
TORSDOF 6
ENDMDL
MODEL 6
REMARK VINA RESULT:    -3.260      3.802      5.505
REMARK INTER + INTRA:          -4.726
REMARK INTER:                  -4.436
REMARK INTRA:                  -0.290
REMARK UNBOUND:                -0.323
REMARK SMILES CCCCCCCC(=O)[O-]
REMARK SMILES IDX 5 1 6 2 7 3 8 4 9 5 10 6 4 7 3 8 2 9 1 10
REMARK H PARENT
REMARK Flexibility Score: inf
ROOT
ATOM      1  C   UNL     1      -0.451  -9.629 -42.141  1.00  0.00     0.000 C 
ENDROOT
BRANCH   1   2
ATOM      2  C   UNL     1      -0.475  -9.929 -40.638  1.00  0.00     0.006 C 
BRANCH   2   3
ATOM      3  C   UNL     1      -0.852  -8.681 -39.833  1.00  0.00     0.053 C 
BRANCH   3   4
ATOM      4  C   UNL     1      -0.667  -8.925 -38.369  1.00  0.00     0.041 C 
ATOM      5  O   UNL     1      -0.174  -8.028 -37.635  1.00  0.00    -0.550 OA
ATOM      6  O   UNL     1      -0.992 -10.160 -37.824  1.00  0.00    -0.550 OA
ENDBRANCH   3   4
ENDBRANCH   2   3
ENDBRANCH   1   2
BRANCH   1   7
ATOM      7  C   UNL     1       0.987  -9.410 -42.635  1.00  0.00     0.000 C 
BRANCH   7   8
ATOM      8  C   UNL     1       2.025 -10.167 -41.792  1.00  0.00    -0.000 C 
BRANCH   8   9
ATOM      9  C   UNL     1       2.872 -11.137 -42.628  1.00  0.00    -0.003 C 
ATOM     10  C   UNL     1       2.095 -11.641 -43.841  1.00  0.00     0.004 C 
ENDBRANCH   8   9
ENDBRANCH   7   8
ENDBRANCH   1   7
TORSDOF 6
ENDMDL
MODEL 7
REMARK VINA RESULT:    -3.244      1.326      1.833
REMARK INTER + INTRA:          -4.704
REMARK INTER:                  -4.449
REMARK INTRA:                  -0.255
REMARK UNBOUND:                -0.323
REMARK SMILES CCCCCCCC(=O)[O-]
REMARK SMILES IDX 5 1 6 2 7 3 8 4 9 5 10 6 4 7 3 8 2 9 1 10
REMARK H PARENT
REMARK Flexibility Score: inf
ROOT
ATOM      1  C   UNL     1       0.031  -9.499 -41.556  1.00  0.00     0.000 C 
ENDROOT
BRANCH   1   2
ATOM      2  C   UNL     1       1.315  -9.489 -42.394  1.00  0.00     0.006 C 
BRANCH   2   3
ATOM      3  C   UNL     1       2.375 -10.415 -41.789  1.00  0.00     0.053 C 
BRANCH   3   4
ATOM      4  C   UNL     1       2.160 -11.824 -42.240  1.00  0.00     0.041 C 
ATOM      5  O   UNL     1       2.278 -12.776 -41.422  1.00  0.00    -0.550 OA
ATOM      6  O   UNL     1       1.879 -12.094 -43.573  1.00  0.00    -0.550 OA
ENDBRANCH   3   4
ENDBRANCH   2   3
ENDBRANCH   1   2
BRANCH   1   7
ATOM      7  C   UNL     1      -1.150 -10.053 -42.366  1.00  0.00     0.000 C 
BRANCH   7   8
ATOM      8  C   UNL     1      -2.197  -8.979 -42.697  1.00  0.00    -0.000 C 
BRANCH   8   9
ATOM      9  C   UNL     1      -2.840  -8.371 -41.443  1.00  0.00    -0.003 C 
ATOM     10  C   UNL     1      -4.124  -7.623 -41.790  1.00  0.00     0.004 C 
ENDBRANCH   8   9
ENDBRANCH   7   8
ENDBRANCH   1   7
TORSDOF 6
ENDMDL
MODEL 8
REMARK VINA RESULT:    -3.223      1.498      2.216
REMARK INTER + INTRA:          -4.677
REMARK INTER:                  -4.289
REMARK INTRA:                  -0.388
REMARK UNBOUND:                -0.323
REMARK SMILES CCCCCCCC(=O)[O-]
REMARK SMILES IDX 5 1 6 2 7 3 8 4 9 5 10 6 4 7 3 8 2 9 1 10
REMARK H PARENT
REMARK Flexibility Score: inf
ROOT
ATOM      1  C   UNL     1       0.158  -9.521 -40.725  1.00  0.00     0.000 C 
ENDROOT
BRANCH   1   2
ATOM      2  C   UNL     1       0.885  -9.509 -42.075  1.00  0.00     0.006 C 
BRANCH   2   3
ATOM      3  C   UNL     1       2.219 -10.256 -41.989  1.00  0.00     0.053 C 
BRANCH   3   4
ATOM      4  C   UNL     1       2.025 -11.711 -42.273  1.00  0.00     0.041 C 
ATOM      5  O   UNL     1       1.978 -12.123 -43.462  1.00  0.00    -0.550 OA
ATOM      6  O   UNL     1       1.847 -12.606 -41.227  1.00  0.00    -0.550 OA
ENDBRANCH   3   4
ENDBRANCH   2   3
ENDBRANCH   1   2
BRANCH   1   7
ATOM      7  C   UNL     1      -1.322  -9.147 -40.894  1.00  0.00     0.000 C 
BRANCH   7   8
ATOM      8  C   UNL     1      -1.789  -9.221 -42.356  1.00  0.00    -0.000 C 
BRANCH   8   9
ATOM      9  C   UNL     1      -2.803 -10.348 -42.598  1.00  0.00    -0.003 C 
ATOM     10  C   UNL     1      -2.151 -11.718 -42.432  1.00  0.00     0.004 C 
ENDBRANCH   8   9
ENDBRANCH   7   8
ENDBRANCH   1   7
TORSDOF 6
ENDMDL
MODEL 9
REMARK VINA RESULT:    -3.214      1.391      1.912
REMARK INTER + INTRA:          -4.665
REMARK INTER:                  -4.207
REMARK INTRA:                  -0.458
REMARK UNBOUND:                -0.323
REMARK SMILES CCCCCCCC(=O)[O-]
REMARK SMILES IDX 5 1 6 2 7 3 8 4 9 5 10 6 4 7 3 8 2 9 1 10
REMARK H PARENT
REMARK Flexibility Score: inf
ROOT
ATOM      1  C   UNL     1       0.273 -10.899 -41.031  1.00  0.00     0.000 C 
ENDROOT
BRANCH   1   2
ATOM      2  C   UNL     1       1.120  -9.753 -41.598  1.00  0.00     0.006 C 
BRANCH   2   3
ATOM      3  C   UNL     1       1.427  -9.977 -43.082  1.00  0.00     0.053 C 
BRANCH   3   4
ATOM      4  C   UNL     1       2.415 -11.086 -43.252  1.00  0.00     0.041 C 
ATOM      5  O   UNL     1       3.508 -11.063 -42.626  1.00  0.00    -0.550 OA
ATOM      6  O   UNL     1       2.153 -12.121 -44.140  1.00  0.00    -0.550 OA
ENDBRANCH   3   4
ENDBRANCH   2   3
ENDBRANCH   1   2
BRANCH   1   7
ATOM      7  C   UNL     1      -0.732 -10.379 -39.993  1.00  0.00     0.000 C 
BRANCH   7   8
ATOM      8  C   UNL     1      -0.857  -8.847 -40.005  1.00  0.00    -0.000 C 
BRANCH   8   9
ATOM      9  C   UNL     1      -2.243  -8.370 -40.460  1.00  0.00    -0.003 C 
ATOM     10  C   UNL     1      -2.406  -8.518 -41.970  1.00  0.00     0.004 C 
ENDBRANCH   8   9
ENDBRANCH   7   8
ENDBRANCH   1   7
TORSDOF 6
ENDMDL
