MODEL 1
REMARK VINA RESULT:     0.000      0.000      0.000
REMARK INTER + INTRA:          -0.061
REMARK INTER:                   0.000
REMARK INTRA:                  -0.061
REMARK UNBOUND:                -0.061
REMARK SMILES CC1(C)CC[C@]2(C(=O)[O-])[C@H](O)C[C@]3(C)C(=CC[C@@H]4[C@]5(C)CC[C@H](O)C(C)(C)[C@@H]5CC[C@@]43C)[C@@H]2C1
REMARK SMILES IDX 6 1 5 2 33 3 10 4 4 5 34 6 15 7 12 8 2 9 16 10 13 11 1 12
REMARK SMILES IDX 3 13 17 14 31 15 14 16 18 17 30 18 32 19 19 20 29 21 21 22
REMARK SMILES IDX 20 23 28 24 22 25 25 26 23 27 26 28 27 29 7 30 8 31 9 32
REMARK SMILES IDX 11 33 24 35
REMARK H PARENT 11 34 24 36
REMARK Flexibility Score: inf
ROOT
ATOM      1  C   UNL     1      -2.780  -7.017  -7.634  1.00  0.00     0.042 C 
ATOM      2  C   UNL     1      -4.129  -6.511  -8.247  1.00  0.00     0.017 C 
ATOM      3  C   UNL     1      -2.164  -8.105  -8.593  1.00  0.00     0.030 C 
ATOM      4  C   UNL     1      -1.787  -5.818  -7.372  1.00  0.00     0.127 C 
ATOM      5  C   UNL     1      -5.149  -7.630  -8.504  1.00  0.00     0.007 C 
ATOM      6  C   UNL     1      -3.218  -9.229  -8.878  1.00  0.00     0.015 C 
ATOM      7  C   UNL     1      -1.409  -7.519  -9.816  1.00  0.00    -0.063 C 
ATOM      8  C   UNL     1      -0.450  -5.901  -8.141  1.00  0.00     0.044 C 
ATOM      9  C   UNL     1      -4.593  -8.740  -9.424  1.00  0.00    -0.035 C 
ATOM     10  C   UNL     1      -1.280  -8.245 -10.947  1.00  0.00    -0.027 C 
ATOM     11  C   UNL     1      -0.542  -6.267  -9.662  1.00  0.00    -0.003 C 
ATOM     12  C   UNL     1      -4.506  -8.236 -10.885  1.00  0.00     0.011 C 
ATOM     13  C   UNL     1      -5.579  -9.932  -9.407  1.00  0.00     0.011 C 
ATOM     14  C   UNL     1      -0.288  -7.994 -12.046  1.00  0.00     0.032 C 
ATOM     15  C   UNL     1       0.928  -6.525 -10.293  1.00  0.00    -0.020 C 
ATOM     16  C   UNL     1      -1.267  -5.105 -10.409  1.00  0.00     0.017 C 
ATOM     17  C   UNL     1       0.808  -6.905 -11.825  1.00  0.00     0.006 C 
ATOM     18  C   UNL     1       1.664  -7.689  -9.547  1.00  0.00     0.008 C 
ATOM     19  C   UNL     1       1.793  -5.227 -10.136  1.00  0.00     0.012 C 
ATOM     20  C   UNL     1       2.209  -7.226 -12.578  1.00  0.00    -0.025 C 
ATOM     21  C   UNL     1       2.559  -8.600 -10.416  1.00  0.00     0.005 C 
ATOM     22  C   UNL     1       2.020  -8.127 -13.866  1.00  0.00     0.010 C 
ATOM     23  C   UNL     1       2.759  -5.858 -13.127  1.00  0.00     0.012 C 
ATOM     24  C   UNL     1       3.275  -7.873 -11.588  1.00  0.00     0.003 C 
ATOM     25  C   UNL     1       2.347  -9.629 -13.719  1.00  0.00     0.033 C 
ATOM     26  C   UNL     1       4.373  -8.784 -12.290  1.00  0.00    -0.006 C 
ATOM     27  C   UNL     1       3.720  -9.962 -13.090  1.00  0.00     0.120 C 
ATOM     28  C   UNL     1       5.257  -7.943 -13.258  1.00  0.00     0.014 C 
ATOM     29  C   UNL     1       5.384  -9.343 -11.240  1.00  0.00     0.014 C 
ENDROOT
BRANCH   1  30
ATOM     30  C   UNL     1      -3.077  -7.637  -6.262  1.00  0.00     0.051 C 
ATOM     31  O   UNL     1      -2.367  -8.576  -5.811  1.00  0.00    -0.549 OA
ATOM     32  O   UNL     1      -4.046  -7.079  -5.434  1.00  0.00    -0.549 OA
ENDBRANCH   1  30
BRANCH   4  33
ATOM     33  O   UNL     1      -2.404  -4.570  -7.596  1.00  0.00    -0.392 OA
ATOM     34  H   UNL     1      -2.903  -4.629  -8.454  1.00  0.00     0.210 HD
ENDBRANCH   4  33
BRANCH  27  35
ATOM     35  O   UNL     1       3.570 -11.100 -12.270  1.00  0.00    -0.393 OA
ATOM     36  H   UNL     1       2.751 -10.961 -11.727  1.00  0.00     0.210 HD
ENDBRANCH  27  35
TORSDOF 3
ENDMDL
MODEL 2
REMARK VINA RESULT:     0.000      2.302      7.761
REMARK INTER + INTRA:          -0.061
REMARK INTER:                   0.000
REMARK INTRA:                  -0.061
REMARK UNBOUND:                -0.061
REMARK SMILES CC1(C)CC[C@]2(C(=O)[O-])[C@H](O)C[C@]3(C)C(=CC[C@@H]4[C@]5(C)CC[C@H](O)C(C)(C)[C@@H]5CC[C@@]43C)[C@@H]2C1
REMARK SMILES IDX 6 1 5 2 33 3 10 4 4 5 34 6 15 7 12 8 2 9 16 10 13 11 1 12
REMARK SMILES IDX 3 13 17 14 31 15 14 16 18 17 30 18 32 19 19 20 29 21 21 22
REMARK SMILES IDX 20 23 28 24 22 25 25 26 23 27 26 28 27 29 7 30 8 31 9 32
REMARK SMILES IDX 11 33 24 35
REMARK H PARENT 11 34 24 36
REMARK Flexibility Score: inf
ROOT
ATOM      1  C   UNL     1       1.191  -6.916 -13.143  1.00  0.00     0.042 C 
ATOM      2  C   UNL     1       2.684  -7.154 -12.735  1.00  0.00     0.017 C 
ATOM      3  C   UNL     1       0.268  -7.813 -12.234  1.00  0.00     0.030 C 
ATOM      4  C   UNL     1       0.812  -5.386 -13.056  1.00  0.00     0.127 C 
ATOM      5  C   UNL     1       3.121  -8.624 -12.821  1.00  0.00     0.007 C 
ATOM      6  C   UNL     1       0.736  -9.307 -12.300  1.00  0.00     0.015 C 
ATOM      7  C   UNL     1      -0.005  -7.221 -10.825  1.00  0.00    -0.063 C 
ATOM      8  C   UNL     1      -0.326  -5.053 -12.067  1.00  0.00     0.044 C 
ATOM      9  C   UNL     1       2.237  -9.558 -11.965  1.00  0.00    -0.035 C 
ATOM     10  C   UNL     1      -0.315  -8.035  -9.794  1.00  0.00    -0.027 C 
ATOM     11  C   UNL     1      -0.235  -5.718 -10.650  1.00  0.00    -0.003 C 
ATOM     12  C   UNL     1       2.548  -9.365 -10.461  1.00  0.00     0.011 C 
ATOM     13  C   UNL     1       2.581 -11.023 -12.321  1.00  0.00     0.011 C 
ATOM     14  C   UNL     1      -0.960  -7.616  -8.504  1.00  0.00     0.032 C 
ATOM     15  C   UNL     1      -1.585  -5.457  -9.792  1.00  0.00    -0.020 C 
ATOM     16  C   UNL     1       1.009  -5.140  -9.909  1.00  0.00     0.017 C 
ATOM     17  C   UNL     1      -1.475  -6.149  -8.373  1.00  0.00     0.006 C 
ATOM     18  C   UNL     1      -2.842  -6.032 -10.531  1.00  0.00     0.008 C 
ATOM     19  C   UNL     1      -1.794  -3.914  -9.615  1.00  0.00     0.012 C 
ATOM     20  C   UNL     1      -2.778  -5.996  -7.418  1.00  0.00    -0.025 C 
ATOM     21  C   UNL     1      -3.943  -6.639  -9.634  1.00  0.00     0.005 C 
ATOM     22  C   UNL     1      -2.865  -7.130  -6.315  1.00  0.00     0.010 C 
ATOM     23  C   UNL     1      -2.596  -4.663  -6.602  1.00  0.00     0.012 C 
ATOM     24  C   UNL     1      -4.124  -5.926  -8.264  1.00  0.00     0.003 C 
ATOM     25  C   UNL     1      -3.840  -8.295  -6.591  1.00  0.00     0.033 C 
ATOM     26  C   UNL     1      -5.426  -6.414  -7.492  1.00  0.00    -0.006 C 
ATOM     27  C   UNL     1      -5.280  -7.890  -6.989  1.00  0.00     0.120 C 
ATOM     28  C   UNL     1      -5.728  -5.491  -6.274  1.00  0.00     0.014 C 
ATOM     29  C   UNL     1      -6.691  -6.278  -8.396  1.00  0.00     0.014 C 
ENDROOT
BRANCH   1  30
ATOM     30  C   UNL     1       1.024  -7.317 -14.614  1.00  0.00     0.051 C 
ATOM     31  O   UNL     1      -0.075  -7.763 -15.042  1.00  0.00    -0.549 OA
ATOM     32  O   UNL     1       2.040  -7.064 -15.531  1.00  0.00    -0.549 OA
ENDBRANCH   1  30
BRANCH   4  33
ATOM     33  O   UNL     1       1.941  -4.583 -12.792  1.00  0.00    -0.392 OA
ATOM     34  H   UNL     1       1.762  -3.679 -13.165  1.00  0.00     0.210 HD
ENDBRANCH   4  33
BRANCH  27  35
ATOM     35  O   UNL     1      -5.744  -8.799  -7.962  1.00  0.00    -0.393 OA
ATOM     36  H   UNL     1      -4.948  -9.260  -8.333  1.00  0.00     0.210 HD
ENDBRANCH  27  35
TORSDOF 3
ENDMDL
MODEL 3
REMARK VINA RESULT:     0.000      4.798      9.418
REMARK INTER + INTRA:          -0.061
REMARK INTER:                   0.000
REMARK INTRA:                  -0.061
REMARK UNBOUND:                -0.061
REMARK SMILES CC1(C)CC[C@]2(C(=O)[O-])[C@H](O)C[C@]3(C)C(=CC[C@@H]4[C@]5(C)CC[C@H](O)C(C)(C)[C@@H]5CC[C@@]43C)[C@@H]2C1
REMARK SMILES IDX 6 1 5 2 33 3 10 4 4 5 34 6 15 7 12 8 2 9 16 10 13 11 1 12
REMARK SMILES IDX 3 13 17 14 31 15 14 16 18 17 30 18 32 19 19 20 29 21 21 22
REMARK SMILES IDX 20 23 28 24 22 25 25 26 23 27 26 28 27 29 7 30 8 31 9 32
REMARK SMILES IDX 11 33 24 35
REMARK H PARENT 11 34 24 36
REMARK Flexibility Score: inf
ROOT
ATOM      1  C   UNL     1       2.349  -5.856  -5.558  1.00  0.00     0.042 C 
ATOM      2  C   UNL     1       2.116  -7.188  -6.348  1.00  0.00     0.017 C 
ATOM      3  C   UNL     1       1.708  -4.667  -6.368  1.00  0.00     0.030 C 
ATOM      4  C   UNL     1       1.779  -5.957  -4.089  1.00  0.00     0.127 C 
ATOM      5  C   UNL     1       2.670  -7.161  -7.780  1.00  0.00     0.007 C 
ATOM      6  C   UNL     1       2.252  -4.661  -7.838  1.00  0.00     0.015 C 
ATOM      7  C   UNL     1       0.173  -4.527  -6.184  1.00  0.00    -0.063 C 
ATOM      8  C   UNL     1       0.674  -4.933  -3.749  1.00  0.00     0.044 C 
ATOM      9  C   UNL     1       2.092  -5.999  -8.619  1.00  0.00    -0.035 C 
ATOM     10  C   UNL     1      -0.576  -3.941  -7.142  1.00  0.00    -0.027 C 
ATOM     11  C   UNL     1      -0.465  -4.757  -4.812  1.00  0.00    -0.003 C 
ATOM     12  C   UNL     1       0.621  -6.291  -9.001  1.00  0.00     0.011 C 
ATOM     13  C   UNL     1       2.897  -5.897  -9.936  1.00  0.00     0.011 C 
ATOM     14  C   UNL     1      -1.966  -3.399  -6.964  1.00  0.00     0.032 C 
ATOM     15  C   UNL     1      -1.434  -3.515  -4.432  1.00  0.00    -0.020 C 
ATOM     16  C   UNL     1      -1.277  -6.085  -4.893  1.00  0.00     0.017 C 
ATOM     17  C   UNL     1      -2.567  -3.349  -5.526  1.00  0.00     0.006 C 
ATOM     18  C   UNL     1      -0.625  -2.175  -4.345  1.00  0.00     0.008 C 
ATOM     19  C   UNL     1      -2.085  -3.777  -3.031  1.00  0.00     0.012 C 
ATOM     20  C   UNL     1      -3.593  -2.115  -5.288  1.00  0.00    -0.025 C 
ATOM     21  C   UNL     1      -1.354  -0.905  -4.836  1.00  0.00     0.005 C 
ATOM     22  C   UNL     1      -4.299  -1.641  -6.623  1.00  0.00     0.010 C 
ATOM     23  C   UNL     1      -4.765  -2.658  -4.390  1.00  0.00     0.012 C 
ATOM     24  C   UNL     1      -2.884  -0.890  -4.559  1.00  0.00     0.003 C 
ATOM     25  C   UNL     1      -3.735  -0.370  -7.296  1.00  0.00     0.033 C 
ATOM     26  C   UNL     1      -3.540   0.529  -4.843  1.00  0.00    -0.006 C 
ATOM     27  C   UNL     1      -3.560   0.860  -6.375  1.00  0.00     0.120 C 
ATOM     28  C   UNL     1      -4.996   0.588  -4.294  1.00  0.00     0.014 C 
ATOM     29  C   UNL     1      -2.791   1.654  -4.061  1.00  0.00     0.014 C 
ENDROOT
BRANCH   1  30
ATOM     30  C   UNL     1       3.861  -5.638  -5.418  1.00  0.00     0.051 C 
ATOM     31  O   UNL     1       4.343  -4.475  -5.357  1.00  0.00    -0.549 OA
ATOM     32  O   UNL     1       4.712  -6.721  -5.214  1.00  0.00    -0.549 OA
ENDBRANCH   1  30
BRANCH   4  33
ATOM     33  O   UNL     1       1.345  -7.264  -3.785  1.00  0.00    -0.392 OA
ATOM     34  H   UNL     1       2.110  -7.747  -3.373  1.00  0.00     0.210 HD
ENDBRANCH   4  33
BRANCH  27  35
ATOM     35  O   UNL     1      -2.383   1.537  -6.755  1.00  0.00    -0.393 OA
ATOM     36  H   UNL     1      -2.385   2.411  -6.286  1.00  0.00     0.210 HD
ENDBRANCH  27  35
TORSDOF 3
ENDMDL
MODEL 4
REMARK VINA RESULT:     0.000      3.391      5.901
REMARK INTER + INTRA:          -0.061
REMARK INTER:                   0.000
REMARK INTRA:                  -0.061
REMARK UNBOUND:                -0.061
REMARK SMILES CC1(C)CC[C@]2(C(=O)[O-])[C@H](O)C[C@]3(C)C(=CC[C@@H]4[C@]5(C)CC[C@H](O)C(C)(C)[C@@H]5CC[C@@]43C)[C@@H]2C1
REMARK SMILES IDX 6 1 5 2 33 3 10 4 4 5 34 6 15 7 12 8 2 9 16 10 13 11 1 12
REMARK SMILES IDX 3 13 17 14 31 15 14 16 18 17 30 18 32 19 19 20 29 21 21 22
REMARK SMILES IDX 20 23 28 24 22 25 25 26 23 27 26 28 27 29 7 30 8 31 9 32
REMARK SMILES IDX 11 33 24 35
REMARK H PARENT 11 34 24 36
REMARK Flexibility Score: inf
ROOT
ATOM      1  C   UNL     1      -2.549  -1.369 -10.527  1.00  0.00     0.042 C 
ATOM      2  C   UNL     1      -3.770  -1.022  -9.609  1.00  0.00     0.017 C 
ATOM      3  C   UNL     1      -1.607  -2.371  -9.760  1.00  0.00     0.030 C 
ATOM      4  C   UNL     1      -3.027  -1.941 -11.919  1.00  0.00     0.127 C 
ATOM      5  C   UNL     1      -3.370  -0.439  -8.246  1.00  0.00     0.007 C 
ATOM      6  C   UNL     1      -1.227  -1.787  -8.357  1.00  0.00     0.015 C 
ATOM      7  C   UNL     1      -2.081  -3.849  -9.804  1.00  0.00    -0.063 C 
ATOM      8  C   UNL     1      -2.543  -3.373 -12.234  1.00  0.00     0.044 C 
ATOM      9  C   UNL     1      -2.426  -1.371  -7.454  1.00  0.00    -0.035 C 
ATOM     10  C   UNL     1      -1.716  -4.710  -8.830  1.00  0.00    -0.027 C 
ATOM     11  C   UNL     1      -2.691  -4.427 -11.083  1.00  0.00    -0.003 C 
ATOM     12  C   UNL     1      -3.207  -2.590  -6.907  1.00  0.00     0.011 C 
ATOM     13  C   UNL     1      -1.877  -0.593  -6.236  1.00  0.00     0.011 C 
ATOM     14  C   UNL     1      -1.765  -6.208  -8.915  1.00  0.00     0.032 C 
ATOM     15  C   UNL     1      -1.961  -5.822 -11.469  1.00  0.00    -0.020 C 
ATOM     16  C   UNL     1      -4.209  -4.656 -10.812  1.00  0.00     0.017 C 
ATOM     17  C   UNL     1      -2.112  -6.864 -10.287  1.00  0.00     0.006 C 
ATOM     18  C   UNL     1      -0.435  -5.600 -11.746  1.00  0.00     0.008 C 
ATOM     19  C   UNL     1      -2.610  -6.401 -12.773  1.00  0.00     0.012 C 
ATOM     20  C   UNL     1      -1.395  -8.300 -10.525  1.00  0.00    -0.025 C 
ATOM     21  C   UNL     1       0.513  -6.734 -11.295  1.00  0.00     0.005 C 
ATOM     22  C   UNL     1      -1.073  -9.056  -9.172  1.00  0.00     0.010 C 
ATOM     23  C   UNL     1      -2.441  -9.221 -11.255  1.00  0.00     0.012 C 
ATOM     24  C   UNL     1      -0.085  -8.163 -11.420  1.00  0.00     0.003 C 
ATOM     25  C   UNL     1       0.385  -8.989  -8.666  1.00  0.00     0.033 C 
ATOM     26  C   UNL     1       1.003  -9.300 -11.193  1.00  0.00    -0.006 C 
ATOM     27  C   UNL     1       1.475  -9.357  -9.700  1.00  0.00     0.120 C 
ATOM     28  C   UNL     1       0.442 -10.695 -11.600  1.00  0.00     0.014 C 
ATOM     29  C   UNL     1       2.229  -9.091 -12.136  1.00  0.00     0.014 C 
ENDROOT
BRANCH   1  30
ATOM     30  C   UNL     1      -1.793  -0.070 -10.833  1.00  0.00     0.051 C 
ATOM     31  O   UNL     1      -0.549  -0.079 -11.038  1.00  0.00    -0.549 OA
ATOM     32  O   UNL     1      -2.489   1.120 -11.028  1.00  0.00    -0.549 OA
ENDBRANCH   1  30
BRANCH   4  33
ATOM     33  O   UNL     1      -4.426  -1.852 -12.069  1.00  0.00    -0.392 OA
ATOM     34  H   UNL     1      -4.675  -0.891 -12.016  1.00  0.00     0.210 HD
ENDBRANCH   4  33
BRANCH  27  35
ATOM     35  O   UNL     1       2.586  -8.514  -9.494  1.00  0.00    -0.393 OA
ATOM     36  H   UNL     1       2.533  -8.186  -8.559  1.00  0.00     0.210 HD
ENDBRANCH  27  35
TORSDOF 3
ENDMDL
MODEL 5
REMARK VINA RESULT:     0.000      8.690     12.015
REMARK INTER + INTRA:          -0.061
REMARK INTER:                   0.000
REMARK INTRA:                  -0.061
REMARK UNBOUND:                -0.061
REMARK SMILES CC1(C)CC[C@]2(C(=O)[O-])[C@H](O)C[C@]3(C)C(=CC[C@@H]4[C@]5(C)CC[C@H](O)C(C)(C)[C@@H]5CC[C@@]43C)[C@@H]2C1
REMARK SMILES IDX 6 1 5 2 33 3 10 4 4 5 34 6 15 7 12 8 2 9 16 10 13 11 1 12
REMARK SMILES IDX 3 13 17 14 31 15 14 16 18 17 30 18 32 19 19 20 29 21 21 22
REMARK SMILES IDX 20 23 28 24 22 25 25 26 23 27 26 28 27 29 7 30 8 31 9 32
REMARK SMILES IDX 11 33 24 35
REMARK H PARENT 11 34 24 36
REMARK Flexibility Score: inf
ROOT
ATOM      1  C   UNL     1       3.047  -1.417  -3.128  1.00  0.00     0.042 C 
ATOM      2  C   UNL     1       2.408  -2.304  -2.007  1.00  0.00     0.017 C 
ATOM      3  C   UNL     1       1.972  -1.167  -4.252  1.00  0.00     0.030 C 
ATOM      4  C   UNL     1       3.616  -0.070  -2.534  1.00  0.00     0.127 C 
ATOM      5  C   UNL     1       1.854  -3.642  -2.520  1.00  0.00     0.007 C 
ATOM      6  C   UNL     1       1.386  -2.533  -4.751  1.00  0.00     0.015 C 
ATOM      7  C   UNL     1       0.954  -0.043  -3.920  1.00  0.00    -0.063 C 
ATOM      8  C   UNL     1       2.979   1.215  -3.108  1.00  0.00     0.044 C 
ATOM      9  C   UNL     1       0.807  -3.461  -3.642  1.00  0.00    -0.035 C 
ATOM     10  C   UNL     1      -0.272  -0.046  -4.486  1.00  0.00    -0.027 C 
ATOM     11  C   UNL     1       1.415   1.232  -3.209  1.00  0.00    -0.003 C 
ATOM     12  C   UNL     1      -0.523  -2.928  -3.057  1.00  0.00     0.011 C 
ATOM     13  C   UNL     1       0.513  -4.846  -4.266  1.00  0.00     0.011 C 
ATOM     14  C   UNL     1      -1.206   1.127  -4.570  1.00  0.00     0.032 C 
ATOM     15  C   UNL     1       0.894   2.539  -4.014  1.00  0.00    -0.020 C 
ATOM     16  C   UNL     1       0.824   1.200  -1.767  1.00  0.00     0.017 C 
ATOM     17  C   UNL     1      -0.686   2.526  -4.115  1.00  0.00     0.006 C 
ATOM     18  C   UNL     1       1.486   2.579  -5.464  1.00  0.00     0.008 C 
ATOM     19  C   UNL     1       1.367   3.830  -3.263  1.00  0.00     0.012 C 
ATOM     20  C   UNL     1      -1.344   3.765  -4.930  1.00  0.00    -0.025 C 
ATOM     21  C   UNL     1       0.557   3.137  -6.566  1.00  0.00     0.005 C 
ATOM     22  C   UNL     1      -2.786   3.431  -5.492  1.00  0.00     0.010 C 
ATOM     23  C   UNL     1      -1.581   4.923  -3.892  1.00  0.00     0.012 C 
ATOM     24  C   UNL     1      -0.389   4.278  -6.095  1.00  0.00     0.003 C 
ATOM     25  C   UNL     1      -2.882   3.064  -6.989  1.00  0.00     0.033 C 
ATOM     26  C   UNL     1      -1.134   4.989  -7.307  1.00  0.00    -0.006 C 
ATOM     27  C   UNL     1      -2.193   4.043  -7.969  1.00  0.00     0.120 C 
ATOM     28  C   UNL     1      -1.843   6.292  -6.835  1.00  0.00     0.014 C 
ATOM     29  C   UNL     1      -0.108   5.479  -8.378  1.00  0.00     0.014 C 
ENDROOT
BRANCH   1  30
ATOM     30  C   UNL     1       4.248  -2.171  -3.712  1.00  0.00     0.051 C 
ATOM     31  O   UNL     1       4.590  -2.010  -4.915  1.00  0.00    -0.549 OA
ATOM     32  O   UNL     1       5.066  -2.938  -2.887  1.00  0.00    -0.549 OA
ENDBRANCH   1  30
BRANCH   4  33
ATOM     33  O   UNL     1       3.563  -0.056  -1.125  1.00  0.00    -0.392 OA
ATOM     34  H   UNL     1       2.996  -0.820  -0.837  1.00  0.00     0.210 HD
ENDBRANCH   4  33
BRANCH  27  35
ATOM     35  O   UNL     1      -1.611   3.293  -9.011  1.00  0.00    -0.393 OA
ATOM     36  H   UNL     1      -2.355   2.900  -9.538  1.00  0.00     0.210 HD
ENDBRANCH  27  35
TORSDOF 3
ENDMDL
MODEL 6
REMARK VINA RESULT:     0.000      5.601      8.619
REMARK INTER + INTRA:          -0.061
REMARK INTER:                   0.000
REMARK INTRA:                  -0.061
REMARK UNBOUND:                -0.061
REMARK SMILES CC1(C)CC[C@]2(C(=O)[O-])[C@H](O)C[C@]3(C)C(=CC[C@@H]4[C@]5(C)CC[C@H](O)C(C)(C)[C@@H]5CC[C@@]43C)[C@@H]2C1
REMARK SMILES IDX 6 1 5 2 33 3 10 4 4 5 34 6 15 7 12 8 2 9 16 10 13 11 1 12
REMARK SMILES IDX 3 13 17 14 31 15 14 16 18 17 30 18 32 19 19 20 29 21 21 22
REMARK SMILES IDX 20 23 28 24 22 25 25 26 23 27 26 28 27 29 7 30 8 31 9 32
REMARK SMILES IDX 11 33 24 35
REMARK H PARENT 11 34 24 36
REMARK Flexibility Score: inf
ROOT
ATOM      1  C   UNL     1      -2.456  -2.579  -4.012  1.00  0.00     0.042 C 
ATOM      2  C   UNL     1      -2.933  -2.118  -2.594  1.00  0.00     0.017 C 
ATOM      3  C   UNL     1      -2.026  -4.093  -3.935  1.00  0.00     0.030 C 
ATOM      4  C   UNL     1      -3.574  -2.329  -5.099  1.00  0.00     0.127 C 
ATOM      5  C   UNL     1      -1.878  -2.315  -1.495  1.00  0.00     0.007 C 
ATOM      6  C   UNL     1      -0.973  -4.296  -2.792  1.00  0.00     0.015 C 
ATOM      7  C   UNL     1      -3.210  -5.094  -3.988  1.00  0.00    -0.063 C 
ATOM      8  C   UNL     1      -4.074  -3.599  -5.823  1.00  0.00     0.044 C 
ATOM      9  C   UNL     1      -1.400  -3.780  -1.385  1.00  0.00    -0.035 C 
ATOM     10  C   UNL     1      -3.088  -6.323  -3.441  1.00  0.00    -0.027 C 
ATOM     11  C   UNL     1      -4.401  -4.835  -4.916  1.00  0.00    -0.003 C 
ATOM     12  C   UNL     1      -2.499  -4.658  -0.740  1.00  0.00     0.011 C 
ATOM     13  C   UNL     1      -0.168  -3.826  -0.451  1.00  0.00     0.011 C 
ATOM     14  C   UNL     1      -3.966  -7.506  -3.730  1.00  0.00     0.032 C 
ATOM     15  C   UNL     1      -4.709  -6.152  -5.809  1.00  0.00    -0.020 C 
ATOM     16  C   UNL     1      -5.623  -4.481  -4.016  1.00  0.00     0.017 C 
ATOM     17  C   UNL     1      -5.022  -7.389  -4.872  1.00  0.00     0.006 C 
ATOM     18  C   UNL     1      -3.485  -6.514  -6.719  1.00  0.00     0.008 C 
ATOM     19  C   UNL     1      -5.937  -5.868  -6.741  1.00  0.00     0.012 C 
ATOM     20  C   UNL     1      -5.316  -8.789  -5.637  1.00  0.00    -0.025 C 
ATOM     21  C   UNL     1      -3.220  -8.020  -6.940  1.00  0.00     0.005 C 
ATOM     22  C   UNL     1      -5.052 -10.054  -4.722  1.00  0.00     0.010 C 
ATOM     23  C   UNL     1      -6.860  -8.832  -5.938  1.00  0.00     0.012 C 
ATOM     24  C   UNL     1      -4.502  -8.898  -7.000  1.00  0.00     0.003 C 
ATOM     25  C   UNL     1      -3.721 -10.806  -4.941  1.00  0.00     0.033 C 
ATOM     26  C   UNL     1      -4.199 -10.383  -7.482  1.00  0.00    -0.006 C 
ATOM     27  C   UNL     1      -3.395 -11.187  -6.404  1.00  0.00     0.120 C 
ATOM     28  C   UNL     1      -5.520 -11.144  -7.800  1.00  0.00     0.014 C 
ATOM     29  C   UNL     1      -3.425 -10.380  -8.838  1.00  0.00     0.014 C 
ENDROOT
BRANCH   1  30
ATOM     30  C   UNL     1      -1.257  -1.715  -4.423  1.00  0.00     0.051 C 
ATOM     31  O   UNL     1      -0.357  -2.175  -5.177  1.00  0.00    -0.549 OA
ATOM     32  O   UNL     1      -1.216  -0.365  -4.085  1.00  0.00    -0.549 OA
ENDBRANCH   1  30
BRANCH   4  33
ATOM     33  O   UNL     1      -4.664  -1.606  -4.571  1.00  0.00    -0.392 OA
ATOM     34  H   UNL     1      -5.451  -1.778  -5.153  1.00  0.00     0.210 HD
ENDBRANCH   4  33
BRANCH  27  35
ATOM     35  O   UNL     1      -2.007 -11.039  -6.603  1.00  0.00    -0.393 OA
ATOM     36  H   UNL     1      -1.587 -10.990  -5.705  1.00  0.00     0.210 HD
ENDBRANCH  27  35
TORSDOF 3
ENDMDL
MODEL 7
REMARK VINA RESULT:     0.000      5.184      8.786
REMARK INTER + INTRA:          -0.061
REMARK INTER:                   0.000
REMARK INTRA:                  -0.061
REMARK UNBOUND:                -0.061
REMARK SMILES CC1(C)CC[C@]2(C(=O)[O-])[C@H](O)C[C@]3(C)C(=CC[C@@H]4[C@]5(C)CC[C@H](O)C(C)(C)[C@@H]5CC[C@@]43C)[C@@H]2C1
REMARK SMILES IDX 6 1 5 2 33 3 10 4 4 5 34 6 15 7 12 8 2 9 16 10 13 11 1 12
REMARK SMILES IDX 3 13 17 14 31 15 14 16 18 17 30 18 32 19 19 20 29 21 21 22
REMARK SMILES IDX 20 23 28 24 22 25 25 26 23 27 26 28 27 29 7 30 8 31 9 32
REMARK SMILES IDX 11 33 24 35
REMARK H PARENT 11 34 24 36
REMARK Flexibility Score: inf
ROOT
ATOM      1  C   UNL     1      -0.668  -2.625  -9.869  1.00  0.00     0.042 C 
ATOM      2  C   UNL     1      -2.088  -3.221 -10.157  1.00  0.00     0.017 C 
ATOM      3  C   UNL     1      -0.700  -1.889  -8.476  1.00  0.00     0.030 C 
ATOM      4  C   UNL     1       0.444  -3.744  -9.931  1.00  0.00     0.127 C 
ATOM      5  C   UNL     1      -3.212  -2.175 -10.133  1.00  0.00     0.007 C 
ATOM      6  C   UNL     1      -1.868  -0.845  -8.445  1.00  0.00     0.015 C 
ATOM      7  C   UNL     1      -0.568  -2.837  -7.254  1.00  0.00    -0.063 C 
ATOM      8  C   UNL     1       1.233  -3.950  -8.620  1.00  0.00     0.044 C 
ATOM      9  C   UNL     1      -3.279  -1.404  -8.796  1.00  0.00    -0.035 C 
ATOM     10  C   UNL     1      -1.069  -2.474  -6.054  1.00  0.00    -0.027 C 
ATOM     11  C   UNL     1       0.387  -4.033  -7.302  1.00  0.00    -0.003 C 
ATOM     12  C   UNL     1      -3.852  -2.310  -7.679  1.00  0.00     0.011 C 
ATOM     13  C   UNL     1      -4.251  -0.212  -8.964  1.00  0.00     0.011 C 
ATOM     14  C   UNL     1      -0.706  -3.078  -4.728  1.00  0.00     0.032 C 
ATOM     15  C   UNL     1       1.342  -4.037  -5.992  1.00  0.00    -0.020 C 
ATOM     16  C   UNL     1      -0.485  -5.324  -7.353  1.00  0.00     0.017 C 
ATOM     17  C   UNL     1       0.465  -4.108  -4.676  1.00  0.00     0.006 C 
ATOM     18  C   UNL     1       2.225  -2.744  -5.935  1.00  0.00     0.008 C 
ATOM     19  C   UNL     1       2.301  -5.275  -6.057  1.00  0.00     0.012 C 
ATOM     20  C   UNL     1       1.295  -4.084  -3.282  1.00  0.00    -0.025 C 
ATOM     21  C   UNL     1       2.497  -2.165  -4.529  1.00  0.00     0.005 C 
ATOM     22  C   UNL     1       0.423  -3.584  -2.059  1.00  0.00     0.010 C 
ATOM     23  C   UNL     1       1.648  -5.577  -2.932  1.00  0.00     0.012 C 
ATOM     24  C   UNL     1       2.634  -3.232  -3.407  1.00  0.00     0.003 C 
ATOM     25  C   UNL     1       0.628  -2.120  -1.610  1.00  0.00     0.033 C 
ATOM     26  C   UNL     1       3.164  -2.615  -2.041  1.00  0.00    -0.006 C 
ATOM     27  C   UNL     1       2.093  -1.686  -1.373  1.00  0.00     0.120 C 
ATOM     28  C   UNL     1       3.555  -3.740  -1.038  1.00  0.00     0.014 C 
ATOM     29  C   UNL     1       4.492  -1.826  -2.267  1.00  0.00     0.014 C 
ENDROOT
BRANCH   1  30
ATOM     30  C   UNL     1      -0.332  -1.624 -10.982  1.00  0.00     0.051 C 
ATOM     31  O   UNL     1       0.409  -0.629 -10.754  1.00  0.00    -0.549 OA
ATOM     32  O   UNL     1      -0.725  -1.873 -12.294  1.00  0.00    -0.549 OA
ENDBRANCH   1  30
BRANCH   4  33
ATOM     33  O   UNL     1      -0.077  -4.973 -10.387  1.00  0.00    -0.392 OA
ATOM     34  H   UNL     1       0.643  -5.654 -10.306  1.00  0.00     0.210 HD
ENDBRANCH   4  33
BRANCH  27  35
ATOM     35  O   UNL     1       2.240  -0.356  -1.815  1.00  0.00    -0.393 OA
ATOM     36  H   UNL     1       3.071  -0.318  -2.356  1.00  0.00     0.210 HD
ENDBRANCH  27  35
TORSDOF 3
ENDMDL
MODEL 8
REMARK VINA RESULT:     0.000      5.929      8.305
REMARK INTER + INTRA:          -0.061
REMARK INTER:                   0.000
REMARK INTRA:                  -0.061
REMARK UNBOUND:                -0.061
REMARK SMILES CC1(C)CC[C@]2(C(=O)[O-])[C@H](O)C[C@]3(C)C(=CC[C@@H]4[C@]5(C)CC[C@H](O)C(C)(C)[C@@H]5CC[C@@]43C)[C@@H]2C1
REMARK SMILES IDX 6 1 5 2 33 3 10 4 4 5 34 6 15 7 12 8 2 9 16 10 13 11 1 12
REMARK SMILES IDX 3 13 17 14 31 15 14 16 18 17 30 18 32 19 19 20 29 21 21 22
REMARK SMILES IDX 20 23 28 24 22 25 25 26 23 27 26 28 27 29 7 30 8 31 9 32
REMARK SMILES IDX 11 33 24 35
REMARK H PARENT 11 34 24 36
REMARK Flexibility Score: inf
ROOT
ATOM      1  C   UNL     1      -7.562  -0.509  -7.795  1.00  0.00     0.042 C 
ATOM      2  C   UNL     1      -8.106   0.223  -9.067  1.00  0.00     0.017 C 
ATOM      3  C   UNL     1      -6.466  -1.550  -8.238  1.00  0.00     0.030 C 
ATOM      4  C   UNL     1      -7.012   0.524  -6.734  1.00  0.00     0.127 C 
ATOM      5  C   UNL     1      -8.676  -0.728 -10.129  1.00  0.00     0.007 C 
ATOM      6  C   UNL     1      -7.041  -2.499  -9.344  1.00  0.00     0.015 C 
ATOM      7  C   UNL     1      -5.067  -0.929  -8.500  1.00  0.00    -0.063 C 
ATOM      8  C   UNL     1      -5.516   0.364  -6.385  1.00  0.00     0.044 C 
ATOM      9  C   UNL     1      -7.651  -1.789 -10.590  1.00  0.00    -0.035 C 
ATOM     10  C   UNL     1      -4.200  -1.535  -9.338  1.00  0.00    -0.027 C 
ATOM     11  C   UNL     1      -4.534   0.184  -7.594  1.00  0.00    -0.003 C 
ATOM     12  C   UNL     1      -6.572  -1.140 -11.490  1.00  0.00     0.011 C 
ATOM     13  C   UNL     1      -8.388  -2.846 -11.445  1.00  0.00     0.011 C 
ATOM     14  C   UNL     1      -2.720  -1.286  -9.406  1.00  0.00     0.032 C 
ATOM     15  C   UNL     1      -3.039  -0.180  -7.084  1.00  0.00    -0.020 C 
ATOM     16  C   UNL     1      -4.527   1.500  -8.429  1.00  0.00     0.017 C 
ATOM     17  C   UNL     1      -2.070  -0.371  -8.322  1.00  0.00     0.006 C 
ATOM     18  C   UNL     1      -3.037  -1.502  -6.242  1.00  0.00     0.008 C 
ATOM     19  C   UNL     1      -2.509   0.977  -6.170  1.00  0.00     0.012 C 
ATOM     20  C   UNL     1      -0.541  -0.775  -7.957  1.00  0.00    -0.025 C 
ATOM     21  C   UNL     1      -1.800  -2.413  -6.403  1.00  0.00     0.005 C 
ATOM     22  C   UNL     1       0.203  -1.497  -9.154  1.00  0.00     0.010 C 
ATOM     23  C   UNL     1       0.251   0.569  -7.750  1.00  0.00     0.012 C 
ATOM     24  C   UNL     1      -0.464  -1.652  -6.632  1.00  0.00     0.003 C 
ATOM     25  C   UNL     1       0.321  -3.035  -9.073  1.00  0.00     0.033 C 
ATOM     26  C   UNL     1       0.804  -2.607  -6.534  1.00  0.00    -0.006 C 
ATOM     27  C   UNL     1       0.873  -3.601  -7.743  1.00  0.00     0.120 C 
ATOM     28  C   UNL     1       2.121  -1.778  -6.485  1.00  0.00     0.014 C 
ATOM     29  C   UNL     1       0.801  -3.398  -5.189  1.00  0.00     0.014 C 
ENDROOT
BRANCH   1  30
ATOM     30  C   UNL     1      -8.732  -1.236  -7.120  1.00  0.00     0.051 C 
ATOM     31  O   UNL     1      -8.542  -2.299  -6.469  1.00  0.00    -0.549 OA
ATOM     32  O   UNL     1      -9.998  -0.660  -7.098  1.00  0.00    -0.549 OA
ENDBRANCH   1  30
BRANCH   4  33
ATOM     33  O   UNL     1      -7.288   1.855  -7.109  1.00  0.00    -0.392 OA
ATOM     34  H   UNL     1      -8.203   1.875  -7.498  1.00  0.00     0.210 HD
ENDBRANCH   4  33
BRANCH  27  35
ATOM     35  O   UNL     1       0.184  -4.795  -7.449  1.00  0.00    -0.393 OA
ATOM     36  H   UNL     1      -0.747  -4.683  -7.773  1.00  0.00     0.210 HD
ENDBRANCH  27  35
TORSDOF 3
ENDMDL
MODEL 9
REMARK VINA RESULT:     0.000      4.270      8.755
REMARK INTER + INTRA:          -0.061
REMARK INTER:                   0.000
REMARK INTRA:                  -0.061
REMARK UNBOUND:                -0.061
REMARK SMILES CC1(C)CC[C@]2(C(=O)[O-])[C@H](O)C[C@]3(C)C(=CC[C@@H]4[C@]5(C)CC[C@H](O)C(C)(C)[C@@H]5CC[C@@]43C)[C@@H]2C1
REMARK SMILES IDX 6 1 5 2 33 3 10 4 4 5 34 6 15 7 12 8 2 9 16 10 13 11 1 12
REMARK SMILES IDX 3 13 17 14 31 15 14 16 18 17 30 18 32 19 19 20 29 21 21 22
REMARK SMILES IDX 20 23 28 24 22 25 25 26 23 27 26 28 27 29 7 30 8 31 9 32
REMARK SMILES IDX 11 33 24 35
REMARK H PARENT 11 34 24 36
REMARK Flexibility Score: inf
ROOT
ATOM      1  C   UNL     1       3.171  -3.726 -10.840  1.00  0.00     0.042 C 
ATOM      2  C   UNL     1       3.500  -5.212 -10.473  1.00  0.00     0.017 C 
ATOM      3  C   UNL     1       1.856  -3.696 -11.707  1.00  0.00     0.030 C 
ATOM      4  C   UNL     1       3.054  -2.831  -9.544  1.00  0.00     0.127 C 
ATOM      5  C   UNL     1       3.649  -6.130 -11.696  1.00  0.00     0.007 C 
ATOM      6  C   UNL     1       2.000  -4.658 -12.936  1.00  0.00     0.015 C 
ATOM      7  C   UNL     1       0.547  -3.800 -10.880  1.00  0.00    -0.063 C 
ATOM      8  C   UNL     1       1.678  -2.160  -9.339  1.00  0.00     0.044 C 
ATOM      9  C   UNL     1       2.395  -6.127 -12.598  1.00  0.00    -0.035 C 
ATOM     10  C   UNL     1      -0.578  -4.290 -11.444  1.00  0.00    -0.027 C 
ATOM     11  C   UNL     1       0.420  -3.074  -9.538  1.00  0.00    -0.003 C 
ATOM     12  C   UNL     1       1.243  -6.910 -11.923  1.00  0.00     0.011 C 
ATOM     13  C   UNL     1       2.737  -6.858 -13.917  1.00  0.00     0.011 C 
ATOM     14  C   UNL     1      -1.975  -4.109 -10.924  1.00  0.00     0.032 C 
ATOM     15  C   UNL     1      -0.947  -2.205  -9.500  1.00  0.00    -0.020 C 
ATOM     16  C   UNL     1       0.414  -4.161  -8.420  1.00  0.00     0.017 C 
ATOM     17  C   UNL     1      -2.201  -3.147  -9.717  1.00  0.00     0.006 C 
ATOM     18  C   UNL     1      -0.948  -1.108 -10.620  1.00  0.00     0.008 C 
ATOM     19  C   UNL     1      -1.061  -1.481  -8.115  1.00  0.00     0.012 C 
ATOM     20  C   UNL     1      -3.641  -2.400  -9.738  1.00  0.00    -0.025 C 
ATOM     21  C   UNL     1      -2.311  -0.810 -11.282  1.00  0.00     0.005 C 
ATOM     22  C   UNL     1      -4.751  -3.230 -10.504  1.00  0.00     0.010 C 
ATOM     23  C   UNL     1      -4.148  -2.339  -8.250  1.00  0.00     0.012 C 
ATOM     24  C   UNL     1      -3.532  -0.925 -10.327  1.00  0.00     0.003 C 
ATOM     25  C   UNL     1      -5.078  -2.789 -11.947  1.00  0.00     0.033 C 
ATOM     26  C   UNL     1      -4.870  -0.364 -10.978  1.00  0.00    -0.006 C 
ATOM     27  C   UNL     1      -5.375  -1.283 -12.142  1.00  0.00     0.120 C 
ATOM     28  C   UNL     1      -5.995  -0.233  -9.910  1.00  0.00     0.014 C 
ATOM     29  C   UNL     1      -4.665   1.094 -11.497  1.00  0.00     0.014 C 
ENDROOT
BRANCH   1  30
ATOM     30  C   UNL     1       4.344  -3.158 -11.649  1.00  0.00     0.051 C 
ATOM     31  O   UNL     1       4.157  -2.263 -12.517  1.00  0.00    -0.549 OA
ATOM     32  O   UNL     1       5.652  -3.521 -11.340  1.00  0.00    -0.549 OA
ENDBRANCH   1  30
BRANCH   4  33
ATOM     33  O   UNL     1       3.432  -3.540  -8.384  1.00  0.00    -0.392 OA
ATOM     34  H   UNL     1       3.235  -2.961  -7.600  1.00  0.00     0.210 HD
ENDBRANCH   4  33
BRANCH  27  35
ATOM     35  O   UNL     1      -4.825  -0.877 -13.375  1.00  0.00    -0.393 OA
ATOM     36  H   UNL     1      -4.635  -1.701 -13.895  1.00  0.00     0.210 HD
ENDBRANCH  27  35
TORSDOF 3
ENDMDL
