MODEL 1
REMARK VINA RESULT:    -5.328      0.000      0.000
REMARK INTER + INTRA:          -6.790
REMARK INTER:                  -6.418
REMARK INTRA:                  -0.372
REMARK UNBOUND:                -0.372
REMARK SMILES Oc1cc(O)c2c(c1)O[C@@H](c1ccc(O)c(O)c1)[C@@H](O)C2
REMARK SMILES IDX 21 1 19 2 10 3 9 4 7 5 8 6 2 7 3 8 4 9 6 10 20 11 11 13
REMARK SMILES IDX 18 14 12 15 16 16 13 17 14 18 17 19 15 21 5 23 1 25
REMARK H PARENT 20 12 17 20 15 22 5 24 1 26
REMARK Flexibility Score: inf
ROOT
ATOM      1  C   UNL     1      -4.106   1.991 -17.135  1.00  0.00     0.079 C 
ATOM      2  C   UNL     1      -5.492   2.056 -16.457  1.00  0.00     0.164 C 
ATOM      3  C   UNL     1      -5.596   0.987 -15.351  1.00  0.00     0.232 C 
ATOM      4  O   UNL     1      -4.528   1.136 -14.417  1.00  0.00    -0.482 OA
ATOM      5  C   UNL     1      -3.227   1.457 -14.820  1.00  0.00     0.131 A 
ATOM      6  C   UNL     1      -2.190   1.376 -13.887  1.00  0.00     0.093 A 
ATOM      7  C   UNL     1      -0.879   1.677 -14.261  1.00  0.00     0.122 A 
ATOM      8  C   UNL     1      -0.602   2.054 -15.580  1.00  0.00     0.092 A 
ATOM      9  C   UNL     1      -1.628   2.143 -16.528  1.00  0.00     0.126 A 
ATOM     10  C   UNL     1      -2.965   1.879 -16.143  1.00  0.00     0.039 A 
ENDROOT
BRANCH   2  11
ATOM     11  O   UNL     1      -5.748   3.348 -15.960  1.00  0.00    -0.389 OA
ATOM     12  H   UNL     1      -4.900   3.711 -15.594  1.00  0.00     0.211 HD
ENDBRANCH   2  11
BRANCH   3  13
ATOM     13  C   UNL     1      -6.932   1.046 -14.646  1.00  0.00    -0.001 A 
ATOM     14  C   UNL     1      -7.012   1.306 -13.265  1.00  0.00     0.057 A 
ATOM     15  C   UNL     1      -8.118   0.904 -15.383  1.00  0.00     0.012 A 
ATOM     16  C   UNL     1      -8.254   1.394 -12.628  1.00  0.00     0.157 A 
ATOM     17  C   UNL     1      -9.360   0.991 -14.749  1.00  0.00     0.050 A 
ATOM     18  C   UNL     1      -9.435   1.234 -13.371  1.00  0.00     0.157 A 
BRANCH  16  19
ATOM     19  O   UNL     1      -8.295   1.645 -11.256  1.00  0.00    -0.504 OA
ATOM     20  H   UNL     1      -8.848   2.396 -10.863  1.00  0.00     0.293 HD
ENDBRANCH  16  19
BRANCH  18  21
ATOM     21  O   UNL     1     -10.676   1.319 -12.741  1.00  0.00    -0.504 OA
ATOM     22  H   UNL     1     -10.963   2.154 -12.244  1.00  0.00     0.293 HD
ENDBRANCH  18  21
ENDBRANCH   3  13
BRANCH   9  23
ATOM     23  O   UNL     1      -1.284   2.485 -17.838  1.00  0.00    -0.507 OA
ATOM     24  H   UNL     1      -0.450   2.148 -18.299  1.00  0.00     0.293 HD
ENDBRANCH   9  23
BRANCH   7  25
ATOM     25  O   UNL     1       0.142   1.592 -13.317  1.00  0.00    -0.508 OA
ATOM     26  H   UNL     1       0.951   2.200 -13.356  1.00  0.00     0.293 HD
ENDBRANCH   7  25
TORSDOF 6
ENDMDL
MODEL 2
REMARK VINA RESULT:    -5.301      2.405      7.801
REMARK INTER + INTRA:          -6.757
REMARK INTER:                  -6.386
REMARK INTRA:                  -0.371
REMARK UNBOUND:                -0.372
REMARK SMILES Oc1cc(O)c2c(c1)O[C@@H](c1ccc(O)c(O)c1)[C@@H](O)C2
REMARK SMILES IDX 21 1 19 2 10 3 9 4 7 5 8 6 2 7 3 8 4 9 6 10 20 11 11 13
REMARK SMILES IDX 18 14 12 15 16 16 13 17 14 18 17 19 15 21 5 23 1 25
REMARK H PARENT 20 12 17 20 15 22 5 24 1 26
REMARK Flexibility Score: inf
ROOT
ATOM      1  C   UNL     1      -8.714   1.997 -12.566  1.00  0.00     0.079 C 
ATOM      2  C   UNL     1      -7.490   2.050 -13.504  1.00  0.00     0.164 C 
ATOM      3  C   UNL     1      -7.530   0.875 -14.502  1.00  0.00     0.232 C 
ATOM      4  O   UNL     1      -8.764   0.877 -15.218  1.00  0.00    -0.482 OA
ATOM      5  C   UNL     1      -9.982   1.181 -14.601  1.00  0.00     0.131 A 
ATOM      6  C   UNL     1     -11.171   0.955 -15.301  1.00  0.00     0.093 A 
ATOM      7  C   UNL     1     -12.402   1.237 -14.708  1.00  0.00     0.122 A 
ATOM      8  C   UNL     1     -12.447   1.740 -13.403  1.00  0.00     0.092 A 
ATOM      9  C   UNL     1     -11.268   1.975 -12.687  1.00  0.00     0.126 A 
ATOM     10  C   UNL     1     -10.014   1.730 -13.299  1.00  0.00     0.039 A 
ENDROOT
BRANCH   2  11
ATOM     11  O   UNL     1      -7.416   3.292 -14.164  1.00  0.00    -0.389 OA
ATOM     12  H   UNL     1      -7.617   4.004 -13.504  1.00  0.00     0.211 HD
ENDBRANCH   2  11
BRANCH   3  13
ATOM     13  C   UNL     1      -6.359   0.917 -15.457  1.00  0.00    -0.001 A 
ATOM     14  C   UNL     1      -6.561   1.021 -16.845  1.00  0.00     0.057 A 
ATOM     15  C   UNL     1      -5.048   0.916 -14.956  1.00  0.00     0.012 A 
ATOM     16  C   UNL     1      -5.471   1.096 -17.719  1.00  0.00     0.157 A 
ATOM     17  C   UNL     1      -3.958   0.989 -15.826  1.00  0.00     0.050 A 
ATOM     18  C   UNL     1      -4.162   1.077 -17.209  1.00  0.00     0.157 A 
BRANCH  16  19
ATOM     19  O   UNL     1      -5.708   1.190 -19.091  1.00  0.00    -0.504 OA
ATOM     20  H   UNL     1      -6.589   0.911 -19.506  1.00  0.00     0.293 HD
ENDBRANCH  16  19
BRANCH  18  21
ATOM     21  O   UNL     1      -3.072   1.149 -18.075  1.00  0.00    -0.504 OA
ATOM     22  H   UNL     1      -2.521   0.330 -18.304  1.00  0.00     0.293 HD
ENDBRANCH  18  21
ENDBRANCH   3  13
BRANCH   9  23
ATOM     23  O   UNL     1     -11.377   2.439 -11.375  1.00  0.00    -0.507 OA
ATOM     24  H   UNL     1     -11.194   3.397 -11.107  1.00  0.00     0.293 HD
ENDBRANCH   9  23
BRANCH   7  25
ATOM     25  O   UNL     1     -13.577   1.006 -15.421  1.00  0.00    -0.508 OA
ATOM     26  H   UNL     1     -14.291   1.719 -15.510  1.00  0.00     0.293 HD
ENDBRANCH   7  25
TORSDOF 6
ENDMDL
MODEL 3
REMARK VINA RESULT:    -5.090     13.996     15.863
REMARK INTER + INTRA:          -6.504
REMARK INTER:                  -6.210
REMARK INTRA:                  -0.293
REMARK UNBOUND:                -0.372
REMARK SMILES Oc1cc(O)c2c(c1)O[C@@H](c1ccc(O)c(O)c1)[C@@H](O)C2
REMARK SMILES IDX 21 1 19 2 10 3 9 4 7 5 8 6 2 7 3 8 4 9 6 10 20 11 11 13
REMARK SMILES IDX 18 14 12 15 16 16 13 17 14 18 17 19 15 21 5 23 1 25
REMARK H PARENT 20 12 17 20 15 22 5 24 1 26
REMARK Flexibility Score: inf
ROOT
ATOM      1  C   UNL     1      -0.922  15.223  -7.103  1.00  0.00     0.079 C 
ATOM      2  C   UNL     1      -0.377  13.853  -6.648  1.00  0.00     0.164 C 
ATOM      3  C   UNL     1       0.170  13.067  -7.857  1.00  0.00     0.232 C 
ATOM      4  O   UNL     1       1.151  13.840  -8.547  1.00  0.00    -0.482 OA
ATOM      5  C   UNL     1       1.009  15.218  -8.741  1.00  0.00     0.131 A 
ATOM      6  C   UNL     1       1.891  15.874  -9.606  1.00  0.00     0.093 A 
ATOM      7  C   UNL     1       1.768  17.245  -9.831  1.00  0.00     0.122 A 
ATOM      8  C   UNL     1       0.751  17.967  -9.195  1.00  0.00     0.092 A 
ATOM      9  C   UNL     1      -0.140  17.328  -8.325  1.00  0.00     0.126 A 
ATOM     10  C   UNL     1       0.006  15.944  -8.061  1.00  0.00     0.039 A 
ENDROOT
BRANCH   2  11
ATOM     11  O   UNL     1       0.598  14.008  -5.644  1.00  0.00    -0.389 OA
ATOM     12  H   UNL     1       0.885  14.958  -5.638  1.00  0.00     0.211 HD
ENDBRANCH   2  11
BRANCH   3  13
ATOM     13  C   UNL     1       0.741  11.731  -7.439  1.00  0.00    -0.001 A 
ATOM     14  C   UNL     1      -0.093  10.612  -7.257  1.00  0.00     0.057 A 
ATOM     15  C   UNL     1       2.128  11.580  -7.287  1.00  0.00     0.012 A 
ATOM     16  C   UNL     1       0.448   9.371  -6.905  1.00  0.00     0.157 A 
ATOM     17  C   UNL     1       2.671  10.342  -6.935  1.00  0.00     0.050 A 
ATOM     18  C   UNL     1       1.837   9.234  -6.740  1.00  0.00     0.157 A 
BRANCH  16  19
ATOM     19  O   UNL     1      -0.409   8.285  -6.726  1.00  0.00    -0.504 OA
ATOM     20  H   UNL     1      -0.593   7.889  -5.812  1.00  0.00     0.293 HD
ENDBRANCH  16  19
BRANCH  18  21
ATOM     21  O   UNL     1       2.381   8.001  -6.386  1.00  0.00    -0.504 OA
ATOM     22  H   UNL     1       3.293   7.708  -6.719  1.00  0.00     0.293 HD
ENDBRANCH  18  21
ENDBRANCH   3  13
BRANCH   9  23
ATOM     23  O   UNL     1      -1.159  18.091  -7.751  1.00  0.00    -0.507 OA
ATOM     24  H   UNL     1      -2.076  18.194  -8.163  1.00  0.00     0.293 HD
ENDBRANCH   9  23
BRANCH   7  25
ATOM     25  O   UNL     1       2.656  17.882 -10.695  1.00  0.00    -0.508 OA
ATOM     26  H   UNL     1       2.697  17.650 -11.680  1.00  0.00     0.293 HD
ENDBRANCH   7  25
TORSDOF 6
ENDMDL
MODEL 4
REMARK VINA RESULT:    -4.998     14.282     16.173
REMARK INTER + INTRA:          -6.393
REMARK INTER:                  -6.045
REMARK INTRA:                  -0.348
REMARK UNBOUND:                -0.372
REMARK SMILES Oc1cc(O)c2c(c1)O[C@@H](c1ccc(O)c(O)c1)[C@@H](O)C2
REMARK SMILES IDX 21 1 19 2 10 3 9 4 7 5 8 6 2 7 3 8 4 9 6 10 20 11 11 13
REMARK SMILES IDX 18 14 12 15 16 16 13 17 14 18 17 19 15 21 5 23 1 25
REMARK H PARENT 20 12 17 20 15 22 5 24 1 26
REMARK Flexibility Score: inf
ROOT
ATOM      1  C   UNL     1       2.007  15.881  -8.575  1.00  0.00     0.079 C 
ATOM      2  C   UNL     1       2.168  14.357  -8.388  1.00  0.00     0.164 C 
ATOM      3  C   UNL     1       1.388  13.885  -7.145  1.00  0.00     0.232 C 
ATOM      4  O   UNL     1       0.020  14.279  -7.240  1.00  0.00    -0.482 OA
ATOM      5  C   UNL     1      -0.361  15.524  -7.752  1.00  0.00     0.131 A 
ATOM      6  C   UNL     1      -1.692  15.932  -7.618  1.00  0.00     0.093 A 
ATOM      7  C   UNL     1      -2.101  17.173  -8.106  1.00  0.00     0.122 A 
ATOM      8  C   UNL     1      -1.172  18.019  -8.724  1.00  0.00     0.092 A 
ATOM      9  C   UNL     1       0.164  17.627  -8.868  1.00  0.00     0.126 A 
ATOM     10  C   UNL     1       0.575  16.351  -8.412  1.00  0.00     0.039 A 
ENDROOT
BRANCH   2  11
ATOM     11  O   UNL     1       1.770  13.664  -9.547  1.00  0.00    -0.389 OA
ATOM     12  H   UNL     1       2.464  12.986  -9.755  1.00  0.00     0.211 HD
ENDBRANCH   2  11
BRANCH   3  13
ATOM     13  C   UNL     1       1.501  12.390  -6.953  1.00  0.00    -0.001 A 
ATOM     14  C   UNL     1       0.351  11.583  -6.867  1.00  0.00     0.057 A 
ATOM     15  C   UNL     1       2.765  11.782  -6.921  1.00  0.00     0.012 A 
ATOM     16  C   UNL     1       0.465  10.196  -6.725  1.00  0.00     0.157 A 
ATOM     17  C   UNL     1       2.881  10.398  -6.779  1.00  0.00     0.050 A 
ATOM     18  C   UNL     1       1.736   9.599  -6.678  1.00  0.00     0.157 A 
BRANCH  16  19
ATOM     19  O   UNL     1      -0.696   9.427  -6.635  1.00  0.00    -0.504 OA
ATOM     20  H   UNL     1      -1.180   9.283  -5.757  1.00  0.00     0.293 HD
ENDBRANCH  16  19
BRANCH  18  21
ATOM     21  O   UNL     1       1.855   8.217  -6.534  1.00  0.00    -0.504 OA
ATOM     22  H   UNL     1       1.048   7.630  -6.357  1.00  0.00     0.293 HD
ENDBRANCH  18  21
ENDBRANCH   3  13
BRANCH   9  23
ATOM     23  O   UNL     1       1.053  18.529  -9.456  1.00  0.00    -0.507 OA
ATOM     24  H   UNL     1       1.699  19.098  -8.927  1.00  0.00     0.293 HD
ENDBRANCH   9  23
BRANCH   7  25
ATOM     25  O   UNL     1      -3.432  17.562  -7.965  1.00  0.00    -0.508 OA
ATOM     26  H   UNL     1      -3.855  17.683  -7.053  1.00  0.00     0.293 HD
ENDBRANCH   7  25
TORSDOF 6
ENDMDL
MODEL 5
REMARK VINA RESULT:    -4.915     15.970     17.921
REMARK INTER + INTRA:          -6.292
REMARK INTER:                  -5.918
REMARK INTRA:                  -0.374
REMARK UNBOUND:                -0.372
REMARK SMILES Oc1cc(O)c2c(c1)O[C@@H](c1ccc(O)c(O)c1)[C@@H](O)C2
REMARK SMILES IDX 21 1 19 2 10 3 9 4 7 5 8 6 2 7 3 8 4 9 6 10 20 11 11 13
REMARK SMILES IDX 18 14 12 15 16 16 13 17 14 18 17 19 15 21 5 23 1 25
REMARK H PARENT 20 12 17 20 15 22 5 24 1 26
REMARK Flexibility Score: inf
ROOT
ATOM      1  C   UNL     1     -12.906  15.942 -21.376  1.00  0.00     0.079 C 
ATOM      2  C   UNL     1     -13.394  14.600 -21.962  1.00  0.00     0.164 C 
ATOM      3  C   UNL     1     -14.181  13.808 -20.900  1.00  0.00     0.232 C 
ATOM      4  O   UNL     1     -15.253  14.598 -20.387  1.00  0.00    -0.482 OA
ATOM      5  C   UNL     1     -15.112  15.967 -20.133  1.00  0.00     0.131 A 
ATOM      6  C   UNL     1     -16.123  16.633 -19.434  1.00  0.00     0.093 A 
ATOM      7  C   UNL     1     -16.007  17.994 -19.153  1.00  0.00     0.122 A 
ATOM      8  C   UNL     1     -14.868  18.695 -19.567  1.00  0.00     0.092 A 
ATOM      9  C   UNL     1     -13.847  18.046 -20.270  1.00  0.00     0.126 A 
ATOM     10  C   UNL     1     -13.979  16.674 -20.593  1.00  0.00     0.039 A 
ENDROOT
BRANCH   2  11
ATOM     11  O   UNL     1     -14.156  14.808 -23.128  1.00  0.00    -0.389 OA
ATOM     12  H   UNL     1     -13.535  14.825 -23.903  1.00  0.00     0.211 HD
ENDBRANCH   2  11
BRANCH   3  13
ATOM     13  C   UNL     1     -14.700  12.500 -21.454  1.00  0.00    -0.001 A 
ATOM     14  C   UNL     1     -13.822  11.440 -21.749  1.00  0.00     0.057 A 
ATOM     15  C   UNL     1     -16.080  12.310 -21.621  1.00  0.00     0.012 A 
ATOM     16  C   UNL     1     -14.315  10.221 -22.227  1.00  0.00     0.157 A 
ATOM     17  C   UNL     1     -16.574  11.094 -22.099  1.00  0.00     0.050 A 
ATOM     18  C   UNL     1     -15.697  10.046 -22.406  1.00  0.00     0.157 A 
BRANCH  16  19
ATOM     19  O   UNL     1     -13.415   9.194 -22.517  1.00  0.00    -0.504 OA
ATOM     20  H   UNL     1     -12.443   9.236 -22.236  1.00  0.00     0.293 HD
ENDBRANCH  16  19
BRANCH  18  21
ATOM     21  O   UNL     1     -16.193   8.835 -22.885  1.00  0.00    -0.504 OA
ATOM     22  H   UNL     1     -17.136   8.753 -23.247  1.00  0.00     0.293 HD
ENDBRANCH  18  21
ENDBRANCH   3  13
BRANCH   9  23
ATOM     23  O   UNL     1     -12.717  18.787 -20.620  1.00  0.00    -0.507 OA
ATOM     24  H   UNL     1     -12.761  19.729 -20.986  1.00  0.00     0.293 HD
ENDBRANCH   9  23
BRANCH   7  25
ATOM     25  O   UNL     1     -17.025  18.642 -18.457  1.00  0.00    -0.508 OA
ATOM     26  H   UNL     1     -16.970  18.793 -17.457  1.00  0.00     0.293 HD
ENDBRANCH   7  25
TORSDOF 6
ENDMDL
MODEL 6
REMARK VINA RESULT:    -4.745      2.438      7.193
REMARK INTER + INTRA:          -6.088
REMARK INTER:                  -5.965
REMARK INTRA:                  -0.123
REMARK UNBOUND:                -0.372
REMARK SMILES Oc1cc(O)c2c(c1)O[C@@H](c1ccc(O)c(O)c1)[C@@H](O)C2
REMARK SMILES IDX 21 1 19 2 10 3 9 4 7 5 8 6 2 7 3 8 4 9 6 10 20 11 11 13
REMARK SMILES IDX 18 14 12 15 16 16 13 17 14 18 17 19 15 21 5 23 1 25
REMARK H PARENT 20 12 17 20 15 22 5 24 1 26
REMARK Flexibility Score: inf
ROOT
ATOM      1  C   UNL     1      -8.488   0.887 -14.548  1.00  0.00     0.079 C 
ATOM      2  C   UNL     1      -6.984   0.979 -14.212  1.00  0.00     0.164 C 
ATOM      3  C   UNL     1      -6.327   2.124 -15.010  1.00  0.00     0.232 C 
ATOM      4  O   UNL     1      -7.014   3.351 -14.769  1.00  0.00    -0.482 OA
ATOM      5  C   UNL     1      -8.408   3.415 -14.664  1.00  0.00     0.131 A 
ATOM      6  C   UNL     1      -9.028   4.668 -14.645  1.00  0.00     0.093 A 
ATOM      7  C   UNL     1     -10.417   4.766 -14.555  1.00  0.00     0.122 A 
ATOM      8  C   UNL     1     -11.193   3.604 -14.491  1.00  0.00     0.092 A 
ATOM      9  C   UNL     1     -10.590   2.341 -14.506  1.00  0.00     0.126 A 
ATOM     10  C   UNL     1      -9.179   2.237 -14.557  1.00  0.00     0.039 A 
ENDROOT
BRANCH   2  11
ATOM     11  O   UNL     1      -6.787   1.130 -12.826  1.00  0.00    -0.389 OA
ATOM     12  H   UNL     1      -7.566   0.730 -12.359  1.00  0.00     0.211 HD
ENDBRANCH   2  11
BRANCH   3  13
ATOM     13  C   UNL     1      -4.859   2.260 -14.678  1.00  0.00    -0.001 A 
ATOM     14  C   UNL     1      -4.234   3.521 -14.666  1.00  0.00     0.057 A 
ATOM     15  C   UNL     1      -4.116   1.126 -14.316  1.00  0.00     0.012 A 
ATOM     16  C   UNL     1      -2.883   3.642 -14.323  1.00  0.00     0.157 A 
ATOM     17  C   UNL     1      -2.767   1.244 -13.974  1.00  0.00     0.050 A 
ATOM     18  C   UNL     1      -2.143   2.499 -13.977  1.00  0.00     0.157 A 
BRANCH  16  19
ATOM     19  O   UNL     1      -2.293   4.907 -14.328  1.00  0.00    -0.504 OA
ATOM     20  H   UNL     1      -1.314   5.045 -14.110  1.00  0.00     0.293 HD
ENDBRANCH  16  19
BRANCH  18  21
ATOM     21  O   UNL     1      -0.796   2.613 -13.637  1.00  0.00    -0.504 OA
ATOM     22  H   UNL     1      -0.298   3.490 -13.730  1.00  0.00     0.293 HD
ENDBRANCH  18  21
ENDBRANCH   3  13
BRANCH   9  23
ATOM     23  O   UNL     1     -11.418   1.217 -14.481  1.00  0.00    -0.507 OA
ATOM     24  H   UNL     1     -11.198   0.353 -14.958  1.00  0.00     0.293 HD
ENDBRANCH   9  23
BRANCH   7  25
ATOM     25  O   UNL     1     -11.017   6.023 -14.536  1.00  0.00    -0.508 OA
ATOM     26  H   UNL     1     -11.039   6.613 -15.359  1.00  0.00     0.293 HD
ENDBRANCH   7  25
TORSDOF 6
ENDMDL
MODEL 7
REMARK VINA RESULT:    -4.737      2.236      6.947
REMARK INTER + INTRA:          -6.078
REMARK INTER:                  -5.704
REMARK INTRA:                  -0.374
REMARK UNBOUND:                -0.372
REMARK SMILES Oc1cc(O)c2c(c1)O[C@@H](c1ccc(O)c(O)c1)[C@@H](O)C2
REMARK SMILES IDX 21 1 19 2 10 3 9 4 7 5 8 6 2 7 3 8 4 9 6 10 20 11 11 13
REMARK SMILES IDX 18 14 12 15 16 16 13 17 14 18 17 19 15 21 5 23 1 25
REMARK H PARENT 20 12 17 20 15 22 5 24 1 26
REMARK Flexibility Score: inf
ROOT
ATOM      1  C   UNL     1      -7.029   4.756 -14.256  1.00  0.00     0.079 C 
ATOM      2  C   UNL     1      -5.602   4.298 -14.625  1.00  0.00     0.164 C 
ATOM      3  C   UNL     1      -5.384   2.832 -14.200  1.00  0.00     0.232 C 
ATOM      4  O   UNL     1      -6.388   1.997 -14.774  1.00  0.00    -0.482 OA
ATOM      5  C   UNL     1      -7.723   2.401 -14.874  1.00  0.00     0.131 A 
ATOM      6  C   UNL     1      -8.689   1.460 -15.245  1.00  0.00     0.093 A 
ATOM      7  C   UNL     1     -10.031   1.828 -15.341  1.00  0.00     0.122 A 
ATOM      8  C   UNL     1     -10.414   3.144 -15.057  1.00  0.00     0.092 A 
ATOM      9  C   UNL     1      -9.462   4.100 -14.686  1.00  0.00     0.126 A 
ATOM     10  C   UNL     1      -8.093   3.742 -14.627  1.00  0.00     0.039 A 
ENDROOT
BRANCH   2  11
ATOM     11  O   UNL     1      -5.353   4.485 -15.998  1.00  0.00    -0.389 OA
ATOM     12  H   UNL     1      -4.389   4.690 -16.112  1.00  0.00     0.211 HD
ENDBRANCH   2  11
BRANCH   3  13
ATOM     13  C   UNL     1      -4.004   2.344 -14.577  1.00  0.00    -0.001 A 
ATOM     14  C   UNL     1      -2.860   2.817 -13.906  1.00  0.00     0.057 A 
ATOM     15  C   UNL     1      -3.856   1.359 -15.566  1.00  0.00     0.012 A 
ATOM     16  C   UNL     1      -1.590   2.333 -14.237  1.00  0.00     0.157 A 
ATOM     17  C   UNL     1      -2.589   0.875 -15.899  1.00  0.00     0.050 A 
ATOM     18  C   UNL     1      -1.451   1.359 -15.240  1.00  0.00     0.157 A 
BRANCH  16  19
ATOM     19  O   UNL     1      -0.478   2.830 -13.556  1.00  0.00    -0.504 OA
ATOM     20  H   UNL     1      -0.286   2.590 -12.591  1.00  0.00     0.293 HD
ENDBRANCH  16  19
BRANCH  18  21
ATOM     21  O   UNL     1      -0.188   0.875 -15.575  1.00  0.00    -0.504 OA
ATOM     22  H   UNL     1      -0.058   0.204 -16.323  1.00  0.00     0.293 HD
ENDBRANCH  18  21
ENDBRANCH   3  13
BRANCH   9  23
ATOM     23  O   UNL     1      -9.908   5.386 -14.375  1.00  0.00    -0.507 OA
ATOM     24  H   UNL     1     -10.559   5.903 -14.950  1.00  0.00     0.293 HD
ENDBRANCH   9  23
BRANCH   7  25
ATOM     25  O   UNL     1     -10.980   0.877 -15.713  1.00  0.00    -0.508 OA
ATOM     26  H   UNL     1     -11.812   0.713 -15.159  1.00  0.00     0.293 HD
ENDBRANCH   7  25
TORSDOF 6
ENDMDL
MODEL 8
REMARK VINA RESULT:    -4.682     15.625     17.499
REMARK INTER + INTRA:          -6.012
REMARK INTER:                  -5.635
REMARK INTRA:                  -0.377
REMARK UNBOUND:                -0.372
REMARK SMILES Oc1cc(O)c2c(c1)O[C@@H](c1ccc(O)c(O)c1)[C@@H](O)C2
REMARK SMILES IDX 21 1 19 2 10 3 9 4 7 5 8 6 2 7 3 8 4 9 6 10 20 11 11 13
REMARK SMILES IDX 18 14 12 15 16 16 13 17 14 18 17 19 15 21 5 23 1 25
REMARK H PARENT 20 12 17 20 15 22 5 24 1 26
REMARK Flexibility Score: inf
ROOT
ATOM      1  C   UNL     1     -15.890  15.823 -20.587  1.00  0.00     0.079 C 
ATOM      2  C   UNL     1     -16.060  14.295 -20.722  1.00  0.00     0.164 C 
ATOM      3  C   UNL     1     -15.460  13.806 -22.055  1.00  0.00     0.232 C 
ATOM      4  O   UNL     1     -14.096  14.212 -22.162  1.00  0.00    -0.482 OA
ATOM      5  C   UNL     1     -13.659  15.469 -21.732  1.00  0.00     0.131 A 
ATOM      6  C   UNL     1     -12.365  15.884 -22.061  1.00  0.00     0.093 A 
ATOM      7  C   UNL     1     -11.903  17.138 -21.659  1.00  0.00     0.122 A 
ATOM      8  C   UNL     1     -12.743  17.988 -20.930  1.00  0.00     0.092 A 
ATOM      9  C   UNL     1     -14.041  17.589 -20.590  1.00  0.00     0.126 A 
ATOM     10  C   UNL     1     -14.500  16.301 -20.960  1.00  0.00     0.039 A 
ENDROOT
BRANCH   2  11
ATOM     11  O   UNL     1     -15.494  13.627 -19.620  1.00  0.00    -0.389 OA
ATOM     12  H   UNL     1     -15.403  14.279 -18.877  1.00  0.00     0.211 HD
ENDBRANCH   2  11
BRANCH   3  13
ATOM     13  C   UNL     1     -15.583  12.306 -22.203  1.00  0.00    -0.001 A 
ATOM     14  C   UNL     1     -14.439  11.493 -22.303  1.00  0.00     0.057 A 
ATOM     15  C   UNL     1     -16.850  11.703 -22.178  1.00  0.00     0.012 A 
ATOM     16  C   UNL     1     -14.562  10.103 -22.403  1.00  0.00     0.157 A 
ATOM     17  C   UNL     1     -16.975  10.316 -22.279  1.00  0.00     0.050 A 
ATOM     18  C   UNL     1     -15.835   9.510 -22.394  1.00  0.00     0.157 A 
BRANCH  16  19
ATOM     19  O   UNL     1     -13.406   9.327 -22.509  1.00  0.00    -0.504 OA
ATOM     20  H   UNL     1     -12.805   9.146 -21.714  1.00  0.00     0.293 HD
ENDBRANCH  16  19
BRANCH  18  21
ATOM     21  O   UNL     1     -15.963   8.125 -22.496  1.00  0.00    -0.504 OA
ATOM     22  H   UNL     1     -16.454   7.693 -23.270  1.00  0.00     0.293 HD
ENDBRANCH  18  21
ENDBRANCH   3  13
BRANCH   9  23
ATOM     23  O   UNL     1     -14.847  18.495 -19.898  1.00  0.00    -0.507 OA
ATOM     24  H   UNL     1     -14.981  19.455 -20.187  1.00  0.00     0.293 HD
ENDBRANCH   9  23
BRANCH   7  25
ATOM     25  O   UNL     1     -10.610  17.535 -21.993  1.00  0.00    -0.508 OA
ATOM     26  H   UNL     1     -10.411  18.011 -22.865  1.00  0.00     0.293 HD
ENDBRANCH   7  25
TORSDOF 6
ENDMDL
MODEL 9
REMARK VINA RESULT:    -4.657      2.192      6.968
REMARK INTER + INTRA:          -5.982
REMARK INTER:                  -5.641
REMARK INTRA:                  -0.341
REMARK UNBOUND:                -0.372
REMARK SMILES Oc1cc(O)c2c(c1)O[C@@H](c1ccc(O)c(O)c1)[C@@H](O)C2
REMARK SMILES IDX 21 1 19 2 10 3 9 4 7 5 8 6 2 7 3 8 4 9 6 10 20 11 11 13
REMARK SMILES IDX 18 14 12 15 16 16 13 17 14 18 17 19 15 21 5 23 1 25
REMARK H PARENT 20 12 17 20 15 22 5 24 1 26
REMARK Flexibility Score: inf
ROOT
ATOM      1  C   UNL     1      -6.951   1.000 -14.974  1.00  0.00     0.079 C 
ATOM      2  C   UNL     1      -5.414   0.970 -14.832  1.00  0.00     0.164 C 
ATOM      3  C   UNL     1      -4.779   2.115 -15.647  1.00  0.00     0.232 C 
ATOM      4  O   UNL     1      -5.337   3.368 -15.256  1.00  0.00    -0.482 OA
ATOM      5  C   UNL     1      -6.697   3.520 -14.967  1.00  0.00     0.131 A 
ATOM      6  C   UNL     1      -7.215   4.808 -14.802  1.00  0.00     0.093 A 
ATOM      7  C   UNL     1      -8.570   4.993 -14.526  1.00  0.00     0.122 A 
ATOM      8  C   UNL     1      -9.417   3.884 -14.423  1.00  0.00     0.092 A 
ATOM      9  C   UNL     1      -8.917   2.586 -14.583  1.00  0.00     0.126 A 
ATOM     10  C   UNL     1      -7.534   2.391 -14.822  1.00  0.00     0.039 A 
ENDROOT
BRANCH   2  11
ATOM     11  O   UNL     1      -5.033   1.022 -13.477  1.00  0.00    -0.389 OA
ATOM     12  H   UNL     1      -4.122   0.638 -13.399  1.00  0.00     0.211 HD
ENDBRANCH   2  11
BRANCH   3  13
ATOM     13  C   UNL     1      -3.275   2.131 -15.503  1.00  0.00    -0.001 A 
ATOM     14  C   UNL     1      -2.600   3.296 -15.091  1.00  0.00     0.057 A 
ATOM     15  C   UNL     1      -2.538   0.957 -15.720  1.00  0.00     0.012 A 
ATOM     16  C   UNL     1      -1.211   3.292 -14.926  1.00  0.00     0.157 A 
ATOM     17  C   UNL     1      -1.151   0.951 -15.556  1.00  0.00     0.050 A 
ATOM     18  C   UNL     1      -0.481   2.115 -15.161  1.00  0.00     0.157 A 
BRANCH  16  19
ATOM     19  O   UNL     1      -0.574   4.467 -14.523  1.00  0.00    -0.504 OA
ATOM     20  H   UNL     1      -0.795   4.926 -13.648  1.00  0.00     0.293 HD
ENDBRANCH  16  19
BRANCH  18  21
ATOM     21  O   UNL     1       0.904   2.106 -15.000  1.00  0.00    -0.504 OA
ATOM     22  H   UNL     1       1.487   2.845 -15.376  1.00  0.00     0.293 HD
ENDBRANCH  18  21
ENDBRANCH   3  13
BRANCH   9  23
ATOM     23  O   UNL     1      -9.817   1.521 -14.509  1.00  0.00    -0.507 OA
ATOM     24  H   UNL     1     -10.263   1.113 -15.320  1.00  0.00     0.293 HD
ENDBRANCH   9  23
BRANCH   7  25
ATOM     25  O   UNL     1      -9.068   6.284 -14.364  1.00  0.00    -0.508 OA
ATOM     26  H   UNL     1      -8.457   7.067 -14.164  1.00  0.00     0.293 HD
ENDBRANCH   7  25
TORSDOF 6
ENDMDL
