MODEL 1
REMARK VINA RESULT:    -4.352      0.000      0.000
REMARK INTER + INTRA:          -6.577
REMARK INTER:                  -6.387
REMARK INTRA:                  -0.189
REMARK UNBOUND:                -0.189
REMARK SMILES O=C([O-])CCCCCCCC(=O)[O-]
REMARK SMILES IDX 7 1 6 2 5 3 4 4 2 5 1 6 3 7 8 8 9 9 10 10 11 11 12 12 13 13
REMARK H PARENT
REMARK Flexibility Score: inf
ROOT
ATOM      1  C   UNL     1       2.787  19.966  32.941  1.00  0.00     0.000 C 
ENDROOT
BRANCH   1   2
ATOM      2  C   UNL     1       2.963  18.570  33.565  1.00  0.00     0.000 C 
BRANCH   2   3
ATOM      3  C   UNL     1       4.398  18.306  34.042  1.00  0.00     0.006 C 
BRANCH   3   4
ATOM      4  C   UNL     1       5.325  18.020  32.857  1.00  0.00     0.053 C 
BRANCH   4   5
ATOM      5  C   UNL     1       6.155  16.803  33.121  1.00  0.00     0.041 C 
ATOM      6  O   UNL     1       6.516  16.065  32.168  1.00  0.00    -0.550 OA
ATOM      7  O   UNL     1       6.571  16.513  34.414  1.00  0.00    -0.550 OA
ENDBRANCH   4   5
ENDBRANCH   3   4
ENDBRANCH   2   3
ENDBRANCH   1   2
BRANCH   1   8
ATOM      8  C   UNL     1       1.386  20.252  32.362  1.00  0.00     0.000 C 
BRANCH   8   9
ATOM      9  C   UNL     1       0.405  20.932  33.333  1.00  0.00     0.006 C 
BRANCH   9  10
ATOM     10  C   UNL     1      -0.304  22.142  32.713  1.00  0.00     0.053 C 
BRANCH  10  11
ATOM     11  C   UNL     1      -0.568  23.183  33.754  1.00  0.00     0.041 C 
ATOM     12  O   UNL     1       0.263  23.380  34.679  1.00  0.00    -0.550 OA
ATOM     13  O   UNL     1      -1.709  23.972  33.674  1.00  0.00    -0.550 OA
ENDBRANCH  10  11
ENDBRANCH   9  10
ENDBRANCH   8   9
ENDBRANCH   1   8
TORSDOF 8
ENDMDL
MODEL 2
REMARK VINA RESULT:    -4.289      1.407      1.652
REMARK INTER + INTRA:          -6.484
REMARK INTER:                  -6.077
REMARK INTRA:                  -0.407
REMARK UNBOUND:                -0.189
REMARK SMILES O=C([O-])CCCCCCCC(=O)[O-]
REMARK SMILES IDX 7 1 6 2 5 3 4 4 2 5 1 6 3 7 8 8 9 9 10 10 11 11 12 12 13 13
REMARK H PARENT
REMARK Flexibility Score: inf
ROOT
ATOM      1  C   UNL     1       3.923  19.695  33.170  1.00  0.00     0.000 C 
ENDROOT
BRANCH   1   2
ATOM      2  C   UNL     1       3.819  18.792  34.412  1.00  0.00     0.000 C 
BRANCH   2   3
ATOM      3  C   UNL     1       5.016  17.843  34.561  1.00  0.00     0.006 C 
BRANCH   3   4
ATOM      4  C   UNL     1       5.134  16.915  33.348  1.00  0.00     0.053 C 
BRANCH   4   5
ATOM      5  C   UNL     1       6.505  16.999  32.754  1.00  0.00     0.041 C 
ATOM      6  O   UNL     1       7.001  16.004  32.165  1.00  0.00    -0.550 OA
ATOM      7  O   UNL     1       7.214  18.192  32.809  1.00  0.00    -0.550 OA
ENDBRANCH   4   5
ENDBRANCH   3   4
ENDBRANCH   2   3
ENDBRANCH   1   2
BRANCH   1   8
ATOM      8  C   UNL     1       2.609  19.880  32.383  1.00  0.00     0.000 C 
BRANCH   8   9
ATOM      9  C   UNL     1       1.340  19.991  33.247  1.00  0.00     0.006 C 
BRANCH   9  10
ATOM     10  C   UNL     1       1.024  21.434  33.656  1.00  0.00     0.053 C 
BRANCH  10  11
ATOM     11  C   UNL     1      -0.097  21.978  32.827  1.00  0.00     0.041 C 
ATOM     12  O   UNL     1      -0.497  21.350  31.812  1.00  0.00    -0.550 OA
ATOM     13  O   UNL     1      -0.733  23.154  33.204  1.00  0.00    -0.550 OA
ENDBRANCH  10  11
ENDBRANCH   9  10
ENDBRANCH   8   9
ENDBRANCH   1   8
TORSDOF 8
ENDMDL
MODEL 3
REMARK VINA RESULT:    -4.266      4.700      5.898
REMARK INTER + INTRA:          -6.451
REMARK INTER:                  -6.167
REMARK INTRA:                  -0.284
REMARK UNBOUND:                -0.189
REMARK SMILES O=C([O-])CCCCCCCC(=O)[O-]
REMARK SMILES IDX 7 1 6 2 5 3 4 4 2 5 1 6 3 7 8 8 9 9 10 10 11 11 12 12 13 13
REMARK H PARENT
REMARK Flexibility Score: inf
ROOT
ATOM      1  C   UNL     1      -0.420  20.393  30.625  1.00  0.00     0.000 C 
ENDROOT
BRANCH   1   2
ATOM      2  C   UNL     1      -0.593  21.372  31.800  1.00  0.00     0.000 C 
BRANCH   2   3
ATOM      3  C   UNL     1       0.551  21.288  32.820  1.00  0.00     0.006 C 
BRANCH   3   4
ATOM      4  C   UNL     1       1.471  20.102  32.515  1.00  0.00     0.053 C 
BRANCH   4   5
ATOM      5  C   UNL     1       2.723  20.186  33.330  1.00  0.00     0.041 C 
ATOM      6  O   UNL     1       3.835  19.903  32.812  1.00  0.00    -0.550 OA
ATOM      7  O   UNL     1       2.668  20.625  34.647  1.00  0.00    -0.550 OA
ENDBRANCH   4   5
ENDBRANCH   3   4
ENDBRANCH   2   3
ENDBRANCH   1   2
BRANCH   1   8
ATOM      8  C   UNL     1      -1.654  20.240  29.713  1.00  0.00     0.000 C 
BRANCH   8   9
ATOM      9  C   UNL     1      -1.607  19.043  28.747  1.00  0.00     0.006 C 
BRANCH   9  10
ATOM     10  C   UNL     1      -2.674  19.122  27.649  1.00  0.00     0.053 C 
BRANCH  10  11
ATOM     11  C   UNL     1      -2.534  20.395  26.875  1.00  0.00     0.041 C 
ATOM     12  O   UNL     1      -3.464  21.244  26.877  1.00  0.00    -0.550 OA
ATOM     13  O   UNL     1      -1.355  20.668  26.192  1.00  0.00    -0.550 OA
ENDBRANCH  10  11
ENDBRANCH   9  10
ENDBRANCH   8   9
ENDBRANCH   1   8
TORSDOF 8
ENDMDL
MODEL 4
REMARK VINA RESULT:    -4.264     18.182     20.527
REMARK INTER + INTRA:          -6.448
REMARK INTER:                  -6.263
REMARK INTRA:                  -0.185
REMARK UNBOUND:                -0.189
REMARK SMILES O=C([O-])CCCCCCCC(=O)[O-]
REMARK SMILES IDX 7 1 6 2 5 3 4 4 2 5 1 6 3 7 8 8 9 9 10 10 11 11 12 12 13 13
REMARK H PARENT
REMARK Flexibility Score: inf
ROOT
ATOM      1  C   UNL     1       5.651   9.672  15.536  1.00  0.00     0.000 C 
ENDROOT
BRANCH   1   2
ATOM      2  C   UNL     1       4.253  10.242  15.239  1.00  0.00     0.000 C 
BRANCH   2   3
ATOM      3  C   UNL     1       3.133   9.484  15.968  1.00  0.00     0.006 C 
BRANCH   3   4
ATOM      4  C   UNL     1       2.278   8.688  14.978  1.00  0.00     0.053 C 
BRANCH   4   5
ATOM      5  C   UNL     1       0.965   8.321  15.595  1.00  0.00     0.041 C 
ATOM      6  O   UNL     1       0.358   7.284  15.222  1.00  0.00    -0.550 OA
ATOM      7  O   UNL     1       0.437   9.099  16.618  1.00  0.00    -0.550 OA
ENDBRANCH   4   5
ENDBRANCH   3   4
ENDBRANCH   2   3
ENDBRANCH   1   2
BRANCH   1   8
ATOM      8  C   UNL     1       6.800  10.701  15.493  1.00  0.00     0.000 C 
BRANCH   8   9
ATOM      9  C   UNL     1       7.006  11.503  16.790  1.00  0.00     0.006 C 
BRANCH   9  10
ATOM     10  C   UNL     1       8.298  12.328  16.781  1.00  0.00     0.053 C 
BRANCH  10  11
ATOM     11  C   UNL     1       8.907  12.361  18.147  1.00  0.00     0.041 C 
ATOM     12  O   UNL     1       9.415  11.320  18.640  1.00  0.00    -0.550 OA
ATOM     13  O   UNL     1       8.960  13.554  18.856  1.00  0.00    -0.550 OA
ENDBRANCH  10  11
ENDBRANCH   9  10
ENDBRANCH   8   9
ENDBRANCH   1   8
TORSDOF 8
ENDMDL
MODEL 5
REMARK VINA RESULT:    -4.259     18.146     20.074
REMARK INTER + INTRA:          -6.440
REMARK INTER:                  -6.296
REMARK INTRA:                  -0.145
REMARK UNBOUND:                -0.189
REMARK SMILES O=C([O-])CCCCCCCC(=O)[O-]
REMARK SMILES IDX 7 1 6 2 5 3 4 4 2 5 1 6 3 7 8 8 9 9 10 10 11 11 12 12 13 13
REMARK H PARENT
REMARK Flexibility Score: inf
ROOT
ATOM      1  C   UNL     1       5.529  10.075  16.132  1.00  0.00     0.000 C 
ENDROOT
BRANCH   1   2
ATOM      2  C   UNL     1       6.700  10.851  15.504  1.00  0.00     0.000 C 
BRANCH   2   3
ATOM      3  C   UNL     1       7.941  10.892  16.406  1.00  0.00     0.006 C 
BRANCH   3   4
ATOM      4  C   UNL     1       8.307  12.335  16.768  1.00  0.00     0.053 C 
BRANCH   4   5
ATOM      5  C   UNL     1       8.874  12.401  18.151  1.00  0.00     0.041 C 
ATOM      6  O   UNL     1       9.406  11.383  18.667  1.00  0.00    -0.550 OA
ATOM      7  O   UNL     1       8.860  13.600  18.852  1.00  0.00    -0.550 OA
ENDBRANCH   4   5
ENDBRANCH   3   4
ENDBRANCH   2   3
ENDBRANCH   1   2
BRANCH   1   8
ATOM      8  C   UNL     1       4.209  10.121  15.335  1.00  0.00     0.000 C 
BRANCH   8   9
ATOM      9  C   UNL     1       3.022   9.398  15.994  1.00  0.00     0.006 C 
BRANCH   9  10
ATOM     10  C   UNL     1       2.144   8.651  14.983  1.00  0.00     0.053 C 
BRANCH  10  11
ATOM     11  C   UNL     1       0.836   8.276  15.603  1.00  0.00     0.041 C 
ATOM     12  O   UNL     1       0.236   7.232  15.237  1.00  0.00    -0.550 OA
ATOM     13  O   UNL     1       0.302   9.053  16.624  1.00  0.00    -0.550 OA
ENDBRANCH  10  11
ENDBRANCH   9  10
ENDBRANCH   8   9
ENDBRANCH   1   8
TORSDOF 8
ENDMDL
MODEL 6
REMARK VINA RESULT:    -4.259      1.616      7.163
REMARK INTER + INTRA:          -6.440
REMARK INTER:                  -5.931
REMARK INTRA:                  -0.508
REMARK UNBOUND:                -0.189
REMARK SMILES O=C([O-])CCCCCCCC(=O)[O-]
REMARK SMILES IDX 7 1 6 2 5 3 4 4 2 5 1 6 3 7 8 8 9 9 10 10 11 11 12 12 13 13
REMARK H PARENT
REMARK Flexibility Score: inf
ROOT
ATOM      1  C   UNL     1       4.061  19.864  34.193  1.00  0.00     0.000 C 
ENDROOT
BRANCH   1   2
ATOM      2  C   UNL     1       3.479  19.773  32.771  1.00  0.00     0.000 C 
BRANCH   2   3
ATOM      3  C   UNL     1       1.945  19.709  32.758  1.00  0.00     0.006 C 
BRANCH   3   4
ATOM      4  C   UNL     1       1.340  20.911  33.489  1.00  0.00     0.053 C 
BRANCH   4   5
ATOM      5  C   UNL     1       0.210  21.491  32.698  1.00  0.00     0.041 C 
ATOM      6  O   UNL     1      -0.290  20.844  31.741  1.00  0.00    -0.550 OA
ATOM      7  O   UNL     1      -0.324  22.724  33.051  1.00  0.00    -0.550 OA
ENDBRANCH   4   5
ENDBRANCH   3   4
ENDBRANCH   2   3
ENDBRANCH   1   2
BRANCH   1   8
ATOM      8  C   UNL     1       3.969  18.567  35.022  1.00  0.00     0.000 C 
BRANCH   8   9
ATOM      9  C   UNL     1       4.346  17.281  34.266  1.00  0.00     0.006 C 
BRANCH   9  10
ATOM     10  C   UNL     1       5.828  16.916  34.413  1.00  0.00     0.053 C 
BRANCH  10  11
ATOM     11  C   UNL     1       6.528  17.035  33.097  1.00  0.00     0.041 C 
ATOM     12  O   UNL     1       6.654  16.028  32.352  1.00  0.00    -0.550 OA
ATOM     13  O   UNL     1       6.998  18.271  32.668  1.00  0.00    -0.550 OA
ENDBRANCH  10  11
ENDBRANCH   9  10
ENDBRANCH   8   9
ENDBRANCH   1   8
TORSDOF 8
ENDMDL
MODEL 7
REMARK VINA RESULT:    -4.181      4.644      7.533
REMARK INTER + INTRA:          -6.327
REMARK INTER:                  -6.074
REMARK INTRA:                  -0.252
REMARK UNBOUND:                -0.189
REMARK SMILES O=C([O-])CCCCCCCC(=O)[O-]
REMARK SMILES IDX 7 1 6 2 5 3 4 4 2 5 1 6 3 7 8 8 9 9 10 10 11 11 12 12 13 13
REMARK H PARENT
REMARK Flexibility Score: inf
ROOT
ATOM      1  C   UNL     1      -0.475  20.266  30.702  1.00  0.00     0.000 C 
ENDROOT
BRANCH   1   2
ATOM      2  C   UNL     1      -1.643  20.268  29.700  1.00  0.00     0.000 C 
BRANCH   2   3
ATOM      3  C   UNL     1      -1.632  19.048  28.768  1.00  0.00     0.006 C 
BRANCH   3   4
ATOM      4  C   UNL     1      -2.736  19.156  27.711  1.00  0.00     0.053 C 
BRANCH   4   5
ATOM      5  C   UNL     1      -2.579  20.413  26.915  1.00  0.00     0.041 C 
ATOM      6  O   UNL     1      -3.492  21.280  26.915  1.00  0.00    -0.550 OA
ATOM      7  O   UNL     1      -1.404  20.650  26.214  1.00  0.00    -0.550 OA
ENDBRANCH   4   5
ENDBRANCH   3   4
ENDBRANCH   2   3
ENDBRANCH   1   2
BRANCH   1   8
ATOM      8  C   UNL     1      -0.528  21.375  31.772  1.00  0.00     0.000 C 
BRANCH   8   9
ATOM      9  C   UNL     1       0.557  21.286  32.859  1.00  0.00     0.006 C 
BRANCH   9  10
ATOM     10  C   UNL     1       1.664  20.283  32.514  1.00  0.00     0.053 C 
BRANCH  10  11
ATOM     11  C   UNL     1       2.695  20.250  33.598  1.00  0.00     0.041 C 
ATOM     12  O   UNL     1       2.453  20.767  34.720  1.00  0.00    -0.550 OA
ATOM     13  O   UNL     1       3.906  19.603  33.385  1.00  0.00    -0.550 OA
ENDBRANCH  10  11
ENDBRANCH   9  10
ENDBRANCH   8   9
ENDBRANCH   1   8
TORSDOF 8
ENDMDL
MODEL 8
REMARK VINA RESULT:    -4.028     18.060     19.392
REMARK INTER + INTRA:          -6.101
REMARK INTER:                  -5.822
REMARK INTRA:                  -0.279
REMARK UNBOUND:                -0.189
REMARK SMILES O=C([O-])CCCCCCCC(=O)[O-]
REMARK SMILES IDX 7 1 6 2 5 3 4 4 2 5 1 6 3 7 8 8 9 9 10 10 11 11 12 12 13 13
REMARK H PARENT
REMARK Flexibility Score: inf
ROOT
ATOM      1  C   UNL     1       0.374   8.234  16.055  1.00  0.00     0.000 C 
ENDROOT
BRANCH   1   2
ATOM      2  C   UNL     1       1.678   8.357  15.247  1.00  0.00     0.000 C 
BRANCH   2   3
ATOM      3  C   UNL     1       2.694   9.309  15.894  1.00  0.00     0.006 C 
BRANCH   3   4
ATOM      4  C   UNL     1       3.742   9.765  14.875  1.00  0.00     0.053 C 
BRANCH   4   5
ATOM      5  C   UNL     1       5.010  10.158  15.566  1.00  0.00     0.041 C 
ATOM      6  O   UNL     1       5.269   9.712  16.715  1.00  0.00    -0.550 OA
ATOM      7  O   UNL     1       5.928  10.977  14.922  1.00  0.00    -0.550 OA
ENDBRANCH   4   5
ENDBRANCH   3   4
ENDBRANCH   2   3
ENDBRANCH   1   2
BRANCH   1   8
ATOM      8  C   UNL     1       0.308   9.104  17.327  1.00  0.00     0.000 C 
BRANCH   8   9
ATOM      9  C   UNL     1      -1.083   9.670  17.660  1.00  0.00     0.006 C 
BRANCH   9  10
ATOM     10  C   UNL     1      -1.040  10.762  18.735  1.00  0.00     0.053 C 
BRANCH  10  11
ATOM     11  C   UNL     1      -1.864  10.362  19.918  1.00  0.00     0.041 C 
ATOM     12  O   UNL     1      -3.119  10.458  19.879  1.00  0.00    -0.550 OA
ATOM     13  O   UNL     1      -1.249   9.835  21.048  1.00  0.00    -0.550 OA
ENDBRANCH  10  11
ENDBRANCH   9  10
ENDBRANCH   8   9
ENDBRANCH   1   8
TORSDOF 8
ENDMDL
MODEL 9
REMARK VINA RESULT:    -3.988      4.258      7.478
REMARK INTER + INTRA:          -6.043
REMARK INTER:                  -5.789
REMARK INTRA:                  -0.254
REMARK UNBOUND:                -0.189
REMARK SMILES O=C([O-])CCCCCCCC(=O)[O-]
REMARK SMILES IDX 7 1 6 2 5 3 4 4 2 5 1 6 3 7 8 8 9 9 10 10 11 11 12 12 13 13
REMARK H PARENT
REMARK Flexibility Score: inf
ROOT
ATOM      1  C   UNL     1      -0.431  21.307  31.790  1.00  0.00     0.000 C 
ENDROOT
BRANCH   1   2
ATOM      2  C   UNL     1      -0.408  20.237  30.684  1.00  0.00     0.000 C 
BRANCH   2   3
ATOM      3  C   UNL     1      -1.648  20.286  29.780  1.00  0.00     0.006 C 
BRANCH   3   4
ATOM      4  C   UNL     1      -1.567  19.222  28.682  1.00  0.00     0.053 C 
BRANCH   4   5
ATOM      5  C   UNL     1      -2.822  19.213  27.867  1.00  0.00     0.041 C 
ATOM      6  O   UNL     1      -3.230  18.142  27.345  1.00  0.00    -0.550 OA
ATOM      7  O   UNL     1      -3.566  20.377  27.724  1.00  0.00    -0.550 OA
ENDBRANCH   4   5
ENDBRANCH   3   4
ENDBRANCH   2   3
ENDBRANCH   1   2
BRANCH   1   8
ATOM      8  C   UNL     1       0.668  21.164  32.863  1.00  0.00     0.000 C 
BRANCH   8   9
ATOM      9  C   UNL     1       1.456  19.843  32.817  1.00  0.00     0.006 C 
BRANCH   9  10
ATOM     10  C   UNL     1       2.969  20.058  32.693  1.00  0.00     0.053 C 
BRANCH  10  11
ATOM     11  C   UNL     1       3.710  18.879  33.240  1.00  0.00     0.041 C 
ATOM     12  O   UNL     1       3.232  18.219  34.199  1.00  0.00    -0.550 OA
ATOM     13  O   UNL     1       4.906  18.477  32.656  1.00  0.00    -0.550 OA
ENDBRANCH  10  11
ENDBRANCH   9  10
ENDBRANCH   8   9
ENDBRANCH   1   8
TORSDOF 8
ENDMDL
