MODEL 1
REMARK VINA RESULT:    -3.333      0.000      0.000
REMARK INTER + INTRA:          -7.725
REMARK INTER:                  -5.865
REMARK INTRA:                  -1.859
REMARK UNBOUND:                -1.859
REMARK SMILES CCCCCCCCCCCCCCC(=O)[O-]
REMARK SMILES IDX 9 1 10 2 11 3 12 4 13 5 14 6 15 7 16 8 17 9 8 10 7 11 6 12
REMARK SMILES IDX 5 13 4 14 3 15 2 16 1 17
REMARK H PARENT
REMARK Flexibility Score: inf
ROOT
ATOM      1  C   UNL     1      32.064  10.699  23.420  1.00  0.00     0.000 C 
ENDROOT
BRANCH   1   2
ATOM      2  C   UNL     1      31.233   9.512  22.910  1.00  0.00     0.000 C 
BRANCH   2   3
ATOM      3  C   UNL     1      31.992   8.737  21.825  1.00  0.00     0.000 C 
BRANCH   3   4
ATOM      4  C   UNL     1      31.280   7.418  21.490  1.00  0.00     0.000 C 
BRANCH   4   5
ATOM      5  C   UNL     1      32.191   6.417  20.757  1.00  0.00     0.006 C 
BRANCH   5   6
ATOM      6  C   UNL     1      31.579   5.018  20.579  1.00  0.00     0.053 C 
BRANCH   6   7
ATOM      7  C   UNL     1      32.283   3.987  21.407  1.00  0.00     0.041 C 
ATOM      8  O   UNL     1      33.021   4.340  22.365  1.00  0.00    -0.550 OA
ATOM      9  O   UNL     1      32.097   2.636  21.141  1.00  0.00    -0.550 OA
ENDBRANCH   6   7
ENDBRANCH   5   6
ENDBRANCH   4   5
ENDBRANCH   3   4
ENDBRANCH   2   3
ENDBRANCH   1   2
BRANCH   1  10
ATOM     10  C   UNL     1      32.628  11.563  22.281  1.00  0.00     0.000 C 
BRANCH  10  11
ATOM     11  C   UNL     1      34.039  12.096  22.588  1.00  0.00    -0.000 C 
BRANCH  11  12
ATOM     12  C   UNL     1      34.966  11.011  23.163  1.00  0.00    -0.000 C 
BRANCH  12  13
ATOM     13  C   UNL     1      35.941  10.449  22.112  1.00  0.00    -0.000 C 
BRANCH  13  14
ATOM     14  C   UNL     1      35.658   8.977  21.773  1.00  0.00    -0.000 C 
BRANCH  14  15
ATOM     15  C   UNL     1      35.282   8.769  20.297  1.00  0.00    -0.000 C 
BRANCH  15  16
ATOM     16  C   UNL     1      35.165  10.112  19.567  1.00  0.00    -0.003 C 
ATOM     17  C   UNL     1      33.759  10.316  19.009  1.00  0.00     0.004 C 
ENDBRANCH  15  16
ENDBRANCH  14  15
ENDBRANCH  13  14
ENDBRANCH  12  13
ENDBRANCH  11  12
ENDBRANCH  10  11
ENDBRANCH   1  10
TORSDOF 13
ENDMDL
MODEL 2
REMARK VINA RESULT:    -3.249      1.484      2.519
REMARK INTER + INTRA:          -7.577
REMARK INTER:                  -5.452
REMARK INTRA:                  -2.125
REMARK UNBOUND:                -1.859
REMARK SMILES CCCCCCCCCCCCCCC(=O)[O-]
REMARK SMILES IDX 9 1 10 2 11 3 12 4 13 5 14 6 15 7 16 8 17 9 8 10 7 11 6 12
REMARK SMILES IDX 5 13 4 14 3 15 2 16 1 17
REMARK H PARENT
REMARK Flexibility Score: inf
ROOT
ATOM      1  C   UNL     1      33.974  12.117  22.663  1.00  0.00     0.000 C 
ENDROOT
BRANCH   1   2
ATOM      2  C   UNL     1      32.581  11.588  22.294  1.00  0.00     0.000 C 
BRANCH   2   3
ATOM      3  C   UNL     1      31.954  10.822  23.467  1.00  0.00     0.000 C 
BRANCH   3   4
ATOM      4  C   UNL     1      31.215   9.569  22.976  1.00  0.00     0.000 C 
BRANCH   4   5
ATOM      5  C   UNL     1      31.963   8.840  21.846  1.00  0.00     0.006 C 
BRANCH   5   6
ATOM      6  C   UNL     1      31.398   7.451  21.506  1.00  0.00     0.053 C 
BRANCH   6   7
ATOM      7  C   UNL     1      32.247   6.726  20.508  1.00  0.00     0.041 C 
ATOM      8  O   UNL     1      33.404   6.341  20.821  1.00  0.00    -0.550 OA
ATOM      9  O   UNL     1      31.747   6.448  19.241  1.00  0.00    -0.550 OA
ENDBRANCH   6   7
ENDBRANCH   5   6
ENDBRANCH   4   5
ENDBRANCH   3   4
ENDBRANCH   2   3
ENDBRANCH   1   2
BRANCH   1  10
ATOM     10  C   UNL     1      34.831  11.072  23.398  1.00  0.00     0.000 C 
BRANCH  10  11
ATOM     11  C   UNL     1      36.314  11.134  22.991  1.00  0.00    -0.000 C 
BRANCH  11  12
ATOM     12  C   UNL     1      36.803   9.825  22.348  1.00  0.00    -0.000 C 
BRANCH  12  13
ATOM     13  C   UNL     1      35.676   9.067  21.621  1.00  0.00    -0.000 C 
BRANCH  13  14
ATOM     14  C   UNL     1      35.717   9.270  20.098  1.00  0.00    -0.000 C 
BRANCH  14  15
ATOM     15  C   UNL     1      34.379   9.769  19.528  1.00  0.00    -0.000 C 
BRANCH  15  16
ATOM     16  C   UNL     1      34.539  11.152  18.888  1.00  0.00    -0.003 C 
ATOM     17  C   UNL     1      35.817  11.836  19.363  1.00  0.00     0.004 C 
ENDBRANCH  15  16
ENDBRANCH  14  15
ENDBRANCH  13  14
ENDBRANCH  12  13
ENDBRANCH  11  12
ENDBRANCH  10  11
ENDBRANCH   1  10
TORSDOF 13
ENDMDL
MODEL 3
REMARK VINA RESULT:    -3.141      1.386      2.425
REMARK INTER + INTRA:          -7.387
REMARK INTER:                  -5.983
REMARK INTRA:                  -1.404
REMARK UNBOUND:                -1.859
REMARK SMILES CCCCCCCCCCCCCCC(=O)[O-]
REMARK SMILES IDX 9 1 10 2 11 3 12 4 13 5 14 6 15 7 16 8 17 9 8 10 7 11 6 12
REMARK SMILES IDX 5 13 4 14 3 15 2 16 1 17
REMARK H PARENT
REMARK Flexibility Score: inf
ROOT
ATOM      1  C   UNL     1      32.093   8.867  21.730  1.00  0.00     0.000 C 
ENDROOT
BRANCH   1   2
ATOM      2  C   UNL     1      31.464   7.511  21.375  1.00  0.00     0.000 C 
BRANCH   2   3
ATOM      3  C   UNL     1      31.920   7.039  19.989  1.00  0.00     0.000 C 
BRANCH   3   4
ATOM      4  C   UNL     1      31.984   5.507  19.922  1.00  0.00     0.000 C 
BRANCH   4   5
ATOM      5  C   UNL     1      31.732   4.839  21.285  1.00  0.00     0.006 C 
BRANCH   5   6
ATOM      6  C   UNL     1      32.985   4.226  21.931  1.00  0.00     0.053 C 
BRANCH   6   7
ATOM      7  C   UNL     1      33.468   3.019  21.188  1.00  0.00     0.041 C 
ATOM      8  O   UNL     1      32.778   1.966  21.171  1.00  0.00    -0.550 OA
ATOM      9  O   UNL     1      34.666   3.069  20.484  1.00  0.00    -0.550 OA
ENDBRANCH   6   7
ENDBRANCH   5   6
ENDBRANCH   4   5
ENDBRANCH   3   4
ENDBRANCH   2   3
ENDBRANCH   1   2
BRANCH   1  10
ATOM     10  C   UNL     1      31.368   9.574  22.887  1.00  0.00     0.000 C 
BRANCH  10  11
ATOM     11  C   UNL     1      32.163  10.772  23.437  1.00  0.00    -0.000 C 
BRANCH  11  12
ATOM     12  C   UNL     1      33.386  11.114  22.571  1.00  0.00    -0.000 C 
BRANCH  12  13
ATOM     13  C   UNL     1      34.640  11.415  23.412  1.00  0.00    -0.000 C 
BRANCH  13  14
ATOM     14  C   UNL     1      35.845  10.552  23.005  1.00  0.00    -0.000 C 
BRANCH  14  15
ATOM     15  C   UNL     1      35.610   9.782  21.695  1.00  0.00    -0.000 C 
BRANCH  15  16
ATOM     16  C   UNL     1      36.270   8.400  21.747  1.00  0.00    -0.003 C 
ATOM     17  C   UNL     1      35.491   7.385  20.915  1.00  0.00     0.004 C 
ENDBRANCH  15  16
ENDBRANCH  14  15
ENDBRANCH  13  14
ENDBRANCH  12  13
ENDBRANCH  11  12
ENDBRANCH  10  11
ENDBRANCH   1  10
TORSDOF 13
ENDMDL
MODEL 4
REMARK VINA RESULT:    -3.050      3.016      5.561
REMARK INTER + INTRA:          -7.227
REMARK INTER:                  -5.405
REMARK INTRA:                  -1.822
REMARK UNBOUND:                -1.859
REMARK SMILES CCCCCCCCCCCCCCC(=O)[O-]
REMARK SMILES IDX 9 1 10 2 11 3 12 4 13 5 14 6 15 7 16 8 17 9 8 10 7 11 6 12
REMARK SMILES IDX 5 13 4 14 3 15 2 16 1 17
REMARK H PARENT
REMARK Flexibility Score: inf
ROOT
ATOM      1  C   UNL     1      31.939   8.778  21.698  1.00  0.00     0.000 C 
ENDROOT
BRANCH   1   2
ATOM      2  C   UNL     1      31.253   9.478  22.880  1.00  0.00     0.000 C 
BRANCH   2   3
ATOM      3  C   UNL     1      32.108  10.640  23.402  1.00  0.00     0.000 C 
BRANCH   3   4
ATOM      4  C   UNL     1      33.422  10.754  22.615  1.00  0.00     0.000 C 
BRANCH   4   5
ATOM      5  C   UNL     1      34.616  11.151  23.501  1.00  0.00     0.006 C 
BRANCH   5   6
ATOM      6  C   UNL     1      35.699  11.966  22.776  1.00  0.00     0.053 C 
BRANCH   6   7
ATOM      7  C   UNL     1      37.046  11.316  22.864  1.00  0.00     0.041 C 
ATOM      8  O   UNL     1      38.086  11.974  22.601  1.00  0.00    -0.550 OA
ATOM      9  O   UNL     1      37.152   9.990  23.270  1.00  0.00    -0.550 OA
ENDBRANCH   6   7
ENDBRANCH   5   6
ENDBRANCH   4   5
ENDBRANCH   3   4
ENDBRANCH   2   3
ENDBRANCH   1   2
BRANCH   1  10
ATOM     10  C   UNL     1      31.428   7.344  21.478  1.00  0.00     0.000 C 
BRANCH  10  11
ATOM     11  C   UNL     1      31.519   6.905  20.006  1.00  0.00    -0.000 C 
BRANCH  11  12
ATOM     12  C   UNL     1      32.601   5.835  19.777  1.00  0.00    -0.000 C 
BRANCH  12  13
ATOM     13  C   UNL     1      33.741   5.918  20.809  1.00  0.00    -0.000 C 
BRANCH  13  14
ATOM     14  C   UNL     1      34.986   6.629  20.256  1.00  0.00    -0.000 C 
BRANCH  14  15
ATOM     15  C   UNL     1      35.342   7.902  21.041  1.00  0.00    -0.000 C 
BRANCH  15  16
ATOM     16  C   UNL     1      35.646   9.065  20.091  1.00  0.00    -0.003 C 
ATOM     17  C   UNL     1      34.443   9.386  19.208  1.00  0.00     0.004 C 
ENDBRANCH  15  16
ENDBRANCH  14  15
ENDBRANCH  13  14
ENDBRANCH  12  13
ENDBRANCH  11  12
ENDBRANCH  10  11
ENDBRANCH   1  10
TORSDOF 13
ENDMDL
MODEL 5
REMARK VINA RESULT:    -3.040      1.368      2.386
REMARK INTER + INTRA:          -7.209
REMARK INTER:                  -5.872
REMARK INTRA:                  -1.337
REMARK UNBOUND:                -1.859
REMARK SMILES CCCCCCCCCCCCCCC(=O)[O-]
REMARK SMILES IDX 9 1 10 2 11 3 12 4 13 5 14 6 15 7 16 8 17 9 8 10 7 11 6 12
REMARK SMILES IDX 5 13 4 14 3 15 2 16 1 17
REMARK H PARENT
REMARK Flexibility Score: inf
ROOT
ATOM      1  C   UNL     1      32.646  11.541  22.431  1.00  0.00     0.000 C 
ENDROOT
BRANCH   1   2
ATOM      2  C   UNL     1      32.592  10.008  22.485  1.00  0.00     0.000 C 
BRANCH   2   3
ATOM      3  C   UNL     1      31.177   9.520  22.826  1.00  0.00     0.000 C 
BRANCH   3   4
ATOM      4  C   UNL     1      30.888   8.164  22.165  1.00  0.00     0.000 C 
BRANCH   4   5
ATOM      5  C   UNL     1      31.973   7.749  21.156  1.00  0.00     0.006 C 
BRANCH   5   6
ATOM      6  C   UNL     1      31.820   6.317  20.616  1.00  0.00     0.053 C 
BRANCH   6   7
ATOM      7  C   UNL     1      32.806   5.374  21.235  1.00  0.00     0.041 C 
ATOM      8  O   UNL     1      34.007   5.377  20.858  1.00  0.00    -0.550 OA
ATOM      9  O   UNL     1      32.403   4.516  22.251  1.00  0.00    -0.550 OA
ENDBRANCH   6   7
ENDBRANCH   5   6
ENDBRANCH   4   5
ENDBRANCH   3   4
ENDBRANCH   2   3
ENDBRANCH   1   2
BRANCH   1  10
ATOM     10  C   UNL     1      34.036  12.100  22.778  1.00  0.00     0.000 C 
BRANCH  10  11
ATOM     11  C   UNL     1      34.980  11.025  23.343  1.00  0.00    -0.000 C 
BRANCH  11  12
ATOM     12  C   UNL     1      36.300  10.928  22.560  1.00  0.00    -0.000 C 
BRANCH  12  13
ATOM     13  C   UNL     1      36.146  10.161  21.234  1.00  0.00    -0.000 C 
BRANCH  13  14
ATOM     14  C   UNL     1      35.636   8.726  21.439  1.00  0.00    -0.000 C 
BRANCH  14  15
ATOM     15  C   UNL     1      36.641   7.664  20.963  1.00  0.00    -0.000 C 
BRANCH  15  16
ATOM     16  C   UNL     1      37.915   7.695  21.815  1.00  0.00    -0.003 C 
ATOM     17  C   UNL     1      37.690   7.030  23.169  1.00  0.00     0.004 C 
ENDBRANCH  15  16
ENDBRANCH  14  15
ENDBRANCH  13  14
ENDBRANCH  12  13
ENDBRANCH  11  12
ENDBRANCH  10  11
ENDBRANCH   1  10
TORSDOF 13
ENDMDL
MODEL 6
REMARK VINA RESULT:    -3.035      1.334      2.286
REMARK INTER + INTRA:          -7.201
REMARK INTER:                  -5.454
REMARK INTRA:                  -1.747
REMARK UNBOUND:                -1.859
REMARK SMILES CCCCCCCCCCCCCCC(=O)[O-]
REMARK SMILES IDX 9 1 10 2 11 3 12 4 13 5 14 6 15 7 16 8 17 9 8 10 7 11 6 12
REMARK SMILES IDX 5 13 4 14 3 15 2 16 1 17
REMARK H PARENT
REMARK Flexibility Score: inf
ROOT
ATOM      1  C   UNL     1      32.422   9.987  22.610  1.00  0.00     0.000 C 
ENDROOT
BRANCH   1   2
ATOM      2  C   UNL     1      31.040   9.360  22.846  1.00  0.00     0.000 C 
BRANCH   2   3
ATOM      3  C   UNL     1      30.876   8.070  22.032  1.00  0.00     0.000 C 
BRANCH   3   4
ATOM      4  C   UNL     1      32.124   7.792  21.181  1.00  0.00     0.000 C 
BRANCH   4   5
ATOM      5  C   UNL     1      32.366   6.290  20.949  1.00  0.00     0.006 C 
BRANCH   5   6
ATOM      6  C   UNL     1      33.840   5.915  20.718  1.00  0.00     0.053 C 
BRANCH   6   7
ATOM      7  C   UNL     1      34.054   4.433  20.751  1.00  0.00     0.041 C 
ATOM      8  O   UNL     1      34.920   3.902  20.007  1.00  0.00    -0.550 OA
ATOM      9  O   UNL     1      33.321   3.644  21.629  1.00  0.00    -0.550 OA
ENDBRANCH   6   7
ENDBRANCH   5   6
ENDBRANCH   4   5
ENDBRANCH   3   4
ENDBRANCH   2   3
ENDBRANCH   1   2
BRANCH   1  10
ATOM     10  C   UNL     1      32.385  11.524  22.601  1.00  0.00     0.000 C 
BRANCH  10  11
ATOM     11  C   UNL     1      33.110  12.125  21.384  1.00  0.00    -0.000 C 
BRANCH  11  12
ATOM     12  C   UNL     1      33.533  11.055  20.363  1.00  0.00    -0.000 C 
BRANCH  12  13
ATOM     13  C   UNL     1      35.062  10.899  20.270  1.00  0.00    -0.000 C 
BRANCH  13  14
ATOM     14  C   UNL     1      35.510   9.431  20.357  1.00  0.00    -0.000 C 
BRANCH  14  15
ATOM     15  C   UNL     1      35.817   8.987  21.796  1.00  0.00    -0.000 C 
BRANCH  15  16
ATOM     16  C   UNL     1      36.181  10.190  22.675  1.00  0.00    -0.003 C 
ATOM     17  C   UNL     1      37.686  10.265  22.912  1.00  0.00     0.004 C 
ENDBRANCH  15  16
ENDBRANCH  14  15
ENDBRANCH  13  14
ENDBRANCH  12  13
ENDBRANCH  11  12
ENDBRANCH  10  11
ENDBRANCH   1  10
TORSDOF 13
ENDMDL
MODEL 7
REMARK VINA RESULT:    -3.020      1.986      3.573
REMARK INTER + INTRA:          -7.174
REMARK INTER:                  -5.780
REMARK INTRA:                  -1.394
REMARK UNBOUND:                -1.859
REMARK SMILES CCCCCCCCCCCCCCC(=O)[O-]
REMARK SMILES IDX 9 1 10 2 11 3 12 4 13 5 14 6 15 7 16 8 17 9 8 10 7 11 6 12
REMARK SMILES IDX 5 13 4 14 3 15 2 16 1 17
REMARK H PARENT
REMARK Flexibility Score: inf
ROOT
ATOM      1  C   UNL     1      34.566  11.345  23.245  1.00  0.00     0.000 C 
ENDROOT
BRANCH   1   2
ATOM      2  C   UNL     1      33.227  11.106  22.533  1.00  0.00     0.000 C 
BRANCH   2   3
ATOM      3  C   UNL     1      32.145  10.670  23.530  1.00  0.00     0.000 C 
BRANCH   3   4
ATOM      4  C   UNL     1      31.221   9.610  22.913  1.00  0.00     0.000 C 
BRANCH   4   5
ATOM      5  C   UNL     1      31.941   8.715  21.888  1.00  0.00     0.006 C 
BRANCH   5   6
ATOM      6  C   UNL     1      31.134   7.482  21.448  1.00  0.00     0.053 C 
BRANCH   6   7
ATOM      7  C   UNL     1      32.014   6.400  20.902  1.00  0.00     0.041 C 
ATOM      8  O   UNL     1      32.443   6.468  19.720  1.00  0.00    -0.550 OA
ATOM      9  O   UNL     1      32.388   5.334  21.711  1.00  0.00    -0.550 OA
ENDBRANCH   6   7
ENDBRANCH   5   6
ENDBRANCH   4   5
ENDBRANCH   3   4
ENDBRANCH   2   3
ENDBRANCH   1   2
BRANCH   1  10
ATOM     10  C   UNL     1      35.666  10.373  22.786  1.00  0.00     0.000 C 
BRANCH  10  11
ATOM     11  C   UNL     1      35.505   9.953  21.314  1.00  0.00    -0.000 C 
BRANCH  11  12
ATOM     12  C   UNL     1      35.392   8.428  21.146  1.00  0.00    -0.000 C 
BRANCH  12  13
ATOM     13  C   UNL     1      36.764   7.730  21.144  1.00  0.00    -0.000 C 
BRANCH  13  14
ATOM     14  C   UNL     1      36.851   6.599  22.181  1.00  0.00    -0.000 C 
BRANCH  14  15
ATOM     15  C   UNL     1      38.145   6.650  23.009  1.00  0.00    -0.000 C 
BRANCH  15  16
ATOM     16  C   UNL     1      38.113   7.813  24.006  1.00  0.00    -0.003 C 
ATOM     17  C   UNL     1      39.044   8.941  23.570  1.00  0.00     0.004 C 
ENDBRANCH  15  16
ENDBRANCH  14  15
ENDBRANCH  13  14
ENDBRANCH  12  13
ENDBRANCH  11  12
ENDBRANCH  10  11
ENDBRANCH   1  10
TORSDOF 13
ENDMDL
MODEL 8
REMARK VINA RESULT:    -2.991      1.504      3.598
REMARK INTER + INTRA:          -7.124
REMARK INTER:                  -5.408
REMARK INTRA:                  -1.716
REMARK UNBOUND:                -1.859
REMARK SMILES CCCCCCCCCCCCCCC(=O)[O-]
REMARK SMILES IDX 9 1 10 2 11 3 12 4 13 5 14 6 15 7 16 8 17 9 8 10 7 11 6 12
REMARK SMILES IDX 5 13 4 14 3 15 2 16 1 17
REMARK H PARENT
REMARK Flexibility Score: inf
ROOT
ATOM      1  C   UNL     1      31.980   7.082  19.977  1.00  0.00     0.000 C 
ENDROOT
BRANCH   1   2
ATOM      2  C   UNL     1      33.186   7.872  19.449  1.00  0.00     0.000 C 
BRANCH   2   3
ATOM      3  C   UNL     1      34.305   6.927  18.991  1.00  0.00     0.000 C 
BRANCH   3   4
ATOM      4  C   UNL     1      35.439   6.875  20.026  1.00  0.00     0.000 C 
BRANCH   4   5
ATOM      5  C   UNL     1      35.197   5.825  21.124  1.00  0.00     0.006 C 
BRANCH   5   6
ATOM      6  C   UNL     1      34.821   4.431  20.595  1.00  0.00     0.053 C 
BRANCH   6   7
ATOM      7  C   UNL     1      33.441   4.024  21.013  1.00  0.00     0.041 C 
ATOM      8  O   UNL     1      32.694   3.404  20.211  1.00  0.00    -0.550 OA
ATOM      9  O   UNL     1      32.995   4.300  22.300  1.00  0.00    -0.550 OA
ENDBRANCH   6   7
ENDBRANCH   5   6
ENDBRANCH   4   5
ENDBRANCH   3   4
ENDBRANCH   2   3
ENDBRANCH   1   2
BRANCH   1  10
ATOM     10  C   UNL     1      31.528   7.548  21.371  1.00  0.00     0.000 C 
BRANCH  10  11
ATOM     11  C   UNL     1      32.150   8.897  21.773  1.00  0.00    -0.000 C 
BRANCH  11  12
ATOM     12  C   UNL     1      31.343   9.615  22.868  1.00  0.00    -0.000 C 
BRANCH  12  13
ATOM     13  C   UNL     1      32.168  10.688  23.602  1.00  0.00    -0.000 C 
BRANCH  13  14
ATOM     14  C   UNL     1      33.267  11.295  22.716  1.00  0.00    -0.000 C 
BRANCH  14  15
ATOM     15  C   UNL     1      34.665  11.194  23.348  1.00  0.00    -0.000 C 
BRANCH  15  16
ATOM     16  C   UNL     1      35.561  10.243  22.546  1.00  0.00    -0.003 C 
ATOM     17  C   UNL     1      35.414  10.479  21.046  1.00  0.00     0.004 C 
ENDBRANCH  15  16
ENDBRANCH  14  15
ENDBRANCH  13  14
ENDBRANCH  12  13
ENDBRANCH  11  12
ENDBRANCH  10  11
ENDBRANCH   1  10
TORSDOF 13
ENDMDL
