MODEL 1
REMARK VINA RESULT:    -3.839      0.000      0.000
REMARK INTER + INTRA:          -5.447
REMARK INTER:                  -5.298
REMARK INTRA:                  -0.149
REMARK UNBOUND:                -0.149
REMARK SMILES CCCCCCCCO
REMARK SMILES IDX 5 1 4 2 3 3 2 4 1 5 6 6 7 7 8 8 9 9
REMARK H PARENT 9 10
REMARK Flexibility Score: inf
ROOT
ATOM      1  C   UNL     1       2.835  26.926  12.023  1.00  0.00     0.000 C 
ENDROOT
BRANCH   1   2
ATOM      2  C   UNL     1       2.752  28.457  12.034  1.00  0.00    -0.000 C 
BRANCH   2   3
ATOM      3  C   UNL     1       1.836  28.950  13.165  1.00  0.00    -0.000 C 
BRANCH   3   4
ATOM      4  C   UNL     1       2.340  28.537  14.556  1.00  0.00    -0.003 C 
ATOM      5  C   UNL     1       1.262  28.651  15.633  1.00  0.00     0.004 C 
ENDBRANCH   3   4
ENDBRANCH   2   3
ENDBRANCH   1   2
BRANCH   1   6
ATOM      6  C   UNL     1       3.564  26.423  10.768  1.00  0.00     0.002 C 
BRANCH   6   7
ATOM      7  C   UNL     1       3.778  24.900  10.776  1.00  0.00     0.028 C 
BRANCH   7   8
ATOM      8  C   UNL     1       5.204  24.478  10.394  1.00  0.00     0.156 C 
BRANCH   8   9
ATOM      9  O   UNL     1       5.962  24.172  11.534  1.00  0.00    -0.396 OA
ATOM     10  H   UNL     1       5.319  23.891  12.236  1.00  0.00     0.210 HD
ENDBRANCH   8   9
ENDBRANCH   7   8
ENDBRANCH   6   7
ENDBRANCH   1   6
TORSDOF 7
ENDMDL
MODEL 2
REMARK VINA RESULT:    -3.794      2.620      3.132
REMARK INTER + INTRA:          -5.385
REMARK INTER:                  -5.109
REMARK INTRA:                  -0.276
REMARK UNBOUND:                -0.149
REMARK SMILES CCCCCCCCO
REMARK SMILES IDX 5 1 4 2 3 3 2 4 1 5 6 6 7 7 8 8 9 9
REMARK H PARENT 9 10
REMARK Flexibility Score: inf
ROOT
ATOM      1  C   UNL     1       3.497  27.476  11.196  1.00  0.00     0.000 C 
ENDROOT
BRANCH   1   2
ATOM      2  C   UNL     1       2.741  27.630  12.522  1.00  0.00    -0.000 C 
BRANCH   2   3
ATOM      3  C   UNL     1       2.764  29.089  13.002  1.00  0.00    -0.000 C 
BRANCH   3   4
ATOM      4  C   UNL     1       1.466  29.841  12.667  1.00  0.00    -0.003 C 
ATOM      5  C   UNL     1       1.666  30.915  11.598  1.00  0.00     0.004 C 
ENDBRANCH   3   4
ENDBRANCH   2   3
ENDBRANCH   1   2
BRANCH   1   6
ATOM      6  C   UNL     1       3.051  26.209  10.451  1.00  0.00     0.002 C 
BRANCH   6   7
ATOM      7  C   UNL     1       2.365  25.188  11.374  1.00  0.00     0.028 C 
BRANCH   7   8
ATOM      8  C   UNL     1       0.991  24.728  10.867  1.00  0.00     0.156 C 
BRANCH   8   9
ATOM      9  O   UNL     1      -0.017  25.027  11.796  1.00  0.00    -0.396 OA
ATOM     10  H   UNL     1      -0.731  25.502  11.296  1.00  0.00     0.210 HD
ENDBRANCH   8   9
ENDBRANCH   7   8
ENDBRANCH   6   7
ENDBRANCH   1   6
TORSDOF 7
ENDMDL
MODEL 3
REMARK VINA RESULT:    -3.760      2.459      2.689
REMARK INTER + INTRA:          -5.338
REMARK INTER:                  -5.038
REMARK INTRA:                  -0.301
REMARK UNBOUND:                -0.149
REMARK SMILES CCCCCCCCO
REMARK SMILES IDX 5 1 4 2 3 3 2 4 1 5 6 6 7 7 8 8 9 9
REMARK H PARENT 9 10
REMARK Flexibility Score: inf
ROOT
ATOM      1  C   UNL     1       3.159  27.695  11.723  1.00  0.00     0.000 C 
ENDROOT
BRANCH   1   2
ATOM      2  C   UNL     1       3.009  28.743  12.834  1.00  0.00    -0.000 C 
BRANCH   2   3
ATOM      3  C   UNL     1       1.604  29.364  12.819  1.00  0.00    -0.000 C 
BRANCH   3   4
ATOM      4  C   UNL     1       0.849  29.147  14.139  1.00  0.00    -0.003 C 
ATOM      5  C   UNL     1       1.736  28.564  15.238  1.00  0.00     0.004 C 
ENDBRANCH   3   4
ENDBRANCH   2   3
ENDBRANCH   1   2
BRANCH   1   6
ATOM      6  C   UNL     1       2.364  26.424  12.056  1.00  0.00     0.002 C 
BRANCH   6   7
ATOM      7  C   UNL     1       2.243  25.469  10.857  1.00  0.00     0.028 C 
BRANCH   7   8
ATOM      8  C   UNL     1       1.004  24.563  10.915  1.00  0.00     0.156 C 
BRANCH   8   9
ATOM      9  O   UNL     1       0.016  25.111  11.747  1.00  0.00    -0.396 OA
ATOM     10  H   UNL     1      -0.265  25.966  11.328  1.00  0.00     0.210 HD
ENDBRANCH   8   9
ENDBRANCH   7   8
ENDBRANCH   6   7
ENDBRANCH   1   6
TORSDOF 7
ENDMDL
MODEL 4
REMARK VINA RESULT:    -3.715      1.139      1.623
REMARK INTER + INTRA:          -5.276
REMARK INTER:                  -5.113
REMARK INTRA:                  -0.162
REMARK UNBOUND:                -0.149
REMARK SMILES CCCCCCCCO
REMARK SMILES IDX 5 1 4 2 3 3 2 4 1 5 6 6 7 7 8 8 9 9
REMARK H PARENT 9 10
REMARK Flexibility Score: inf
ROOT
ATOM      1  C   UNL     1       3.037  26.516  11.568  1.00  0.00     0.000 C 
ENDROOT
BRANCH   1   2
ATOM      2  C   UNL     1       3.159  28.010  11.893  1.00  0.00    -0.000 C 
BRANCH   2   3
ATOM      3  C   UNL     1       2.424  28.349  13.199  1.00  0.00    -0.000 C 
BRANCH   3   4
ATOM      4  C   UNL     1       1.307  29.385  12.997  1.00  0.00    -0.003 C 
ATOM      5  C   UNL     1       1.672  30.453  11.966  1.00  0.00     0.004 C 
ENDBRANCH   3   4
ENDBRANCH   2   3
ENDBRANCH   1   2
BRANCH   1   6
ATOM      6  C   UNL     1       3.922  26.140  10.370  1.00  0.00     0.002 C 
BRANCH   6   7
ATOM      7  C   UNL     1       4.117  24.621  10.229  1.00  0.00     0.028 C 
BRANCH   7   8
ATOM      8  C   UNL     1       5.587  24.182  10.280  1.00  0.00     0.156 C 
BRANCH   8   9
ATOM      9  O   UNL     1       6.067  24.177  11.598  1.00  0.00    -0.396 OA
ATOM     10  H   UNL     1       6.950  24.632  11.580  1.00  0.00     0.210 HD
ENDBRANCH   8   9
ENDBRANCH   7   8
ENDBRANCH   6   7
ENDBRANCH   1   6
TORSDOF 7
ENDMDL
MODEL 5
REMARK VINA RESULT:    -3.672      8.333      9.083
REMARK INTER + INTRA:          -5.217
REMARK INTER:                  -5.059
REMARK INTRA:                  -0.157
REMARK UNBOUND:                -0.149
REMARK SMILES CCCCCCCCO
REMARK SMILES IDX 5 1 4 2 3 3 2 4 1 5 6 6 7 7 8 8 9 9
REMARK H PARENT 9 10
REMARK Flexibility Score: inf
ROOT
ATOM      1  C   UNL     1      -2.461  21.810  12.671  1.00  0.00     0.000 C 
ENDROOT
BRANCH   1   2
ATOM      2  C   UNL     1      -3.477  20.901  11.968  1.00  0.00    -0.000 C 
BRANCH   2   3
ATOM      3  C   UNL     1      -3.983  19.804  12.918  1.00  0.00    -0.000 C 
BRANCH   3   4
ATOM      4  C   UNL     1      -5.438  19.402  12.634  1.00  0.00    -0.003 C 
ATOM      5  C   UNL     1      -6.063  18.599  13.775  1.00  0.00     0.004 C 
ENDBRANCH   3   4
ENDBRANCH   2   3
ENDBRANCH   1   2
BRANCH   1   6
ATOM      6  C   UNL     1      -1.039  21.242  12.551  1.00  0.00     0.002 C 
BRANCH   6   7
ATOM      7  C   UNL     1      -0.405  21.513  11.177  1.00  0.00     0.028 C 
BRANCH   7   8
ATOM      8  C   UNL     1      -0.152  20.242  10.354  1.00  0.00     0.156 C 
BRANCH   8   9
ATOM      9  O   UNL     1       1.222  20.002  10.204  1.00  0.00    -0.396 OA
ATOM     10  H   UNL     1       1.564  19.742  11.099  1.00  0.00     0.210 HD
ENDBRANCH   8   9
ENDBRANCH   7   8
ENDBRANCH   6   7
ENDBRANCH   1   6
TORSDOF 7
ENDMDL
MODEL 6
REMARK VINA RESULT:    -3.665      3.378      4.769
REMARK INTER + INTRA:          -5.207
REMARK INTER:                  -4.768
REMARK INTRA:                  -0.439
REMARK UNBOUND:                -0.149
REMARK SMILES CCCCCCCCO
REMARK SMILES IDX 5 1 4 2 3 3 2 4 1 5 6 6 7 7 8 8 9 9
REMARK H PARENT 9 10
REMARK Flexibility Score: inf
ROOT
ATOM      1  C   UNL     1       1.624  31.008  11.423  1.00  0.00     0.000 C 
ENDROOT
BRANCH   1   2
ATOM      2  C   UNL     1       2.972  30.626  10.797  1.00  0.00    -0.000 C 
BRANCH   2   3
ATOM      3  C   UNL     1       3.985  31.773  10.931  1.00  0.00    -0.000 C 
BRANCH   3   4
ATOM      4  C   UNL     1       4.790  31.699  12.238  1.00  0.00    -0.003 C 
ATOM      5  C   UNL     1       5.706  30.477  12.299  1.00  0.00     0.004 C 
ENDBRANCH   3   4
ENDBRANCH   2   3
ENDBRANCH   1   2
BRANCH   1   6
ATOM      6  C   UNL     1       1.271  30.067  12.585  1.00  0.00     0.002 C 
BRANCH   6   7
ATOM      7  C   UNL     1       2.254  28.892  12.717  1.00  0.00     0.028 C 
BRANCH   7   8
ATOM      8  C   UNL     1       2.408  28.379  14.156  1.00  0.00     0.156 C 
BRANCH   8   9
ATOM      9  O   UNL     1       2.685  27.003  14.175  1.00  0.00    -0.396 OA
ATOM     10  H   UNL     1       3.338  26.856  14.908  1.00  0.00     0.210 HD
ENDBRANCH   8   9
ENDBRANCH   7   8
ENDBRANCH   6   7
ENDBRANCH   1   6
TORSDOF 7
ENDMDL
MODEL 7
REMARK VINA RESULT:    -3.662      8.539     10.006
REMARK INTER + INTRA:          -5.202
REMARK INTER:                  -5.020
REMARK INTRA:                  -0.182
REMARK UNBOUND:                -0.149
REMARK SMILES CCCCCCCCO
REMARK SMILES IDX 5 1 4 2 3 3 2 4 1 5 6 6 7 7 8 8 9 9
REMARK H PARENT 9 10
REMARK Flexibility Score: inf
ROOT
ATOM      1  C   UNL     1      -2.254  21.586  12.799  1.00  0.00     0.000 C 
ENDROOT
BRANCH   1   2
ATOM      2  C   UNL     1      -1.031  21.752  11.889  1.00  0.00    -0.000 C 
BRANCH   2   3
ATOM      3  C   UNL     1      -0.937  20.600  10.877  1.00  0.00    -0.000 C 
BRANCH   3   4
ATOM      4  C   UNL     1       0.224  20.777   9.886  1.00  0.00    -0.003 C 
ATOM      5  C   UNL     1       1.019  19.489   9.672  1.00  0.00     0.004 C 
ENDBRANCH   3   4
ENDBRANCH   2   3
ENDBRANCH   1   2
BRANCH   1   6
ATOM      6  C   UNL     1      -3.404  20.891  12.055  1.00  0.00     0.002 C 
BRANCH   6   7
ATOM      7  C   UNL     1      -4.089  19.805  12.901  1.00  0.00     0.028 C 
BRANCH   7   8
ATOM      8  C   UNL     1      -5.489  19.426  12.399  1.00  0.00     0.156 C 
BRANCH   8   9
ATOM      9  O   UNL     1      -6.195  18.701  13.370  1.00  0.00    -0.396 OA
ATOM     10  H   UNL     1      -5.516  18.297  13.971  1.00  0.00     0.210 HD
ENDBRANCH   8   9
ENDBRANCH   7   8
ENDBRANCH   6   7
ENDBRANCH   1   6
TORSDOF 7
ENDMDL
MODEL 8
REMARK VINA RESULT:    -3.657      2.947      4.017
REMARK INTER + INTRA:          -5.195
REMARK INTER:                  -5.023
REMARK INTRA:                  -0.172
REMARK UNBOUND:                -0.149
REMARK SMILES CCCCCCCCO
REMARK SMILES IDX 5 1 4 2 3 3 2 4 1 5 6 6 7 7 8 8 9 9
REMARK H PARENT 9 10
REMARK Flexibility Score: inf
ROOT
ATOM      1  C   UNL     1       1.851  28.908  13.003  1.00  0.00     0.000 C 
ENDROOT
BRANCH   1   2
ATOM      2  C   UNL     1       2.453  29.871  11.972  1.00  0.00    -0.000 C 
BRANCH   2   3
ATOM      3  C   UNL     1       1.498  31.041  11.689  1.00  0.00    -0.000 C 
BRANCH   3   4
ATOM      4  C   UNL     1       2.000  31.952  10.558  1.00  0.00    -0.003 C 
ATOM      5  C   UNL     1       1.040  32.003   9.370  1.00  0.00     0.004 C 
ENDBRANCH   3   4
ENDBRANCH   2   3
ENDBRANCH   1   2
BRANCH   1   6
ATOM      6  C   UNL     1       2.663  27.606  13.081  1.00  0.00     0.002 C 
BRANCH   6   7
ATOM      7  C   UNL     1       2.895  26.968  11.701  1.00  0.00     0.028 C 
BRANCH   7   8
ATOM      8  C   UNL     1       2.275  25.570  11.559  1.00  0.00     0.156 C 
BRANCH   8   9
ATOM      9  O   UNL     1       0.902  25.595  11.843  1.00  0.00    -0.396 OA
ATOM     10  H   UNL     1       0.438  25.260  11.031  1.00  0.00     0.210 HD
ENDBRANCH   8   9
ENDBRANCH   7   8
ENDBRANCH   6   7
ENDBRANCH   1   6
TORSDOF 7
ENDMDL
MODEL 9
REMARK VINA RESULT:    -3.629      2.770      3.442
REMARK INTER + INTRA:          -5.158
REMARK INTER:                  -4.953
REMARK INTRA:                  -0.205
REMARK UNBOUND:                -0.149
REMARK SMILES CCCCCCCCO
REMARK SMILES IDX 5 1 4 2 3 3 2 4 1 5 6 6 7 7 8 8 9 9
REMARK H PARENT 9 10
REMARK Flexibility Score: inf
ROOT
ATOM      1  C   UNL     1       2.725  27.599  12.867  1.00  0.00     0.000 C 
ENDROOT
BRANCH   1   2
ATOM      2  C   UNL     1       2.086  28.983  12.692  1.00  0.00    -0.000 C 
BRANCH   2   3
ATOM      3  C   UNL     1       3.024  29.928  11.924  1.00  0.00    -0.000 C 
BRANCH   3   4
ATOM      4  C   UNL     1       4.427  30.000  12.546  1.00  0.00    -0.003 C 
ATOM      5  C   UNL     1       5.089  31.364  12.353  1.00  0.00     0.004 C 
ENDBRANCH   3   4
ENDBRANCH   2   3
ENDBRANCH   1   2
BRANCH   1   6
ATOM      6  C   UNL     1       2.797  26.852  11.527  1.00  0.00     0.002 C 
BRANCH   6   7
ATOM      7  C   UNL     1       2.435  25.363  11.656  1.00  0.00     0.028 C 
BRANCH   7   8
ATOM      8  C   UNL     1       1.139  24.980  10.927  1.00  0.00     0.156 C 
BRANCH   8   9
ATOM      9  O   UNL     1       0.038  25.028  11.796  1.00  0.00    -0.396 OA
ATOM     10  H   UNL     1      -0.236  25.980  11.854  1.00  0.00     0.210 HD
ENDBRANCH   8   9
ENDBRANCH   7   8
ENDBRANCH   6   7
ENDBRANCH   1   6
TORSDOF 7
ENDMDL
