MODEL 1
REMARK VINA RESULT:    -5.323      0.000      0.000
REMARK INTER + INTRA:          -6.078
REMARK INTER:                  -5.790
REMARK INTRA:                  -0.288
REMARK UNBOUND:                -0.288
REMARK SMILES C[C@@H]1[C@@H](C)CC[C@@]2(C(=O)[O-])CC[C@]3(C)C(=CC[C@H]4[C@]5(C)CC[C@@H](O)C(C)(C)[C@H]5CC[C@]43C)[C@@H]12
REMARK SMILES IDX 7 1 6 2 11 3 33 4 5 5 12 6 15 7 2 8 3 9 13 10 16 11 1 12
REMARK SMILES IDX 4 13 14 14 31 15 17 16 18 17 30 18 32 19 19 20 29 21 28 22
REMARK SMILES IDX 21 23 20 24 25 25 22 26 23 27 26 28 27 29 8 30 9 31 10 32
REMARK SMILES IDX 24 33
REMARK H PARENT 24 34
REMARK Flexibility Score: inf
ROOT
ATOM      1  C   UNL     1     173.133 144.497 156.941  1.00  0.00     0.017 C 
ATOM      2  C   UNL     1     174.561 143.895 156.849  1.00  0.00     0.014 C 
ATOM      3  C   UNL     1     173.110 145.748 155.992  1.00  0.00     0.014 C 
ATOM      4  C   UNL     1     172.049 143.430 156.505  1.00  0.00     0.030 C 
ATOM      5  C   UNL     1     174.697 142.583 157.616  1.00  0.00     0.004 C 
ATOM      6  C   UNL     1     171.702 146.193 155.525  1.00  0.00     0.013 C 
ATOM      7  C   UNL     1     171.562 143.741 155.083  1.00  0.00    -0.063 C 
ATOM      8  C   UNL     1     172.332 141.902 156.828  1.00  0.00    -0.003 C 
ATOM      9  C   UNL     1     173.833 141.479 157.000  1.00  0.00    -0.011 C 
ATOM     10  C   UNL     1     170.775 145.051 154.920  1.00  0.00    -0.006 C 
ATOM     11  C   UNL     1     172.223 143.211 154.049  1.00  0.00    -0.027 C 
ATOM     12  C   UNL     1     171.544 141.466 158.085  1.00  0.00     0.008 C 
ATOM     13  C   UNL     1     174.474 140.888 155.729  1.00  0.00     0.008 C 
ATOM     14  C   UNL     1     169.469 144.952 155.785  1.00  0.00     0.017 C 
ATOM     15  C   UNL     1     170.341 145.350 153.394  1.00  0.00    -0.020 C 
ATOM     16  C   UNL     1     172.125 143.683 152.639  1.00  0.00     0.032 C 
ATOM     17  C   UNL     1     171.570 145.130 152.416  1.00  0.00     0.006 C 
ATOM     18  C   UNL     1     169.204 144.361 152.913  1.00  0.00     0.008 C 
ATOM     19  C   UNL     1     169.779 146.828 153.350  1.00  0.00     0.012 C 
ATOM     20  C   UNL     1     171.258 145.417 150.846  1.00  0.00    -0.025 C 
ATOM     21  C   UNL     1     169.041 144.210 151.369  1.00  0.00     0.005 C 
ATOM     22  C   UNL     1     169.706 145.364 150.584  1.00  0.00     0.003 C 
ATOM     23  C   UNL     1     171.793 146.831 150.405  1.00  0.00     0.010 C 
ATOM     24  C   UNL     1     172.011 144.388 149.936  1.00  0.00     0.012 C 
ATOM     25  C   UNL     1     169.230 145.603 149.091  1.00  0.00    -0.006 C 
ATOM     26  C   UNL     1     170.872 147.607 149.430  1.00  0.00     0.033 C 
ATOM     27  C   UNL     1     170.120 146.723 148.406  1.00  0.00     0.120 C 
ATOM     28  C   UNL     1     167.764 146.135 149.108  1.00  0.00     0.014 C 
ATOM     29  C   UNL     1     169.188 144.290 148.262  1.00  0.00     0.014 C 
ENDROOT
BRANCH   1  30
ATOM     30  C   UNL     1     172.858 144.997 158.362  1.00  0.00     0.048 C 
ATOM     31  O   UNL     1     173.691 145.725 158.966  1.00  0.00    -0.550 OA
ATOM     32  O   UNL     1     171.633 144.753 158.973  1.00  0.00    -0.550 OA
ENDBRANCH   1  30
BRANCH  27  33
ATOM     33  O   UNL     1     171.041 146.203 147.480  1.00  0.00    -0.393 OA
ATOM     34  H   UNL     1     171.946 146.500 147.762  1.00  0.00     0.210 HD
ENDBRANCH  27  33
TORSDOF 2
ENDMDL
MODEL 2
REMARK VINA RESULT:    -3.135      1.416      2.125
REMARK INTER + INTRA:          -3.697
REMARK INTER:                  -3.453
REMARK INTRA:                  -0.244
REMARK UNBOUND:                -0.288
REMARK SMILES C[C@@H]1[C@@H](C)CC[C@@]2(C(=O)[O-])CC[C@]3(C)C(=CC[C@H]4[C@]5(C)CC[C@@H](O)C(C)(C)[C@H]5CC[C@]43C)[C@@H]12
REMARK SMILES IDX 7 1 6 2 11 3 33 4 5 5 12 6 15 7 2 8 3 9 13 10 16 11 1 12
REMARK SMILES IDX 4 13 14 14 31 15 17 16 18 17 30 18 32 19 19 20 29 21 28 22
REMARK SMILES IDX 21 23 20 24 25 25 22 26 23 27 26 28 27 29 8 30 9 31 10 32
REMARK SMILES IDX 24 33
REMARK H PARENT 24 34
REMARK Flexibility Score: inf
ROOT
ATOM      1  C   UNL     1     171.746 145.425 155.685  1.00  0.00     0.017 C 
ATOM      2  C   UNL     1     173.249 145.700 155.955  1.00  0.00     0.014 C 
ATOM      3  C   UNL     1     171.270 146.507 154.651  1.00  0.00     0.014 C 
ATOM      4  C   UNL     1     171.540 143.963 155.117  1.00  0.00     0.030 C 
ATOM      5  C   UNL     1     173.891 144.637 156.842  1.00  0.00     0.004 C 
ATOM      6  C   UNL     1     169.994 146.139 153.854  1.00  0.00     0.013 C 
ATOM      7  C   UNL     1     171.299 144.027 153.602  1.00  0.00    -0.063 C 
ATOM      8  C   UNL     1     172.518 142.820 155.622  1.00  0.00    -0.003 C 
ATOM      9  C   UNL     1     173.924 143.271 156.149  1.00  0.00    -0.011 C 
ATOM     10  C   UNL     1     169.993 144.706 153.162  1.00  0.00    -0.006 C 
ATOM     11  C   UNL     1     172.357 143.990 152.784  1.00  0.00    -0.027 C 
ATOM     12  C   UNL     1     171.827 141.967 156.711  1.00  0.00     0.008 C 
ATOM     13  C   UNL     1     175.051 143.184 155.102  1.00  0.00     0.008 C 
ATOM     14  C   UNL     1     168.790 143.873 153.729  1.00  0.00     0.017 C 
ATOM     15  C   UNL     1     169.827 144.794 151.559  1.00  0.00    -0.020 C 
ATOM     16  C   UNL     1     172.343 144.399 151.352  1.00  0.00     0.032 C 
ATOM     17  C   UNL     1     171.165 145.322 150.892  1.00  0.00     0.006 C 
ATOM     18  C   UNL     1     169.546 143.370 150.929  1.00  0.00     0.008 C 
ATOM     19  C   UNL     1     168.585 145.730 151.269  1.00  0.00     0.012 C 
ATOM     20  C   UNL     1     171.114 145.469 149.272  1.00  0.00    -0.025 C 
ATOM     21  C   UNL     1     169.845 143.229 149.405  1.00  0.00     0.005 C 
ATOM     22  C   UNL     1     169.942 144.594 148.687  1.00  0.00     0.003 C 
ATOM     23  C   UNL     1     170.887 146.966 148.840  1.00  0.00     0.010 C 
ATOM     24  C   UNL     1     172.486 145.058 148.638  1.00  0.00     0.012 C 
ATOM     25  C   UNL     1     169.767 144.607 147.112  1.00  0.00    -0.006 C 
ATOM     26  C   UNL     1     169.944 147.163 147.626  1.00  0.00     0.033 C 
ATOM     27  C   UNL     1     170.043 146.062 146.543  1.00  0.00     0.120 C 
ATOM     28  C   UNL     1     168.287 144.257 146.766  1.00  0.00     0.014 C 
ATOM     29  C   UNL     1     170.628 143.523 146.408  1.00  0.00     0.014 C 
ENDROOT
BRANCH   1  30
ATOM     30  C   UNL     1     170.930 145.627 156.965  1.00  0.00     0.048 C 
ATOM     31  O   UNL     1     171.283 146.473 157.832  1.00  0.00    -0.550 OA
ATOM     32  O   UNL     1     169.721 144.965 157.146  1.00  0.00    -0.550 OA
ENDBRANCH   1  30
BRANCH  27  33
ATOM     33  O   UNL     1     171.280 146.170 145.885  1.00  0.00    -0.393 OA
ATOM     34  H   UNL     1     171.256 146.999 145.339  1.00  0.00     0.210 HD
ENDBRANCH  27  33
TORSDOF 2
ENDMDL
MODEL 3
REMARK VINA RESULT:    -2.458      1.453      2.671
REMARK INTER + INTRA:          -2.961
REMARK INTER:                  -2.664
REMARK INTRA:                  -0.297
REMARK UNBOUND:                -0.288
REMARK SMILES C[C@@H]1[C@@H](C)CC[C@@]2(C(=O)[O-])CC[C@]3(C)C(=CC[C@H]4[C@]5(C)CC[C@@H](O)C(C)(C)[C@H]5CC[C@]43C)[C@@H]12
REMARK SMILES IDX 7 1 6 2 11 3 33 4 5 5 12 6 15 7 2 8 3 9 13 10 16 11 1 12
REMARK SMILES IDX 4 13 14 14 31 15 17 16 18 17 30 18 32 19 19 20 29 21 28 22
REMARK SMILES IDX 21 23 20 24 25 25 22 26 23 27 26 28 27 29 8 30 9 31 10 32
REMARK SMILES IDX 24 33
REMARK H PARENT 24 34
REMARK Flexibility Score: inf
ROOT
ATOM      1  C   UNL     1     172.469 145.201 157.292  1.00  0.00     0.017 C 
ATOM      2  C   UNL     1     173.219 146.511 157.652  1.00  0.00     0.014 C 
ATOM      3  C   UNL     1     171.153 145.627 156.547  1.00  0.00     0.014 C 
ATOM      4  C   UNL     1     173.369 144.276 156.377  1.00  0.00     0.030 C 
ATOM      5  C   UNL     1     174.593 146.253 158.262  1.00  0.00     0.004 C 
ATOM      6  C   UNL     1     170.516 144.530 155.658  1.00  0.00     0.013 C 
ATOM      7  C   UNL     1     172.895 144.373 154.921  1.00  0.00    -0.063 C 
ATOM      8  C   UNL     1     174.939 144.301 156.605  1.00  0.00    -0.003 C 
ATOM      9  C   UNL     1     175.541 145.595 157.255  1.00  0.00    -0.011 C 
ATOM     10  C   UNL     1     171.495 143.806 154.635  1.00  0.00    -0.006 C 
ATOM     11  C   UNL     1     173.415 145.327 154.140  1.00  0.00    -0.027 C 
ATOM     12  C   UNL     1     175.379 143.074 157.436  1.00  0.00     0.008 C 
ATOM     13  C   UNL     1     176.101 146.612 156.241  1.00  0.00     0.008 C 
ATOM     14  C   UNL     1     171.513 142.269 154.955  1.00  0.00     0.017 C 
ATOM     15  C   UNL     1     171.033 143.990 153.100  1.00  0.00    -0.020 C 
ATOM     16  C   UNL     1     172.827 145.792 152.853  1.00  0.00     0.032 C 
ATOM     17  C   UNL     1     171.313 145.472 152.610  1.00  0.00     0.006 C 
ATOM     18  C   UNL     1     171.846 143.038 152.133  1.00  0.00     0.008 C 
ATOM     19  C   UNL     1     169.501 143.599 153.024  1.00  0.00     0.012 C 
ATOM     20  C   UNL     1     170.872 145.785 151.077  1.00  0.00    -0.025 C 
ATOM     21  C   UNL     1     171.857 143.445 150.627  1.00  0.00     0.005 C 
ATOM     22  C   UNL     1     170.728 144.440 150.270  1.00  0.00     0.003 C 
ATOM     23  C   UNL     1     169.498 146.552 151.022  1.00  0.00     0.010 C 
ATOM     24  C   UNL     1     171.906 146.739 150.389  1.00  0.00     0.012 C 
ATOM     25  C   UNL     1     170.323 144.568 148.743  1.00  0.00    -0.006 C 
ATOM     26  C   UNL     1     168.549 146.119 149.875  1.00  0.00     0.033 C 
ATOM     27  C   UNL     1     169.260 145.732 148.557  1.00  0.00     0.120 C 
ATOM     28  C   UNL     1     169.630 143.245 148.292  1.00  0.00     0.014 C 
ATOM     29  C   UNL     1     171.553 144.734 147.811  1.00  0.00     0.014 C 
ENDROOT
BRANCH   1  30
ATOM     30  C   UNL     1     172.052 144.460 158.566  1.00  0.00     0.048 C 
ATOM     31  O   UNL     1     171.642 145.091 159.578  1.00  0.00    -0.550 OA
ATOM     32  O   UNL     1     172.009 143.071 158.594  1.00  0.00    -0.550 OA
ENDBRANCH   1  30
BRANCH  27  33
ATOM     33  O   UNL     1     169.808 146.887 147.971  1.00  0.00    -0.393 OA
ATOM     34  H   UNL     1     170.752 146.683 147.738  1.00  0.00     0.210 HD
ENDBRANCH  27  33
TORSDOF 2
ENDMDL
