MODEL 1
REMARK VINA RESULT:    -4.197      0.000      0.000
REMARK INTER + INTRA:          -8.041
REMARK INTER:                  -6.650
REMARK INTRA:                  -1.391
REMARK UNBOUND:                -1.391
REMARK SMILES CCCCCCCCCCCC(=O)[O-]
REMARK SMILES IDX 7 1 8 2 9 3 10 4 11 5 12 6 13 7 14 8 6 9 5 10 4 11 3 12 2 13
REMARK SMILES IDX 1 14
REMARK H PARENT
REMARK Flexibility Score: inf
ROOT
ATOM      1  C   UNL     1       3.065   7.501  -8.640  1.00  0.00     0.000 C 
ENDROOT
BRANCH   1   2
ATOM      2  C   UNL     1       1.968   8.533  -8.943  1.00  0.00     0.000 C 
BRANCH   2   3
ATOM      3  C   UNL     1       1.642   9.417  -7.729  1.00  0.00     0.000 C 
BRANCH   3   4
ATOM      4  C   UNL     1       1.233   8.562  -6.520  1.00  0.00     0.006 C 
BRANCH   4   5
ATOM      5  C   UNL     1       1.797   9.110  -5.203  1.00  0.00     0.053 C 
BRANCH   5   6
ATOM      6  C   UNL     1       2.823   8.192  -4.613  1.00  0.00     0.041 C 
ATOM      7  O   UNL     1       3.865   7.906  -5.261  1.00  0.00    -0.550 OA
ATOM      8  O   UNL     1       2.613   7.627  -3.363  1.00  0.00    -0.550 OA
ENDBRANCH   5   6
ENDBRANCH   4   5
ENDBRANCH   3   4
ENDBRANCH   2   3
ENDBRANCH   1   2
BRANCH   1   9
ATOM      9  C   UNL     1       2.917   6.218  -9.478  1.00  0.00     0.000 C 
BRANCH   9  10
ATOM     10  C   UNL     1       1.469   6.004  -9.966  1.00  0.00    -0.000 C 
BRANCH  10  11
ATOM     11  C   UNL     1       0.724   4.881  -9.218  1.00  0.00    -0.000 C 
BRANCH  11  12
ATOM     12  C   UNL     1       0.054   5.315  -7.903  1.00  0.00    -0.000 C 
BRANCH  12  13
ATOM     13  C   UNL     1       0.430   4.411  -6.720  1.00  0.00    -0.003 C 
ATOM     14  C   UNL     1       1.589   5.005  -5.924  1.00  0.00     0.004 C 
ENDBRANCH  12  13
ENDBRANCH  11  12
ENDBRANCH  10  11
ENDBRANCH   9  10
ENDBRANCH   1   9
TORSDOF 10
ENDMDL
MODEL 2
REMARK VINA RESULT:    -4.100      1.441      2.042
REMARK INTER + INTRA:          -7.887
REMARK INTER:                  -7.030
REMARK INTRA:                  -0.857
REMARK UNBOUND:                -1.391
REMARK SMILES CCCCCCCCCCCC(=O)[O-]
REMARK SMILES IDX 7 1 8 2 9 3 10 4 11 5 12 6 13 7 14 8 6 9 5 10 4 11 3 12 2 13
REMARK SMILES IDX 1 14
REMARK H PARENT
REMARK Flexibility Score: inf
ROOT
ATOM      1  C   UNL     1       0.862   8.177  -7.412  1.00  0.00     0.000 C 
ENDROOT
BRANCH   1   2
ATOM      2  C   UNL     1       1.386   9.514  -6.868  1.00  0.00     0.000 C 
BRANCH   2   3
ATOM      3  C   UNL     1       2.920   9.592  -6.879  1.00  0.00     0.000 C 
BRANCH   3   4
ATOM      4  C   UNL     1       3.536   8.432  -6.081  1.00  0.00     0.006 C 
BRANCH   4   5
ATOM      5  C   UNL     1       3.251   8.545  -4.578  1.00  0.00     0.053 C 
BRANCH   5   6
ATOM      6  C   UNL     1       2.582   7.315  -4.046  1.00  0.00     0.041 C 
ATOM      7  O   UNL     1       2.209   7.266  -2.843  1.00  0.00    -0.550 OA
ATOM      8  O   UNL     1       2.403   6.211  -4.867  1.00  0.00    -0.550 OA
ENDBRANCH   5   6
ENDBRANCH   4   5
ENDBRANCH   3   4
ENDBRANCH   2   3
ENDBRANCH   1   2
BRANCH   1   9
ATOM      9  C   UNL     1       0.809   8.145  -8.951  1.00  0.00     0.000 C 
BRANCH   9  10
ATOM     10  C   UNL     1      -0.089   7.007  -9.479  1.00  0.00    -0.000 C 
BRANCH  10  11
ATOM     11  C   UNL     1       0.698   5.784  -9.990  1.00  0.00    -0.000 C 
BRANCH  11  12
ATOM     12  C   UNL     1       0.527   4.509  -9.147  1.00  0.00    -0.000 C 
BRANCH  12  13
ATOM     13  C   UNL     1       1.196   4.613  -7.769  1.00  0.00    -0.003 C 
ATOM     14  C   UNL     1       0.263   4.117  -6.668  1.00  0.00     0.004 C 
ENDBRANCH  12  13
ENDBRANCH  11  12
ENDBRANCH  10  11
ENDBRANCH   9  10
ENDBRANCH   1   9
TORSDOF 10
ENDMDL
MODEL 3
REMARK VINA RESULT:    -3.973      1.129      3.387
REMARK INTER + INTRA:          -7.686
REMARK INTER:                  -6.353
REMARK INTRA:                  -1.333
REMARK UNBOUND:                -1.391
REMARK SMILES CCCCCCCCCCCC(=O)[O-]
REMARK SMILES IDX 7 1 8 2 9 3 10 4 11 5 12 6 13 7 14 8 6 9 5 10 4 11 3 12 2 13
REMARK SMILES IDX 1 14
REMARK H PARENT
REMARK Flexibility Score: inf
ROOT
ATOM      1  C   UNL     1       1.243   4.877  -8.476  1.00  0.00     0.000 C 
ENDROOT
BRANCH   1   2
ATOM      2  C   UNL     1       0.388   4.301  -7.336  1.00  0.00     0.000 C 
BRANCH   2   3
ATOM      3  C   UNL     1       0.815   4.829  -5.958  1.00  0.00     0.000 C 
BRANCH   3   4
ATOM      4  C   UNL     1       2.069   5.709  -6.070  1.00  0.00     0.006 C 
BRANCH   4   5
ATOM      5  C   UNL     1       1.793   7.167  -5.681  1.00  0.00     0.053 C 
BRANCH   5   6
ATOM      6  C   UNL     1       2.619   7.596  -4.508  1.00  0.00     0.041 C 
ATOM      7  O   UNL     1       3.532   8.451  -4.654  1.00  0.00    -0.550 OA
ATOM      8  O   UNL     1       2.405   7.025  -3.261  1.00  0.00    -0.550 OA
ENDBRANCH   5   6
ENDBRANCH   4   5
ENDBRANCH   3   4
ENDBRANCH   2   3
ENDBRANCH   1   2
BRANCH   1   9
ATOM      9  C   UNL     1       0.390   5.456  -9.620  1.00  0.00     0.000 C 
BRANCH   9  10
ATOM     10  C   UNL     1       0.031   6.938  -9.386  1.00  0.00    -0.000 C 
BRANCH  10  11
ATOM     11  C   UNL     1       1.129   7.920  -9.839  1.00  0.00    -0.000 C 
BRANCH  11  12
ATOM     12  C   UNL     1       1.550   8.951  -8.777  1.00  0.00    -0.000 C 
BRANCH  12  13
ATOM     13  C   UNL     1       3.068   8.976  -8.544  1.00  0.00    -0.003 C 
ATOM     14  C   UNL     1       3.703   7.643  -8.930  1.00  0.00     0.004 C 
ENDBRANCH  12  13
ENDBRANCH  11  12
ENDBRANCH  10  11
ENDBRANCH   9  10
ENDBRANCH   1   9
TORSDOF 10
ENDMDL
MODEL 4
REMARK VINA RESULT:    -3.968      2.459      4.373
REMARK INTER + INTRA:          -7.679
REMARK INTER:                  -6.508
REMARK INTRA:                  -1.171
REMARK UNBOUND:                -1.391
REMARK SMILES CCCCCCCCCCCC(=O)[O-]
REMARK SMILES IDX 7 1 8 2 9 3 10 4 11 5 12 6 13 7 14 8 6 9 5 10 4 11 3 12 2 13
REMARK SMILES IDX 1 14
REMARK H PARENT
REMARK Flexibility Score: inf
ROOT
ATOM      1  C   UNL     1       1.279   8.856  -8.743  1.00  0.00     0.000 C 
ENDROOT
BRANCH   1   2
ATOM      2  C   UNL     1       0.611   7.731  -7.939  1.00  0.00     0.000 C 
BRANCH   2   3
ATOM      3  C   UNL     1       0.036   6.627  -8.839  1.00  0.00     0.000 C 
BRANCH   3   4
ATOM      4  C   UNL     1       1.003   5.437  -8.936  1.00  0.00     0.006 C 
BRANCH   4   5
ATOM      5  C   UNL     1       1.502   4.981  -7.559  1.00  0.00     0.053 C 
BRANCH   5   6
ATOM      6  C   UNL     1       0.447   4.229  -6.806  1.00  0.00     0.041 C 
ATOM      7  O   UNL     1       0.240   4.475  -5.588  1.00  0.00    -0.550 OA
ATOM      8  O   UNL     1      -0.283   3.234  -7.441  1.00  0.00    -0.550 OA
ENDBRANCH   5   6
ENDBRANCH   4   5
ENDBRANCH   3   4
ENDBRANCH   2   3
ENDBRANCH   1   2
BRANCH   1   9
ATOM      9  C   UNL     1       2.810   8.702  -8.815  1.00  0.00     0.000 C 
BRANCH   9  10
ATOM     10  C   UNL     1       3.404   8.166  -7.496  1.00  0.00    -0.000 C 
BRANCH  10  11
ATOM     11  C   UNL     1       3.438   9.211  -6.362  1.00  0.00    -0.000 C 
BRANCH  11  12
ATOM     12  C   UNL     1       3.382   8.624  -4.942  1.00  0.00    -0.000 C 
BRANCH  12  13
ATOM     13  C   UNL     1       2.417   7.434  -4.829  1.00  0.00    -0.003 C 
ATOM     14  C   UNL     1       2.268   6.987  -3.377  1.00  0.00     0.004 C 
ENDBRANCH  12  13
ENDBRANCH  11  12
ENDBRANCH  10  11
ENDBRANCH   9  10
ENDBRANCH   1   9
TORSDOF 10
ENDMDL
MODEL 5
REMARK VINA RESULT:    -3.944      0.989      3.330
REMARK INTER + INTRA:          -7.641
REMARK INTER:                  -6.217
REMARK INTRA:                  -1.424
REMARK UNBOUND:                -1.391
REMARK SMILES CCCCCCCCCCCC(=O)[O-]
REMARK SMILES IDX 7 1 8 2 9 3 10 4 11 5 12 6 13 7 14 8 6 9 5 10 4 11 3 12 2 13
REMARK SMILES IDX 1 14
REMARK H PARENT
REMARK Flexibility Score: inf
ROOT
ATOM      1  C   UNL     1      -0.036   5.060  -7.760  1.00  0.00     0.000 C 
ENDROOT
BRANCH   1   2
ATOM      2  C   UNL     1       0.562   4.485  -6.467  1.00  0.00     0.000 C 
BRANCH   2   3
ATOM      3  C   UNL     1       1.842   5.217  -6.036  1.00  0.00     0.000 C 
BRANCH   3   4
ATOM      4  C   UNL     1       1.683   6.738  -6.186  1.00  0.00     0.006 C 
BRANCH   4   5
ATOM      5  C   UNL     1       3.007   7.484  -5.976  1.00  0.00     0.053 C 
BRANCH   5   6
ATOM      6  C   UNL     1       2.983   8.319  -4.732  1.00  0.00     0.041 C 
ATOM      7  O   UNL     1       3.199   9.558  -4.796  1.00  0.00    -0.550 OA
ATOM      8  O   UNL     1       2.756   7.723  -3.499  1.00  0.00    -0.550 OA
ENDBRANCH   5   6
ENDBRANCH   4   5
ENDBRANCH   3   4
ENDBRANCH   2   3
ENDBRANCH   1   2
BRANCH   1   9
ATOM      9  C   UNL     1       0.695   4.562  -9.021  1.00  0.00     0.000 C 
BRANCH   9  10
ATOM     10  C   UNL     1       1.054   5.717  -9.979  1.00  0.00    -0.000 C 
BRANCH  10  11
ATOM     11  C   UNL     1       2.490   6.247  -9.798  1.00  0.00    -0.000 C 
BRANCH  11  12
ATOM     12  C   UNL     1       2.602   7.777  -9.681  1.00  0.00    -0.000 C 
BRANCH  12  13
ATOM     13  C   UNL     1       1.233   8.474  -9.666  1.00  0.00    -0.003 C 
ATOM     14  C   UNL     1       1.145   9.480  -8.523  1.00  0.00     0.004 C 
ENDBRANCH  12  13
ENDBRANCH  11  12
ENDBRANCH  10  11
ENDBRANCH   9  10
ENDBRANCH   1   9
TORSDOF 10
ENDMDL
MODEL 6
REMARK VINA RESULT:    -3.925     18.742     20.853
REMARK INTER + INTRA:          -7.611
REMARK INTER:                  -6.080
REMARK INTRA:                  -1.531
REMARK UNBOUND:                -1.391
REMARK SMILES CCCCCCCCCCCC(=O)[O-]
REMARK SMILES IDX 7 1 8 2 9 3 10 4 11 5 12 6 13 7 14 8 6 9 5 10 4 11 3 12 2 13
REMARK SMILES IDX 1 14
REMARK H PARENT
REMARK Flexibility Score: inf
ROOT
ATOM      1  C   UNL     1      -4.471  -4.425   5.153  1.00  0.00     0.000 C 
ENDROOT
BRANCH   1   2
ATOM      2  C   UNL     1      -3.996  -5.589   6.035  1.00  0.00     0.000 C 
BRANCH   2   3
ATOM      3  C   UNL     1      -5.056  -6.694   6.170  1.00  0.00     0.000 C 
BRANCH   3   4
ATOM      4  C   UNL     1      -6.243  -6.435   5.229  1.00  0.00     0.006 C 
BRANCH   4   5
ATOM      5  C   UNL     1      -7.568  -6.299   5.990  1.00  0.00     0.053 C 
BRANCH   5   6
ATOM      6  C   UNL     1      -8.459  -7.482   5.770  1.00  0.00     0.041 C 
ATOM      7  O   UNL     1      -8.125  -8.617   6.204  1.00  0.00    -0.550 OA
ATOM      8  O   UNL     1      -9.641  -7.339   5.055  1.00  0.00    -0.550 OA
ENDBRANCH   5   6
ENDBRANCH   4   5
ENDBRANCH   3   4
ENDBRANCH   2   3
ENDBRANCH   1   2
BRANCH   1   9
ATOM      9  C   UNL     1      -4.630  -3.112   5.943  1.00  0.00     0.000 C 
BRANCH   9  10
ATOM     10  C   UNL     1      -5.870  -3.132   6.861  1.00  0.00    -0.000 C 
BRANCH  10  11
ATOM     11  C   UNL     1      -5.530  -3.291   8.356  1.00  0.00    -0.000 C 
BRANCH  11  12
ATOM     12  C   UNL     1      -6.110  -4.552   9.020  1.00  0.00    -0.000 C 
BRANCH  12  13
ATOM     13  C   UNL     1      -5.036  -5.407   9.708  1.00  0.00    -0.003 C 
ATOM     14  C   UNL     1      -3.658  -4.763   9.581  1.00  0.00     0.004 C 
ENDBRANCH  12  13
ENDBRANCH  11  12
ENDBRANCH  10  11
ENDBRANCH   9  10
ENDBRANCH   1   9
TORSDOF 10
ENDMDL
MODEL 7
REMARK VINA RESULT:    -3.890      2.240      4.403
REMARK INTER + INTRA:          -7.555
REMARK INTER:                  -5.915
REMARK INTRA:                  -1.640
REMARK UNBOUND:                -1.391
REMARK SMILES CCCCCCCCCCCC(=O)[O-]
REMARK SMILES IDX 7 1 8 2 9 3 10 4 11 5 12 6 13 7 14 8 6 9 5 10 4 11 3 12 2 13
REMARK SMILES IDX 1 14
REMARK H PARENT
REMARK Flexibility Score: inf
ROOT
ATOM      1  C   UNL     1       1.376   8.990  -6.267  1.00  0.00     0.000 C 
ENDROOT
BRANCH   1   2
ATOM      2  C   UNL     1       1.096   9.306  -7.743  1.00  0.00     0.000 C 
BRANCH   2   3
ATOM      3  C   UNL     1       0.473   8.117  -8.491  1.00  0.00     0.000 C 
BRANCH   3   4
ATOM      4  C   UNL     1       0.078   7.000  -7.513  1.00  0.00     0.006 C 
BRANCH   4   5
ATOM      5  C   UNL     1       0.607   5.629  -7.953  1.00  0.00     0.053 C 
BRANCH   5   6
ATOM      6  C   UNL     1       0.768   4.697  -6.792  1.00  0.00     0.041 C 
ATOM      7  O   UNL     1       1.546   4.991  -5.845  1.00  0.00    -0.550 OA
ATOM      8  O   UNL     1       0.086   3.488  -6.771  1.00  0.00    -0.550 OA
ENDBRANCH   5   6
ENDBRANCH   4   5
ENDBRANCH   3   4
ENDBRANCH   2   3
ENDBRANCH   1   2
BRANCH   1   9
ATOM      9  C   UNL     1       2.848   9.224  -5.880  1.00  0.00     0.000 C 
BRANCH   9  10
ATOM     10  C   UNL     1       3.627   7.901  -5.724  1.00  0.00    -0.000 C 
BRANCH  10  11
ATOM     11  C   UNL     1       4.009   7.246  -7.066  1.00  0.00    -0.000 C 
BRANCH  11  12
ATOM     12  C   UNL     1       4.791   8.155  -8.029  1.00  0.00    -0.000 C 
BRANCH  12  13
ATOM     13  C   UNL     1       4.221   8.138  -9.456  1.00  0.00    -0.003 C 
ATOM     14  C   UNL     1       3.659   6.763  -9.804  1.00  0.00     0.004 C 
ENDBRANCH  12  13
ENDBRANCH  11  12
ENDBRANCH  10  11
ENDBRANCH   9  10
ENDBRANCH   1   9
TORSDOF 10
ENDMDL
MODEL 8
REMARK VINA RESULT:    -3.825     18.727     21.054
REMARK INTER + INTRA:          -7.452
REMARK INTER:                  -5.903
REMARK INTRA:                  -1.549
REMARK UNBOUND:                -1.391
REMARK SMILES CCCCCCCCCCCC(=O)[O-]
REMARK SMILES IDX 7 1 8 2 9 3 10 4 11 5 12 6 13 7 14 8 6 9 5 10 4 11 3 12 2 13
REMARK SMILES IDX 1 14
REMARK H PARENT
REMARK Flexibility Score: inf
ROOT
ATOM      1  C   UNL     1      -3.898  -5.260   6.322  1.00  0.00     0.000 C 
ENDROOT
BRANCH   1   2
ATOM      2  C   UNL     1      -4.862  -6.453   6.246  1.00  0.00     0.000 C 
BRANCH   2   3
ATOM      3  C   UNL     1      -5.973  -6.245   5.206  1.00  0.00     0.000 C 
BRANCH   3   4
ATOM      4  C   UNL     1      -7.326  -6.738   5.741  1.00  0.00     0.006 C 
BRANCH   4   5
ATOM      5  C   UNL     1      -7.183  -7.513   7.057  1.00  0.00     0.053 C 
BRANCH   5   6
ATOM      6  C   UNL     1      -7.550  -8.956   6.895  1.00  0.00     0.041 C 
ATOM      7  O   UNL     1      -7.030  -9.644   5.976  1.00  0.00    -0.550 OA
ATOM      8  O   UNL     1      -8.492  -9.533   7.737  1.00  0.00    -0.550 OA
ENDBRANCH   5   6
ENDBRANCH   4   5
ENDBRANCH   3   4
ENDBRANCH   2   3
ENDBRANCH   1   2
BRANCH   1   9
ATOM      9  C   UNL     1      -4.150  -4.224   5.211  1.00  0.00     0.000 C 
BRANCH   9  10
ATOM     10  C   UNL     1      -4.814  -2.941   5.752  1.00  0.00    -0.000 C 
BRANCH  10  11
ATOM     11  C   UNL     1      -5.304  -3.063   7.208  1.00  0.00    -0.000 C 
BRANCH  11  12
ATOM     12  C   UNL     1      -6.832  -3.031   7.381  1.00  0.00    -0.000 C 
BRANCH  12  13
ATOM     13  C   UNL     1      -7.339  -4.085   8.375  1.00  0.00    -0.003 C 
ATOM     14  C   UNL     1      -6.200  -4.613   9.242  1.00  0.00     0.004 C 
ENDBRANCH  12  13
ENDBRANCH  11  12
ENDBRANCH  10  11
ENDBRANCH   9  10
ENDBRANCH   1   9
TORSDOF 10
ENDMDL
MODEL 9
REMARK VINA RESULT:    -3.750      2.028      4.410
REMARK INTER + INTRA:          -7.334
REMARK INTER:                  -5.916
REMARK INTRA:                  -1.418
REMARK UNBOUND:                -1.391
REMARK SMILES CCCCCCCCCCCC(=O)[O-]
REMARK SMILES IDX 7 1 8 2 9 3 10 4 11 5 12 6 13 7 14 8 6 9 5 10 4 11 3 12 2 13
REMARK SMILES IDX 1 14
REMARK H PARENT
REMARK Flexibility Score: inf
ROOT
ATOM      1  C   UNL     1       0.198   4.107  -7.638  1.00  0.00     0.000 C 
ENDROOT
BRANCH   1   2
ATOM      2  C   UNL     1       1.059   4.596  -8.812  1.00  0.00     0.000 C 
BRANCH   2   3
ATOM      3  C   UNL     1       0.369   5.700  -9.628  1.00  0.00     0.000 C 
BRANCH   3   4
ATOM      4  C   UNL     1       1.300   6.907  -9.817  1.00  0.00     0.006 C 
BRANCH   4   5
ATOM      5  C   UNL     1       2.781   6.521  -9.717  1.00  0.00     0.053 C 
BRANCH   5   6
ATOM      6  C   UNL     1       3.602   7.617  -9.110  1.00  0.00     0.041 C 
ATOM      7  O   UNL     1       3.191   8.807  -9.139  1.00  0.00    -0.550 OA
ATOM      8  O   UNL     1       4.836   7.328  -8.543  1.00  0.00    -0.550 OA
ENDBRANCH   5   6
ENDBRANCH   4   5
ENDBRANCH   3   4
ENDBRANCH   2   3
ENDBRANCH   1   2
BRANCH   1   9
ATOM      9  C   UNL     1       0.532   4.828  -6.319  1.00  0.00     0.000 C 
BRANCH   9  10
ATOM     10  C   UNL     1       1.989   5.333  -6.284  1.00  0.00    -0.000 C 
BRANCH  10  11
ATOM     11  C   UNL     1       2.137   6.760  -5.720  1.00  0.00    -0.000 C 
BRANCH  11  12
ATOM     12  C   UNL     1       1.178   7.797  -6.329  1.00  0.00    -0.000 C 
BRANCH  12  13
ATOM     13  C   UNL     1       1.548   9.239  -5.952  1.00  0.00    -0.003 C 
ATOM     14  C   UNL     1       2.848   9.281  -5.154  1.00  0.00     0.004 C 
ENDBRANCH  12  13
ENDBRANCH  11  12
ENDBRANCH  10  11
ENDBRANCH   9  10
ENDBRANCH   1   9
TORSDOF 10
ENDMDL
