MODEL 1
REMARK VINA RESULT:    -3.223      0.000      0.000
REMARK INTER + INTRA:          -3.555
REMARK INTER:                  -3.412
REMARK INTRA:                  -0.143
REMARK UNBOUND:                -0.143
REMARK SMILES CC1=CC[C@@H]2[C@H]3[C@@H](C(C)C)CC[C@]2(C)[C@@H]13
REMARK SMILES IDX 1 1 2 2 3 3 4 4 5 5 6 6 15 7 13 8 12 9 11 10 7 11 14 12 8 13
REMARK SMILES IDX 9 14 10 15
REMARK H PARENT
REMARK Flexibility Score: inf
ROOT
ATOM      1  C   UNL     1     146.879 148.249 130.373  1.00  0.00     0.039 C 
ATOM      2  C   UNL     1     146.635 147.340 131.541  1.00  0.00    -0.073 C 
ATOM      3  C   UNL     1     147.660 146.899 132.316  1.00  0.00    -0.027 C 
ATOM      4  C   UNL     1     147.347 145.992 133.510  1.00  0.00     0.031 C 
ATOM      5  C   UNL     1     145.813 145.703 133.588  1.00  0.00     0.003 C 
ATOM      6  C   UNL     1     145.334 145.332 132.159  1.00  0.00     0.004 C 
ATOM      7  C   UNL     1     145.229 146.853 131.903  1.00  0.00     0.024 C 
ATOM      8  C   UNL     1     144.980 147.000 133.422  1.00  0.00    -0.022 C 
ATOM      9  C   UNL     1     143.473 146.726 133.720  1.00  0.00     0.008 C 
ATOM     10  C   UNL     1     143.037 145.293 133.312  1.00  0.00     0.005 C 
ATOM     11  C   UNL     1     143.904 144.708 132.156  1.00  0.00    -0.005 C 
ATOM     12  C   UNL     1     145.455 148.293 134.125  1.00  0.00     0.012 C 
ENDROOT
BRANCH  11  13
ATOM     13  C   UNL     1     143.894 143.149 132.142  1.00  0.00    -0.014 C 
ATOM     14  C   UNL     1     145.033 142.512 132.957  1.00  0.00     0.007 C 
ATOM     15  C   UNL     1     143.911 142.600 130.706  1.00  0.00     0.007 C 
ENDBRANCH  11  13
TORSDOF 1
ENDMDL
MODEL 2
REMARK VINA RESULT:    -3.221      1.052      4.618
REMARK INTER + INTRA:          -3.552
REMARK INTER:                  -3.409
REMARK INTRA:                  -0.143
REMARK UNBOUND:                -0.143
REMARK SMILES CC1=CC[C@@H]2[C@H]3[C@@H](C(C)C)CC[C@]2(C)[C@@H]13
REMARK SMILES IDX 1 1 2 2 3 3 4 4 5 5 6 6 15 7 13 8 12 9 11 10 7 11 14 12 8 13
REMARK SMILES IDX 9 14 10 15
REMARK H PARENT
REMARK Flexibility Score: inf
ROOT
ATOM      1  C   UNL     1     143.883 142.635 130.367  1.00  0.00     0.039 C 
ATOM      2  C   UNL     1     144.134 143.533 131.540  1.00  0.00    -0.073 C 
ATOM      3  C   UNL     1     143.112 143.985 132.313  1.00  0.00    -0.027 C 
ATOM      4  C   UNL     1     143.432 144.881 133.514  1.00  0.00     0.031 C 
ATOM      5  C   UNL     1     144.969 145.147 133.601  1.00  0.00     0.003 C 
ATOM      6  C   UNL     1     145.461 145.519 132.176  1.00  0.00     0.004 C 
ATOM      7  C   UNL     1     145.545 143.997 131.913  1.00  0.00     0.024 C 
ATOM      8  C   UNL     1     145.785 143.839 133.432  1.00  0.00    -0.022 C 
ATOM      9  C   UNL     1     147.294 144.090 133.739  1.00  0.00     0.008 C 
ATOM     10  C   UNL     1     147.753 145.518 133.341  1.00  0.00     0.005 C 
ATOM     11  C   UNL     1     146.900 146.122 132.184  1.00  0.00    -0.005 C 
ATOM     12  C   UNL     1     145.287 142.549 134.125  1.00  0.00     0.012 C 
ENDROOT
BRANCH  11  13
ATOM     13  C   UNL     1     146.932 147.681 132.178  1.00  0.00    -0.014 C 
ATOM     14  C   UNL     1     145.808 148.330 133.003  1.00  0.00     0.007 C 
ATOM     15  C   UNL     1     146.916 148.238 130.745  1.00  0.00     0.007 C 
ENDBRANCH  11  13
TORSDOF 1
ENDMDL
MODEL 3
REMARK VINA RESULT:    -2.340      1.723      3.399
REMARK INTER + INTRA:          -2.620
REMARK INTER:                  -2.466
REMARK INTRA:                  -0.154
REMARK UNBOUND:                -0.143
REMARK SMILES CC1=CC[C@@H]2[C@H]3[C@@H](C(C)C)CC[C@]2(C)[C@@H]13
REMARK SMILES IDX 1 1 2 2 3 3 4 4 5 5 6 6 15 7 13 8 12 9 11 10 7 11 14 12 8 13
REMARK SMILES IDX 9 14 10 15
REMARK H PARENT
REMARK Flexibility Score: inf
ROOT
ATOM      1  C   UNL     1     148.131 143.632 130.354  1.00  0.00     0.039 C 
ATOM      2  C   UNL     1     147.217 143.940 131.501  1.00  0.00    -0.073 C 
ATOM      3  C   UNL     1     146.669 142.948 132.251  1.00  0.00    -0.027 C 
ATOM      4  C   UNL     1     145.762 143.325 133.427  1.00  0.00     0.031 C 
ATOM      5  C   UNL     1     145.605 144.877 133.519  1.00  0.00     0.003 C 
ATOM      6  C   UNL     1     145.314 145.403 132.088  1.00  0.00     0.004 C 
ATOM      7  C   UNL     1     146.845 145.379 131.872  1.00  0.00     0.024 C 
ATOM      8  C   UNL     1     146.974 145.596 133.397  1.00  0.00    -0.022 C 
ATOM      9  C   UNL     1     146.823 147.118 133.709  1.00  0.00     0.008 C 
ATOM     10  C   UNL     1     145.445 147.682 133.272  1.00  0.00     0.005 C 
ATOM     11  C   UNL     1     144.817 146.883 132.090  1.00  0.00    -0.005 C 
ATOM     12  C   UNL     1     148.202 145.002 134.125  1.00  0.00     0.012 C 
ENDROOT
BRANCH  11  13
ATOM     13  C   UNL     1     143.266 147.028 132.037  1.00  0.00    -0.014 C 
ATOM     14  C   UNL     1     142.518 146.079 132.990  1.00  0.00     0.007 C 
ATOM     15  C   UNL     1     142.734 146.854 130.605  1.00  0.00     0.007 C 
ENDBRANCH  11  13
TORSDOF 1
ENDMDL
MODEL 4
REMARK VINA RESULT:    -2.304      1.723      3.149
REMARK INTER + INTRA:          -2.581
REMARK INTER:                  -2.437
REMARK INTRA:                  -0.144
REMARK UNBOUND:                -0.143
REMARK SMILES CC1=CC[C@@H]2[C@H]3[C@@H](C(C)C)CC[C@]2(C)[C@@H]13
REMARK SMILES IDX 1 1 2 2 3 3 4 4 5 5 6 6 15 7 13 8 12 9 11 10 7 11 14 12 8 13
REMARK SMILES IDX 9 14 10 15
REMARK H PARENT
REMARK Flexibility Score: inf
ROOT
ATOM      1  C   UNL     1     142.617 147.159 130.396  1.00  0.00     0.039 C 
ATOM      2  C   UNL     1     143.525 146.831 131.542  1.00  0.00    -0.073 C 
ATOM      3  C   UNL     1     144.052 147.809 132.325  1.00  0.00    -0.027 C 
ATOM      4  C   UNL     1     144.954 147.412 133.498  1.00  0.00     0.031 C 
ATOM      5  C   UNL     1     145.133 145.860 133.547  1.00  0.00     0.003 C 
ATOM      6  C   UNL     1     145.445 145.380 132.104  1.00  0.00     0.004 C 
ATOM      7  C   UNL     1     143.915 145.388 131.875  1.00  0.00     0.024 C 
ATOM      8  C   UNL     1     143.777 145.125 133.392  1.00  0.00    -0.022 C 
ATOM      9  C   UNL     1     143.947 143.597 133.662  1.00  0.00     0.008 C 
ATOM     10  C   UNL     1     145.337 143.067 133.221  1.00  0.00     0.005 C 
ATOM     11  C   UNL     1     145.964 143.909 132.069  1.00  0.00    -0.005 C 
ATOM     12  C   UNL     1     142.533 145.680 134.125  1.00  0.00     0.012 C 
ENDROOT
BRANCH  11  13
ATOM     13  C   UNL     1     147.518 143.788 132.026  1.00  0.00    -0.014 C 
ATOM     14  C   UNL     1     148.245 144.781 132.948  1.00  0.00     0.007 C 
ATOM     15  C   UNL     1     148.052 143.921 130.591  1.00  0.00     0.007 C 
ENDBRANCH  11  13
TORSDOF 1
ENDMDL
MODEL 5
REMARK VINA RESULT:    -2.209      1.250      4.518
REMARK INTER + INTRA:          -2.481
REMARK INTER:                  -2.231
REMARK INTRA:                  -0.249
REMARK UNBOUND:                -0.143
REMARK SMILES CC1=CC[C@@H]2[C@H]3[C@@H](C(C)C)CC[C@]2(C)[C@@H]13
REMARK SMILES IDX 1 1 2 2 3 3 4 4 5 5 6 6 15 7 13 8 12 9 11 10 7 11 14 12 8 13
REMARK SMILES IDX 9 14 10 15
REMARK H PARENT
REMARK Flexibility Score: inf
ROOT
ATOM      1  C   UNL     1     146.516 142.764 132.604  1.00  0.00     0.039 C 
ATOM      2  C   UNL     1     145.832 144.029 132.179  1.00  0.00    -0.073 C 
ATOM      3  C   UNL     1     144.962 144.043 131.135  1.00  0.00    -0.027 C 
ATOM      4  C   UNL     1     144.275 145.360 130.763  1.00  0.00     0.031 C 
ATOM      5  C   UNL     1     144.767 146.515 131.694  1.00  0.00     0.003 C 
ATOM      6  C   UNL     1     146.314 146.419 131.778  1.00  0.00     0.004 C 
ATOM      7  C   UNL     1     146.092 145.363 132.885  1.00  0.00     0.024 C 
ATOM      8  C   UNL     1     144.759 146.087 133.184  1.00  0.00    -0.022 C 
ATOM      9  C   UNL     1     145.041 147.313 134.108  1.00  0.00     0.008 C 
ATOM     10  C   UNL     1     145.997 148.345 133.452  1.00  0.00     0.005 C 
ATOM     11  C   UNL     1     146.953 147.698 132.405  1.00  0.00    -0.005 C 
ATOM     12  C   UNL     1     143.572 145.253 133.720  1.00  0.00     0.012 C 
ENDROOT
BRANCH  11  13
ATOM     13  C   UNL     1     147.465 148.729 131.354  1.00  0.00    -0.014 C 
ATOM     14  C   UNL     1     147.212 148.309 129.896  1.00  0.00     0.007 C 
ATOM     15  C   UNL     1     148.955 149.045 131.555  1.00  0.00     0.007 C 
ENDBRANCH  11  13
TORSDOF 1
ENDMDL
MODEL 6
REMARK VINA RESULT:    -2.155      1.308      2.670
REMARK INTER + INTRA:          -2.423
REMARK INTER:                  -2.169
REMARK INTRA:                  -0.255
REMARK UNBOUND:                -0.143
REMARK SMILES CC1=CC[C@@H]2[C@H]3[C@@H](C(C)C)CC[C@]2(C)[C@@H]13
REMARK SMILES IDX 1 1 2 2 3 3 4 4 5 5 6 6 15 7 13 8 12 9 11 10 7 11 14 12 8 13
REMARK SMILES IDX 9 14 10 15
REMARK H PARENT
REMARK Flexibility Score: inf
ROOT
ATOM      1  C   UNL     1     144.268 148.015 132.623  1.00  0.00     0.039 C 
ATOM      2  C   UNL     1     144.942 146.746 132.195  1.00  0.00    -0.073 C 
ATOM      3  C   UNL     1     145.816 146.730 131.154  1.00  0.00    -0.027 C 
ATOM      4  C   UNL     1     146.494 145.409 130.778  1.00  0.00     0.031 C 
ATOM      5  C   UNL     1     145.988 144.254 131.702  1.00  0.00     0.003 C 
ATOM      6  C   UNL     1     144.442 144.362 131.781  1.00  0.00     0.004 C 
ATOM      7  C   UNL     1     144.668 145.412 132.894  1.00  0.00     0.024 C 
ATOM      8  C   UNL     1     145.994 144.675 133.194  1.00  0.00    -0.022 C 
ATOM      9  C   UNL     1     145.699 143.448 134.112  1.00  0.00     0.008 C 
ATOM     10  C   UNL     1     144.737 142.426 133.448  1.00  0.00     0.005 C 
ATOM     11  C   UNL     1     143.790 143.086 132.401  1.00  0.00    -0.005 C 
ATOM     12  C   UNL     1     147.186 145.497 133.739  1.00  0.00     0.012 C 
ENDROOT
BRANCH  11  13
ATOM     13  C   UNL     1     143.274 142.064 131.343  1.00  0.00    -0.014 C 
ATOM     14  C   UNL     1     143.507 142.503 129.887  1.00  0.00     0.007 C 
ATOM     15  C   UNL     1     141.788 141.735 131.557  1.00  0.00     0.007 C 
ENDBRANCH  11  13
TORSDOF 1
ENDMDL
MODEL 7
REMARK VINA RESULT:    -2.129      1.203      1.818
REMARK INTER + INTRA:          -2.396
REMARK INTER:                  -2.029
REMARK INTRA:                  -0.367
REMARK UNBOUND:                -0.143
REMARK SMILES CC1=CC[C@@H]2[C@H]3[C@@H](C(C)C)CC[C@]2(C)[C@@H]13
REMARK SMILES IDX 1 1 2 2 3 3 4 4 5 5 6 6 15 7 13 8 12 9 11 10 7 11 14 12 8 13
REMARK SMILES IDX 9 14 10 15
REMARK H PARENT
REMARK Flexibility Score: inf
ROOT
ATOM      1  C   UNL     1     146.890 148.327 130.145  1.00  0.00     0.039 C 
ATOM      2  C   UNL     1     146.359 147.639 131.367  1.00  0.00    -0.073 C 
ATOM      3  C   UNL     1     146.712 148.048 132.614  1.00  0.00    -0.027 C 
ATOM      4  C   UNL     1     146.117 147.322 133.825  1.00  0.00     0.031 C 
ATOM      5  C   UNL     1     145.189 146.154 133.360  1.00  0.00     0.003 C 
ATOM      6  C   UNL     1     145.943 145.370 132.253  1.00  0.00     0.004 C 
ATOM      7  C   UNL     1     145.412 146.439 131.269  1.00  0.00     0.024 C 
ATOM      8  C   UNL     1     144.220 146.609 132.238  1.00  0.00    -0.022 C 
ATOM      9  C   UNL     1     143.162 145.501 131.944  1.00  0.00     0.008 C 
ATOM     10  C   UNL     1     143.728 144.070 132.146  1.00  0.00     0.005 C 
ATOM     11  C   UNL     1     145.270 143.998 131.935  1.00  0.00    -0.005 C 
ATOM     12  C   UNL     1     143.549 147.999 132.343  1.00  0.00     0.012 C 
ENDROOT
BRANCH  11  13
ATOM     13  C   UNL     1     145.914 142.791 132.683  1.00  0.00    -0.014 C 
ATOM     14  C   UNL     1     145.410 142.611 134.125  1.00  0.00     0.007 C 
ATOM     15  C   UNL     1     147.449 142.878 132.674  1.00  0.00     0.007 C 
ENDBRANCH  11  13
TORSDOF 1
ENDMDL
MODEL 8
REMARK VINA RESULT:    -2.072      1.222      4.513
REMARK INTER + INTRA:          -2.336
REMARK INTER:                  -1.967
REMARK INTRA:                  -0.369
REMARK UNBOUND:                -0.143
REMARK SMILES CC1=CC[C@@H]2[C@H]3[C@@H](C(C)C)CC[C@]2(C)[C@@H]13
REMARK SMILES IDX 1 1 2 2 3 3 4 4 5 5 6 6 15 7 13 8 12 9 11 10 7 11 14 12 8 13
REMARK SMILES IDX 9 14 10 15
REMARK H PARENT
REMARK Flexibility Score: inf
ROOT
ATOM      1  C   UNL     1     143.811 142.445 130.163  1.00  0.00     0.039 C 
ATOM      2  C   UNL     1     144.358 143.136 131.377  1.00  0.00    -0.073 C 
ATOM      3  C   UNL     1     144.025 142.727 132.629  1.00  0.00    -0.027 C 
ATOM      4  C   UNL     1     144.634 143.456 133.831  1.00  0.00     0.031 C 
ATOM      5  C   UNL     1     145.551 144.627 133.351  1.00  0.00     0.003 C 
ATOM      6  C   UNL     1     144.778 145.407 132.254  1.00  0.00     0.004 C 
ATOM      7  C   UNL     1     145.298 144.339 131.264  1.00  0.00     0.024 C 
ATOM      8  C   UNL     1     146.505 144.175 132.216  1.00  0.00    -0.022 C 
ATOM      9  C   UNL     1     147.554 145.287 131.905  1.00  0.00     0.008 C 
ATOM     10  C   UNL     1     146.986 146.716 132.115  1.00  0.00     0.005 C 
ATOM     11  C   UNL     1     145.441 146.781 131.926  1.00  0.00    -0.005 C 
ATOM     12  C   UNL     1     147.183 142.788 132.312  1.00  0.00     0.012 C 
ENDROOT
BRANCH  11  13
ATOM     13  C   UNL     1     144.803 147.987 132.682  1.00  0.00    -0.014 C 
ATOM     14  C   UNL     1     145.335 148.176 134.113  1.00  0.00     0.007 C 
ATOM     15  C   UNL     1     143.269 147.889 132.704  1.00  0.00     0.007 C 
ENDBRANCH  11  13
TORSDOF 1
ENDMDL
