MODEL 1
REMARK VINA RESULT:    -4.577      0.000      0.000
REMARK INTER + INTRA:          -4.867
REMARK INTER:                  -4.844
REMARK INTRA:                  -0.022
REMARK UNBOUND:                -0.022
REMARK SMILES O=C([O-])c1cccnc1
REMARK SMILES IDX 4 1 5 2 9 3 6 4 8 5 7 6 2 7 1 8 3 9
REMARK H PARENT
REMARK Flexibility Score: inf
ROOT
ATOM      1  C   UNL     1     -12.223 -13.249 -15.568  1.00  0.00     0.016 A 
ATOM      2  C   UNL     1     -13.376 -13.278 -14.766  1.00  0.00     0.013 A 
ATOM      3  C   UNL     1     -11.158 -12.417 -15.181  1.00  0.00     0.120 A 
ATOM      4  C   UNL     1     -13.447 -12.491 -13.615  1.00  0.00     0.021 A 
ATOM      5  N   UNL     1     -11.254 -11.662 -14.054  1.00  0.00    -0.264 NA
ATOM      6  C   UNL     1     -12.364 -11.681 -13.272  1.00  0.00     0.111 A 
ENDROOT
BRANCH   1   7
ATOM      7  C   UNL     1     -12.127 -14.074 -16.792  1.00  0.00     0.073 C 
ATOM      8  O   UNL     1     -11.318 -13.768 -17.709  1.00  0.00    -0.545 OA
ATOM      9  O   UNL     1     -12.929 -15.199 -16.948  1.00  0.00    -0.545 OA
ENDBRANCH   1   7
TORSDOF 1
ENDMDL
MODEL 2
REMARK VINA RESULT:    -4.492      2.490      3.404
REMARK INTER + INTRA:          -4.778
REMARK INTER:                  -4.760
REMARK INTRA:                  -0.018
REMARK UNBOUND:                -0.022
REMARK SMILES O=C([O-])c1cccnc1
REMARK SMILES IDX 4 1 5 2 9 3 6 4 8 5 7 6 2 7 1 8 3 9
REMARK H PARENT
REMARK Flexibility Score: inf
ROOT
ATOM      1  C   UNL     1     -12.546 -13.490 -15.090  1.00  0.00     0.016 A 
ATOM      2  C   UNL     1     -12.764 -14.433 -16.108  1.00  0.00     0.013 A 
ATOM      3  C   UNL     1     -11.488 -12.577 -15.239  1.00  0.00     0.120 A 
ATOM      4  C   UNL     1     -11.940 -14.451 -17.234  1.00  0.00     0.021 A 
ATOM      5  N   UNL     1     -10.700 -12.617 -16.348  1.00  0.00    -0.264 NA
ATOM      6  C   UNL     1     -10.902 -13.525 -17.337  1.00  0.00     0.111 A 
ENDROOT
BRANCH   1   7
ATOM      7  C   UNL     1     -13.407 -13.454 -13.888  1.00  0.00     0.073 C 
ATOM      8  O   UNL     1     -14.036 -12.405 -13.582  1.00  0.00    -0.545 OA
ATOM      9  O   UNL     1     -13.534 -14.577 -13.078  1.00  0.00    -0.545 OA
ENDBRANCH   1   7
TORSDOF 1
ENDMDL
MODEL 3
REMARK VINA RESULT:    -4.431      3.298      3.869
REMARK INTER + INTRA:          -4.713
REMARK INTER:                  -4.694
REMARK INTRA:                  -0.019
REMARK UNBOUND:                -0.022
REMARK SMILES O=C([O-])c1cccnc1
REMARK SMILES IDX 4 1 5 2 9 3 6 4 8 5 7 6 2 7 1 8 3 9
REMARK H PARENT
REMARK Flexibility Score: inf
ROOT
ATOM      1  C   UNL     1     -11.906 -14.757 -13.544  1.00  0.00     0.016 A 
ATOM      2  C   UNL     1     -13.063 -14.107 -14.006  1.00  0.00     0.013 A 
ATOM      3  C   UNL     1     -10.767 -14.759 -14.367  1.00  0.00     0.120 A 
ATOM      4  C   UNL     1     -13.065 -13.483 -15.255  1.00  0.00     0.021 A 
ATOM      5  N   UNL     1     -10.796 -14.143 -15.579  1.00  0.00    -0.264 NA
ATOM      6  C   UNL     1     -11.909 -13.513 -16.035  1.00  0.00     0.111 A 
ENDROOT
BRANCH   1   7
ATOM      7  C   UNL     1     -11.883 -15.423 -12.224  1.00  0.00     0.073 C 
ATOM      8  O   UNL     1     -11.420 -16.590 -12.104  1.00  0.00    -0.545 OA
ATOM      9  O   UNL     1     -12.372 -14.772 -11.097  1.00  0.00    -0.545 OA
ENDBRANCH   1   7
TORSDOF 1
ENDMDL
MODEL 4
REMARK VINA RESULT:    -4.403      1.035      1.493
REMARK INTER + INTRA:          -4.683
REMARK INTER:                  -4.666
REMARK INTRA:                  -0.017
REMARK UNBOUND:                -0.022
REMARK SMILES O=C([O-])c1cccnc1
REMARK SMILES IDX 4 1 5 2 9 3 6 4 8 5 7 6 2 7 1 8 3 9
REMARK H PARENT
REMARK Flexibility Score: inf
ROOT
ATOM      1  C   UNL     1     -12.285 -13.807 -15.312  1.00  0.00     0.016 A 
ATOM      2  C   UNL     1     -13.362 -13.049 -14.822  1.00  0.00     0.013 A 
ATOM      3  C   UNL     1     -11.190 -14.040 -14.462  1.00  0.00     0.120 A 
ATOM      4  C   UNL     1     -13.330 -12.546 -13.520  1.00  0.00     0.021 A 
ATOM      5  N   UNL     1     -11.185 -13.538 -13.198  1.00  0.00    -0.264 NA
ATOM      6  C   UNL     1     -12.220 -12.804 -12.715  1.00  0.00     0.111 A 
ENDROOT
BRANCH   1   7
ATOM      7  C   UNL     1     -12.299 -14.349 -16.688  1.00  0.00     0.073 C 
ATOM      8  O   UNL     1     -13.039 -15.325 -16.984  1.00  0.00    -0.545 OA
ATOM      9  O   UNL     1     -11.494 -13.789 -17.673  1.00  0.00    -0.545 OA
ENDBRANCH   1   7
TORSDOF 1
ENDMDL
MODEL 5
REMARK VINA RESULT:    -4.354      1.558      2.092
REMARK INTER + INTRA:          -4.631
REMARK INTER:                  -4.611
REMARK INTRA:                  -0.019
REMARK UNBOUND:                -0.022
REMARK SMILES O=C([O-])c1cccnc1
REMARK SMILES IDX 4 1 5 2 9 3 6 4 8 5 7 6 2 7 1 8 3 9
REMARK H PARENT
REMARK Flexibility Score: inf
ROOT
ATOM      1  C   UNL     1     -11.421 -12.794 -15.730  1.00  0.00     0.016 A 
ATOM      2  C   UNL     1     -11.050 -11.872 -14.737  1.00  0.00     0.013 A 
ATOM      3  C   UNL     1     -12.649 -13.464 -15.595  1.00  0.00     0.120 A 
ATOM      4  C   UNL     1     -11.892 -11.637 -13.649  1.00  0.00     0.021 A 
ATOM      5  N   UNL     1     -13.451 -13.216 -14.525  1.00  0.00    -0.264 NA
ATOM      6  C   UNL     1     -13.102 -12.327 -13.560  1.00  0.00     0.111 A 
ENDROOT
BRANCH   1   7
ATOM      7  C   UNL     1     -10.543 -13.058 -16.891  1.00  0.00     0.073 C 
ATOM      8  O   UNL     1     -10.065 -12.103 -17.562  1.00  0.00    -0.545 OA
ATOM      9  O   UNL     1     -10.233 -14.362 -17.258  1.00  0.00    -0.545 OA
ENDBRANCH   1   7
TORSDOF 1
ENDMDL
MODEL 6
REMARK VINA RESULT:    -4.299      3.188      3.529
REMARK INTER + INTRA:          -4.573
REMARK INTER:                  -4.550
REMARK INTRA:                  -0.024
REMARK UNBOUND:                -0.022
REMARK SMILES O=C([O-])c1cccnc1
REMARK SMILES IDX 4 1 5 2 9 3 6 4 8 5 7 6 2 7 1 8 3 9
REMARK H PARENT
REMARK Flexibility Score: inf
ROOT
ATOM      1  C   UNL     1     -11.678 -14.854 -13.435  1.00  0.00     0.016 A 
ATOM      2  C   UNL     1     -12.893 -14.540 -12.804  1.00  0.00     0.013 A 
ATOM      3  C   UNL     1     -11.317 -14.133 -14.586  1.00  0.00     0.120 A 
ATOM      4  C   UNL     1     -13.711 -13.534 -13.320  1.00  0.00     0.021 A 
ATOM      5  N   UNL     1     -12.132 -13.157 -15.067  1.00  0.00    -0.264 NA
ATOM      6  C   UNL     1     -13.309 -12.846 -14.465  1.00  0.00     0.111 A 
ENDROOT
BRANCH   1   7
ATOM      7  C   UNL     1     -10.797 -15.917 -12.905  1.00  0.00     0.073 C 
ATOM      8  O   UNL     1     -11.229 -16.743 -12.057  1.00  0.00    -0.545 OA
ATOM      9  O   UNL     1      -9.479 -16.019 -13.335  1.00  0.00    -0.545 OA
ENDBRANCH   1   7
TORSDOF 1
ENDMDL
MODEL 7
REMARK VINA RESULT:    -4.289      4.098      4.389
REMARK INTER + INTRA:          -4.562
REMARK INTER:                  -4.546
REMARK INTRA:                  -0.016
REMARK UNBOUND:                -0.022
REMARK SMILES O=C([O-])c1cccnc1
REMARK SMILES IDX 4 1 5 2 9 3 6 4 8 5 7 6 2 7 1 8 3 9
REMARK H PARENT
REMARK Flexibility Score: inf
ROOT
ATOM      1  C   UNL     1     -11.473 -15.450 -12.643  1.00  0.00     0.016 A 
ATOM      2  C   UNL     1     -12.785 -15.042 -12.351  1.00  0.00     0.013 A 
ATOM      3  C   UNL     1     -10.911 -15.065 -13.872  1.00  0.00     0.120 A 
ATOM      4  C   UNL     1     -13.500 -14.273 -13.270  1.00  0.00     0.021 A 
ATOM      5  N   UNL     1     -11.630 -14.315 -14.750  1.00  0.00    -0.264 NA
ATOM      6  C   UNL     1     -12.900 -13.916 -14.477  1.00  0.00     0.111 A 
ENDROOT
BRANCH   1   7
ATOM      7  C   UNL     1     -10.697 -16.265 -11.683  1.00  0.00     0.073 C 
ATOM      8  O   UNL     1      -9.848 -15.725 -10.924  1.00  0.00    -0.545 OA
ATOM      9  O   UNL     1     -10.894 -17.639 -11.605  1.00  0.00    -0.545 OA
ENDBRANCH   1   7
TORSDOF 1
ENDMDL
MODEL 8
REMARK VINA RESULT:    -4.273      2.755      3.909
REMARK INTER + INTRA:          -4.546
REMARK INTER:                  -4.528
REMARK INTRA:                  -0.018
REMARK UNBOUND:                -0.022
REMARK SMILES O=C([O-])c1cccnc1
REMARK SMILES IDX 4 1 5 2 9 3 6 4 8 5 7 6 2 7 1 8 3 9
REMARK H PARENT
REMARK Flexibility Score: inf
ROOT
ATOM      1  C   UNL     1     -12.428 -13.813 -15.741  1.00  0.00     0.016 A 
ATOM      2  C   UNL     1     -11.351 -12.954 -16.014  1.00  0.00     0.013 A 
ATOM      3  C   UNL     1     -12.777 -14.775 -16.704  1.00  0.00     0.120 A 
ATOM      4  C   UNL     1     -10.654 -13.066 -17.218  1.00  0.00     0.021 A 
ATOM      5  N   UNL     1     -12.081 -14.863 -17.869  1.00  0.00    -0.264 NA
ATOM      6  C   UNL     1     -11.038 -14.037 -18.143  1.00  0.00     0.111 A 
ENDROOT
BRANCH   1   7
ATOM      7  C   UNL     1     -13.181 -13.712 -14.472  1.00  0.00     0.073 C 
ATOM      8  O   UNL     1     -13.241 -14.694 -13.683  1.00  0.00    -0.545 OA
ATOM      9  O   UNL     1     -13.831 -12.532 -14.131  1.00  0.00    -0.545 OA
ENDBRANCH   1   7
TORSDOF 1
ENDMDL
MODEL 9
REMARK VINA RESULT:    -4.204      3.166      3.629
REMARK INTER + INTRA:          -4.473
REMARK INTER:                  -4.451
REMARK INTRA:                  -0.022
REMARK UNBOUND:                -0.022
REMARK SMILES O=C([O-])c1cccnc1
REMARK SMILES IDX 4 1 5 2 9 3 6 4 8 5 7 6 2 7 1 8 3 9
REMARK H PARENT
REMARK Flexibility Score: inf
ROOT
ATOM      1  C   UNL     1     -12.228 -14.232 -13.541  1.00  0.00     0.016 A 
ATOM      2  C   UNL     1     -11.014 -14.808 -13.952  1.00  0.00     0.013 A 
ATOM      3  C   UNL     1     -12.605 -14.358 -12.193  1.00  0.00     0.120 A 
ATOM      4  C   UNL     1     -10.213 -15.486 -13.032  1.00  0.00     0.021 A 
ATOM      5  N   UNL     1     -11.805 -15.025 -11.318  1.00  0.00    -0.264 NA
ATOM      6  C   UNL     1     -10.630 -15.585 -11.705  1.00  0.00     0.111 A 
ENDROOT
BRANCH   1   7
ATOM      7  C   UNL     1     -13.091 -13.509 -14.500  1.00  0.00     0.073 C 
ATOM      8  O   UNL     1     -13.868 -12.600 -14.102  1.00  0.00    -0.545 OA
ATOM      9  O   UNL     1     -13.057 -13.824 -15.854  1.00  0.00    -0.545 OA
ENDBRANCH   1   7
TORSDOF 1
ENDMDL
