MODEL 1
REMARK VINA RESULT:    -6.561      0.000      0.000
REMARK INTER + INTRA:         -11.011
REMARK INTER:                  -9.630
REMARK INTRA:                  -1.381
REMARK UNBOUND:                -1.381
REMARK SMILES Cc1cc2c(C(C)C)c(O)c(O)c(C=O)c2c(O)c1-c1c(C)cc2c(C(C)C)c(O)c(O)c(C=O)c2c1O
REMARK SMILES IDX 1 1 2 2 3 3 4 4 16 5 13 6 11 7 9 8 5 9 17 10 19 11 20 12
REMARK SMILES IDX 37 13 21 14 36 15 23 16 22 17 24 18 33 19 25 20 31 21 29 22
REMARK SMILES IDX 38 23 34 25 35 26 26 27 27 28 28 29 32 30 30 32 18 34 6 36
REMARK SMILES IDX 7 37 8 38 14 39 15 40 10 41 12 43
REMARK H PARENT 38 24 32 31 30 33 18 35 10 42 12 44
REMARK Flexibility Score: inf
ROOT
ATOM      1  C   UNL     1      59.772  22.934  19.843  1.00  0.00     0.045 C 
ATOM      2  C   UNL     1      59.122  21.951  20.787  1.00  0.00    -0.039 A 
ATOM      3  C   UNL     1      59.648  20.665  20.909  1.00  0.00     0.013 A 
ATOM      4  C   UNL     1      59.093  19.705  21.779  1.00  0.00    -0.006 A 
ATOM      5  C   UNL     1      58.025  20.105  22.642  1.00  0.00     0.039 A 
ATOM      6  C   UNL     1      57.566  19.196  23.642  1.00  0.00     0.072 A 
ATOM      7  C   UNL     1      58.152  17.918  23.751  1.00  0.00     0.169 A 
ATOM      8  C   UNL     1      59.131  17.504  22.844  1.00  0.00     0.162 A 
ATOM      9  C   UNL     1      59.586  18.362  21.818  1.00  0.00     0.008 A 
ATOM     10  C   UNL     1      57.444  21.399  22.466  1.00  0.00     0.132 A 
ATOM     11  C   UNL     1      58.001  22.314  21.547  1.00  0.00     0.031 A 
ENDROOT
BRANCH  11  12
ATOM     12  C   UNL     1      57.411  23.670  21.388  1.00  0.00     0.031 A 
ATOM     13  C   UNL     1      57.744  24.699  22.295  1.00  0.00     0.132 A 
ATOM     14  C   UNL     1      56.493  23.912  20.354  1.00  0.00    -0.039 A 
ATOM     15  C   UNL     1      57.194  26.010  22.139  1.00  0.00     0.039 A 
ATOM     16  C   UNL     1      55.924  25.178  20.221  1.00  0.00     0.013 A 
ATOM     17  C   UNL     1      56.064  22.807  19.419  1.00  0.00     0.045 C 
ATOM     18  C   UNL     1      56.294  26.256  21.055  1.00  0.00    -0.006 A 
ATOM     19  C   UNL     1      57.480  27.071  23.052  1.00  0.00     0.072 A 
ATOM     20  C   UNL     1      55.750  27.562  20.854  1.00  0.00     0.008 A 
ATOM     21  C   UNL     1      56.816  28.308  22.922  1.00  0.00     0.169 A 
ATOM     22  C   UNL     1      55.930  28.531  21.863  1.00  0.00     0.162 A 
BRANCH  13  23
ATOM     23  O   UNL     1      58.601  24.410  23.363  1.00  0.00    -0.507 OA
ATOM     24  H   UNL     1      58.392  24.619  24.330  1.00  0.00     0.293 HD
ENDBRANCH  13  23
BRANCH  19  25
ATOM     25  C   UNL     1      58.460  26.918  24.146  1.00  0.00     0.264 C 
ATOM     26  O   UNL     1      59.686  27.128  23.946  1.00  0.00    -0.298 OA
ENDBRANCH  19  25
BRANCH  20  27
ATOM     27  C   UNL     1      54.960  27.926  19.582  1.00  0.00     0.017 C 
ATOM     28  C   UNL     1      53.460  28.014  19.879  1.00  0.00     0.012 C 
ATOM     29  C   UNL     1      55.466  29.198  18.876  1.00  0.00     0.012 C 
ENDBRANCH  20  27
BRANCH  21  30
ATOM     30  O   UNL     1      57.041  29.360  23.817  1.00  0.00    -0.504 OA
ATOM     31  H   UNL     1      56.314  29.828  24.343  1.00  0.00     0.293 HD
ENDBRANCH  21  30
BRANCH  22  32
ATOM     32  O   UNL     1      55.222  29.734  21.809  1.00  0.00    -0.504 OA
ATOM     33  H   UNL     1      54.322  29.826  21.353  1.00  0.00     0.293 HD
ENDBRANCH  22  32
ENDBRANCH  11  12
BRANCH  10  34
ATOM     34  O   UNL     1      56.300  21.768  23.185  1.00  0.00    -0.507 OA
ATOM     35  H   UNL     1      55.446  22.101  22.759  1.00  0.00     0.293 HD
ENDBRANCH  10  34
BRANCH   9  36
ATOM     36  C   UNL     1      60.587  17.779  20.799  1.00  0.00     0.017 C 
ATOM     37  C   UNL     1      61.994  18.373  20.961  1.00  0.00     0.012 C 
ATOM     38  C   UNL     1      60.089  17.788  19.340  1.00  0.00     0.012 C 
ENDBRANCH   9  36
BRANCH   6  39
ATOM     39  C   UNL     1      56.535  19.574  24.630  1.00  0.00     0.264 C 
ATOM     40  O   UNL     1      55.347  19.177  24.500  1.00  0.00    -0.298 OA
ENDBRANCH   6  39
BRANCH   8  41
ATOM     41  O   UNL     1      59.677  16.221  22.970  1.00  0.00    -0.504 OA
ATOM     42  H   UNL     1      60.068  15.708  22.189  1.00  0.00     0.293 HD
ENDBRANCH   8  41
BRANCH   7  43
ATOM     43  O   UNL     1      57.795  17.035  24.777  1.00  0.00    -0.504 OA
ATOM     44  H   UNL     1      57.890  16.029  24.720  1.00  0.00     0.293 HD
ENDBRANCH   7  43
TORSDOF 11
ENDMDL
MODEL 2
REMARK VINA RESULT:    -6.523      0.400      9.040
REMARK INTER + INTRA:         -10.955
REMARK INTER:                 -10.075
REMARK INTRA:                  -0.880
REMARK UNBOUND:                -1.381
REMARK SMILES Cc1cc2c(C(C)C)c(O)c(O)c(C=O)c2c(O)c1-c1c(C)cc2c(C(C)C)c(O)c(O)c(C=O)c2c1O
REMARK SMILES IDX 1 1 2 2 3 3 4 4 16 5 13 6 11 7 9 8 5 9 17 10 19 11 20 12
REMARK SMILES IDX 37 13 21 14 36 15 23 16 22 17 24 18 33 19 25 20 31 21 29 22
REMARK SMILES IDX 38 23 34 25 35 26 26 27 27 28 28 29 32 30 30 32 18 34 6 36
REMARK SMILES IDX 7 37 8 38 14 39 15 40 10 41 12 43
REMARK H PARENT 38 24 32 31 30 33 18 35 10 42 12 44
REMARK Flexibility Score: inf
ROOT
ATOM      1  C   UNL     1      55.948  22.834  19.462  1.00  0.00     0.045 C 
ATOM      2  C   UNL     1      56.505  23.929  20.340  1.00  0.00    -0.039 A 
ATOM      3  C   UNL     1      56.024  25.231  20.202  1.00  0.00     0.013 A 
ATOM      4  C   UNL     1      56.496  26.295  20.997  1.00  0.00    -0.006 A 
ATOM      5  C   UNL     1      57.416  26.001  22.051  1.00  0.00     0.039 A 
ATOM      6  C   UNL     1      57.773  27.036  22.967  1.00  0.00     0.072 A 
ATOM      7  C   UNL     1      57.234  28.329  22.809  1.00  0.00     0.169 A 
ATOM      8  C   UNL     1      56.408  28.629  21.722  1.00  0.00     0.162 A 
ATOM      9  C   UNL     1      56.062  27.641  20.774  1.00  0.00     0.008 A 
ATOM     10  C   UNL     1      57.959  24.682  22.145  1.00  0.00     0.132 A 
ATOM     11  C   UNL     1      57.494  23.655  21.296  1.00  0.00     0.031 A 
ENDROOT
BRANCH  11  12
ATOM     12  C   UNL     1      58.040  22.277  21.416  1.00  0.00     0.031 A 
ATOM     13  C   UNL     1      57.561  21.411  22.421  1.00  0.00     0.132 A 
ATOM     14  C   UNL     1      59.060  21.856  20.550  1.00  0.00    -0.039 A 
ATOM     15  C   UNL     1      58.068  20.078  22.533  1.00  0.00     0.039 A 
ATOM     16  C   UNL     1      59.586  20.571  20.680  1.00  0.00     0.013 A 
ATOM     17  C   UNL     1      59.641  22.791  19.517  1.00  0.00     0.045 C 
ATOM     18  C   UNL     1      59.076  19.645  21.617  1.00  0.00    -0.006 A 
ATOM     19  C   UNL     1      57.633  19.179  23.555  1.00  0.00     0.072 A 
ATOM     20  C   UNL     1      59.584  18.311  21.683  1.00  0.00     0.008 A 
ATOM     21  C   UNL     1      58.255  17.921  23.695  1.00  0.00     0.169 A 
ATOM     22  C   UNL     1      59.247  17.515  22.798  1.00  0.00     0.162 A 
BRANCH  13  23
ATOM     23  O   UNL     1      56.599  21.882  23.322  1.00  0.00    -0.507 OA
ATOM     24  H   UNL     1      55.857  21.313  23.708  1.00  0.00     0.293 HD
ENDBRANCH  13  23
BRANCH  19  25
ATOM     25  C   UNL     1      56.541  19.524  24.487  1.00  0.00     0.264 C 
ATOM     26  O   UNL     1      55.464  18.871  24.485  1.00  0.00    -0.298 OA
ENDBRANCH  19  25
BRANCH  20  27
ATOM     27  C   UNL     1      60.500  17.735  20.586  1.00  0.00     0.017 C 
ATOM     28  C   UNL     1      61.975  17.937  20.946  1.00  0.00     0.012 C 
ATOM     29  C   UNL     1      60.207  16.263  20.237  1.00  0.00     0.012 C 
ENDBRANCH  20  27
BRANCH  21  30
ATOM     30  O   UNL     1      57.883  17.026  24.705  1.00  0.00    -0.504 OA
ATOM     31  H   UNL     1      57.004  16.525  24.728  1.00  0.00     0.293 HD
ENDBRANCH  21  30
BRANCH  22  32
ATOM     32  O   UNL     1      59.905  16.301  23.013  1.00  0.00    -0.504 OA
ATOM     33  H   UNL     1      60.259  16.017  23.918  1.00  0.00     0.293 HD
ENDBRANCH  22  32
ENDBRANCH  11  12
BRANCH  10  34
ATOM     34  O   UNL     1      58.975  24.396  23.065  1.00  0.00    -0.507 OA
ATOM     35  H   UNL     1      59.231  25.002  23.833  1.00  0.00     0.293 HD
ENDBRANCH  10  34
BRANCH   9  36
ATOM     36  C   UNL     1      55.237  28.091  19.551  1.00  0.00     0.017 C 
ATOM     37  C   UNL     1      55.829  29.336  18.875  1.00  0.00     0.012 C 
ATOM     38  C   UNL     1      53.721  28.206  19.813  1.00  0.00     0.012 C 
ENDBRANCH   9  36
BRANCH   6  39
ATOM     39  C   UNL     1      58.641  26.783  24.136  1.00  0.00     0.264 C 
ATOM     40  O   UNL     1      59.849  27.135  24.125  1.00  0.00    -0.298 OA
ENDBRANCH   6  39
BRANCH   8  41
ATOM     41  O   UNL     1      55.907  29.928  21.586  1.00  0.00    -0.504 OA
ATOM     42  H   UNL     1      56.092  30.511  20.778  1.00  0.00     0.293 HD
ENDBRANCH   8  41
BRANCH   7  43
ATOM     43  O   UNL     1      57.484  29.345  23.739  1.00  0.00    -0.504 OA
ATOM     44  H   UNL     1      58.244  30.010  23.666  1.00  0.00     0.293 HD
ENDBRANCH   7  43
TORSDOF 11
ENDMDL
MODEL 3
REMARK VINA RESULT:    -6.222      4.841      7.116
REMARK INTER + INTRA:         -10.512
REMARK INTER:                  -9.464
REMARK INTRA:                  -1.048
REMARK UNBOUND:                -1.381
REMARK SMILES Cc1cc2c(C(C)C)c(O)c(O)c(C=O)c2c(O)c1-c1c(C)cc2c(C(C)C)c(O)c(O)c(C=O)c2c1O
REMARK SMILES IDX 1 1 2 2 3 3 4 4 16 5 13 6 11 7 9 8 5 9 17 10 19 11 20 12
REMARK SMILES IDX 37 13 21 14 36 15 23 16 22 17 24 18 33 19 25 20 31 21 29 22
REMARK SMILES IDX 38 23 34 25 35 26 26 27 27 28 28 29 32 30 30 32 18 34 6 36
REMARK SMILES IDX 7 37 8 38 14 39 15 40 10 41 12 43
REMARK H PARENT 38 24 32 31 30 33 18 35 10 42 12 44
REMARK Flexibility Score: inf
ROOT
ATOM      1  C   UNL     1      53.020  19.614  25.938  1.00  0.00     0.045 C 
ATOM      2  C   UNL     1      52.905  18.930  24.596  1.00  0.00    -0.039 A 
ATOM      3  C   UNL     1      52.105  17.794  24.471  1.00  0.00     0.013 A 
ATOM      4  C   UNL     1      51.949  17.117  23.245  1.00  0.00    -0.006 A 
ATOM      5  C   UNL     1      52.546  17.681  22.074  1.00  0.00     0.039 A 
ATOM      6  C   UNL     1      52.259  17.099  20.803  1.00  0.00     0.072 A 
ATOM      7  C   UNL     1      51.414  15.973  20.720  1.00  0.00     0.169 A 
ATOM      8  C   UNL     1      50.911  15.374  21.879  1.00  0.00     0.162 A 
ATOM      9  C   UNL     1      51.202  15.898  23.157  1.00  0.00     0.008 A 
ATOM     10  C   UNL     1      53.421  18.801  22.218  1.00  0.00     0.132 A 
ATOM     11  C   UNL     1      53.588  19.422  23.474  1.00  0.00     0.031 A 
ENDROOT
BRANCH  11  12
ATOM     12  C   UNL     1      54.476  20.606  23.614  1.00  0.00     0.031 A 
ATOM     13  C   UNL     1      53.935  21.908  23.567  1.00  0.00     0.132 A 
ATOM     14  C   UNL     1      55.861  20.423  23.755  1.00  0.00    -0.039 A 
ATOM     15  C   UNL     1      54.781  23.052  23.717  1.00  0.00     0.039 A 
ATOM     16  C   UNL     1      56.694  21.536  23.863  1.00  0.00     0.013 A 
ATOM     17  C   UNL     1      56.471  19.043  23.731  1.00  0.00     0.045 C 
ATOM     18  C   UNL     1      56.184  22.853  23.905  1.00  0.00    -0.006 A 
ATOM     19  C   UNL     1      54.278  24.387  23.645  1.00  0.00     0.072 A 
ATOM     20  C   UNL     1      57.052  23.973  24.087  1.00  0.00     0.008 A 
ATOM     21  C   UNL     1      55.172  25.478  23.676  1.00  0.00     0.169 A 
ATOM     22  C   UNL     1      56.543  25.266  23.850  1.00  0.00     0.162 A 
BRANCH  13  23
ATOM     23  O   UNL     1      52.562  22.064  23.347  1.00  0.00    -0.507 OA
ATOM     24  H   UNL     1      52.166  22.676  22.645  1.00  0.00     0.293 HD
ENDBRANCH  13  23
BRANCH  19  25
ATOM     25  C   UNL     1      52.834  24.674  23.534  1.00  0.00     0.264 C 
ATOM     26  O   UNL     1      52.171  25.038  24.541  1.00  0.00    -0.298 OA
ENDBRANCH  19  25
BRANCH  20  27
ATOM     27  C   UNL     1      58.523  23.800  24.512  1.00  0.00     0.017 C 
ATOM     28  C   UNL     1      59.467  24.124  23.350  1.00  0.00     0.012 C 
ATOM     29  C   UNL     1      58.904  24.589  25.779  1.00  0.00     0.012 C 
ENDBRANCH  20  27
BRANCH  21  30
ATOM     30  O   UNL     1      54.723  26.799  23.572  1.00  0.00    -0.504 OA
ATOM     31  H   UNL     1      55.183  27.516  23.026  1.00  0.00     0.293 HD
ENDBRANCH  21  30
BRANCH  22  32
ATOM     32  O   UNL     1      57.414  26.358  23.790  1.00  0.00    -0.504 OA
ATOM     33  H   UNL     1      58.276  26.406  24.319  1.00  0.00     0.293 HD
ENDBRANCH  22  32
ENDBRANCH  11  12
BRANCH  10  34
ATOM     34  O   UNL     1      54.142  19.285  21.119  1.00  0.00    -0.507 OA
ATOM     35  H   UNL     1      55.103  19.040  20.921  1.00  0.00     0.293 HD
ENDBRANCH  10  34
BRANCH   9  36
ATOM     36  C   UNL     1      50.693  15.107  24.380  1.00  0.00     0.017 C 
ATOM     37  C   UNL     1      51.620  13.939  24.745  1.00  0.00     0.012 C 
ATOM     38  C   UNL     1      49.207  14.701  24.302  1.00  0.00     0.012 C 
ENDBRANCH   9  36
BRANCH   6  39
ATOM     39  C   UNL     1      52.761  17.685  19.543  1.00  0.00     0.264 C 
ATOM     40  O   UNL     1      53.704  17.139  18.913  1.00  0.00    -0.298 OA
ENDBRANCH   6  39
BRANCH   8  41
ATOM     41  O   UNL     1      50.092  14.245  21.761  1.00  0.00    -0.504 OA
ATOM     42  H   UNL     1      50.259  13.385  22.269  1.00  0.00     0.293 HD
ENDBRANCH   8  41
BRANCH   7  43
ATOM     43  O   UNL     1      51.034  15.432  19.487  1.00  0.00    -0.504 OA
ATOM     44  H   UNL     1      50.929  15.970  18.636  1.00  0.00     0.293 HD
ENDBRANCH   7  43
TORSDOF 11
ENDMDL
MODEL 4
REMARK VINA RESULT:    -6.107      4.885      9.760
REMARK INTER + INTRA:         -10.344
REMARK INTER:                  -9.222
REMARK INTRA:                  -1.122
REMARK UNBOUND:                -1.381
REMARK SMILES Cc1cc2c(C(C)C)c(O)c(O)c(C=O)c2c(O)c1-c1c(C)cc2c(C(C)C)c(O)c(O)c(C=O)c2c1O
REMARK SMILES IDX 1 1 2 2 3 3 4 4 16 5 13 6 11 7 9 8 5 9 17 10 19 11 20 12
REMARK SMILES IDX 37 13 21 14 36 15 23 16 22 17 24 18 33 19 25 20 31 21 29 22
REMARK SMILES IDX 38 23 34 25 35 26 26 27 27 28 28 29 32 30 30 32 18 34 6 36
REMARK SMILES IDX 7 37 8 38 14 39 15 40 10 41 12 43
REMARK H PARENT 38 24 32 31 30 33 18 35 10 42 12 44
REMARK Flexibility Score: inf
ROOT
ATOM      1  C   UNL     1      56.403  19.141  23.623  1.00  0.00     0.045 C 
ATOM      2  C   UNL     1      55.782  20.516  23.566  1.00  0.00    -0.039 A 
ATOM      3  C   UNL     1      56.592  21.642  23.720  1.00  0.00     0.013 A 
ATOM      4  C   UNL     1      56.075  22.952  23.668  1.00  0.00    -0.006 A 
ATOM      5  C   UNL     1      54.695  23.127  23.336  1.00  0.00     0.039 A 
ATOM      6  C   UNL     1      54.199  24.447  23.117  1.00  0.00     0.072 A 
ATOM      7  C   UNL     1      55.063  25.553  23.248  1.00  0.00     0.169 A 
ATOM      8  C   UNL     1      56.386  25.377  23.663  1.00  0.00     0.162 A 
ATOM      9  C   UNL     1      56.905  24.090  23.925  1.00  0.00     0.008 A 
ATOM     10  C   UNL     1      53.855  21.974  23.249  1.00  0.00     0.132 A 
ATOM     11  C   UNL     1      54.405  20.679  23.355  1.00  0.00     0.031 A 
ENDROOT
BRANCH  11  12
ATOM     12  C   UNL     1      53.532  19.481  23.234  1.00  0.00     0.031 A 
ATOM     13  C   UNL     1      53.323  18.881  21.974  1.00  0.00     0.132 A 
ATOM     14  C   UNL     1      52.888  18.972  24.372  1.00  0.00    -0.039 A 
ATOM     15  C   UNL     1      52.499  17.718  21.851  1.00  0.00     0.039 A 
ATOM     16  C   UNL     1      52.052  17.863  24.252  1.00  0.00     0.013 A 
ATOM     17  C   UNL     1      53.036  19.644  25.716  1.00  0.00     0.045 C 
ATOM     18  C   UNL     1      51.883  17.183  23.025  1.00  0.00    -0.006 A 
ATOM     19  C   UNL     1      52.236  17.099  20.591  1.00  0.00     0.072 A 
ATOM     20  C   UNL     1      51.076  16.006  22.942  1.00  0.00     0.008 A 
ATOM     21  C   UNL     1      51.319  16.031  20.511  1.00  0.00     0.169 A 
ATOM     22  C   UNL     1      50.716  15.525  21.666  1.00  0.00     0.162 A 
BRANCH  13  23
ATOM     23  O   UNL     1      53.916  19.454  20.843  1.00  0.00    -0.507 OA
ATOM     24  H   UNL     1      54.661  20.138  20.878  1.00  0.00     0.293 HD
ENDBRANCH  13  23
BRANCH  19  25
ATOM     25  C   UNL     1      52.898  17.543  19.348  1.00  0.00     0.264 C 
ATOM     26  O   UNL     1      53.874  16.903  18.875  1.00  0.00    -0.298 OA
ENDBRANCH  19  25
BRANCH  20  27
ATOM     27  C   UNL     1      50.580  15.271  24.201  1.00  0.00     0.017 C 
ATOM     28  C   UNL     1      49.069  15.028  24.129  1.00  0.00     0.012 C 
ATOM     29  C   UNL     1      51.342  13.967  24.505  1.00  0.00     0.012 C 
ENDBRANCH  20  27
BRANCH  21  30
ATOM     30  O   UNL     1      51.007  15.421  19.291  1.00  0.00    -0.504 OA
ATOM     31  H   UNL     1      50.122  14.975  19.085  1.00  0.00     0.293 HD
ENDBRANCH  21  30
BRANCH  22  32
ATOM     32  O   UNL     1      49.747  14.525  21.547  1.00  0.00    -0.504 OA
ATOM     33  H   UNL     1      49.510  14.087  20.665  1.00  0.00     0.293 HD
ENDBRANCH  22  32
ENDBRANCH  11  12
BRANCH  10  34
ATOM     34  O   UNL     1      52.472  22.114  23.078  1.00  0.00    -0.507 OA
ATOM     35  H   UNL     1      52.039  22.479  22.240  1.00  0.00     0.293 HD
ENDBRANCH  10  34
BRANCH   9  36
ATOM     36  C   UNL     1      58.341  24.004  24.482  1.00  0.00     0.017 C 
ATOM     37  C   UNL     1      58.485  24.719  25.833  1.00  0.00     0.012 C 
ATOM     38  C   UNL     1      59.440  24.390  23.471  1.00  0.00     0.012 C 
ENDBRANCH   9  36
BRANCH   6  39
ATOM     39  C   UNL     1      52.811  24.699  22.677  1.00  0.00     0.264 C 
ATOM     40  O   UNL     1      51.969  25.199  23.468  1.00  0.00    -0.298 OA
ENDBRANCH   6  39
BRANCH   8  41
ATOM     41  O   UNL     1      57.211  26.500  23.803  1.00  0.00    -0.504 OA
ATOM     42  H   UNL     1      57.738  26.698  24.645  1.00  0.00     0.293 HD
ENDBRANCH   8  41
BRANCH   7  43
ATOM     43  O   UNL     1      54.639  26.854  22.950  1.00  0.00    -0.504 OA
ATOM     44  H   UNL     1      53.868  27.321  23.409  1.00  0.00     0.293 HD
ENDBRANCH   7  43
TORSDOF 11
ENDMDL
MODEL 5
REMARK VINA RESULT:    -6.077      3.776      8.985
REMARK INTER + INTRA:         -10.300
REMARK INTER:                  -8.798
REMARK INTRA:                  -1.502
REMARK UNBOUND:                -1.381
REMARK SMILES Cc1cc2c(C(C)C)c(O)c(O)c(C=O)c2c(O)c1-c1c(C)cc2c(C(C)C)c(O)c(O)c(C=O)c2c1O
REMARK SMILES IDX 1 1 2 2 3 3 4 4 16 5 13 6 11 7 9 8 5 9 17 10 19 11 20 12
REMARK SMILES IDX 37 13 21 14 36 15 23 16 22 17 24 18 33 19 25 20 31 21 29 22
REMARK SMILES IDX 38 23 34 25 35 26 26 27 27 28 28 29 32 30 30 32 18 34 6 36
REMARK SMILES IDX 7 37 8 38 14 39 15 40 10 41 12 43
REMARK H PARENT 38 24 32 31 30 33 18 35 10 42 12 44
REMARK Flexibility Score: inf
ROOT
ATOM      1  C   UNL     1      52.287  24.554  22.615  1.00  0.00     0.045 C 
ATOM      2  C   UNL     1      53.779  24.787  22.617  1.00  0.00    -0.039 A 
ATOM      3  C   UNL     1      54.273  26.079  22.796  1.00  0.00     0.013 A 
ATOM      4  C   UNL     1      55.654  26.360  22.817  1.00  0.00    -0.006 A 
ATOM      5  C   UNL     1      56.572  25.265  22.764  1.00  0.00     0.039 A 
ATOM      6  C   UNL     1      57.964  25.520  22.952  1.00  0.00     0.072 A 
ATOM      7  C   UNL     1      58.413  26.839  23.166  1.00  0.00     0.169 A 
ATOM      8  C   UNL     1      57.519  27.912  23.123  1.00  0.00     0.162 A 
ATOM      9  C   UNL     1      56.139  27.704  22.903  1.00  0.00     0.008 A 
ATOM     10  C   UNL     1      56.067  23.952  22.511  1.00  0.00     0.132 A 
ATOM     11  C   UNL     1      54.676  23.722  22.448  1.00  0.00     0.031 A 
ENDROOT
BRANCH  11  12
ATOM     12  C   UNL     1      54.153  22.349  22.215  1.00  0.00     0.031 A 
ATOM     13  C   UNL     1      53.931  21.480  23.304  1.00  0.00     0.132 A 
ATOM     14  C   UNL     1      53.917  21.910  20.903  1.00  0.00    -0.039 A 
ATOM     15  C   UNL     1      53.412  20.165  23.089  1.00  0.00     0.039 A 
ATOM     16  C   UNL     1      53.449  20.614  20.685  1.00  0.00     0.013 A 
ATOM     17  C   UNL     1      54.220  22.795  19.718  1.00  0.00     0.045 C 
ATOM     18  C   UNL     1      53.134  19.743  21.751  1.00  0.00    -0.006 A 
ATOM     19  C   UNL     1      53.202  19.243  24.160  1.00  0.00     0.072 A 
ATOM     20  C   UNL     1      52.588  18.446  21.505  1.00  0.00     0.008 A 
ATOM     21  C   UNL     1      52.806  17.918  23.880  1.00  0.00     0.169 A 
ATOM     22  C   UNL     1      52.548  17.518  22.566  1.00  0.00     0.162 A 
BRANCH  13  23
ATOM     23  O   UNL     1      54.248  21.917  24.595  1.00  0.00    -0.507 OA
ATOM     24  H   UNL     1      54.218  22.884  24.890  1.00  0.00     0.293 HD
ENDBRANCH  13  23
BRANCH  19  25
ATOM     25  C   UNL     1      53.389  19.630  25.573  1.00  0.00     0.264 C 
ATOM     26  O   UNL     1      52.397  19.803  26.329  1.00  0.00    -0.298 OA
ENDBRANCH  19  25
BRANCH  20  27
ATOM     27  C   UNL     1      52.068  18.034  20.114  1.00  0.00     0.017 C 
ATOM     28  C   UNL     1      53.014  17.026  19.455  1.00  0.00     0.012 C 
ATOM     29  C   UNL     1      50.616  17.519  20.117  1.00  0.00     0.012 C 
ENDBRANCH  20  27
BRANCH  21  30
ATOM     30  O   UNL     1      52.624  16.976  24.898  1.00  0.00    -0.504 OA
ATOM     31  H   UNL     1      51.923  17.048  25.624  1.00  0.00     0.293 HD
ENDBRANCH  21  30
BRANCH  22  32
ATOM     32  O   UNL     1      52.241  16.179  22.310  1.00  0.00    -0.504 OA
ATOM     33  H   UNL     1      52.493  15.424  22.937  1.00  0.00     0.293 HD
ENDBRANCH  22  32
ENDBRANCH  11  12
BRANCH  10  34
ATOM     34  O   UNL     1      56.944  22.882  22.300  1.00  0.00    -0.507 OA
ATOM     35  H   UNL     1      56.862  21.984  22.759  1.00  0.00     0.293 HD
ENDBRANCH  10  34
BRANCH   9  36
ATOM     36  C   UNL     1      55.247  28.955  22.765  1.00  0.00     0.017 C 
ATOM     37  C   UNL     1      54.249  29.090  23.923  1.00  0.00     0.012 C 
ATOM     38  C   UNL     1      54.593  29.120  21.378  1.00  0.00     0.012 C 
ENDBRANCH   9  36
BRANCH   6  39
ATOM     39  C   UNL     1      58.959  24.430  23.007  1.00  0.00     0.264 C 
ATOM     40  O   UNL     1      59.743  24.228  22.043  1.00  0.00    -0.298 OA
ENDBRANCH   6  39
BRANCH   8  41
ATOM     41  O   UNL     1      58.003  29.211  23.319  1.00  0.00    -0.504 OA
ATOM     42  H   UNL     1      58.952  29.409  23.613  1.00  0.00     0.293 HD
ENDBRANCH   8  41
BRANCH   7  43
ATOM     43  O   UNL     1      59.756  27.119  23.448  1.00  0.00    -0.504 OA
ATOM     44  H   UNL     1      60.280  27.877  23.030  1.00  0.00     0.293 HD
ENDBRANCH   7  43
TORSDOF 11
ENDMDL
MODEL 6
REMARK VINA RESULT:    -6.023      4.337      5.903
REMARK INTER + INTRA:         -10.221
REMARK INTER:                  -8.928
REMARK INTRA:                  -1.293
REMARK UNBOUND:                -1.381
REMARK SMILES Cc1cc2c(C(C)C)c(O)c(O)c(C=O)c2c(O)c1-c1c(C)cc2c(C(C)C)c(O)c(O)c(C=O)c2c1O
REMARK SMILES IDX 1 1 2 2 3 3 4 4 16 5 13 6 11 7 9 8 5 9 17 10 19 11 20 12
REMARK SMILES IDX 37 13 21 14 36 15 23 16 22 17 24 18 33 19 25 20 31 21 29 22
REMARK SMILES IDX 38 23 34 25 35 26 26 27 27 28 28 29 32 30 30 32 18 34 6 36
REMARK SMILES IDX 7 37 8 38 14 39 15 40 10 41 12 43
REMARK H PARENT 38 24 32 31 30 33 18 35 10 42 12 44
REMARK Flexibility Score: inf
ROOT
ATOM      1  C   UNL     1      54.540  22.427  20.822  1.00  0.00     0.045 C 
ATOM      2  C   UNL     1      53.544  22.290  21.948  1.00  0.00    -0.039 A 
ATOM      3  C   UNL     1      52.737  21.154  22.016  1.00  0.00     0.013 A 
ATOM      4  C   UNL     1      51.795  20.963  23.047  1.00  0.00    -0.006 A 
ATOM      5  C   UNL     1      51.749  21.915  24.113  1.00  0.00     0.039 A 
ATOM      6  C   UNL     1      50.920  21.647  25.244  1.00  0.00     0.072 A 
ATOM      7  C   UNL     1      50.148  20.468  25.286  1.00  0.00     0.169 A 
ATOM      8  C   UNL     1      50.130  19.590  24.198  1.00  0.00     0.162 A 
ATOM      9  C   UNL     1      50.908  19.838  23.046  1.00  0.00     0.008 A 
ATOM     10  C   UNL     1      52.525  23.110  24.005  1.00  0.00     0.132 A 
ATOM     11  C   UNL     1      53.422  23.284  22.929  1.00  0.00     0.031 A 
ENDROOT
BRANCH  11  12
ATOM     12  C   UNL     1      54.250  24.516  22.835  1.00  0.00     0.031 A 
ATOM     13  C   UNL     1      55.567  24.525  23.340  1.00  0.00     0.132 A 
ATOM     14  C   UNL     1      53.702  25.681  22.276  1.00  0.00    -0.039 A 
ATOM     15  C   UNL     1      56.376  25.701  23.239  1.00  0.00     0.039 A 
ATOM     16  C   UNL     1      54.473  26.841  22.211  1.00  0.00     0.013 A 
ATOM     17  C   UNL     1      52.270  25.717  21.799  1.00  0.00     0.045 C 
ATOM     18  C   UNL     1      55.822  26.868  22.628  1.00  0.00    -0.006 A 
ATOM     19  C   UNL     1      57.703  25.761  23.765  1.00  0.00     0.072 A 
ATOM     20  C   UNL     1      56.613  28.050  22.485  1.00  0.00     0.008 A 
ATOM     21  C   UNL     1      58.410  26.982  23.748  1.00  0.00     0.169 A 
ATOM     22  C   UNL     1      57.851  28.118  23.156  1.00  0.00     0.162 A 
BRANCH  13  23
ATOM     23  O   UNL     1      56.063  23.374  23.963  1.00  0.00    -0.507 OA
ATOM     24  H   UNL     1      55.504  22.555  24.168  1.00  0.00     0.293 HD
ENDBRANCH  13  23
BRANCH  19  25
ATOM     25  C   UNL     1      58.373  24.576  24.337  1.00  0.00     0.264 C 
ATOM     26  O   UNL     1      58.507  24.453  25.583  1.00  0.00    -0.298 OA
ENDBRANCH  19  25
BRANCH  20  27
ATOM     27  C   UNL     1      56.138  29.248  21.640  1.00  0.00     0.017 C 
ATOM     28  C   UNL     1      56.283  28.951  20.145  1.00  0.00     0.012 C 
ATOM     29  C   UNL     1      54.713  29.725  21.979  1.00  0.00     0.012 C 
ENDBRANCH  20  27
BRANCH  21  30
ATOM     30  O   UNL     1      59.698  27.091  24.285  1.00  0.00    -0.504 OA
ATOM     31  H   UNL     1      60.132  26.393  24.875  1.00  0.00     0.293 HD
ENDBRANCH  21  30
BRANCH  22  32
ATOM     32  O   UNL     1      58.538  29.332  23.230  1.00  0.00    -0.504 OA
ATOM     33  H   UNL     1      59.476  29.415  23.604  1.00  0.00     0.293 HD
ENDBRANCH  22  32
ENDBRANCH  11  12
BRANCH  10  34
ATOM     34  O   UNL     1      52.390  24.133  24.951  1.00  0.00    -0.507 OA
ATOM     35  H   UNL     1      52.347  25.116  24.719  1.00  0.00     0.293 HD
ENDBRANCH  10  34
BRANCH   9  36
ATOM     36  C   UNL     1      50.739  18.872  21.855  1.00  0.00     0.017 C 
ATOM     37  C   UNL     1      51.945  17.937  21.689  1.00  0.00     0.012 C 
ATOM     38  C   UNL     1      50.313  19.553  20.538  1.00  0.00     0.012 C 
ENDBRANCH   9  36
BRANCH   6  39
ATOM     39  C   UNL     1      50.895  22.536  26.424  1.00  0.00     0.264 C 
ATOM     40  O   UNL     1      51.496  22.213  27.482  1.00  0.00    -0.298 OA
ENDBRANCH   6  39
BRANCH   8  41
ATOM     41  O   UNL     1      49.337  18.439  24.266  1.00  0.00    -0.504 OA
ATOM     42  H   UNL     1      49.618  17.602  24.762  1.00  0.00     0.293 HD
ENDBRANCH   8  41
BRANCH   7  43
ATOM     43  O   UNL     1      49.397  20.124  26.416  1.00  0.00    -0.504 OA
ATOM     44  H   UNL     1      49.787  19.726  27.260  1.00  0.00     0.293 HD
ENDBRANCH   7  43
TORSDOF 11
ENDMDL
MODEL 7
REMARK VINA RESULT:    -6.009      4.568      6.461
REMARK INTER + INTRA:         -10.200
REMARK INTER:                  -9.260
REMARK INTRA:                  -0.940
REMARK UNBOUND:                -1.381
REMARK SMILES Cc1cc2c(C(C)C)c(O)c(O)c(C=O)c2c(O)c1-c1c(C)cc2c(C(C)C)c(O)c(O)c(C=O)c2c1O
REMARK SMILES IDX 1 1 2 2 3 3 4 4 16 5 13 6 11 7 9 8 5 9 17 10 19 11 20 12
REMARK SMILES IDX 37 13 21 14 36 15 23 16 22 17 24 18 33 19 25 20 31 21 29 22
REMARK SMILES IDX 38 23 34 25 35 26 26 27 27 28 28 29 32 30 30 32 18 34 6 36
REMARK SMILES IDX 7 37 8 38 14 39 15 40 10 41 12 43
REMARK H PARENT 38 24 32 31 30 33 18 35 10 42 12 44
REMARK Flexibility Score: inf
ROOT
ATOM      1  C   UNL     1      52.350  20.172  25.113  1.00  0.00     0.045 C 
ATOM      2  C   UNL     1      52.665  19.193  24.007  1.00  0.00    -0.039 A 
ATOM      3  C   UNL     1      52.070  17.932  24.016  1.00  0.00     0.013 A 
ATOM      4  C   UNL     1      52.316  16.978  23.009  1.00  0.00    -0.006 A 
ATOM      5  C   UNL     1      53.116  17.362  21.887  1.00  0.00     0.039 A 
ATOM      6  C   UNL     1      53.236  16.466  20.783  1.00  0.00     0.072 A 
ATOM      7  C   UNL     1      52.587  15.214  20.821  1.00  0.00     0.169 A 
ATOM      8  C   UNL     1      51.885  14.811  21.960  1.00  0.00     0.162 A 
ATOM      9  C   UNL     1      51.774  15.655  23.087  1.00  0.00     0.008 A 
ATOM     10  C   UNL     1      53.780  18.628  21.915  1.00  0.00     0.132 A 
ATOM     11  C   UNL     1      53.543  19.536  22.969  1.00  0.00     0.031 A 
ENDROOT
BRANCH  11  12
ATOM     12  C   UNL     1      54.213  20.864  22.979  1.00  0.00     0.031 A 
ATOM     13  C   UNL     1      55.525  20.992  23.481  1.00  0.00     0.132 A 
ATOM     14  C   UNL     1      53.519  21.995  22.522  1.00  0.00    -0.039 A 
ATOM     15  C   UNL     1      56.183  22.263  23.478  1.00  0.00     0.039 A 
ATOM     16  C   UNL     1      54.141  23.243  22.554  1.00  0.00     0.013 A 
ATOM     17  C   UNL     1      52.088  21.895  22.053  1.00  0.00     0.045 C 
ATOM     18  C   UNL     1      55.482  23.400  22.970  1.00  0.00    -0.006 A 
ATOM     19  C   UNL     1      57.498  22.442  24.005  1.00  0.00     0.072 A 
ATOM     20  C   UNL     1      56.120  24.678  22.927  1.00  0.00     0.008 A 
ATOM     21  C   UNL     1      58.051  23.737  24.090  1.00  0.00     0.169 A 
ATOM     22  C   UNL     1      57.349  24.841  23.598  1.00  0.00     0.162 A 
BRANCH  13  23
ATOM     23  O   UNL     1      56.166  19.862  24.002  1.00  0.00    -0.507 OA
ATOM     24  H   UNL     1      56.832  19.300  23.488  1.00  0.00     0.293 HD
ENDBRANCH  13  23
BRANCH  19  25
ATOM     25  C   UNL     1      58.316  21.304  24.473  1.00  0.00     0.264 C 
ATOM     26  O   UNL     1      59.563  21.294  24.300  1.00  0.00    -0.298 OA
ENDBRANCH  19  25
BRANCH  20  27
ATOM     27  C   UNL     1      55.492  25.875  22.188  1.00  0.00     0.017 C 
ATOM     28  C   UNL     1      55.108  26.983  23.174  1.00  0.00     0.012 C 
ATOM     29  C   UNL     1      56.359  26.426  21.039  1.00  0.00     0.012 C 
ENDBRANCH  20  27
BRANCH  21  30
ATOM     30  O   UNL     1      59.322  23.959  24.633  1.00  0.00    -0.504 OA
ATOM     31  H   UNL     1      60.189  23.823  24.129  1.00  0.00     0.293 HD
ENDBRANCH  21  30
BRANCH  22  32
ATOM     32  O   UNL     1      57.883  26.121  23.775  1.00  0.00    -0.504 OA
ATOM     33  H   UNL     1      58.836  26.361  23.530  1.00  0.00     0.293 HD
ENDBRANCH  22  32
ENDBRANCH  11  12
BRANCH  10  34
ATOM     34  O   UNL     1      54.690  18.974  20.909  1.00  0.00    -0.507 OA
ATOM     35  H   UNL     1      54.486  18.929  19.920  1.00  0.00     0.293 HD
ENDBRANCH  10  34
BRANCH   9  36
ATOM     36  C   UNL     1      51.073  15.081  24.336  1.00  0.00     0.017 C 
ATOM     37  C   UNL     1      51.912  13.996  25.026  1.00  0.00     0.012 C 
ATOM     38  C   UNL     1      49.607  14.661  24.107  1.00  0.00     0.012 C 
ENDBRANCH   9  36
BRANCH   6  39
ATOM     39  C   UNL     1      53.964  16.833  19.551  1.00  0.00     0.264 C 
ATOM     40  O   UNL     1      55.052  16.272  19.258  1.00  0.00    -0.298 OA
ENDBRANCH   6  39
BRANCH   8  41
ATOM     41  O   UNL     1      51.269  13.554  21.971  1.00  0.00    -0.504 OA
ATOM     42  H   UNL     1      50.391  13.364  21.502  1.00  0.00     0.293 HD
ENDBRANCH   8  41
BRANCH   7  43
ATOM     43  O   UNL     1      52.602  14.348  19.721  1.00  0.00    -0.504 OA
ATOM     44  H   UNL     1      51.974  13.563  19.606  1.00  0.00     0.293 HD
ENDBRANCH   7  43
TORSDOF 11
ENDMDL
MODEL 8
REMARK VINA RESULT:    -5.907      3.601      4.347
REMARK INTER + INTRA:         -10.050
REMARK INTER:                  -8.505
REMARK INTRA:                  -1.546
REMARK UNBOUND:                -1.381
REMARK SMILES Cc1cc2c(C(C)C)c(O)c(O)c(C=O)c2c(O)c1-c1c(C)cc2c(C(C)C)c(O)c(O)c(C=O)c2c1O
REMARK SMILES IDX 1 1 2 2 3 3 4 4 16 5 13 6 11 7 9 8 5 9 17 10 19 11 20 12
REMARK SMILES IDX 37 13 21 14 36 15 23 16 22 17 24 18 33 19 25 20 31 21 29 22
REMARK SMILES IDX 38 23 34 25 35 26 26 27 27 28 28 29 32 30 30 32 18 34 6 36
REMARK SMILES IDX 7 37 8 38 14 39 15 40 10 41 12 43
REMARK H PARENT 38 24 32 31 30 33 18 35 10 42 12 44
REMARK Flexibility Score: inf
ROOT
ATOM      1  C   UNL     1      55.180  22.103  19.659  1.00  0.00     0.045 C 
ATOM      2  C   UNL     1      54.622  21.406  20.877  1.00  0.00    -0.039 A 
ATOM      3  C   UNL     1      54.153  20.097  20.764  1.00  0.00     0.013 A 
ATOM      4  C   UNL     1      53.630  19.390  21.865  1.00  0.00    -0.006 A 
ATOM      5  C   UNL     1      53.686  20.001  23.157  1.00  0.00     0.039 A 
ATOM      6  C   UNL     1      53.314  19.233  24.301  1.00  0.00     0.072 A 
ATOM      7  C   UNL     1      52.880  17.901  24.143  1.00  0.00     0.169 A 
ATOM      8  C   UNL     1      52.741  17.344  22.869  1.00  0.00     0.162 A 
ATOM      9  C   UNL     1      53.064  18.084  21.710  1.00  0.00     0.008 A 
ATOM     10  C   UNL     1      54.100  21.365  23.257  1.00  0.00     0.132 A 
ATOM     11  C   UNL     1      54.573  22.054  22.120  1.00  0.00     0.031 A 
ENDROOT
BRANCH  11  12
ATOM     12  C   UNL     1      55.031  23.464  22.234  1.00  0.00     0.031 A 
ATOM     13  C   UNL     1      56.374  23.749  22.560  1.00  0.00     0.132 A 
ATOM     14  C   UNL     1      54.113  24.510  22.053  1.00  0.00    -0.039 A 
ATOM     15  C   UNL     1      56.827  25.102  22.655  1.00  0.00     0.039 A 
ATOM     16  C   UNL     1      54.541  25.831  22.183  1.00  0.00     0.013 A 
ATOM     17  C   UNL     1      52.655  24.229  21.779  1.00  0.00     0.045 C 
ATOM     18  C   UNL     1      55.893  26.160  22.425  1.00  0.00    -0.006 A 
ATOM     19  C   UNL     1      58.170  25.434  23.013  1.00  0.00     0.072 A 
ATOM     20  C   UNL     1      56.320  27.522  22.484  1.00  0.00     0.008 A 
ATOM     21  C   UNL     1      58.531  26.783  23.212  1.00  0.00     0.169 A 
ATOM     22  C   UNL     1      57.603  27.806  22.994  1.00  0.00     0.162 A 
BRANCH  13  23
ATOM     23  O   UNL     1      57.250  22.687  22.812  1.00  0.00    -0.507 OA
ATOM     24  H   UNL     1      56.982  21.828  23.274  1.00  0.00     0.293 HD
ENDBRANCH  13  23
BRANCH  19  25
ATOM     25  C   UNL     1      59.211  24.401  23.187  1.00  0.00     0.264 C 
ATOM     26  O   UNL     1      59.710  24.175  24.321  1.00  0.00    -0.298 OA
ENDBRANCH  19  25
BRANCH  20  27
ATOM     27  C   UNL     1      55.409  28.679  22.028  1.00  0.00     0.017 C 
ATOM     28  C   UNL     1      54.855  29.443  23.234  1.00  0.00     0.012 C 
ATOM     29  C   UNL     1      56.073  29.634  21.018  1.00  0.00     0.012 C 
ENDBRANCH  20  27
BRANCH  21  30
ATOM     30  O   UNL     1      59.826  27.147  23.598  1.00  0.00    -0.504 OA
ATOM     31  H   UNL     1      60.503  27.580  22.984  1.00  0.00     0.293 HD
ENDBRANCH  21  30
BRANCH  22  32
ATOM     32  O   UNL     1      57.964  29.125  23.282  1.00  0.00    -0.504 OA
ATOM     33  H   UNL     1      58.599  29.663  22.706  1.00  0.00     0.293 HD
ENDBRANCH  22  32
ENDBRANCH  11  12
BRANCH  10  34
ATOM     34  O   UNL     1      54.023  22.043  24.480  1.00  0.00    -0.507 OA
ATOM     35  H   UNL     1      54.447  21.715  25.337  1.00  0.00     0.293 HD
ENDBRANCH  10  34
BRANCH   9  36
ATOM     36  C   UNL     1      52.775  17.424  20.345  1.00  0.00     0.017 C 
ATOM     37  C   UNL     1      54.043  16.859  19.691  1.00  0.00     0.012 C 
ATOM     38  C   UNL     1      51.931  18.289  19.386  1.00  0.00     0.012 C 
ENDBRANCH   9  36
BRANCH   6  39
ATOM     39  C   UNL     1      53.439  19.765  25.674  1.00  0.00     0.264 C 
ATOM     40  O   UNL     1      52.415  19.964  26.380  1.00  0.00    -0.298 OA
ENDBRANCH   6  39
BRANCH   8  41
ATOM     41  O   UNL     1      52.289  16.025  22.748  1.00  0.00    -0.504 OA
ATOM     42  H   UNL     1      52.633  15.385  22.043  1.00  0.00     0.293 HD
ENDBRANCH   8  41
BRANCH   7  43
ATOM     43  O   UNL     1      52.598  17.087  25.247  1.00  0.00    -0.504 OA
ATOM     44  H   UNL     1      53.012  17.205  26.163  1.00  0.00     0.293 HD
ENDBRANCH   7  43
TORSDOF 11
ENDMDL
MODEL 9
REMARK VINA RESULT:    -5.889      1.533      9.029
REMARK INTER + INTRA:         -10.024
REMARK INTER:                  -8.797
REMARK INTRA:                  -1.227
REMARK UNBOUND:                -1.381
REMARK SMILES Cc1cc2c(C(C)C)c(O)c(O)c(C=O)c2c(O)c1-c1c(C)cc2c(C(C)C)c(O)c(O)c(C=O)c2c1O
REMARK SMILES IDX 1 1 2 2 3 3 4 4 16 5 13 6 11 7 9 8 5 9 17 10 19 11 20 12
REMARK SMILES IDX 37 13 21 14 36 15 23 16 22 17 24 18 33 19 25 20 31 21 29 22
REMARK SMILES IDX 38 23 34 25 35 26 26 27 27 28 28 29 32 30 30 32 18 34 6 36
REMARK SMILES IDX 7 37 8 38 14 39 15 40 10 41 12 43
REMARK H PARENT 38 24 32 31 30 33 18 35 10 42 12 44
REMARK Flexibility Score: inf
ROOT
ATOM      1  C   UNL     1      59.147  24.545  23.539  1.00  0.00     0.045 C 
ATOM      2  C   UNL     1      57.961  24.886  22.668  1.00  0.00    -0.039 A 
ATOM      3  C   UNL     1      57.433  26.177  22.702  1.00  0.00     0.013 A 
ATOM      4  C   UNL     1      56.334  26.560  21.908  1.00  0.00    -0.006 A 
ATOM      5  C   UNL     1      55.820  25.623  20.958  1.00  0.00     0.039 A 
ATOM      6  C   UNL     1      54.821  26.051  20.035  1.00  0.00     0.072 A 
ATOM      7  C   UNL     1      54.342  27.377  20.083  1.00  0.00     0.169 A 
ATOM      8  C   UNL     1      54.784  28.258  21.073  1.00  0.00     0.162 A 
ATOM      9  C   UNL     1      55.746  27.860  22.028  1.00  0.00     0.008 A 
ATOM     10  C   UNL     1      56.316  24.282  20.975  1.00  0.00     0.132 A 
ATOM     11  C   UNL     1      57.387  23.927  21.823  1.00  0.00     0.031 A 
ENDROOT
BRANCH  11  12
ATOM     12  C   UNL     1      57.920  22.538  21.816  1.00  0.00     0.031 A 
ATOM     13  C   UNL     1      57.461  21.598  22.763  1.00  0.00     0.132 A 
ATOM     14  C   UNL     1      58.908  22.178  20.888  1.00  0.00    -0.039 A 
ATOM     15  C   UNL     1      57.956  20.256  22.753  1.00  0.00     0.039 A 
ATOM     16  C   UNL     1      59.423  20.882  20.899  1.00  0.00     0.013 A 
ATOM     17  C   UNL     1      59.469  23.187  19.916  1.00  0.00     0.045 C 
ATOM     18  C   UNL     1      58.930  19.888  21.774  1.00  0.00    -0.006 A 
ATOM     19  C   UNL     1      57.541  19.283  23.712  1.00  0.00     0.072 A 
ATOM     20  C   UNL     1      59.424  18.548  21.718  1.00  0.00     0.008 A 
ATOM     21  C   UNL     1      58.152  18.011  23.733  1.00  0.00     0.169 A 
ATOM     22  C   UNL     1      59.111  17.670  22.776  1.00  0.00     0.162 A 
BRANCH  13  23
ATOM     23  O   UNL     1      56.532  22.005  23.728  1.00  0.00    -0.507 OA
ATOM     24  H   UNL     1      55.964  21.369  24.273  1.00  0.00     0.293 HD
ENDBRANCH  13  23
BRANCH  19  25
ATOM     25  C   UNL     1      56.481  19.562  24.702  1.00  0.00     0.264 C 
ATOM     26  O   UNL     1      55.299  19.176  24.505  1.00  0.00    -0.298 OA
ENDBRANCH  19  25
BRANCH  20  27
ATOM     27  C   UNL     1      60.299  18.053  20.551  1.00  0.00     0.017 C 
ATOM     28  C   UNL     1      61.782  18.080  20.933  1.00  0.00     0.012 C 
ATOM     29  C   UNL     1      59.888  16.673  20.003  1.00  0.00     0.012 C 
ENDBRANCH  20  27
BRANCH  21  30
ATOM     30  O   UNL     1      57.799  17.043  24.679  1.00  0.00    -0.504 OA
ATOM     31  H   UNL     1      58.384  16.258  24.938  1.00  0.00     0.293 HD
ENDBRANCH  21  30
BRANCH  22  32
ATOM     32  O   UNL     1      59.761  16.436  22.872  1.00  0.00    -0.504 OA
ATOM     33  H   UNL     1      59.272  15.566  23.049  1.00  0.00     0.293 HD
ENDBRANCH  22  32
ENDBRANCH  11  12
BRANCH  10  34
ATOM     34  O   UNL     1      55.731  23.298  20.169  1.00  0.00    -0.507 OA
ATOM     35  H   UNL     1      55.707  23.336  19.158  1.00  0.00     0.293 HD
ENDBRANCH  10  34
BRANCH   9  36
ATOM     36  C   UNL     1      56.091  28.865  23.147  1.00  0.00     0.017 C 
ATOM     37  C   UNL     1      57.605  29.051  23.315  1.00  0.00     0.012 C 
ATOM     38  C   UNL     1      55.359  28.608  24.480  1.00  0.00     0.012 C 
ENDBRANCH   9  36
BRANCH   6  39
ATOM     39  C   UNL     1      54.312  25.167  18.965  1.00  0.00     0.264 C 
ATOM     40  O   UNL     1      53.151  24.685  19.030  1.00  0.00    -0.298 OA
ENDBRANCH   6  39
BRANCH   8  41
ATOM     41  O   UNL     1      54.273  29.560  21.103  1.00  0.00    -0.504 OA
ATOM     42  H   UNL     1      54.097  30.066  21.963  1.00  0.00     0.293 HD
ENDBRANCH   8  41
BRANCH   7  43
ATOM     43  O   UNL     1      53.432  27.861  19.135  1.00  0.00    -0.504 OA
ATOM     44  H   UNL     1      52.541  28.283  19.365  1.00  0.00     0.293 HD
ENDBRANCH   7  43
TORSDOF 11
ENDMDL
