MODEL 1
REMARK VINA RESULT:    -6.558      0.000      0.000
REMARK INTER + INTRA:          -7.207
REMARK INTER:                  -6.941
REMARK INTRA:                  -0.266
REMARK UNBOUND:                -0.266
REMARK SMILES O=c1cc(-c2ccccc2)oc2ccccc12
REMARK SMILES IDX 4 1 3 2 2 3 1 4 17 5 16 6 15 7 14 8 13 9 12 10 11 11 5 12
REMARK SMILES IDX 8 13 7 14 9 15 6 16 10 17
REMARK H PARENT
REMARK Flexibility Score: inf
ROOT
ATOM      1  C   UNL     1      22.009   2.691 -21.210  1.00  0.00     0.138 A 
ATOM      2  C   UNL     1      21.982   1.812 -22.313  1.00  0.00     0.100 A 
ATOM      3  C   UNL     1      21.532   0.502 -22.138  1.00  0.00     0.193 A 
ATOM      4  O   UNL     1      21.506  -0.283 -23.125  1.00  0.00    -0.289 OA
ATOM      5  C   UNL     1      21.114   0.078 -20.869  1.00  0.00     0.065 A 
ATOM      6  C   UNL     1      20.650  -1.227 -20.624  1.00  0.00     0.016 A 
ATOM      7  C   UNL     1      20.246  -1.596 -19.338  1.00  0.00     0.001 A 
ATOM      8  C   UNL     1      20.301  -0.672 -18.290  1.00  0.00     0.004 A 
ATOM      9  C   UNL     1      20.761   0.626 -18.524  1.00  0.00     0.048 A 
ATOM     10  C   UNL     1      21.168   1.008 -19.808  1.00  0.00     0.138 A 
ATOM     11  O   UNL     1      21.603   2.245 -20.020  1.00  0.00    -0.456 OA
ENDROOT
BRANCH   1  12
ATOM     12  C   UNL     1      22.477   4.108 -21.309  1.00  0.00     0.017 A 
ATOM     13  C   UNL     1      23.341   6.794 -21.402  1.00  0.00     0.000 A 
ATOM     14  C   UNL     1      22.921   6.237 -20.195  1.00  0.00     0.001 A 
ATOM     15  C   UNL     1      23.334   6.022 -22.564  1.00  0.00     0.001 A 
ATOM     16  C   UNL     1      22.492   4.907 -20.147  1.00  0.00     0.012 A 
ATOM     17  C   UNL     1      22.907   4.691 -22.523  1.00  0.00     0.012 A 
ENDBRANCH   1  12
TORSDOF 1
ENDMDL
MODEL 2
REMARK VINA RESULT:    -6.466      1.992      6.265
REMARK INTER + INTRA:          -7.110
REMARK INTER:                  -6.845
REMARK INTRA:                  -0.265
REMARK UNBOUND:                -0.266
REMARK SMILES O=c1cc(-c2ccccc2)oc2ccccc12
REMARK SMILES IDX 4 1 3 2 2 3 1 4 17 5 16 6 15 7 14 8 13 9 12 10 11 11 5 12
REMARK SMILES IDX 8 13 7 14 9 15 6 16 10 17
REMARK H PARENT
REMARK Flexibility Score: inf
ROOT
ATOM      1  C   UNL     1      22.440   3.479 -20.126  1.00  0.00     0.138 A 
ATOM      2  C   UNL     1      22.440   4.164 -21.359  1.00  0.00     0.100 A 
ATOM      3  C   UNL     1      23.029   5.427 -21.445  1.00  0.00     0.193 A 
ATOM      4  O   UNL     1      23.031   6.039 -22.548  1.00  0.00    -0.289 OA
ATOM      5  C   UNL     1      23.611   5.997 -20.304  1.00  0.00     0.065 A 
ATOM      6  C   UNL     1      24.219   7.265 -20.321  1.00  0.00     0.016 A 
ATOM      7  C   UNL     1      24.784   7.786 -19.153  1.00  0.00     0.001 A 
ATOM      8  C   UNL     1      24.746   7.051 -17.964  1.00  0.00     0.004 A 
ATOM      9  C   UNL     1      24.143   5.790 -17.939  1.00  0.00     0.048 A 
ATOM     10  C   UNL     1      23.574   5.259 -19.101  1.00  0.00     0.138 A 
ATOM     11  O   UNL     1      23.004   4.059 -19.066  1.00  0.00    -0.456 OA
ENDROOT
BRANCH   1  12
ATOM     12  C   UNL     1      21.831   2.125 -19.948  1.00  0.00     0.017 A 
ATOM     13  C   UNL     1      20.663  -0.435 -19.708  1.00  0.00     0.000 A 
ATOM     14  C   UNL     1      20.767   0.171 -20.959  1.00  0.00     0.001 A 
ATOM     15  C   UNL     1      21.137   0.226 -18.574  1.00  0.00     0.001 A 
ATOM     16  C   UNL     1      21.345   1.438 -21.080  1.00  0.00     0.012 A 
ATOM     17  C   UNL     1      21.716   1.494 -18.688  1.00  0.00     0.012 A 
ENDBRANCH   1  12
TORSDOF 1
ENDMDL
MODEL 3
REMARK VINA RESULT:    -6.466      2.681      4.598
REMARK INTER + INTRA:          -7.110
REMARK INTER:                  -6.844
REMARK INTRA:                  -0.265
REMARK UNBOUND:                -0.266
REMARK SMILES O=c1cc(-c2ccccc2)oc2ccccc12
REMARK SMILES IDX 4 1 3 2 2 3 1 4 17 5 16 6 15 7 14 8 13 9 12 10 11 11 5 12
REMARK SMILES IDX 8 13 7 14 9 15 6 16 10 17
REMARK H PARENT
REMARK Flexibility Score: inf
ROOT
ATOM      1  C   UNL     1      20.291  -0.276 -19.714  1.00  0.00     0.138 A 
ATOM      2  C   UNL     1      19.808  -1.601 -19.722  1.00  0.00     0.100 A 
ATOM      3  C   UNL     1      19.161  -2.106 -18.592  1.00  0.00     0.193 A 
ATOM      4  O   UNL     1      18.728  -3.290 -18.600  1.00  0.00    -0.289 OA
ATOM      5  C   UNL     1      19.002  -1.287 -17.465  1.00  0.00     0.065 A 
ATOM      6  C   UNL     1      18.361  -1.733 -16.294  1.00  0.00     0.016 A 
ATOM      7  C   UNL     1      18.230  -0.875 -15.199  1.00  0.00     0.001 A 
ATOM      8  C   UNL     1      18.735   0.428 -15.260  1.00  0.00     0.004 A 
ATOM      9  C   UNL     1      19.372   0.878 -16.419  1.00  0.00     0.048 A 
ATOM     10  C   UNL     1      19.510   0.028 -17.522  1.00  0.00     0.138 A 
ATOM     11  O   UNL     1      20.118   0.467 -18.619  1.00  0.00    -0.456 OA
ENDROOT
BRANCH   1  12
ATOM     12  C   UNL     1      20.994   0.341 -20.881  1.00  0.00     0.017 A 
ATOM     13  C   UNL     1      22.328   1.417 -23.125  1.00  0.00     0.000 A 
ATOM     14  C   UNL     1      22.018   0.058 -23.082  1.00  0.00     0.001 A 
ATOM     15  C   UNL     1      21.978   2.244 -22.057  1.00  0.00     0.001 A 
ATOM     16  C   UNL     1      21.358  -0.477 -21.971  1.00  0.00     0.012 A 
ATOM     17  C   UNL     1      21.317   1.716 -20.943  1.00  0.00     0.012 A 
ENDBRANCH   1  12
TORSDOF 1
ENDMDL
MODEL 4
REMARK VINA RESULT:    -6.198      3.114      5.613
REMARK INTER + INTRA:          -6.827
REMARK INTER:                  -6.583
REMARK INTRA:                  -0.244
REMARK UNBOUND:                -0.266
REMARK SMILES O=c1cc(-c2ccccc2)oc2ccccc12
REMARK SMILES IDX 4 1 3 2 2 3 1 4 17 5 16 6 15 7 14 8 13 9 12 10 11 11 5 12
REMARK SMILES IDX 8 13 7 14 9 15 6 16 10 17
REMARK H PARENT
REMARK Flexibility Score: inf
ROOT
ATOM      1  C   UNL     1      20.382   0.604 -17.305  1.00  0.00     0.138 A 
ATOM      2  C   UNL     1      19.648  -0.578 -17.540  1.00  0.00     0.100 A 
ATOM      3  C   UNL     1      19.631  -1.134 -18.821  1.00  0.00     0.193 A 
ATOM      4  O   UNL     1      18.976  -2.192 -19.031  1.00  0.00    -0.289 OA
ATOM      5  C   UNL     1      20.342  -0.509 -19.855  1.00  0.00     0.065 A 
ATOM      6  C   UNL     1      20.365  -1.016 -21.167  1.00  0.00     0.016 A 
ATOM      7  C   UNL     1      21.091  -0.353 -22.161  1.00  0.00     0.001 A 
ATOM      8  C   UNL     1      21.795   0.817 -21.856  1.00  0.00     0.004 A 
ATOM      9  C   UNL     1      21.777   1.327 -20.555  1.00  0.00     0.048 A 
ATOM     10  C   UNL     1      21.053   0.671 -19.552  1.00  0.00     0.138 A 
ATOM     11  O   UNL     1      21.043   1.165 -18.319  1.00  0.00    -0.456 OA
ENDROOT
BRANCH   1  12
ATOM     12  C   UNL     1      20.452   1.265 -15.965  1.00  0.00     0.017 A 
ATOM     13  C   UNL     1      20.489   2.504 -13.429  1.00  0.00     0.000 A 
ATOM     14  C   UNL     1      19.285   2.052 -13.968  1.00  0.00     0.001 A 
ATOM     15  C   UNL     1      21.675   2.343 -14.144  1.00  0.00     0.001 A 
ATOM     16  C   UNL     1      19.265   1.438 -15.224  1.00  0.00     0.012 A 
ATOM     17  C   UNL     1      21.663   1.730 -15.402  1.00  0.00     0.012 A 
ENDBRANCH   1  12
TORSDOF 1
ENDMDL
MODEL 5
REMARK VINA RESULT:    -6.072      4.773      7.539
REMARK INTER + INTRA:          -6.693
REMARK INTER:                  -6.466
REMARK INTRA:                  -0.227
REMARK UNBOUND:                -0.266
REMARK SMILES O=c1cc(-c2ccccc2)oc2ccccc12
REMARK SMILES IDX 4 1 3 2 2 3 1 4 17 5 16 6 15 7 14 8 13 9 12 10 11 11 5 12
REMARK SMILES IDX 8 13 7 14 9 15 6 16 10 17
REMARK H PARENT
REMARK Flexibility Score: inf
ROOT
ATOM      1  C   UNL     1      18.407  -0.883 -16.541  1.00  0.00     0.138 A 
ATOM      2  C   UNL     1      17.640  -0.029 -15.721  1.00  0.00     0.100 A 
ATOM      3  C   UNL     1      16.858  -0.573 -14.700  1.00  0.00     0.193 A 
ATOM      4  O   UNL     1      16.174   0.191 -13.966  1.00  0.00    -0.289 OA
ATOM      5  C   UNL     1      16.846  -1.962 -14.505  1.00  0.00     0.065 A 
ATOM      6  C   UNL     1      16.080  -2.575 -13.496  1.00  0.00     0.016 A 
ATOM      7  C   UNL     1      16.105  -3.964 -13.346  1.00  0.00     0.001 A 
ATOM      8  C   UNL     1      16.888  -4.750 -14.197  1.00  0.00     0.004 A 
ATOM      9  C   UNL     1      17.651  -4.150 -15.202  1.00  0.00     0.048 A 
ATOM     10  C   UNL     1      17.634  -2.759 -15.362  1.00  0.00     0.138 A 
ATOM     11  O   UNL     1      18.364  -2.198 -16.320  1.00  0.00    -0.456 OA
ENDROOT
BRANCH   1  12
ATOM     12  C   UNL     1      19.269  -0.383 -17.656  1.00  0.00     0.017 A 
ATOM     13  C   UNL     1      20.835   0.520 -19.824  1.00  0.00     0.000 A 
ATOM     14  C   UNL     1      19.652  -0.179 -20.061  1.00  0.00     0.001 A 
ATOM     15  C   UNL     1      21.244   0.772 -18.515  1.00  0.00     0.001 A 
ATOM     16  C   UNL     1      18.875  -0.628 -18.988  1.00  0.00     0.012 A 
ATOM     17  C   UNL     1      20.472   0.326 -17.436  1.00  0.00     0.012 A 
ENDBRANCH   1  12
TORSDOF 1
ENDMDL
MODEL 6
REMARK VINA RESULT:    -6.060      3.290      5.969
REMARK INTER + INTRA:          -6.680
REMARK INTER:                  -6.438
REMARK INTRA:                  -0.243
REMARK UNBOUND:                -0.266
REMARK SMILES O=c1cc(-c2ccccc2)oc2ccccc12
REMARK SMILES IDX 4 1 3 2 2 3 1 4 17 5 16 6 15 7 14 8 13 9 12 10 11 11 5 12
REMARK SMILES IDX 8 13 7 14 9 15 6 16 10 17
REMARK H PARENT
REMARK Flexibility Score: inf
ROOT
ATOM      1  C   UNL     1      20.961   0.754 -17.871  1.00  0.00     0.138 A 
ATOM      2  C   UNL     1      19.781   0.607 -17.112  1.00  0.00     0.100 A 
ATOM      3  C   UNL     1      19.793   0.920 -15.751  1.00  0.00     0.193 A 
ATOM      4  O   UNL     1      18.738   0.790 -15.073  1.00  0.00    -0.289 OA
ATOM      5  C   UNL     1      20.980   1.375 -15.158  1.00  0.00     0.065 A 
ATOM      6  C   UNL     1      21.061   1.707 -13.794  1.00  0.00     0.016 A 
ATOM      7  C   UNL     1      22.270   2.156 -13.254  1.00  0.00     0.001 A 
ATOM      8  C   UNL     1      23.402   2.277 -14.066  1.00  0.00     0.004 A 
ATOM      9  C   UNL     1      23.329   1.949 -15.422  1.00  0.00     0.048 A 
ATOM     10  C   UNL     1      22.125   1.498 -15.974  1.00  0.00     0.138 A 
ATOM     11  O   UNL     1      22.067   1.190 -17.265  1.00  0.00    -0.456 OA
ENDROOT
BRANCH   1  12
ATOM     12  C   UNL     1      21.034   0.440 -19.331  1.00  0.00     0.017 A 
ATOM     13  C   UNL     1      21.213  -0.064 -22.103  1.00  0.00     0.000 A 
ATOM     14  C   UNL     1      21.706   1.130 -21.577  1.00  0.00     0.001 A 
ATOM     15  C   UNL     1      20.631  -1.008 -21.258  1.00  0.00     0.001 A 
ATOM     16  C   UNL     1      21.618   1.381 -20.204  1.00  0.00     0.012 A 
ATOM     17  C   UNL     1      20.539  -0.763 -19.883  1.00  0.00     0.012 A 
ENDBRANCH   1  12
TORSDOF 1
ENDMDL
MODEL 7
REMARK VINA RESULT:    -6.058      3.299      5.806
REMARK INTER + INTRA:          -6.678
REMARK INTER:                  -6.437
REMARK INTRA:                  -0.241
REMARK UNBOUND:                -0.266
REMARK SMILES O=c1cc(-c2ccccc2)oc2ccccc12
REMARK SMILES IDX 4 1 3 2 2 3 1 4 17 5 16 6 15 7 14 8 13 9 12 10 11 11 5 12
REMARK SMILES IDX 8 13 7 14 9 15 6 16 10 17
REMARK H PARENT
REMARK Flexibility Score: inf
ROOT
ATOM      1  C   UNL     1      21.155   0.842 -17.924  1.00  0.00     0.138 A 
ATOM      2  C   UNL     1      22.318   1.275 -17.254  1.00  0.00     0.100 A 
ATOM      3  C   UNL     1      22.253   1.592 -15.895  1.00  0.00     0.193 A 
ATOM      4  O   UNL     1      23.293   1.979 -15.296  1.00  0.00    -0.289 OA
ATOM      5  C   UNL     1      21.031   1.476 -15.217  1.00  0.00     0.065 A 
ATOM      6  C   UNL     1      20.896   1.780 -13.850  1.00  0.00     0.016 A 
ATOM      7  C   UNL     1      19.654   1.646 -13.223  1.00  0.00     0.001 A 
ATOM      8  C   UNL     1      18.541   1.211 -13.951  1.00  0.00     0.004 A 
ATOM      9  C   UNL     1      18.667   0.907 -15.309  1.00  0.00     0.048 A 
ATOM     10  C   UNL     1      19.906   1.038 -15.947  1.00  0.00     0.138 A 
ATOM     11  O   UNL     1      20.014   0.746 -17.239  1.00  0.00    -0.456 OA
ENDROOT
BRANCH   1  12
ATOM     12  C   UNL     1      21.138   0.483 -19.376  1.00  0.00     0.017 A 
ATOM     13  C   UNL     1      21.151  -0.108 -22.136  1.00  0.00     0.000 A 
ATOM     14  C   UNL     1      21.724   1.076 -21.673  1.00  0.00     0.001 A 
ATOM     15  C   UNL     1      20.571  -0.999 -21.234  1.00  0.00     0.001 A 
ATOM     16  C   UNL     1      21.719   1.370 -20.306  1.00  0.00     0.012 A 
ATOM     17  C   UNL     1      20.562  -0.711 -19.865  1.00  0.00     0.012 A 
ENDBRANCH   1  12
TORSDOF 1
ENDMDL
MODEL 8
REMARK VINA RESULT:    -6.020      3.637      7.635
REMARK INTER + INTRA:          -6.638
REMARK INTER:                  -6.417
REMARK INTRA:                  -0.221
REMARK UNBOUND:                -0.266
REMARK SMILES O=c1cc(-c2ccccc2)oc2ccccc12
REMARK SMILES IDX 4 1 3 2 2 3 1 4 17 5 16 6 15 7 14 8 13 9 12 10 11 11 5 12
REMARK SMILES IDX 8 13 7 14 9 15 6 16 10 17
REMARK H PARENT
REMARK Flexibility Score: inf
ROOT
ATOM      1  C   UNL     1      18.701  -0.586 -16.747  1.00  0.00     0.138 A 
ATOM      2  C   UNL     1      18.465  -0.750 -18.129  1.00  0.00     0.100 A 
ATOM      3  C   UNL     1      19.370  -0.219 -19.050  1.00  0.00     0.193 A 
ATOM      4  O   UNL     1      19.160  -0.367 -20.285  1.00  0.00    -0.289 OA
ATOM      5  C   UNL     1      20.501   0.469 -18.588  1.00  0.00     0.065 A 
ATOM      6  C   UNL     1      21.451   1.029 -19.462  1.00  0.00     0.016 A 
ATOM      7  C   UNL     1      22.561   1.706 -18.948  1.00  0.00     0.001 A 
ATOM      8  C   UNL     1      22.731   1.831 -17.565  1.00  0.00     0.004 A 
ATOM      9  C   UNL     1      21.792   1.278 -16.691  1.00  0.00     0.048 A 
ATOM     10  C   UNL     1      20.676   0.599 -17.194  1.00  0.00     0.138 A 
ATOM     11  O   UNL     1      19.790   0.077 -16.353  1.00  0.00    -0.456 OA
ENDROOT
BRANCH   1  12
ATOM     12  C   UNL     1      17.782  -1.122 -15.696  1.00  0.00     0.017 A 
ATOM     13  C   UNL     1      16.010  -2.043 -13.700  1.00  0.00     0.000 A 
ATOM     14  C   UNL     1      15.971  -0.710 -14.107  1.00  0.00     0.001 A 
ATOM     15  C   UNL     1      16.926  -2.920 -14.280  1.00  0.00     0.001 A 
ATOM     16  C   UNL     1      16.849  -0.251 -15.095  1.00  0.00     0.012 A 
ATOM     17  C   UNL     1      17.806  -2.469 -15.269  1.00  0.00     0.012 A 
ENDBRANCH   1  12
TORSDOF 1
ENDMDL
MODEL 9
REMARK VINA RESULT:    -5.905      3.570      7.428
REMARK INTER + INTRA:          -6.516
REMARK INTER:                  -6.290
REMARK INTRA:                  -0.226
REMARK UNBOUND:                -0.266
REMARK SMILES O=c1cc(-c2ccccc2)oc2ccccc12
REMARK SMILES IDX 4 1 3 2 2 3 1 4 17 5 16 6 15 7 14 8 13 9 12 10 11 11 5 12
REMARK SMILES IDX 8 13 7 14 9 15 6 16 10 17
REMARK H PARENT
REMARK Flexibility Score: inf
ROOT
ATOM      1  C   UNL     1      19.027  -0.190 -16.859  1.00  0.00     0.138 A 
ATOM      2  C   UNL     1      20.193   0.531 -16.523  1.00  0.00     0.100 A 
ATOM      3  C   UNL     1      21.097   0.884 -17.527  1.00  0.00     0.193 A 
ATOM      4  O   UNL     1      22.138   1.529 -17.227  1.00  0.00    -0.289 OA
ATOM      5  C   UNL     1      20.834   0.516 -18.854  1.00  0.00     0.065 A 
ATOM      6  C   UNL     1      21.703   0.839 -19.912  1.00  0.00     0.016 A 
ATOM      7  C   UNL     1      21.391   0.447 -21.218  1.00  0.00     0.001 A 
ATOM      8  C   UNL     1      20.218  -0.268 -21.477  1.00  0.00     0.004 A 
ATOM      9  C   UNL     1      19.349  -0.593 -20.432  1.00  0.00     0.048 A 
ATOM     10  C   UNL     1      19.650  -0.206 -19.121  1.00  0.00     0.138 A 
ATOM     11  O   UNL     1      18.817  -0.519 -18.134  1.00  0.00    -0.456 OA
ENDROOT
BRANCH   1  12
ATOM     12  C   UNL     1      18.009  -0.607 -15.846  1.00  0.00     0.017 A 
ATOM     13  C   UNL     1      16.117  -1.488 -13.945  1.00  0.00     0.000 A 
ATOM     14  C   UNL     1      16.993  -2.400 -14.532  1.00  0.00     0.001 A 
ATOM     15  C   UNL     1      16.177  -0.141 -14.298  1.00  0.00     0.001 A 
ATOM     16  C   UNL     1      17.931  -1.966 -15.474  1.00  0.00     0.012 A 
ATOM     17  C   UNL     1      17.112   0.301 -15.240  1.00  0.00     0.012 A 
ENDBRANCH   1  12
TORSDOF 1
ENDMDL
