MODEL 1
REMARK VINA RESULT:    -3.666      0.000      0.000
REMARK INTER + INTRA:          -5.220
REMARK INTER:                  -5.594
REMARK INTRA:                   0.374
REMARK UNBOUND:                 0.374
REMARK SMILES CC1=CCC[C@H](C)C(=O)C[C@@H](C(C)C)C(=O)C1
REMARK SMILES IDX 8 1 9 2 6 3 7 4 5 5 4 6 3 7 2 8 1 9 10 11 11 12 15 13 16 14
REMARK SMILES IDX 17 15 12 17 13 18 14 19
REMARK H PARENT
REMARK Flexibility Score: 70.00
ROOT
ATOM      1  C   UNL     1      11.956 -32.770 -29.114  1.00  0.00     0.136 C 
ATOM      2  O   UNL     1      11.035 -31.966 -29.049  1.00  0.00    -0.299 OA
ENDROOT
BRANCH   1   3
ATOM      3  C   UNL     1      12.528 -33.381 -27.846  1.00  0.00     0.053 C 
ATOM      4  C   UNL     1      11.434 -33.894 -26.895  1.00  0.00     0.016 C 
BRANCH   3   5
ATOM      5  C   UNL     1      13.560 -34.481 -28.167  1.00  0.00     0.015 C 
BRANCH   5   6
ATOM      6  C   UNL     1      12.980 -35.909 -28.129  1.00  0.00     0.028 C 
BRANCH   6   7
ATOM      7  C   UNL     1      13.136 -36.583 -29.467  1.00  0.00    -0.028 C 
ATOM      8  C   UNL     1      12.277 -36.444 -30.504  1.00  0.00    -0.070 CG0
ATOM      9  C   UNL     1      12.615 -37.137 -31.800  1.00  0.00     0.039 C 
ATOM     10  G   UNL     1      10.987 -35.642 -30.412  1.00  0.00     0.000 G0
ENDBRANCH   6   7
ENDBRANCH   5   6
ENDBRANCH   3   5
ENDBRANCH   1   3
BRANCH   1  11
ATOM     11  C   UNL     1      12.504 -33.143 -30.471  1.00  0.00     0.087 C 
BRANCH  11  12
ATOM     12  C   UNL     1      11.385 -33.282 -31.536  1.00  0.00     0.066 C 
BRANCH  12  13
ATOM     13  C   UNL     1      10.823 -34.696 -31.572  1.00  0.00     0.140 C 
ATOM     14  O   UNL     1      10.165 -35.065 -32.535  1.00  0.00    -0.299 OA
BRANCH  13  15
ATOM     15  C   UNL     1      11.005 -35.631 -30.402  1.00  0.00     0.106 CG0
ATOM     16  G   UNL     1      12.285 -36.449 -30.505  1.00  0.00     0.000 G0
ENDBRANCH  13  15
ENDBRANCH  12  13
BRANCH  12  17
ATOM     17  C   UNL     1      11.853 -32.786 -32.940  1.00  0.00    -0.006 C 
ATOM     18  C   UNL     1      10.892 -31.788 -33.608  1.00  0.00     0.008 C 
ATOM     19  C   UNL     1      13.272 -32.200 -32.885  1.00  0.00     0.008 C 
ENDBRANCH  12  17
ENDBRANCH  11  12
ENDBRANCH   1  11
TORSDOF 1
ENDMDL
MODEL 2
REMARK VINA RESULT:    -3.562      1.536      3.662
REMARK INTER + INTRA:          -5.063
REMARK INTER:                  -5.063
REMARK INTRA:                   0.001
REMARK UNBOUND:                 0.374
REMARK SMILES CC1=CCC[C@H](C)C(=O)C[C@@H](C(C)C)C(=O)C1
REMARK SMILES IDX 8 1 9 2 6 3 7 4 5 5 4 6 3 7 2 8 1 9 10 11 11 12 15 13 16 14
REMARK SMILES IDX 17 15 12 17 13 18 14 19
REMARK H PARENT
REMARK Flexibility Score: 70.00
ROOT
ATOM      1  C   UNL     1      11.152 -35.553 -30.895  1.00  0.00     0.136 C 
ATOM      2  O   UNL     1      10.131 -35.728 -30.243  1.00  0.00    -0.299 OA
ENDROOT
BRANCH   1   3
ATOM      3  C   UNL     1      12.195 -36.654 -30.996  1.00  0.00     0.053 C 
ATOM      4  C   UNL     1      13.275 -36.345 -32.046  1.00  0.00     0.016 C 
BRANCH   3   5
ATOM      5  C   UNL     1      12.816 -36.969 -29.620  1.00  0.00     0.015 C 
BRANCH   5   6
ATOM      6  C   UNL     1      13.540 -35.770 -28.975  1.00  0.00     0.028 C 
BRANCH   6   7
ATOM      7  C   UNL     1      12.808 -35.307 -27.743  1.00  0.00    -0.028 C 
ATOM      8  C   UNL     1      12.457 -34.023 -27.492  1.00  0.00    -0.070 CG0
ATOM      9  C   UNL     1      11.667 -33.737 -26.240  1.00  0.00     0.039 C 
ATOM     10  G   UNL     1      12.839 -32.866 -28.404  1.00  0.00     0.000 G0
ENDBRANCH   6   7
ENDBRANCH   5   6
ENDBRANCH   3   5
ENDBRANCH   1   3
BRANCH   1  11
ATOM     11  C   UNL     1      11.350 -34.230 -31.597  1.00  0.00     0.087 C 
BRANCH  11  12
ATOM     12  C   UNL     1      12.471 -33.383 -30.941  1.00  0.00     0.066 C 
BRANCH  12  13
ATOM     13  C   UNL     1      12.001 -32.747 -29.641  1.00  0.00     0.140 C 
ATOM     14  O   UNL     1      10.960 -32.105 -29.619  1.00  0.00    -0.299 OA
BRANCH  13  15
ATOM     15  C   UNL     1      12.837 -32.838 -28.388  1.00  0.00     0.106 CG0
ATOM     16  G   UNL     1      12.439 -34.014 -27.507  1.00  0.00     0.000 G0
ENDBRANCH  13  15
ENDBRANCH  12  13
BRANCH  12  17
ATOM     17  C   UNL     1      13.071 -32.340 -31.936  1.00  0.00    -0.006 C 
ATOM     18  C   UNL     1      14.568 -32.540 -32.232  1.00  0.00     0.008 C 
ATOM     19  C   UNL     1      12.274 -32.293 -33.248  1.00  0.00     0.008 C 
ENDBRANCH  12  17
ENDBRANCH  11  12
ENDBRANCH   1  11
TORSDOF 1
ENDMDL
MODEL 3
REMARK VINA RESULT:    -3.304      1.668      4.153
REMARK INTER + INTRA:          -4.669
REMARK INTER:                  -4.559
REMARK INTRA:                  -0.109
REMARK UNBOUND:                 0.374
REMARK SMILES CC1=CCC[C@H](C)C(=O)C[C@@H](C(C)C)C(=O)C1
REMARK SMILES IDX 8 1 9 2 6 3 7 4 5 5 4 6 3 7 2 8 1 9 10 11 11 12 15 13 16 14
REMARK SMILES IDX 17 15 12 17 13 18 14 19
REMARK H PARENT
REMARK Flexibility Score: 70.00
ROOT
ATOM      1  C   UNL     1      10.714 -32.939 -29.672  1.00  0.00     0.136 C 
ATOM      2  O   UNL     1      10.606 -31.870 -29.086  1.00  0.00    -0.299 OA
ENDROOT
BRANCH   1   3
ATOM      3  C   UNL     1      10.463 -33.019 -31.169  1.00  0.00     0.053 C 
ATOM      4  C   UNL     1      11.612 -32.412 -31.991  1.00  0.00     0.016 C 
BRANCH   3   5
ATOM      5  C   UNL     1      10.151 -34.463 -31.611  1.00  0.00     0.015 C 
BRANCH   5   6
ATOM      6  C   UNL     1      11.238 -35.086 -32.509  1.00  0.00     0.028 C 
BRANCH   6   7
ATOM      7  C   UNL     1      11.648 -36.439 -31.989  1.00  0.00    -0.028 C 
ATOM      8  C   UNL     1      12.633 -36.651 -31.085  1.00  0.00    -0.070 CG0
ATOM      9  C   UNL     1      12.873 -38.064 -30.617  1.00  0.00     0.039 C 
ATOM     10  G   UNL     1      13.513 -35.534 -30.540  1.00  0.00     0.000 G0
ENDBRANCH   6   7
ENDBRANCH   5   6
ENDBRANCH   3   5
ENDBRANCH   1   3
BRANCH   1  11
ATOM     11  C   UNL     1      11.105 -34.167 -28.885  1.00  0.00     0.087 C 
BRANCH  11  12
ATOM     12  C   UNL     1      12.603 -34.153 -28.485  1.00  0.00     0.066 C 
BRANCH  12  13
ATOM     13  C   UNL     1      13.339 -35.364 -29.042  1.00  0.00     0.140 C 
ATOM     14  O   UNL     1      13.852 -36.169 -28.277  1.00  0.00    -0.299 OA
BRANCH  13  15
ATOM     15  C   UNL     1      13.506 -35.551 -30.530  1.00  0.00     0.106 CG0
ATOM     16  G   UNL     1      12.632 -36.670 -31.078  1.00  0.00     0.000 G0
ENDBRANCH  13  15
ENDBRANCH  12  13
BRANCH  12  17
ATOM     17  C   UNL     1      12.794 -33.991 -26.945  1.00  0.00    -0.006 C 
ATOM     18  C   UNL     1      13.730 -32.838 -26.543  1.00  0.00     0.008 C 
ATOM     19  C   UNL     1      11.445 -33.854 -26.222  1.00  0.00     0.008 C 
ENDBRANCH  12  17
ENDBRANCH  11  12
ENDBRANCH   1  11
TORSDOF 1
ENDMDL
MODEL 4
REMARK VINA RESULT:    -3.252      1.579      2.179
REMARK INTER + INTRA:          -4.589
REMARK INTER:                  -5.130
REMARK INTRA:                   0.541
REMARK UNBOUND:                 0.374
REMARK SMILES CC1=CCC[C@H](C)C(=O)C[C@@H](C(C)C)C(=O)C1
REMARK SMILES IDX 8 1 9 2 6 3 7 4 5 5 4 6 3 7 2 8 1 9 10 11 11 12 15 13 16 14
REMARK SMILES IDX 17 15 12 17 13 18 14 19
REMARK H PARENT
REMARK Flexibility Score: 70.00
ROOT
ATOM      1  C   UNL     1      13.879 -32.211 -30.537  1.00  0.00     0.136 C 
ATOM      2  O   UNL     1      14.340 -31.202 -31.052  1.00  0.00    -0.299 OA
ENDROOT
BRANCH   1   3
ATOM      3  C   UNL     1      13.622 -32.258 -29.040  1.00  0.00     0.053 C 
ATOM      4  C   UNL     1      14.293 -31.093 -28.293  1.00  0.00     0.016 C 
BRANCH   3   5
ATOM      5  C   UNL     1      12.114 -32.336 -28.729  1.00  0.00     0.015 C 
BRANCH   5   6
ATOM      6  C   UNL     1      11.732 -33.495 -27.788  1.00  0.00     0.028 C 
BRANCH   6   7
ATOM      7  C   UNL     1      12.657 -34.668 -27.984  1.00  0.00    -0.028 C 
ATOM      8  C   UNL     1      12.520 -35.604 -28.953  1.00  0.00    -0.070 CG0
ATOM      9  C   UNL     1      13.574 -36.678 -29.054  1.00  0.00     0.039 C 
ATOM     10  G   UNL     1      11.348 -35.628 -29.923  1.00  0.00     0.000 G0
ENDBRANCH   6   7
ENDBRANCH   5   6
ENDBRANCH   3   5
ENDBRANCH   1   3
BRANCH   1  11
ATOM     11  C   UNL     1      13.568 -33.401 -31.415  1.00  0.00     0.087 C 
BRANCH  11  12
ATOM     12  C   UNL     1      12.044 -33.659 -31.532  1.00  0.00     0.066 C 
BRANCH  12  13
ATOM     13  C   UNL     1      11.707 -35.125 -31.300  1.00  0.00     0.140 C 
ATOM     14  O   UNL     1      11.677 -35.900 -32.246  1.00  0.00    -0.299 OA
BRANCH  13  15
ATOM     15  C   UNL     1      11.341 -35.626 -29.925  1.00  0.00     0.106 CG0
ATOM     16  G   UNL     1      12.521 -35.604 -28.964  1.00  0.00     0.000 G0
ENDBRANCH  13  15
ENDBRANCH  12  13
BRANCH  12  17
ATOM     17  C   UNL     1      11.463 -33.115 -32.875  1.00  0.00    -0.006 C 
ATOM     18  C   UNL     1       9.998 -32.652 -32.787  1.00  0.00     0.008 C 
ATOM     19  C   UNL     1      12.338 -31.992 -33.453  1.00  0.00     0.008 C 
ENDBRANCH  12  17
ENDBRANCH  11  12
ENDBRANCH   1  11
TORSDOF 1
ENDMDL
MODEL 5
REMARK VINA RESULT:    -3.186      1.591      4.030
REMARK INTER + INTRA:          -4.489
REMARK INTER:                  -5.333
REMARK INTRA:                   0.844
REMARK UNBOUND:                 0.374
REMARK SMILES CC1=CCC[C@H](C)C(=O)C[C@@H](C(C)C)C(=O)C1
REMARK SMILES IDX 8 1 9 2 6 3 7 4 5 5 4 6 3 7 2 8 1 9 10 11 11 12 15 13 16 14
REMARK SMILES IDX 17 15 12 17 13 18 14 19
REMARK H PARENT
REMARK Flexibility Score: 70.00
ROOT
ATOM      1  C   UNL     1      12.841 -32.772 -30.773  1.00  0.00     0.136 C 
ATOM      2  O   UNL     1      13.954 -32.573 -31.240  1.00  0.00    -0.299 OA
ENDROOT
BRANCH   1   3
ATOM      3  C   UNL     1      11.760 -33.423 -31.620  1.00  0.00     0.053 C 
ATOM      4  C   UNL     1      11.004 -32.406 -32.490  1.00  0.00     0.016 C 
BRANCH   3   5
ATOM      5  C   UNL     1      12.328 -34.580 -32.466  1.00  0.00     0.015 C 
BRANCH   5   6
ATOM      6  C   UNL     1      12.157 -35.968 -31.817  1.00  0.00     0.028 C 
BRANCH   6   7
ATOM      7  C   UNL     1      13.280 -36.247 -30.852  1.00  0.00    -0.028 C 
ATOM      8  C   UNL     1      13.140 -36.317 -29.507  1.00  0.00    -0.070 CG0
ATOM      9  C   UNL     1      14.355 -36.673 -28.687  1.00  0.00     0.039 C 
ATOM     10  G   UNL     1      11.826 -36.036 -28.794  1.00  0.00     0.000 G0
ENDBRANCH   6   7
ENDBRANCH   5   6
ENDBRANCH   3   5
ENDBRANCH   1   3
BRANCH   1  11
ATOM     11  C   UNL     1      12.566 -32.364 -29.345  1.00  0.00     0.087 C 
BRANCH  11  12
ATOM     12  C   UNL     1      12.618 -33.570 -28.371  1.00  0.00     0.066 C 
BRANCH  12  13
ATOM     13  C   UNL     1      11.518 -34.578 -28.673  1.00  0.00     0.140 C 
ATOM     14  O   UNL     1      10.357 -34.203 -28.763  1.00  0.00    -0.299 OA
BRANCH  13  15
ATOM     15  C   UNL     1      11.829 -36.049 -28.796  1.00  0.00     0.106 CG0
ATOM     16  G   UNL     1      13.146 -36.308 -29.513  1.00  0.00     0.000 G0
ENDBRANCH  13  15
ENDBRANCH  12  13
BRANCH  12  17
ATOM     17  C   UNL     1      12.622 -33.115 -26.879  1.00  0.00    -0.006 C 
ATOM     18  C   UNL     1      11.679 -33.923 -25.970  1.00  0.00     0.008 C 
ATOM     19  C   UNL     1      14.043 -33.110 -26.295  1.00  0.00     0.008 C 
ENDBRANCH  12  17
ENDBRANCH  11  12
ENDBRANCH   1  11
TORSDOF 1
ENDMDL
MODEL 6
REMARK VINA RESULT:    -3.086      1.589      2.020
REMARK INTER + INTRA:          -4.335
REMARK INTER:                  -5.953
REMARK INTRA:                   1.617
REMARK UNBOUND:                 0.374
REMARK SMILES CC1=CCC[C@H](C)C(=O)C[C@@H](C(C)C)C(=O)C1
REMARK SMILES IDX 8 1 9 2 6 3 7 4 5 5 4 6 3 7 2 8 1 9 10 11 11 12 15 13 16 14
REMARK SMILES IDX 17 15 12 17 13 18 14 19
REMARK H PARENT
REMARK Flexibility Score: 70.00
ROOT
ATOM      1  C   UNL     1      12.394 -32.704 -28.720  1.00  0.00     0.136 C 
ATOM      2  O   UNL     1      13.010 -31.670 -28.940  1.00  0.00    -0.299 OA
ENDROOT
BRANCH   1   3
ATOM      3  C   UNL     1      12.962 -33.744 -27.768  1.00  0.00     0.053 C 
ATOM      4  C   UNL     1      12.761 -33.361 -26.292  1.00  0.00     0.016 C 
BRANCH   3   5
ATOM      5  C   UNL     1      12.402 -35.149 -28.070  1.00  0.00     0.015 C 
BRANCH   5   6
ATOM      6  C   UNL     1      13.432 -36.106 -28.701  1.00  0.00     0.028 C 
BRANCH   6   7
ATOM      7  C   UNL     1      12.896 -36.701 -29.977  1.00  0.00    -0.028 C 
ATOM      8  C   UNL     1      12.979 -36.114 -31.194  1.00  0.00    -0.070 CG0
ATOM      9  C   UNL     1      12.451 -36.875 -32.384  1.00  0.00     0.039 C 
ATOM     10  G   UNL     1      13.561 -34.724 -31.407  1.00  0.00     0.000 G0
ENDBRANCH   6   7
ENDBRANCH   5   6
ENDBRANCH   3   5
ENDBRANCH   1   3
BRANCH   1  11
ATOM     11  C   UNL     1      11.066 -32.922 -29.404  1.00  0.00     0.087 C 
BRANCH  11  12
ATOM     12  C   UNL     1      11.196 -33.819 -30.663  1.00  0.00     0.066 C 
BRANCH  12  13
ATOM     13  C   UNL     1      12.533 -33.609 -31.360  1.00  0.00     0.140 C 
ATOM     14  O   UNL     1      12.761 -32.553 -31.933  1.00  0.00    -0.299 OA
BRANCH  13  15
ATOM     15  C   UNL     1      13.559 -34.714 -31.416  1.00  0.00     0.106 CG0
ATOM     16  G   UNL     1      12.946 -36.089 -31.188  1.00  0.00     0.000 G0
ENDBRANCH  13  15
ENDBRANCH  12  13
BRANCH  12  17
ATOM     17  C   UNL     1       9.982 -33.649 -31.628  1.00  0.00    -0.006 C 
ATOM     18  C   UNL     1       9.895 -32.265 -32.295  1.00  0.00     0.008 C 
ATOM     19  C   UNL     1       9.954 -34.753 -32.696  1.00  0.00     0.008 C 
ENDBRANCH  12  17
ENDBRANCH  11  12
ENDBRANCH   1  11
TORSDOF 1
ENDMDL
MODEL 7
REMARK VINA RESULT:    -3.028      1.836      4.493
REMARK INTER + INTRA:          -4.246
REMARK INTER:                  -5.344
REMARK INTRA:                   1.098
REMARK UNBOUND:                 0.374
REMARK SMILES CC1=CCC[C@H](C)C(=O)C[C@@H](C(C)C)C(=O)C1
REMARK SMILES IDX 8 1 9 2 6 3 7 4 5 5 4 6 3 7 2 8 1 9 10 11 11 12 15 13 16 14
REMARK SMILES IDX 17 15 12 17 13 18 14 19
REMARK H PARENT
REMARK Flexibility Score: 70.00
ROOT
ATOM      1  C   UNL     1      10.348 -34.368 -31.803  1.00  0.00     0.136 C 
ATOM      2  O   UNL     1      10.071 -34.987 -32.822  1.00  0.00    -0.299 OA
ENDROOT
BRANCH   1   3
ATOM      3  C   UNL     1      10.791 -32.917 -31.886  1.00  0.00     0.053 C 
ATOM      4  C   UNL     1      10.915 -32.422 -33.337  1.00  0.00     0.016 C 
BRANCH   3   5
ATOM      5  C   UNL     1       9.875 -31.999 -31.051  1.00  0.00     0.015 C 
BRANCH   5   6
ATOM      6  C   UNL     1      10.024 -32.190 -29.529  1.00  0.00     0.028 C 
BRANCH   6   7
ATOM      7  C   UNL     1      11.456 -31.992 -29.104  1.00  0.00    -0.028 C 
ATOM      8  C   UNL     1      12.217 -32.933 -28.498  1.00  0.00    -0.070 CG0
ATOM      9  C   UNL     1      13.656 -32.595 -28.199  1.00  0.00     0.039 C 
ATOM     10  G   UNL     1      11.681 -34.299 -28.094  1.00  0.00     0.000 G0
ENDBRANCH   6   7
ENDBRANCH   5   6
ENDBRANCH   3   5
ENDBRANCH   1   3
BRANCH   1  11
ATOM     11  C   UNL     1      10.237 -35.070 -30.470  1.00  0.00     0.087 C 
BRANCH  11  12
ATOM     12  C   UNL     1      11.483 -35.940 -30.162  1.00  0.00     0.066 C 
BRANCH  12  13
ATOM     13  C   UNL     1      12.235 -35.423 -28.944  1.00  0.00     0.140 C 
ATOM     14  O   UNL     1      13.283 -35.955 -28.605  1.00  0.00    -0.299 OA
BRANCH  13  15
ATOM     15  C   UNL     1      11.671 -34.304 -28.103  1.00  0.00     0.106 CG0
ATOM     16  G   UNL     1      12.217 -32.942 -28.507  1.00  0.00     0.000 G0
ENDBRANCH  13  15
ENDBRANCH  12  13
BRANCH  12  17
ATOM     17  C   UNL     1      12.404 -36.103 -31.411  1.00  0.00    -0.006 C 
ATOM     18  C   UNL     1      13.769 -35.405 -31.284  1.00  0.00     0.008 C 
ATOM     19  C   UNL     1      12.598 -37.582 -31.778  1.00  0.00     0.008 C 
ENDBRANCH  12  17
ENDBRANCH  11  12
ENDBRANCH   1  11
TORSDOF 1
ENDMDL
MODEL 8
REMARK VINA RESULT:    -2.734      2.205      4.262
REMARK INTER + INTRA:          -3.799
REMARK INTER:                  -3.895
REMARK INTRA:                   0.096
REMARK UNBOUND:                 0.374
REMARK SMILES CC1=CCC[C@H](C)C(=O)C[C@@H](C(C)C)C(=O)C1
REMARK SMILES IDX 8 1 9 2 6 3 7 4 5 5 4 6 3 7 2 8 1 9 10 11 11 12 15 13 16 14
REMARK SMILES IDX 17 15 12 17 13 18 14 19
REMARK H PARENT
REMARK Flexibility Score: 70.00
ROOT
ATOM      1  C   UNL     1      13.511 -33.302 -31.862  1.00  0.00     0.136 C 
ATOM      2  O   UNL     1      12.707 -33.099 -32.761  1.00  0.00    -0.299 OA
ENDROOT
BRANCH   1   3
ATOM      3  C   UNL     1      14.345 -32.159 -31.308  1.00  0.00     0.053 C 
ATOM      4  C   UNL     1      14.788 -31.172 -32.402  1.00  0.00     0.016 C 
BRANCH   3   5
ATOM      5  C   UNL     1      13.619 -31.438 -30.155  1.00  0.00     0.015 C 
BRANCH   5   6
ATOM      6  C   UNL     1      14.013 -31.949 -28.756  1.00  0.00     0.028 C 
BRANCH   6   7
ATOM      7  C   UNL     1      12.798 -32.421 -28.000  1.00  0.00    -0.028 C 
ATOM      8  C   UNL     1      12.616 -33.683 -27.545  1.00  0.00    -0.070 CG0
ATOM      9  C   UNL     1      11.371 -33.975 -26.746  1.00  0.00     0.039 C 
ATOM     10  G   UNL     1      13.597 -34.814 -27.820  1.00  0.00     0.000 G0
ENDBRANCH   6   7
ENDBRANCH   5   6
ENDBRANCH   3   5
ENDBRANCH   1   3
BRANCH   1  11
ATOM     11  C   UNL     1      13.654 -34.702 -31.314  1.00  0.00     0.087 C 
BRANCH  11  12
ATOM     12  C   UNL     1      12.567 -35.030 -30.256  1.00  0.00     0.066 C 
BRANCH  12  13
ATOM     13  C   UNL     1      13.173 -35.670 -29.016  1.00  0.00     0.140 C 
ATOM     14  O   UNL     1      13.274 -36.887 -28.946  1.00  0.00    -0.299 OA
BRANCH  13  15
ATOM     15  C   UNL     1      13.589 -34.828 -27.835  1.00  0.00     0.106 CG0
ATOM     16  G   UNL     1      12.616 -33.690 -27.560  1.00  0.00     0.000 G0
ENDBRANCH  13  15
ENDBRANCH  12  13
BRANCH  12  17
ATOM     17  C   UNL     1      11.403 -35.875 -30.861  1.00  0.00    -0.006 C 
ATOM     18  C   UNL     1      10.126 -35.069 -31.157  1.00  0.00     0.008 C 
ATOM     19  C   UNL     1      11.853 -36.635 -32.118  1.00  0.00     0.008 C 
ENDBRANCH  12  17
ENDBRANCH  11  12
ENDBRANCH   1  11
TORSDOF 1
ENDMDL
MODEL 9
REMARK VINA RESULT:    -2.426      2.031      2.785
REMARK INTER + INTRA:          -3.328
REMARK INTER:                  -4.938
REMARK INTRA:                   1.609
REMARK UNBOUND:                 0.374
REMARK SMILES CC1=CCC[C@H](C)C(=O)C[C@@H](C(C)C)C(=O)C1
REMARK SMILES IDX 8 1 9 2 6 3 7 4 5 5 4 6 3 7 2 8 1 9 10 11 11 12 15 13 16 14
REMARK SMILES IDX 17 15 12 17 13 18 14 19
REMARK H PARENT
REMARK Flexibility Score: 70.00
ROOT
ATOM      1  C   UNL     1      12.855 -34.083 -28.736  1.00  0.00     0.136 C 
ATOM      2  O   UNL     1      13.577 -35.069 -28.679  1.00  0.00    -0.299 OA
ENDROOT
BRANCH   1   3
ATOM      3  C   UNL     1      11.425 -34.150 -28.226  1.00  0.00     0.053 C 
ATOM      4  C   UNL     1      11.332 -33.926 -26.708  1.00  0.00     0.016 C 
BRANCH   3   5
ATOM      5  C   UNL     1      10.505 -33.184 -28.999  1.00  0.00     0.015 C 
BRANCH   5   6
ATOM      6  C   UNL     1       9.875 -33.802 -30.263  1.00  0.00     0.028 C 
BRANCH   6   7
ATOM      7  C   UNL     1      10.319 -35.231 -30.435  1.00  0.00    -0.028 C 
ATOM      8  C   UNL     1      11.320 -35.634 -31.252  1.00  0.00    -0.070 CG0
ATOM      9  C   UNL     1      11.684 -37.098 -31.258  1.00  0.00     0.039 C 
ATOM     10  G   UNL     1      12.074 -34.684 -32.171  1.00  0.00     0.000 G0
ENDBRANCH   6   7
ENDBRANCH   5   6
ENDBRANCH   3   5
ENDBRANCH   1   3
BRANCH   1  11
ATOM     11  C   UNL     1      13.412 -32.804 -29.316  1.00  0.00     0.087 C 
BRANCH  11  12
ATOM     12  C   UNL     1      13.164 -32.698 -30.843  1.00  0.00     0.066 C 
BRANCH  12  13
ATOM     13  C   UNL     1      13.274 -34.056 -31.522  1.00  0.00     0.140 C 
ATOM     14  O   UNL     1      14.359 -34.617 -31.587  1.00  0.00    -0.299 OA
BRANCH  13  15
ATOM     15  C   UNL     1      12.074 -34.692 -32.179  1.00  0.00     0.106 CG0
ATOM     16  G   UNL     1      11.327 -35.631 -31.242  1.00  0.00     0.000 G0
ENDBRANCH  13  15
ENDBRANCH  12  13
BRANCH  12  17
ATOM     17  C   UNL     1      14.075 -31.619 -31.508  1.00  0.00    -0.006 C 
ATOM     18  C   UNL     1      15.045 -30.926 -30.535  1.00  0.00     0.008 C 
ATOM     19  C   UNL     1      14.848 -32.196 -32.705  1.00  0.00     0.008 C 
ENDBRANCH  12  17
ENDBRANCH  11  12
ENDBRANCH   1  11
TORSDOF 1
ENDMDL
