MODEL 1
REMARK VINA RESULT:    -3.923      0.000      0.000
REMARK INTER + INTRA:          -5.696
REMARK INTER:                  -5.414
REMARK INTRA:                  -0.282
REMARK UNBOUND:                -0.282
REMARK SMILES OC[C@@H](O)[C@@H](O)[C@@H](O)CO
REMARK SMILES IDX 5 1 7 2 9 3 10 4 8 6 3 8 2 9 1 10 4 12 6 14
REMARK H PARENT 10 5 8 7 1 11 4 13 6 15
REMARK Flexibility Score: inf
ROOT
ATOM      1  C   UNL     1      81.134  14.535  56.296  1.00  0.00     0.176 C 
ENDROOT
BRANCH   1   2
ATOM      2  C   UNL     1      79.601  14.225  56.331  1.00  0.00     0.171 C 
BRANCH   2   3
ATOM      3  C   UNL     1      78.728  15.490  56.252  1.00  0.00     0.190 C 
BRANCH   3   4
ATOM      4  O   UNL     1      77.372  15.144  56.303  1.00  0.00    -0.394 OA
ATOM      5  H   UNL     1      76.874  15.917  55.929  1.00  0.00     0.210 HD
ENDBRANCH   3   4
ENDBRANCH   2   3
BRANCH   2   6
ATOM      6  O   UNL     1      79.266  13.479  57.473  1.00  0.00    -0.388 OA
ATOM      7  H   UNL     1      78.298  13.621  57.640  1.00  0.00     0.211 HD
ENDBRANCH   2   6
ENDBRANCH   1   2
BRANCH   1   8
ATOM      8  C   UNL     1      81.557  15.991  56.645  1.00  0.00     0.171 C 
BRANCH   8   9
ATOM      9  C   UNL     1      82.711  16.057  57.659  1.00  0.00     0.190 C 
BRANCH   9  10
ATOM     10  O   UNL     1      83.943  15.883  57.011  1.00  0.00    -0.394 OA
ATOM     11  H   UNL     1      84.585  16.504  57.447  1.00  0.00     0.210 HD
ENDBRANCH   9  10
ENDBRANCH   8   9
BRANCH   8  12
ATOM     12  O   UNL     1      81.898  16.697  55.478  1.00  0.00    -0.388 OA
ATOM     13  H   UNL     1      81.978  17.654  55.729  1.00  0.00     0.211 HD
ENDBRANCH   8  12
ENDBRANCH   1   8
BRANCH   1  14
ATOM     14  O   UNL     1      81.823  13.640  57.135  1.00  0.00    -0.388 OA
ATOM     15  H   UNL     1      81.148  13.046  57.557  1.00  0.00     0.211 HD
ENDBRANCH   1  14
TORSDOF 9
ENDMDL
MODEL 2
REMARK VINA RESULT:    -3.839      1.199      4.090
REMARK INTER + INTRA:          -5.580
REMARK INTER:                  -5.278
REMARK INTRA:                  -0.302
REMARK UNBOUND:                -0.282
REMARK SMILES OC[C@@H](O)[C@@H](O)[C@@H](O)CO
REMARK SMILES IDX 5 1 7 2 9 3 10 4 8 6 3 8 2 9 1 10 4 12 6 14
REMARK H PARENT 10 5 8 7 1 11 4 13 6 15
REMARK Flexibility Score: inf
ROOT
ATOM      1  C   UNL     1      80.302  14.560  56.935  1.00  0.00     0.176 C 
ENDROOT
BRANCH   1   2
ATOM      2  C   UNL     1      81.864  14.629  56.872  1.00  0.00     0.171 C 
BRANCH   2   3
ATOM      3  C   UNL     1      82.402  16.071  56.828  1.00  0.00     0.190 C 
BRANCH   3   4
ATOM      4  O   UNL     1      83.803  16.062  56.800  1.00  0.00    -0.394 OA
ATOM      5  H   UNL     1      84.093  16.941  57.158  1.00  0.00     0.210 HD
ENDBRANCH   3   4
ENDBRANCH   2   3
BRANCH   2   6
ATOM      6  O   UNL     1      82.354  13.899  55.777  1.00  0.00    -0.388 OA
ATOM      7  H   UNL     1      81.571  13.486  55.327  1.00  0.00     0.211 HD
ENDBRANCH   2   6
ENDBRANCH   1   2
BRANCH   1   8
ATOM      8  C   UNL     1      79.530  15.811  56.428  1.00  0.00     0.171 C 
BRANCH   8   9
ATOM      9  C   UNL     1      78.422  15.468  55.418  1.00  0.00     0.190 C 
BRANCH   9  10
ATOM     10  O   UNL     1      77.276  15.008  56.085  1.00  0.00    -0.394 OA
ATOM     11  H   UNL     1      77.273  15.443  56.978  1.00  0.00     0.210 HD
ENDBRANCH   9  10
ENDBRANCH   8   9
BRANCH   8  12
ATOM     12  O   UNL     1      78.991  16.529  57.511  1.00  0.00    -0.388 OA
ATOM     13  H   UNL     1      79.520  16.285  58.314  1.00  0.00     0.211 HD
ENDBRANCH   8  12
ENDBRANCH   1   8
BRANCH   1  14
ATOM     14  O   UNL     1      79.845  13.424  56.244  1.00  0.00    -0.388 OA
ATOM     15  H   UNL     1      80.317  12.634  56.620  1.00  0.00     0.211 HD
ENDBRANCH   1  14
TORSDOF 9
ENDMDL
MODEL 3
REMARK VINA RESULT:    -3.813     12.514     13.676
REMARK INTER + INTRA:          -5.544
REMARK INTER:                  -5.043
REMARK INTRA:                  -0.501
REMARK UNBOUND:                -0.282
REMARK SMILES OC[C@@H](O)[C@@H](O)[C@@H](O)CO
REMARK SMILES IDX 5 1 7 2 9 3 10 4 8 6 3 8 2 9 1 10 4 12 6 14
REMARK H PARENT 10 5 8 7 1 11 4 13 6 15
REMARK Flexibility Score: inf
ROOT
ATOM      1  C   UNL     1      82.200   3.933  63.557  1.00  0.00     0.176 C 
ENDROOT
BRANCH   1   2
ATOM      2  C   UNL     1      82.162   3.101  62.232  1.00  0.00     0.171 C 
BRANCH   2   3
ATOM      3  C   UNL     1      83.270   3.497  61.239  1.00  0.00     0.190 C 
BRANCH   3   4
ATOM      4  O   UNL     1      82.925   4.684  60.580  1.00  0.00    -0.394 OA
ATOM      5  H   UNL     1      82.537   5.282  61.271  1.00  0.00     0.210 HD
ENDBRANCH   3   4
ENDBRANCH   2   3
BRANCH   2   6
ATOM      6  O   UNL     1      80.904   3.198  61.614  1.00  0.00    -0.388 OA
ATOM      7  H   UNL     1      80.983   2.767  60.723  1.00  0.00     0.211 HD
ENDBRANCH   2   6
ENDBRANCH   1   2
BRANCH   1   8
ATOM      8  C   UNL     1      82.231   3.124  64.885  1.00  0.00     0.171 C 
BRANCH   8   9
ATOM      9  C   UNL     1      82.770   3.939  66.074  1.00  0.00     0.190 C 
BRANCH   9  10
ATOM     10  O   UNL     1      82.175   5.208  66.107  1.00  0.00    -0.394 OA
ATOM     11  H   UNL     1      82.884   5.862  65.870  1.00  0.00     0.210 HD
ENDBRANCH   9  10
ENDBRANCH   8   9
BRANCH   8  12
ATOM     12  O   UNL     1      80.954   2.619  65.184  1.00  0.00    -0.388 OA
ATOM     13  H   UNL     1      81.081   1.846  65.793  1.00  0.00     0.211 HD
ENDBRANCH   8  12
ENDBRANCH   1   8
BRANCH   1  14
ATOM     14  O   UNL     1      83.289   4.823  63.531  1.00  0.00    -0.388 OA
ATOM     15  H   UNL     1      83.109   5.536  64.200  1.00  0.00     0.211 HD
ENDBRANCH   1  14
TORSDOF 9
ENDMDL
MODEL 4
REMARK VINA RESULT:    -3.663     12.423     13.553
REMARK INTER + INTRA:          -5.337
REMARK INTER:                  -5.038
REMARK INTRA:                  -0.299
REMARK UNBOUND:                -0.282
REMARK SMILES OC[C@@H](O)[C@@H](O)[C@@H](O)CO
REMARK SMILES IDX 5 1 7 2 9 3 10 4 8 6 3 8 2 9 1 10 4 12 6 14
REMARK H PARENT 10 5 8 7 1 11 4 13 6 15
REMARK Flexibility Score: inf
ROOT
ATOM      1  C   UNL     1      83.358   3.738  63.662  1.00  0.00     0.176 C 
ENDROOT
BRANCH   1   2
ATOM      2  C   UNL     1      82.769   3.421  62.248  1.00  0.00     0.171 C 
BRANCH   2   3
ATOM      3  C   UNL     1      83.649   3.942  61.097  1.00  0.00     0.190 C 
BRANCH   3   4
ATOM      4  O   UNL     1      82.973   4.943  60.387  1.00  0.00    -0.394 OA
ATOM      5  H   UNL     1      83.196   4.802  59.430  1.00  0.00     0.210 HD
ENDBRANCH   3   4
ENDBRANCH   2   3
BRANCH   2   6
ATOM      6  O   UNL     1      81.465   3.928  62.123  1.00  0.00    -0.388 OA
ATOM      7  H   UNL     1      81.545   4.862  61.794  1.00  0.00     0.211 HD
ENDBRANCH   2   6
ENDBRANCH   1   2
BRANCH   1   8
ATOM      8  C   UNL     1      82.458   4.569  64.620  1.00  0.00     0.171 C 
BRANCH   8   9
ATOM      9  C   UNL     1      82.210   3.874  65.970  1.00  0.00     0.190 C 
BRANCH   9  10
ATOM     10  O   UNL     1      81.058   3.076  65.906  1.00  0.00    -0.394 OA
ATOM     11  H   UNL     1      80.735   2.966  66.839  1.00  0.00     0.210 HD
ENDBRANCH   9  10
ENDBRANCH   8   9
BRANCH   8  12
ATOM     12  O   UNL     1      83.008   5.846  64.828  1.00  0.00    -0.388 OA
ATOM     13  H   UNL     1      82.347   6.506  64.493  1.00  0.00     0.211 HD
ENDBRANCH   8  12
ENDBRANCH   1   8
BRANCH   1  14
ATOM     14  O   UNL     1      83.734   2.543  64.302  1.00  0.00    -0.388 OA
ATOM     15  H   UNL     1      83.439   2.605  65.248  1.00  0.00     0.211 HD
ENDBRANCH   1  14
TORSDOF 9
ENDMDL
MODEL 5
REMARK VINA RESULT:    -3.634     12.608     13.684
REMARK INTER + INTRA:          -5.296
REMARK INTER:                  -4.802
REMARK INTRA:                  -0.494
REMARK UNBOUND:                -0.282
REMARK SMILES OC[C@@H](O)[C@@H](O)[C@@H](O)CO
REMARK SMILES IDX 5 1 7 2 9 3 10 4 8 6 3 8 2 9 1 10 4 12 6 14
REMARK H PARENT 10 5 8 7 1 11 4 13 6 15
REMARK Flexibility Score: inf
ROOT
ATOM      1  C   UNL     1      72.408   4.756  53.822  1.00  0.00     0.176 C 
ENDROOT
BRANCH   1   2
ATOM      2  C   UNL     1      73.233   4.557  55.136  1.00  0.00     0.171 C 
BRANCH   2   3
ATOM      3  C   UNL     1      72.349   4.309  56.372  1.00  0.00     0.190 C 
BRANCH   3   4
ATOM      4  O   UNL     1      71.885   2.987  56.376  1.00  0.00    -0.394 OA
ATOM      5  H   UNL     1      72.625   2.435  56.740  1.00  0.00     0.210 HD
ENDBRANCH   3   4
ENDBRANCH   2   3
BRANCH   2   6
ATOM      6  O   UNL     1      74.084   5.650  55.366  1.00  0.00    -0.388 OA
ATOM      7  H   UNL     1      73.641   6.451  54.980  1.00  0.00     0.211 HD
ENDBRANCH   2   6
ENDBRANCH   1   2
BRANCH   1   8
ATOM      8  C   UNL     1      73.156   4.490  52.485  1.00  0.00     0.171 C 
BRANCH   8   9
ATOM      9  C   UNL     1      72.764   5.473  51.368  1.00  0.00     0.190 C 
BRANCH   9  10
ATOM     10  O   UNL     1      73.292   6.746  51.629  1.00  0.00    -0.394 OA
ATOM     11  H   UNL     1      73.267   6.869  52.614  1.00  0.00     0.210 HD
ENDBRANCH   9  10
ENDBRANCH   8   9
BRANCH   8  12
ATOM     12  O   UNL     1      74.547   4.517  52.685  1.00  0.00    -0.388 OA
ATOM     13  H   UNL     1      74.972   4.376  51.800  1.00  0.00     0.211 HD
ENDBRANCH   8  12
ENDBRANCH   1   8
BRANCH   1  14
ATOM     14  O   UNL     1      71.243   3.969  53.865  1.00  0.00    -0.388 OA
ATOM     15  H   UNL     1      71.522   3.018  53.808  1.00  0.00     0.211 HD
ENDBRANCH   1  14
TORSDOF 9
ENDMDL
MODEL 6
REMARK VINA RESULT:    -3.622     12.550     13.619
REMARK INTER + INTRA:          -5.279
REMARK INTER:                  -4.795
REMARK INTRA:                  -0.484
REMARK UNBOUND:                -0.282
REMARK SMILES OC[C@@H](O)[C@@H](O)[C@@H](O)CO
REMARK SMILES IDX 5 1 7 2 9 3 10 4 8 6 3 8 2 9 1 10 4 12 6 14
REMARK H PARENT 10 5 8 7 1 11 4 13 6 15
REMARK Flexibility Score: inf
ROOT
ATOM      1  C   UNL     1      82.976   4.503  63.787  1.00  0.00     0.176 C 
ENDROOT
BRANCH   1   2
ATOM      2  C   UNL     1      82.921   4.467  65.350  1.00  0.00     0.171 C 
BRANCH   2   3
ATOM      3  C   UNL     1      82.362   3.144  65.904  1.00  0.00     0.190 C 
BRANCH   3   4
ATOM      4  O   UNL     1      80.962   3.175  65.904  1.00  0.00    -0.394 OA
ATOM      5  H   UNL     1      80.663   2.231  65.832  1.00  0.00     0.210 HD
ENDBRANCH   3   4
ENDBRANCH   2   3
BRANCH   2   6
ATOM      6  O   UNL     1      82.181   5.550  65.852  1.00  0.00    -0.388 OA
ATOM      7  H   UNL     1      82.632   5.851  66.683  1.00  0.00     0.211 HD
ENDBRANCH   2   6
ENDBRANCH   1   2
BRANCH   1   8
ATOM      8  C   UNL     1      84.233   3.875  63.120  1.00  0.00     0.171 C 
BRANCH   8   9
ATOM      9  C   UNL     1      84.117   3.773  61.589  1.00  0.00     0.190 C 
BRANCH   9  10
ATOM     10  O   UNL     1      83.334   4.823  61.088  1.00  0.00    -0.394 OA
ATOM     11  H   UNL     1      83.922   5.622  61.043  1.00  0.00     0.210 HD
ENDBRANCH   9  10
ENDBRANCH   8   9
BRANCH   8  12
ATOM     12  O   UNL     1      85.388   4.595  63.471  1.00  0.00    -0.388 OA
ATOM     13  H   UNL     1      85.262   5.524  63.146  1.00  0.00     0.211 HD
ENDBRANCH   8  12
ENDBRANCH   1   8
BRANCH   1  14
ATOM     14  O   UNL     1      81.821   3.903  63.254  1.00  0.00    -0.388 OA
ATOM     15  H   UNL     1      81.035   4.388  63.620  1.00  0.00     0.211 HD
ENDBRANCH   1  14
TORSDOF 9
ENDMDL
MODEL 7
REMARK VINA RESULT:    -3.600     12.595     13.971
REMARK INTER + INTRA:          -5.249
REMARK INTER:                  -4.539
REMARK INTRA:                  -0.711
REMARK UNBOUND:                -0.282
REMARK SMILES OC[C@@H](O)[C@@H](O)[C@@H](O)CO
REMARK SMILES IDX 5 1 7 2 9 3 10 4 8 6 3 8 2 9 1 10 4 12 6 14
REMARK H PARENT 10 5 8 7 1 11 4 13 6 15
REMARK Flexibility Score: inf
ROOT
ATOM      1  C   UNL     1      72.517   4.223  54.083  1.00  0.00     0.176 C 
ENDROOT
BRANCH   1   2
ATOM      2  C   UNL     1      73.206   4.839  52.820  1.00  0.00     0.171 C 
BRANCH   2   3
ATOM      3  C   UNL     1      72.533   4.418  51.501  1.00  0.00     0.190 C 
BRANCH   3   4
ATOM      4  O   UNL     1      71.500   5.308  51.180  1.00  0.00    -0.394 OA
ATOM      5  H   UNL     1      71.340   5.208  50.206  1.00  0.00     0.210 HD
ENDBRANCH   3   4
ENDBRANCH   2   3
BRANCH   2   6
ATOM      6  O   UNL     1      74.573   4.517  52.786  1.00  0.00    -0.388 OA
ATOM      7  H   UNL     1      75.075   5.369  52.878  1.00  0.00     0.211 HD
ENDBRANCH   2   6
ENDBRANCH   1   2
BRANCH   1   8
ATOM      8  C   UNL     1      72.808   4.921  55.442  1.00  0.00     0.171 C 
BRANCH   8   9
ATOM      9  C   UNL     1      72.817   3.945  56.632  1.00  0.00     0.190 C 
BRANCH   9  10
ATOM     10  O   UNL     1      71.829   2.963  56.466  1.00  0.00    -0.394 OA
ATOM     11  H   UNL     1      71.610   2.939  55.498  1.00  0.00     0.210 HD
ENDBRANCH   9  10
ENDBRANCH   8   9
BRANCH   8  12
ATOM     12  O   UNL     1      74.024   5.623  55.385  1.00  0.00    -0.388 OA
ATOM     13  H   UNL     1      73.980   6.340  56.070  1.00  0.00     0.211 HD
ENDBRANCH   8  12
ENDBRANCH   1   8
BRANCH   1  14
ATOM     14  O   UNL     1      71.127   4.158  53.885  1.00  0.00    -0.388 OA
ATOM     15  H   UNL     1      70.904   3.224  53.630  1.00  0.00     0.211 HD
ENDBRANCH   1  14
TORSDOF 9
ENDMDL
MODEL 8
REMARK VINA RESULT:    -3.533     12.238     13.287
REMARK INTER + INTRA:          -5.157
REMARK INTER:                  -4.635
REMARK INTRA:                  -0.521
REMARK UNBOUND:                -0.282
REMARK SMILES OC[C@@H](O)[C@@H](O)[C@@H](O)CO
REMARK SMILES IDX 5 1 7 2 9 3 10 4 8 6 3 8 2 9 1 10 4 12 6 14
REMARK H PARENT 10 5 8 7 1 11 4 13 6 15
REMARK Flexibility Score: inf
ROOT
ATOM      1  C   UNL     1      81.511   3.254  51.088  1.00  0.00     0.176 C 
ENDROOT
BRANCH   1   2
ATOM      2  C   UNL     1      80.183   3.400  51.902  1.00  0.00     0.171 C 
BRANCH   2   3
ATOM      3  C   UNL     1      80.374   3.174  53.413  1.00  0.00     0.190 C 
BRANCH   3   4
ATOM      4  O   UNL     1      80.822   4.351  54.024  1.00  0.00    -0.394 OA
ATOM      5  H   UNL     1      81.553   4.083  54.640  1.00  0.00     0.210 HD
ENDBRANCH   3   4
ENDBRANCH   2   3
BRANCH   2   6
ATOM      6  O   UNL     1      79.194   2.534  51.407  1.00  0.00    -0.388 OA
ATOM      7  H   UNL     1      78.451   3.102  51.071  1.00  0.00     0.211 HD
ENDBRANCH   2   6
ENDBRANCH   1   2
BRANCH   1   8
ATOM      8  C   UNL     1      81.505   3.826  49.641  1.00  0.00     0.171 C 
BRANCH   8   9
ATOM      9  C   UNL     1      81.795   2.759  48.570  1.00  0.00     0.190 C 
BRANCH   9  10
ATOM     10  O   UNL     1      83.110   2.886  48.097  1.00  0.00    -0.394 OA
ATOM     11  H   UNL     1      83.216   3.827  47.798  1.00  0.00     0.210 HD
ENDBRANCH   9  10
ENDBRANCH   8   9
BRANCH   8  12
ATOM     12  O   UNL     1      80.283   4.464  49.368  1.00  0.00    -0.388 OA
ATOM     13  H   UNL     1      79.740   3.835  48.825  1.00  0.00     0.211 HD
ENDBRANCH   8  12
ENDBRANCH   1   8
BRANCH   1  14
ATOM     14  O   UNL     1      82.577   3.826  51.805  1.00  0.00    -0.388 OA
ATOM     15  H   UNL     1      82.661   4.772  51.515  1.00  0.00     0.211 HD
ENDBRANCH   1  14
TORSDOF 9
ENDMDL
MODEL 9
REMARK VINA RESULT:    -3.516     12.776     13.961
REMARK INTER + INTRA:          -5.133
REMARK INTER:                  -4.629
REMARK INTRA:                  -0.504
REMARK UNBOUND:                -0.282
REMARK SMILES OC[C@@H](O)[C@@H](O)[C@@H](O)CO
REMARK SMILES IDX 5 1 7 2 9 3 10 4 8 6 3 8 2 9 1 10 4 12 6 14
REMARK H PARENT 10 5 8 7 1 11 4 13 6 15
REMARK Flexibility Score: inf
ROOT
ATOM      1  C   UNL     1      81.749   3.573  50.121  1.00  0.00     0.176 C 
ENDROOT
BRANCH   1   2
ATOM      2  C   UNL     1      81.865   2.975  51.562  1.00  0.00     0.171 C 
BRANCH   2   3
ATOM      3  C   UNL     1      80.601   3.198  52.411  1.00  0.00     0.190 C 
BRANCH   3   4
ATOM      4  O   UNL     1      80.671   4.434  53.066  1.00  0.00    -0.394 OA
ATOM      5  H   UNL     1      80.486   4.252  54.024  1.00  0.00     0.210 HD
ENDBRANCH   3   4
ENDBRANCH   2   3
BRANCH   2   6
ATOM      6  O   UNL     1      82.990   3.488  52.229  1.00  0.00    -0.388 OA
ATOM      7  H   UNL     1      83.753   2.888  52.019  1.00  0.00     0.211 HD
ENDBRANCH   2   6
ENDBRANCH   1   2
BRANCH   1   8
ATOM      8  C   UNL     1      81.902   2.572  48.939  1.00  0.00     0.171 C 
BRANCH   8   9
ATOM      9  C   UNL     1      80.672   2.537  48.016  1.00  0.00     0.190 C 
BRANCH   9  10
ATOM     10  O   UNL     1      79.592   1.919  48.663  1.00  0.00    -0.394 OA
ATOM     11  H   UNL     1      79.173   1.309  48.001  1.00  0.00     0.210 HD
ENDBRANCH   9  10
ENDBRANCH   8   9
BRANCH   8  12
ATOM     12  O   UNL     1      83.057   2.865  48.193  1.00  0.00    -0.388 OA
ATOM     13  H   UNL     1      83.370   3.762  48.480  1.00  0.00     0.211 HD
ENDBRANCH   8  12
ENDBRANCH   1   8
BRANCH   1  14
ATOM     14  O   UNL     1      80.532   4.264  49.986  1.00  0.00    -0.388 OA
ATOM     15  H   UNL     1      80.686   5.201  50.278  1.00  0.00     0.211 HD
ENDBRANCH   1  14
TORSDOF 9
ENDMDL
