MODEL 1
REMARK VINA RESULT:    -3.967      0.000      0.000
REMARK INTER + INTRA:          -3.967
REMARK INTER:                  -3.967
REMARK INTRA:                   0.000
REMARK UNBOUND:                 0.000
REMARK SMILES O=c1ccc2ccc3occc3c2o1
REMARK SMILES IDX 6 1 7 2 8 3 12 4 11 5 10 6 9 7 13 8 5 9 4 10 3 11 2 12 1 13
REMARK SMILES IDX 14 14
REMARK H PARENT
REMARK Flexibility Score: inf
ROOT
ATOM      1  C   UNL     1       8.372 -33.074  15.019  1.00  0.00     0.016 A 
ATOM      2  C   UNL     1       7.727 -32.851  16.251  1.00  0.00     0.048 A 
ATOM      3  C   UNL     1       8.373 -32.056  17.195  1.00  0.00     0.137 A 
ATOM      4  C   UNL     1       9.600 -31.498  16.954  1.00  0.00     0.064 A 
ATOM      5  C   UNL     1       9.944 -30.785  18.079  1.00  0.00     0.054 A 
ATOM      6  C   UNL     1       8.873 -30.965  18.948  1.00  0.00     0.196 A 
ATOM      7  O   UNL     1       7.950 -31.729  18.392  1.00  0.00    -0.464 OA
ATOM      8  C   UNL     1      10.270 -31.695  15.748  1.00  0.00     0.149 A 
ATOM      9  C   UNL     1       9.641 -32.499  14.764  1.00  0.00     0.018 A 
ATOM     10  C   UNL     1      10.308 -32.700  13.552  1.00  0.00     0.019 A 
ATOM     11  C   UNL     1      11.558 -32.110  13.352  1.00  0.00     0.094 A 
ATOM     12  C   UNL     1      12.114 -31.329  14.373  1.00  0.00     0.336 A 
ATOM     13  O   UNL     1      13.240 -30.791  14.208  1.00  0.00    -0.246 OA
ATOM     14  O   UNL     1      11.462 -31.151  15.519  1.00  0.00    -0.422 OA
ENDROOT
TORSDOF 0
ENDMDL
MODEL 2
REMARK VINA RESULT:    -3.927      2.259      3.942
REMARK INTER + INTRA:          -3.927
REMARK INTER:                  -3.927
REMARK INTRA:                   0.000
REMARK UNBOUND:                 0.000
REMARK SMILES O=c1ccc2ccc3occc3c2o1
REMARK SMILES IDX 6 1 7 2 8 3 12 4 11 5 10 6 9 7 13 8 5 9 4 10 3 11 2 12 1 13
REMARK SMILES IDX 14 14
REMARK H PARENT
REMARK Flexibility Score: inf
ROOT
ATOM      1  C   UNL     1       9.988 -32.468  14.188  1.00  0.00     0.016 A 
ATOM      2  C   UNL     1      10.388 -31.539  15.168  1.00  0.00     0.048 A 
ATOM      3  C   UNL     1       9.784 -31.607  16.422  1.00  0.00     0.137 A 
ATOM      4  C   UNL     1       8.828 -32.542  16.714  1.00  0.00     0.064 A 
ATOM      5  C   UNL     1       8.448 -32.333  18.020  1.00  0.00     0.054 A 
ATOM      6  C   UNL     1       9.221 -31.255  18.440  1.00  0.00     0.196 A 
ATOM      7  O   UNL     1      10.009 -30.844  17.463  1.00  0.00    -0.464 OA
ATOM      8  C   UNL     1       8.406 -33.478  15.772  1.00  0.00     0.149 A 
ATOM      9  C   UNL     1       9.000 -33.437  14.485  1.00  0.00     0.018 A 
ATOM     10  C   UNL     1       8.581 -34.373  13.536  1.00  0.00     0.019 A 
ATOM     11  C   UNL     1       7.602 -35.308  13.881  1.00  0.00     0.094 A 
ATOM     12  C   UNL     1       7.063 -35.285  15.173  1.00  0.00     0.336 A 
ATOM     13  O   UNL     1       6.180 -36.121  15.499  1.00  0.00    -0.246 OA
ATOM     14  O   UNL     1       7.476 -34.385  16.062  1.00  0.00    -0.422 OA
ENDROOT
TORSDOF 0
ENDMDL
MODEL 3
REMARK VINA RESULT:    -3.919      2.206      4.475
REMARK INTER + INTRA:          -3.919
REMARK INTER:                  -3.919
REMARK INTRA:                   0.000
REMARK UNBOUND:                 0.000
REMARK SMILES O=c1ccc2ccc3occc3c2o1
REMARK SMILES IDX 6 1 7 2 8 3 12 4 11 5 10 6 9 7 13 8 5 9 4 10 3 11 2 12 1 13
REMARK SMILES IDX 14 14
REMARK H PARENT
REMARK Flexibility Score: inf
ROOT
ATOM      1  C   UNL     1       9.977 -31.932  13.928  1.00  0.00     0.016 A 
ATOM      2  C   UNL     1       9.195 -32.683  13.031  1.00  0.00     0.048 A 
ATOM      3  C   UNL     1       8.084 -33.356  13.534  1.00  0.00     0.137 A 
ATOM      4  C   UNL     1       7.744 -33.302  14.860  1.00  0.00     0.064 A 
ATOM      5  C   UNL     1       6.611 -34.068  15.015  1.00  0.00     0.054 A 
ATOM      6  C   UNL     1       6.335 -34.546  13.738  1.00  0.00     0.196 A 
ATOM      7  O   UNL     1       7.232 -34.104  12.875  1.00  0.00    -0.464 OA
ATOM      8  C   UNL     1       8.492 -32.570  15.779  1.00  0.00     0.149 A 
ATOM      9  C   UNL     1       9.631 -31.872  15.300  1.00  0.00     0.018 A 
ATOM     10  C   UNL     1      10.386 -31.136  16.217  1.00  0.00     0.019 A 
ATOM     11  C   UNL     1      10.000 -31.111  17.559  1.00  0.00     0.094 A 
ATOM     12  C   UNL     1       8.862 -31.826  17.955  1.00  0.00     0.336 A 
ATOM     13  O   UNL     1       8.502 -31.814  19.161  1.00  0.00    -0.246 OA
ATOM     14  O   UNL     1       8.158 -32.521  17.066  1.00  0.00    -0.422 OA
ENDROOT
TORSDOF 0
ENDMDL
MODEL 4
REMARK VINA RESULT:    -3.845      2.084      3.061
REMARK INTER + INTRA:          -3.845
REMARK INTER:                  -3.845
REMARK INTRA:                   0.000
REMARK UNBOUND:                 0.000
REMARK SMILES O=c1ccc2ccc3occc3c2o1
REMARK SMILES IDX 6 1 7 2 8 3 12 4 11 5 10 6 9 7 13 8 5 9 4 10 3 11 2 12 1 13
REMARK SMILES IDX 14 14
REMARK H PARENT
REMARK Flexibility Score: inf
ROOT
ATOM      1  C   UNL     1      11.308 -31.125  15.305  1.00  0.00     0.016 A 
ATOM      2  C   UNL     1      11.115 -30.671  16.624  1.00  0.00     0.048 A 
ATOM      3  C   UNL     1       9.996 -31.126  17.317  1.00  0.00     0.137 A 
ATOM      4  C   UNL     1       9.096 -31.989  16.752  1.00  0.00     0.064 A 
ATOM      5  C   UNL     1       8.125 -32.231  17.696  1.00  0.00     0.054 A 
ATOM      6  C   UNL     1       8.514 -31.478  18.799  1.00  0.00     0.196 A 
ATOM      7  O   UNL     1       9.636 -30.828  18.541  1.00  0.00    -0.464 OA
ATOM      8  C   UNL     1       9.251 -32.461  15.450  1.00  0.00     0.149 A 
ATOM      9  C   UNL     1      10.380 -32.018  14.715  1.00  0.00     0.018 A 
ATOM     10  C   UNL     1      10.541 -32.487  13.408  1.00  0.00     0.019 A 
ATOM     11  C   UNL     1       9.597 -33.367  12.875  1.00  0.00     0.094 A 
ATOM     12  C   UNL     1       8.508 -33.759  13.664  1.00  0.00     0.336 A 
ATOM     13  O   UNL     1       7.648 -34.551  13.197  1.00  0.00    -0.246 OA
ATOM     14  O   UNL     1       8.373 -33.300  14.906  1.00  0.00    -0.422 OA
ENDROOT
TORSDOF 0
ENDMDL
MODEL 5
REMARK VINA RESULT:    -3.823      1.796      3.379
REMARK INTER + INTRA:          -3.823
REMARK INTER:                  -3.823
REMARK INTRA:                   0.000
REMARK UNBOUND:                 0.000
REMARK SMILES O=c1ccc2ccc3occc3c2o1
REMARK SMILES IDX 6 1 7 2 8 3 12 4 11 5 10 6 9 7 13 8 5 9 4 10 3 11 2 12 1 13
REMARK SMILES IDX 14 14
REMARK H PARENT
REMARK Flexibility Score: inf
ROOT
ATOM      1  C   UNL     1       8.402 -31.877  16.679  1.00  0.00     0.016 A 
ATOM      2  C   UNL     1       7.386 -32.622  16.048  1.00  0.00     0.048 A 
ATOM      3  C   UNL     1       7.630 -33.108  14.766  1.00  0.00     0.137 A 
ATOM      4  C   UNL     1       8.814 -32.880  14.118  1.00  0.00     0.064 A 
ATOM      5  C   UNL     1       8.723 -33.491  12.888  1.00  0.00     0.054 A 
ATOM      6  C   UNL     1       7.454 -34.062  12.875  1.00  0.00     0.196 A 
ATOM      7  O   UNL     1       6.825 -33.815  14.011  1.00  0.00    -0.464 OA
ATOM      8  C   UNL     1       9.843 -32.149  14.708  1.00  0.00     0.149 A 
ATOM      9  C   UNL     1       9.629 -31.639  16.014  1.00  0.00     0.018 A 
ATOM     10  C   UNL     1      10.658 -30.904  16.611  1.00  0.00     0.019 A 
ATOM     11  C   UNL     1      11.848 -30.699  15.911  1.00  0.00     0.094 A 
ATOM     12  C   UNL     1      11.984 -31.235  14.624  1.00  0.00     0.336 A 
ATOM     13  O   UNL     1      13.052 -31.058  13.980  1.00  0.00    -0.246 OA
ATOM     14  O   UNL     1      10.993 -31.931  14.074  1.00  0.00    -0.422 OA
ENDROOT
TORSDOF 0
ENDMDL
MODEL 6
REMARK VINA RESULT:    -3.775      2.020      4.371
REMARK INTER + INTRA:          -3.775
REMARK INTER:                  -3.775
REMARK INTRA:                   0.000
REMARK UNBOUND:                 0.000
REMARK SMILES O=c1ccc2ccc3occc3c2o1
REMARK SMILES IDX 6 1 7 2 8 3 12 4 11 5 10 6 9 7 13 8 5 9 4 10 3 11 2 12 1 13
REMARK SMILES IDX 14 14
REMARK H PARENT
REMARK Flexibility Score: inf
ROOT
ATOM      1  C   UNL     1       9.558 -31.133  17.055  1.00  0.00     0.016 A 
ATOM      2  C   UNL     1      10.880 -30.681  16.876  1.00  0.00     0.048 A 
ATOM      3  C   UNL     1      11.534 -31.017  15.693  1.00  0.00     0.137 A 
ATOM      4  C   UNL     1      10.929 -31.764  14.718  1.00  0.00     0.064 A 
ATOM      5  C   UNL     1      11.842 -31.910  13.700  1.00  0.00     0.054 A 
ATOM      6  C   UNL     1      12.968 -31.222  14.139  1.00  0.00     0.196 A 
ATOM      7  O   UNL     1      12.754 -30.700  15.334  1.00  0.00    -0.464 OA
ATOM      8  C   UNL     1       9.623 -32.230  14.857  1.00  0.00     0.149 A 
ATOM      9  C   UNL     1       8.927 -31.906  16.050  1.00  0.00     0.018 A 
ATOM     10  C   UNL     1       7.617 -32.371  16.195  1.00  0.00     0.019 A 
ATOM     11  C   UNL     1       7.042 -33.129  15.173  1.00  0.00     0.094 A 
ATOM     12  C   UNL     1       7.794 -33.408  14.024  1.00  0.00     0.336 A 
ATOM     13  O   UNL     1       7.289 -34.091  13.095  1.00  0.00    -0.246 OA
ATOM     14  O   UNL     1       9.039 -32.956  13.907  1.00  0.00    -0.422 OA
ENDROOT
TORSDOF 0
ENDMDL
MODEL 7
REMARK VINA RESULT:    -3.725      2.638      3.420
REMARK INTER + INTRA:          -3.725
REMARK INTER:                  -3.725
REMARK INTRA:                   0.000
REMARK UNBOUND:                 0.000
REMARK SMILES O=c1ccc2ccc3occc3c2o1
REMARK SMILES IDX 6 1 7 2 8 3 12 4 11 5 10 6 9 7 13 8 5 9 4 10 3 11 2 12 1 13
REMARK SMILES IDX 14 14
REMARK H PARENT
REMARK Flexibility Score: inf
ROOT
ATOM      1  C   UNL     1       9.118 -35.536  12.884  1.00  0.00     0.016 A 
ATOM      2  C   UNL     1       7.761 -35.623  13.253  1.00  0.00     0.048 A 
ATOM      3  C   UNL     1       7.205 -34.560  13.961  1.00  0.00     0.137 A 
ATOM      4  C   UNL     1       7.937 -33.453  14.299  1.00  0.00     0.064 A 
ATOM      5  C   UNL     1       7.094 -32.608  14.984  1.00  0.00     0.054 A 
ATOM      6  C   UNL     1       5.876 -33.280  15.015  1.00  0.00     0.196 A 
ATOM      7  O   UNL     1       5.975 -34.443  14.396  1.00  0.00    -0.464 OA
ATOM      8  C   UNL     1       9.281 -33.329  13.951  1.00  0.00     0.149 A 
ATOM      9  C   UNL     1       9.879 -34.393  13.230  1.00  0.00     0.018 A 
ATOM     10  C   UNL     1      11.227 -34.275  12.879  1.00  0.00     0.019 A 
ATOM     11  C   UNL     1      11.932 -33.127  13.245  1.00  0.00     0.094 A 
ATOM     12  C   UNL     1      11.271 -32.118  13.957  1.00  0.00     0.336 A 
ATOM     13  O   UNL     1      11.894 -31.077  14.295  1.00  0.00    -0.246 OA
ATOM     14  O   UNL     1       9.987 -32.251  14.282  1.00  0.00    -0.422 OA
ENDROOT
TORSDOF 0
ENDMDL
MODEL 8
REMARK VINA RESULT:    -3.708      2.836      4.690
REMARK INTER + INTRA:          -3.708
REMARK INTER:                  -3.708
REMARK INTRA:                   0.000
REMARK UNBOUND:                 0.000
REMARK SMILES O=c1ccc2ccc3occc3c2o1
REMARK SMILES IDX 6 1 7 2 8 3 12 4 11 5 10 6 9 7 13 8 5 9 4 10 3 11 2 12 1 13
REMARK SMILES IDX 14 14
REMARK H PARENT
REMARK Flexibility Score: inf
ROOT
ATOM      1  C   UNL     1       8.009 -32.808  16.278  1.00  0.00     0.016 A 
ATOM      2  C   UNL     1       9.033 -31.848  16.166  1.00  0.00     0.048 A 
ATOM      3  C   UNL     1      10.007 -32.038  15.189  1.00  0.00     0.137 A 
ATOM      4  C   UNL     1       9.989 -33.120  14.350  1.00  0.00     0.064 A 
ATOM      5  C   UNL     1      11.079 -33.001  13.519  1.00  0.00     0.054 A 
ATOM      6  C   UNL     1      11.700 -31.823  13.922  1.00  0.00     0.196 A 
ATOM      7  O   UNL     1      11.036 -31.271  14.922  1.00  0.00    -0.464 OA
ATOM      8  C   UNL     1       8.994 -34.091  14.428  1.00  0.00     0.149 A 
ATOM      9  C   UNL     1       7.985 -33.929  15.412  1.00  0.00     0.018 A 
ATOM     10  C   UNL     1       6.984 -34.901  15.496  1.00  0.00     0.019 A 
ATOM     11  C   UNL     1       7.008 -35.986  14.619  1.00  0.00     0.094 A 
ATOM     12  C   UNL     1       8.037 -36.077  13.673  1.00  0.00     0.336 A 
ATOM     13  O   UNL     1       8.072 -37.050  12.875  1.00  0.00    -0.246 OA
ATOM     14  O   UNL     1       8.981 -35.141  13.610  1.00  0.00    -0.422 OA
ENDROOT
TORSDOF 0
ENDMDL
MODEL 9
REMARK VINA RESULT:    -3.367      2.897      5.504
REMARK INTER + INTRA:          -3.367
REMARK INTER:                  -3.367
REMARK INTRA:                   0.000
REMARK UNBOUND:                 0.000
REMARK SMILES O=c1ccc2ccc3occc3c2o1
REMARK SMILES IDX 6 1 7 2 8 3 12 4 11 5 10 6 9 7 13 8 5 9 4 10 3 11 2 12 1 13
REMARK SMILES IDX 14 14
REMARK H PARENT
REMARK Flexibility Score: inf
ROOT
ATOM      1  C   UNL     1       9.112 -31.887  14.709  1.00  0.00     0.016 A 
ATOM      2  C   UNL     1      10.441 -31.897  14.244  1.00  0.00     0.048 A 
ATOM      3  C   UNL     1      10.947 -33.089  13.731  1.00  0.00     0.137 A 
ATOM      4  C   UNL     1      10.193 -34.230  13.671  1.00  0.00     0.064 A 
ATOM      5  C   UNL     1      10.988 -35.208  13.119  1.00  0.00     0.054 A 
ATOM      6  C   UNL     1      12.202 -34.575  12.875  1.00  0.00     0.196 A 
ATOM      7  O   UNL     1      12.147 -33.310  13.252  1.00  0.00    -0.464 OA
ATOM      8  C   UNL     1       8.875 -34.261  14.120  1.00  0.00     0.149 A 
ATOM      9  C   UNL     1       8.326 -33.064  14.649  1.00  0.00     0.018 A 
ATOM     10  C   UNL     1       7.004 -33.089  15.102  1.00  0.00     0.019 A 
ATOM     11  C   UNL     1       6.274 -34.276  15.020  1.00  0.00     0.094 A 
ATOM     12  C   UNL     1       6.885 -35.417  14.485  1.00  0.00     0.336 A 
ATOM     13  O   UNL     1       6.240 -36.495  14.405  1.00  0.00    -0.246 OA
ATOM     14  O   UNL     1       8.145 -35.372  14.060  1.00  0.00    -0.422 OA
ENDROOT
TORSDOF 0
ENDMDL
