MODEL 1
REMARK VINA RESULT:    -6.516      0.000      0.000
REMARK INTER + INTRA:          -9.767
REMARK INTER:                  -8.802
REMARK INTRA:                  -0.965
REMARK UNBOUND:                -0.965
REMARK SMILES O=c1c(-c2ccc(O)cc2)coc2c([C@H]3O[C@H](CO)[C@@H](O)[C@@H](O)[C@@H]3O)c(O)ccc12
REMARK SMILES IDX 3 1 11 2 12 3 13 4 30 5 2 6 1 7 29 8 28 9 26 10 14 11 4 12
REMARK SMILES IDX 5 13 6 14 7 15 10 16 9 17 8 18 15 20 24 21 16 22 22 23 17 24
REMARK SMILES IDX 20 25 25 26 23 28 18 30 19 31 21 33 27 35
REMARK H PARENT 8 19 25 27 23 29 19 32 21 34 27 36
REMARK Flexibility Score: inf
ROOT
ATOM      1  C   UNL     1     162.802 172.370  76.616  1.00  0.00     0.065 A 
ATOM      2  C   UNL     1     163.314 172.543  75.302  1.00  0.00     0.208 A 
ATOM      3  O   UNL     1     164.176 173.538  75.028  1.00  0.00    -0.463 OA
ATOM      4  C   UNL     1     164.402 174.524  75.900  1.00  0.00     0.147 A 
ATOM      5  C   UNL     1     163.772 174.496  77.153  1.00  0.00     0.066 A 
ATOM      6  C   UNL     1     163.354 173.215  77.590  1.00  0.00     0.200 A 
ATOM      7  O   UNL     1     163.432 172.891  78.823  1.00  0.00    -0.288 OA
ATOM      8  C   UNL     1     162.800 175.513  77.242  1.00  0.00     0.020 A 
ATOM      9  C   UNL     1     162.828 176.620  76.379  1.00  0.00     0.047 A 
ATOM     10  C   UNL     1     163.962 176.836  75.577  1.00  0.00     0.125 A 
ATOM     11  C   UNL     1     164.872 175.762  75.405  1.00  0.00     0.069 A 
ENDROOT
BRANCH   1  12
ATOM     12  C   UNL     1     161.537 171.585  76.875  1.00  0.00    -0.011 A 
ATOM     13  C   UNL     1     161.594 170.199  77.196  1.00  0.00     0.013 A 
ATOM     14  C   UNL     1     160.506 169.561  77.825  1.00  0.00     0.047 A 
ATOM     15  C   UNL     1     159.317 170.255  78.067  1.00  0.00     0.115 A 
ATOM     16  C   UNL     1     160.296 172.242  77.070  1.00  0.00     0.013 A 
ATOM     17  C   UNL     1     159.215 171.600  77.703  1.00  0.00     0.047 A 
BRANCH  15  18
ATOM     18  O   UNL     1     158.376 169.669  78.910  1.00  0.00    -0.508 OA
ATOM     19  H   UNL     1     158.490 168.723  79.282  1.00  0.00     0.293 HD
ENDBRANCH  15  18
ENDBRANCH   1  12
BRANCH  11  20
ATOM     20  C   UNL     1     165.938 175.788  74.344  1.00  0.00     0.188 C 
ATOM     21  C   UNL     1     165.427 175.314  72.987  1.00  0.00     0.179 C 
ATOM     22  O   UNL     1     167.070 174.992  74.712  1.00  0.00    -0.362 OA
ATOM     23  C   UNL     1     166.478 175.584  71.877  1.00  0.00     0.177 C 
ATOM     24  C   UNL     1     168.147 175.133  73.773  1.00  0.00     0.176 C 
ATOM     25  C   UNL     1     167.828 176.010  72.511  1.00  0.00     0.177 C 
BRANCH  21  26
ATOM     26  O   UNL     1     164.169 175.884  72.674  1.00  0.00    -0.387 OA
ATOM     27  H   UNL     1     163.595 175.783  73.492  1.00  0.00     0.211 HD
ENDBRANCH  21  26
BRANCH  23  28
ATOM     28  O   UNL     1     166.618 174.437  71.049  1.00  0.00    -0.387 OA
ATOM     29  H   UNL     1     167.228 174.721  70.307  1.00  0.00     0.211 HD
ENDBRANCH  23  28
BRANCH  24  30
ATOM     30  C   UNL     1     169.413 175.652  74.512  1.00  0.00     0.191 C 
BRANCH  30  31
ATOM     31  O   UNL     1     169.734 176.980  74.147  1.00  0.00    -0.394 OA
ATOM     32  H   UNL     1     169.695 177.093  73.148  1.00  0.00     0.210 HD
ENDBRANCH  30  31
ENDBRANCH  24  30
BRANCH  25  33
ATOM     33  O   UNL     1     168.885 176.045  71.561  1.00  0.00    -0.388 OA
ATOM     34  H   UNL     1     169.673 175.599  71.999  1.00  0.00     0.211 HD
ENDBRANCH  25  33
ENDBRANCH  11  20
BRANCH  10  35
ATOM     35  O   UNL     1     164.150 178.035  74.891  1.00  0.00    -0.507 OA
ATOM     36  H   UNL     1     165.036 178.544  74.937  1.00  0.00     0.293 HD
ENDBRANCH  10  35
TORSDOF 9
ENDMDL
MODEL 2
REMARK VINA RESULT:    -6.252      0.851      2.132
REMARK INTER + INTRA:          -9.409
REMARK INTER:                  -8.079
REMARK INTRA:                  -1.330
REMARK UNBOUND:                -0.965
REMARK SMILES O=c1c(-c2ccc(O)cc2)coc2c([C@H]3O[C@H](CO)[C@@H](O)[C@@H](O)[C@@H]3O)c(O)ccc12
REMARK SMILES IDX 3 1 11 2 12 3 13 4 30 5 2 6 1 7 29 8 28 9 26 10 14 11 4 12
REMARK SMILES IDX 5 13 6 14 7 15 10 16 9 17 8 18 15 20 24 21 16 22 22 23 17 24
REMARK SMILES IDX 20 25 25 26 23 28 18 30 19 31 21 33 27 35
REMARK H PARENT 8 19 25 27 23 29 19 32 21 34 27 36
REMARK Flexibility Score: inf
ROOT
ATOM      1  C   UNL     1     163.063 172.125  76.933  1.00  0.00     0.065 A 
ATOM      2  C   UNL     1     163.587 172.178  75.614  1.00  0.00     0.208 A 
ATOM      3  O   UNL     1     164.363 173.205  75.225  1.00  0.00    -0.463 OA
ATOM      4  C   UNL     1     164.479 174.310  75.967  1.00  0.00     0.147 A 
ATOM      5  C   UNL     1     163.825 174.382  77.205  1.00  0.00     0.066 A 
ATOM      6  C   UNL     1     163.514 173.133  77.797  1.00  0.00     0.200 A 
ATOM      7  O   UNL     1     163.592 172.976  79.063  1.00  0.00    -0.288 OA
ATOM      8  C   UNL     1     162.764 175.307  77.153  1.00  0.00     0.020 A 
ATOM      9  C   UNL     1     162.712 176.296  76.156  1.00  0.00     0.047 A 
ATOM     10  C   UNL     1     163.840 176.512  75.346  1.00  0.00     0.125 A 
ATOM     11  C   UNL     1     164.847 175.513  75.324  1.00  0.00     0.069 A 
ENDROOT
BRANCH   1  12
ATOM     12  C   UNL     1     161.868 171.265  77.276  1.00  0.00    -0.011 A 
ATOM     13  C   UNL     1     162.041 169.930  77.738  1.00  0.00     0.013 A 
ATOM     14  C   UNL     1     161.008 169.270  78.433  1.00  0.00     0.047 A 
ATOM     15  C   UNL     1     159.762 169.881  78.605  1.00  0.00     0.115 A 
ATOM     16  C   UNL     1     160.574 171.831  77.405  1.00  0.00     0.013 A 
ATOM     17  C   UNL     1     159.548 171.167  78.104  1.00  0.00     0.047 A 
BRANCH  15  18
ATOM     18  O   UNL     1     158.869 169.307  79.506  1.00  0.00    -0.508 OA
ATOM     19  H   UNL     1     157.962 168.934  79.214  1.00  0.00     0.293 HD
ENDBRANCH  15  18
ENDBRANCH   1  12
BRANCH  11  20
ATOM     20  C   UNL     1     165.931 175.504  74.280  1.00  0.00     0.188 C 
ATOM     21  C   UNL     1     167.109 176.400  74.649  1.00  0.00     0.179 C 
ATOM     22  O   UNL     1     165.434 175.904  72.998  1.00  0.00    -0.362 OA
ATOM     23  C   UNL     1     168.298 176.176  73.677  1.00  0.00     0.177 C 
ATOM     24  C   UNL     1     166.428 175.754  71.973  1.00  0.00     0.176 C 
ATOM     25  C   UNL     1     167.848 175.309  72.472  1.00  0.00     0.177 C 
BRANCH  21  26
ATOM     26  O   UNL     1     167.492 176.228  76.001  1.00  0.00    -0.387 OA
ATOM     27  H   UNL     1     167.141 175.332  76.290  1.00  0.00     0.211 HD
ENDBRANCH  21  26
BRANCH  23  28
ATOM     28  O   UNL     1     168.831 177.427  73.263  1.00  0.00    -0.387 OA
ATOM     29  H   UNL     1     168.416 178.105  73.873  1.00  0.00     0.211 HD
ENDBRANCH  23  28
BRANCH  24  30
ATOM     30  C   UNL     1     165.894 174.793  70.872  1.00  0.00     0.191 C 
BRANCH  30  31
ATOM     31  O   UNL     1     166.362 175.147  69.585  1.00  0.00    -0.394 OA
ATOM     32  H   UNL     1     166.067 174.470  68.902  1.00  0.00     0.210 HD
ENDBRANCH  30  31
ENDBRANCH  24  30
BRANCH  25  33
ATOM     33  O   UNL     1     168.825 175.265  71.441  1.00  0.00    -0.388 OA
ATOM     34  H   UNL     1     169.715 175.163  71.900  1.00  0.00     0.211 HD
ENDBRANCH  25  33
ENDBRANCH  11  20
BRANCH  10  35
ATOM     35  O   UNL     1     163.936 177.627  74.515  1.00  0.00    -0.507 OA
ATOM     36  H   UNL     1     163.103 178.085  74.137  1.00  0.00     0.293 HD
ENDBRANCH  10  35
TORSDOF 9
ENDMDL
MODEL 3
REMARK VINA RESULT:    -6.094      2.644      8.230
REMARK INTER + INTRA:          -9.196
REMARK INTER:                  -7.853
REMARK INTRA:                  -1.343
REMARK UNBOUND:                -0.965
REMARK SMILES O=c1c(-c2ccc(O)cc2)coc2c([C@H]3O[C@H](CO)[C@@H](O)[C@@H](O)[C@@H]3O)c(O)ccc12
REMARK SMILES IDX 3 1 11 2 12 3 13 4 30 5 2 6 1 7 29 8 28 9 26 10 14 11 4 12
REMARK SMILES IDX 5 13 6 14 7 15 10 16 9 17 8 18 15 20 24 21 16 22 22 23 17 24
REMARK SMILES IDX 20 25 25 26 23 28 18 30 19 31 21 33 27 35
REMARK H PARENT 8 19 25 27 23 29 19 32 21 34 27 36
REMARK Flexibility Score: inf
ROOT
ATOM      1  C   UNL     1     164.483 175.390  74.550  1.00  0.00     0.065 A 
ATOM      2  C   UNL     1     163.784 174.191  74.246  1.00  0.00     0.208 A 
ATOM      3  O   UNL     1     162.559 173.964  74.751  1.00  0.00    -0.463 OA
ATOM      4  C   UNL     1     162.055 174.729  75.723  1.00  0.00     0.147 A 
ATOM      5  C   UNL     1     162.790 175.827  76.191  1.00  0.00     0.066 A 
ATOM      6  C   UNL     1     163.756 176.335  75.288  1.00  0.00     0.200 A 
ATOM      7  O   UNL     1     163.976 177.591  75.210  1.00  0.00    -0.288 OA
ATOM      8  C   UNL     1     163.253 175.592  77.501  1.00  0.00     0.020 A 
ATOM      9  C   UNL     1     162.658 174.615  78.316  1.00  0.00     0.047 A 
ATOM     10  C   UNL     1     161.446 174.030  77.911  1.00  0.00     0.125 A 
ATOM     11  C   UNL     1     161.053 174.180  76.556  1.00  0.00     0.069 A 
ENDROOT
BRANCH   1  12
ATOM     12  C   UNL     1     165.981 175.496  74.386  1.00  0.00    -0.011 A 
ATOM     13  C   UNL     1     166.566 175.620  73.094  1.00  0.00     0.013 A 
ATOM     14  C   UNL     1     167.875 176.118  72.941  1.00  0.00     0.047 A 
ATOM     15  C   UNL     1     168.657 176.419  74.060  1.00  0.00     0.115 A 
ATOM     16  C   UNL     1     166.822 175.744  75.501  1.00  0.00     0.013 A 
ATOM     17  C   UNL     1     168.127 176.246  75.340  1.00  0.00     0.047 A 
BRANCH  15  18
ATOM     18  O   UNL     1     169.832 177.140  73.863  1.00  0.00    -0.508 OA
ATOM     19  H   UNL     1     170.552 176.842  73.199  1.00  0.00     0.293 HD
ENDBRANCH  15  18
ENDBRANCH   1  12
BRANCH  11  20
ATOM     20  C   UNL     1     159.949 173.353  75.955  1.00  0.00     0.188 C 
ATOM     21  C   UNL     1     158.563 173.919  76.252  1.00  0.00     0.179 C 
ATOM     22  O   UNL     1     159.997 171.995  76.409  1.00  0.00    -0.362 OA
ATOM     23  C   UNL     1     157.478 173.186  75.420  1.00  0.00     0.177 C 
ATOM     24  C   UNL     1     159.039 171.173  75.726  1.00  0.00     0.176 C 
ATOM     25  C   UNL     1     158.084 171.931  74.738  1.00  0.00     0.177 C 
BRANCH  21  26
ATOM     26  O   UNL     1     158.519 175.321  76.059  1.00  0.00    -0.387 OA
ATOM     27  H   UNL     1     157.910 175.691  76.767  1.00  0.00     0.211 HD
ENDBRANCH  21  26
BRANCH  23  28
ATOM     28  O   UNL     1     156.369 172.857  76.247  1.00  0.00    -0.387 OA
ATOM     29  H   UNL     1     155.734 172.362  75.651  1.00  0.00     0.211 HD
ENDBRANCH  23  28
BRANCH  24  30
ATOM     30  C   UNL     1     159.778 170.007  75.007  1.00  0.00     0.191 C 
BRANCH  30  31
ATOM     31  O   UNL     1     159.855 170.208  73.609  1.00  0.00    -0.394 OA
ATOM     32  H   UNL     1     159.618 169.364  73.116  1.00  0.00     0.210 HD
ENDBRANCH  30  31
ENDBRANCH  24  30
BRANCH  25  33
ATOM     33  O   UNL     1     157.090 171.098  74.156  1.00  0.00    -0.388 OA
ATOM     34  H   UNL     1     157.339 170.153  74.395  1.00  0.00     0.211 HD
ENDBRANCH  25  33
ENDBRANCH  11  20
BRANCH  10  35
ATOM     35  O   UNL     1     160.691 173.244  78.780  1.00  0.00    -0.507 OA
ATOM     36  H   UNL     1     160.824 172.232  78.839  1.00  0.00     0.293 HD
ENDBRANCH  10  35
TORSDOF 9
ENDMDL
MODEL 4
REMARK VINA RESULT:    -5.891      3.134      8.048
REMARK INTER + INTRA:          -8.923
REMARK INTER:                  -7.850
REMARK INTRA:                  -1.072
REMARK UNBOUND:                -0.965
REMARK SMILES O=c1c(-c2ccc(O)cc2)coc2c([C@H]3O[C@H](CO)[C@@H](O)[C@@H](O)[C@@H]3O)c(O)ccc12
REMARK SMILES IDX 3 1 11 2 12 3 13 4 30 5 2 6 1 7 29 8 28 9 26 10 14 11 4 12
REMARK SMILES IDX 5 13 6 14 7 15 10 16 9 17 8 18 15 20 24 21 16 22 22 23 17 24
REMARK SMILES IDX 20 25 25 26 23 28 18 30 19 31 21 33 27 35
REMARK H PARENT 8 19 25 27 23 29 19 32 21 34 27 36
REMARK Flexibility Score: inf
ROOT
ATOM      1  C   UNL     1     166.799 173.475  70.372  1.00  0.00     0.065 A 
ATOM      2  C   UNL     1     166.267 172.833  71.522  1.00  0.00     0.208 A 
ATOM      3  O   UNL     1     165.780 173.555  72.547  1.00  0.00    -0.463 OA
ATOM      4  C   UNL     1     165.985 174.873  72.628  1.00  0.00     0.147 A 
ATOM      5  C   UNL     1     166.671 175.531  71.599  1.00  0.00     0.066 A 
ATOM      6  C   UNL     1     166.658 174.870  70.346  1.00  0.00     0.200 A 
ATOM      7  O   UNL     1     166.579 175.537  69.259  1.00  0.00    -0.288 OA
ATOM      8  C   UNL     1     167.938 175.960  72.042  1.00  0.00     0.020 A 
ATOM      9  C   UNL     1     168.220 176.094  73.411  1.00  0.00     0.047 A 
ATOM     10  C   UNL     1     167.166 176.025  74.338  1.00  0.00     0.125 A 
ATOM     11  C   UNL     1     165.930 175.482  73.903  1.00  0.00     0.069 A 
ENDROOT
BRANCH   1  12
ATOM     12  C   UNL     1     167.732 172.756  69.425  1.00  0.00    -0.011 A 
ATOM     13  C   UNL     1     168.990 172.266  69.874  1.00  0.00     0.013 A 
ATOM     14  C   UNL     1     169.674 171.268  69.152  1.00  0.00     0.047 A 
ATOM     15  C   UNL     1     169.172 170.802  67.933  1.00  0.00     0.115 A 
ATOM     16  C   UNL     1     167.284 172.314  68.154  1.00  0.00     0.013 A 
ATOM     17  C   UNL     1     167.970 171.314  67.439  1.00  0.00     0.047 A 
BRANCH  15  18
ATOM     18  O   UNL     1     169.737 169.651  67.389  1.00  0.00    -0.508 OA
ATOM     19  H   UNL     1     170.294 168.999  67.947  1.00  0.00     0.293 HD
ENDBRANCH  15  18
ENDBRANCH   1  12
BRANCH  11  20
ATOM     20  C   UNL     1     164.851 175.088  74.875  1.00  0.00     0.188 C 
ATOM     21  C   UNL     1     163.964 176.264  75.276  1.00  0.00     0.179 C 
ATOM     22  O   UNL     1     165.397 174.500  76.062  1.00  0.00    -0.362 OA
ATOM     23  C   UNL     1     162.730 175.775  76.078  1.00  0.00     0.177 C 
ATOM     24  C   UNL     1     164.368 173.991  76.924  1.00  0.00     0.176 C 
ATOM     25  C   UNL     1     162.897 174.280  76.460  1.00  0.00     0.177 C 
BRANCH  21  26
ATOM     26  O   UNL     1     163.591 177.042  74.153  1.00  0.00    -0.387 OA
ATOM     27  H   UNL     1     163.530 176.412  73.373  1.00  0.00     0.211 HD
ENDBRANCH  21  26
BRANCH  23  28
ATOM     28  O   UNL     1     162.535 176.596  77.222  1.00  0.00    -0.387 OA
ATOM     29  H   UNL     1     163.390 177.109  77.326  1.00  0.00     0.211 HD
ENDBRANCH  23  28
BRANCH  24  30
ATOM     30  C   UNL     1     164.594 172.469  77.155  1.00  0.00     0.191 C 
BRANCH  30  31
ATOM     31  O   UNL     1     165.506 172.221  78.208  1.00  0.00    -0.394 OA
ATOM     32  H   UNL     1     165.086 171.636  78.910  1.00  0.00     0.210 HD
ENDBRANCH  30  31
ENDBRANCH  24  30
BRANCH  25  33
ATOM     33  O   UNL     1     161.912 173.844  77.387  1.00  0.00    -0.388 OA
ATOM     34  H   UNL     1     161.639 172.921  77.095  1.00  0.00     0.211 HD
ENDBRANCH  25  33
ENDBRANCH  11  20
BRANCH  10  35
ATOM     35  O   UNL     1     167.344 176.389  75.672  1.00  0.00    -0.507 OA
ATOM     36  H   UNL     1     166.587 176.805  76.219  1.00  0.00     0.293 HD
ENDBRANCH  10  35
TORSDOF 9
ENDMDL
MODEL 5
REMARK VINA RESULT:    -5.725      1.876      8.084
REMARK INTER + INTRA:          -8.698
REMARK INTER:                  -7.819
REMARK INTRA:                  -0.879
REMARK UNBOUND:                -0.965
REMARK SMILES O=c1c(-c2ccc(O)cc2)coc2c([C@H]3O[C@H](CO)[C@@H](O)[C@@H](O)[C@@H]3O)c(O)ccc12
REMARK SMILES IDX 3 1 11 2 12 3 13 4 30 5 2 6 1 7 29 8 28 9 26 10 14 11 4 12
REMARK SMILES IDX 5 13 6 14 7 15 10 16 9 17 8 18 15 20 24 21 16 22 22 23 17 24
REMARK SMILES IDX 20 25 25 26 23 28 18 30 19 31 21 33 27 35
REMARK H PARENT 8 19 25 27 23 29 19 32 21 34 27 36
REMARK Flexibility Score: inf
ROOT
ATOM      1  C   UNL     1     166.475 174.538  73.609  1.00  0.00     0.065 A 
ATOM      2  C   UNL     1     166.584 173.680  74.736  1.00  0.00     0.208 A 
ATOM      3  O   UNL     1     165.505 173.390  75.484  1.00  0.00    -0.463 OA
ATOM      4  C   UNL     1     164.361 174.065  75.345  1.00  0.00     0.147 A 
ATOM      5  C   UNL     1     164.258 175.058  74.361  1.00  0.00     0.066 A 
ATOM      6  C   UNL     1     165.170 174.936  73.284  1.00  0.00     0.200 A 
ATOM      7  O   UNL     1     164.815 175.235  72.094  1.00  0.00    -0.288 OA
ATOM      8  C   UNL     1     164.188 176.336  74.951  1.00  0.00     0.020 A 
ATOM      9  C   UNL     1     163.816 176.494  76.297  1.00  0.00     0.047 A 
ATOM     10  C   UNL     1     163.286 175.395  76.995  1.00  0.00     0.125 A 
ATOM     11  C   UNL     1     163.468 174.102  76.441  1.00  0.00     0.069 A 
ENDROOT
BRANCH   1  12
ATOM     12  C   UNL     1     167.683 175.231  73.022  1.00  0.00    -0.011 A 
ATOM     13  C   UNL     1     167.890 175.267  71.614  1.00  0.00     0.013 A 
ATOM     14  C   UNL     1     168.750 176.222  71.037  1.00  0.00     0.047 A 
ATOM     15  C   UNL     1     169.485 177.096  71.844  1.00  0.00     0.115 A 
ATOM     16  C   UNL     1     168.493 176.082  73.815  1.00  0.00     0.013 A 
ATOM     17  C   UNL     1     169.348 177.037  73.232  1.00  0.00     0.047 A 
BRANCH  15  18
ATOM     18  O   UNL     1     170.116 178.177  71.232  1.00  0.00    -0.508 OA
ATOM     19  H   UNL     1     169.636 179.063  71.057  1.00  0.00     0.293 HD
ENDBRANCH  15  18
ENDBRANCH   1  12
BRANCH  11  20
ATOM     20  C   UNL     1     163.211 172.853  77.241  1.00  0.00     0.188 C 
ATOM     21  C   UNL     1     161.737 172.460  77.259  1.00  0.00     0.179 C 
ATOM     22  O   UNL     1     163.667 172.989  78.592  1.00  0.00    -0.362 OA
ATOM     23  C   UNL     1     161.551 171.051  77.881  1.00  0.00     0.177 C 
ATOM     24  C   UNL     1     163.559 171.753  79.315  1.00  0.00     0.176 C 
ATOM     25  C   UNL     1     162.874 170.575  78.536  1.00  0.00     0.177 C 
BRANCH  21  26
ATOM     26  O   UNL     1     161.157 172.549  75.970  1.00  0.00    -0.387 OA
ATOM     27  H   UNL     1     161.917 172.574  75.313  1.00  0.00     0.211 HD
ENDBRANCH  21  26
BRANCH  23  28
ATOM     28  O   UNL     1     160.474 171.067  78.810  1.00  0.00    -0.387 OA
ATOM     29  H   UNL     1     160.485 170.163  79.241  1.00  0.00     0.211 HD
ENDBRANCH  23  28
BRANCH  24  30
ATOM     30  C   UNL     1     164.963 171.337  79.840  1.00  0.00     0.191 C 
BRANCH  30  31
ATOM     31  O   UNL     1     165.327 172.049  81.007  1.00  0.00    -0.394 OA
ATOM     32  H   UNL     1     165.185 173.037  80.878  1.00  0.00     0.210 HD
ENDBRANCH  30  31
ENDBRANCH  24  30
BRANCH  25  33
ATOM     33  O   UNL     1     162.700 169.401  79.318  1.00  0.00    -0.388 OA
ATOM     34  H   UNL     1     163.553 169.280  79.838  1.00  0.00     0.211 HD
ENDBRANCH  25  33
ENDBRANCH  11  20
BRANCH  10  35
ATOM     35  O   UNL     1     162.678 175.548  78.240  1.00  0.00    -0.507 OA
ATOM     36  H   UNL     1     162.347 176.460  78.565  1.00  0.00     0.293 HD
ENDBRANCH  10  35
TORSDOF 9
ENDMDL
MODEL 6
REMARK VINA RESULT:    -5.686      2.237      8.186
REMARK INTER + INTRA:          -8.646
REMARK INTER:                  -7.525
REMARK INTRA:                  -1.121
REMARK UNBOUND:                -0.965
REMARK SMILES O=c1c(-c2ccc(O)cc2)coc2c([C@H]3O[C@H](CO)[C@@H](O)[C@@H](O)[C@@H]3O)c(O)ccc12
REMARK SMILES IDX 3 1 11 2 12 3 13 4 30 5 2 6 1 7 29 8 28 9 26 10 14 11 4 12
REMARK SMILES IDX 5 13 6 14 7 15 10 16 9 17 8 18 15 20 24 21 16 22 22 23 17 24
REMARK SMILES IDX 20 25 25 26 23 28 18 30 19 31 21 33 27 35
REMARK H PARENT 8 19 25 27 23 29 19 32 21 34 27 36
REMARK Flexibility Score: inf
ROOT
ATOM      1  C   UNL     1     165.586 174.068  74.924  1.00  0.00     0.065 A 
ATOM      2  C   UNL     1     165.864 173.348  76.117  1.00  0.00     0.208 A 
ATOM      3  O   UNL     1     164.882 172.714  76.780  1.00  0.00    -0.463 OA
ATOM      4  C   UNL     1     163.596 172.922  76.484  1.00  0.00     0.147 A 
ATOM      5  C   UNL     1     163.259 173.774  75.424  1.00  0.00     0.066 A 
ATOM      6  C   UNL     1     164.272 173.953  74.449  1.00  0.00     0.200 A 
ATOM      7  O   UNL     1     163.972 174.061  73.212  1.00  0.00    -0.288 OA
ATOM      8  C   UNL     1     162.670 174.959  75.908  1.00  0.00     0.020 A 
ATOM      9  C   UNL     1     162.115 175.019  77.197  1.00  0.00     0.047 A 
ATOM     10  C   UNL     1     161.935 173.829  77.921  1.00  0.00     0.125 A 
ATOM     11  C   UNL     1     162.629 172.671  77.485  1.00  0.00     0.069 A 
ENDROOT
BRANCH   1  12
ATOM     12  C   UNL     1     166.526 175.130  74.403  1.00  0.00    -0.011 A 
ATOM     13  C   UNL     1     166.774 176.315  75.153  1.00  0.00     0.013 A 
ATOM     14  C   UNL     1     167.916 177.100  74.901  1.00  0.00     0.047 A 
ATOM     15  C   UNL     1     168.782 176.780  73.852  1.00  0.00     0.115 A 
ATOM     16  C   UNL     1     167.384 174.871  73.304  1.00  0.00     0.013 A 
ATOM     17  C   UNL     1     168.526 175.658  73.061  1.00  0.00     0.047 A 
BRANCH  15  18
ATOM     18  O   UNL     1     170.017 177.423  73.802  1.00  0.00    -0.508 OA
ATOM     19  H   UNL     1     170.251 178.100  73.071  1.00  0.00     0.293 HD
ENDBRANCH  15  18
ENDBRANCH   1  12
BRANCH  11  20
ATOM     20  C   UNL     1     162.745 171.444  78.348  1.00  0.00     0.188 C 
ATOM     21  C   UNL     1     161.540 170.518  78.217  1.00  0.00     0.179 C 
ATOM     22  O   UNL     1     162.915 171.783  79.730  1.00  0.00    -0.362 OA
ATOM     23  C   UNL     1     161.806 169.164  78.926  1.00  0.00     0.177 C 
ATOM     24  C   UNL     1     163.173 170.622  80.534  1.00  0.00     0.176 C 
ATOM     25  C   UNL     1     163.101 169.250  79.777  1.00  0.00     0.177 C 
BRANCH  21  26
ATOM     26  O   UNL     1     161.163 170.340  76.864  1.00  0.00    -0.387 OA
ATOM     27  H   UNL     1     160.405 169.680  76.859  1.00  0.00     0.211 HD
ENDBRANCH  21  26
BRANCH  23  28
ATOM     28  O   UNL     1     160.679 168.795  79.711  1.00  0.00    -0.387 OA
ATOM     29  H   UNL     1     160.990 168.853  80.661  1.00  0.00     0.211 HD
ENDBRANCH  23  28
BRANCH  24  30
ATOM     30  C   UNL     1     164.539 170.791  81.261  1.00  0.00     0.191 C 
BRANCH  30  31
ATOM     31  O   UNL     1     165.324 171.817  80.685  1.00  0.00    -0.394 OA
ATOM     32  H   UNL     1     165.329 171.739  79.682  1.00  0.00     0.210 HD
ENDBRANCH  30  31
ENDBRANCH  24  30
BRANCH  25  33
ATOM     33  O   UNL     1     163.268 168.122  80.625  1.00  0.00    -0.388 OA
ATOM     34  H   UNL     1     164.016 167.579  80.229  1.00  0.00     0.211 HD
ENDBRANCH  25  33
ENDBRANCH  11  20
BRANCH  10  35
ATOM     35  O   UNL     1     161.175 173.796  79.089  1.00  0.00    -0.507 OA
ATOM     36  H   UNL     1     160.190 173.518  79.079  1.00  0.00     0.293 HD
ENDBRANCH  10  35
TORSDOF 9
ENDMDL
MODEL 7
REMARK VINA RESULT:    -5.514      2.971      4.913
REMARK INTER + INTRA:          -8.412
REMARK INTER:                  -7.523
REMARK INTRA:                  -0.889
REMARK UNBOUND:                -0.965
REMARK SMILES O=c1c(-c2ccc(O)cc2)coc2c([C@H]3O[C@H](CO)[C@@H](O)[C@@H](O)[C@@H]3O)c(O)ccc12
REMARK SMILES IDX 3 1 11 2 12 3 13 4 30 5 2 6 1 7 29 8 28 9 26 10 14 11 4 12
REMARK SMILES IDX 5 13 6 14 7 15 10 16 9 17 8 18 15 20 24 21 16 22 22 23 17 24
REMARK SMILES IDX 20 25 25 26 23 28 18 30 19 31 21 33 27 35
REMARK H PARENT 8 19 25 27 23 29 19 32 21 34 27 36
REMARK Flexibility Score: inf
ROOT
ATOM      1  C   UNL     1     164.186 174.024  74.627  1.00  0.00     0.065 A 
ATOM      2  C   UNL     1     164.146 173.853  73.217  1.00  0.00     0.208 A 
ATOM      3  O   UNL     1     165.280 173.699  72.513  1.00  0.00    -0.463 OA
ATOM      4  C   UNL     1     166.477 173.929  73.061  1.00  0.00     0.147 A 
ATOM      5  C   UNL     1     166.560 174.284  74.415  1.00  0.00     0.066 A 
ATOM      6  C   UNL     1     165.454 173.893  75.210  1.00  0.00     0.200 A 
ATOM      7  O   UNL     1     165.626 173.500  76.414  1.00  0.00    -0.288 OA
ATOM      8  C   UNL     1     166.958 175.629  74.552  1.00  0.00     0.020 A 
ATOM      9  C   UNL     1     167.597 176.307  73.501  1.00  0.00     0.047 A 
ATOM     10  C   UNL     1     168.054 175.575  72.391  1.00  0.00     0.125 A 
ATOM     11  C   UNL     1     167.553 174.261  72.206  1.00  0.00     0.069 A 
ENDROOT
BRANCH   1  12
ATOM     12  C   UNL     1     163.026 174.627  75.384  1.00  0.00    -0.011 A 
ATOM     13  C   UNL     1     162.968 176.026  75.635  1.00  0.00     0.013 A 
ATOM     14  C   UNL     1     161.747 176.650  75.961  1.00  0.00     0.047 A 
ATOM     15  C   UNL     1     160.584 175.892  76.131  1.00  0.00     0.115 A 
ATOM     16  C   UNL     1     161.847 173.878  75.631  1.00  0.00     0.013 A 
ATOM     17  C   UNL     1     160.629 174.508  75.953  1.00  0.00     0.047 A 
BRANCH  15  18
ATOM     18  O   UNL     1     159.367 176.566  76.199  1.00  0.00    -0.508 OA
ATOM     19  H   UNL     1     159.258 177.447  76.708  1.00  0.00     0.293 HD
ENDBRANCH  15  18
ENDBRANCH   1  12
BRANCH  11  20
ATOM     20  C   UNL     1     167.738 173.517  70.912  1.00  0.00     0.188 C 
ATOM     21  C   UNL     1     166.569 173.712  69.950  1.00  0.00     0.179 C 
ATOM     22  O   UNL     1     167.923 172.114  71.130  1.00  0.00    -0.362 OA
ATOM     23  C   UNL     1     166.906 173.135  68.550  1.00  0.00     0.177 C 
ATOM     24  C   UNL     1     168.247 171.425  69.913  1.00  0.00     0.176 C 
ATOM     25  C   UNL     1     168.214 172.304  68.613  1.00  0.00     0.177 C 
BRANCH  21  26
ATOM     26  O   UNL     1     166.170 175.069  69.881  1.00  0.00    -0.387 OA
ATOM     27  H   UNL     1     166.994 175.620  70.044  1.00  0.00     0.211 HD
ENDBRANCH  21  26
BRANCH  23  28
ATOM     28  O   UNL     1     165.812 172.368  68.063  1.00  0.00    -0.387 OA
ATOM     29  H   UNL     1     165.264 173.007  67.520  1.00  0.00     0.211 HD
ENDBRANCH  23  28
BRANCH  24  30
ATOM     30  C   UNL     1     169.619 170.710  70.073  1.00  0.00     0.191 C 
BRANCH  30  31
ATOM     31  O   UNL     1     170.696 171.527  69.655  1.00  0.00    -0.394 OA
ATOM     32  H   UNL     1     171.498 170.966  69.424  1.00  0.00     0.210 HD
ENDBRANCH  30  31
ENDBRANCH  24  30
BRANCH  25  33
ATOM     33  O   UNL     1     168.445 171.565  67.421  1.00  0.00    -0.388 OA
ATOM     34  H   UNL     1     168.266 170.601  67.647  1.00  0.00     0.211 HD
ENDBRANCH  25  33
ENDBRANCH  11  20
BRANCH  10  35
ATOM     35  O   UNL     1     168.902 176.145  71.443  1.00  0.00    -0.507 OA
ATOM     36  H   UNL     1     169.443 175.569  70.794  1.00  0.00     0.293 HD
ENDBRANCH  10  35
TORSDOF 9
ENDMDL
MODEL 8
REMARK VINA RESULT:    -5.498      2.004      8.069
REMARK INTER + INTRA:          -8.391
REMARK INTER:                  -7.030
REMARK INTRA:                  -1.361
REMARK UNBOUND:                -0.965
REMARK SMILES O=c1c(-c2ccc(O)cc2)coc2c([C@H]3O[C@H](CO)[C@@H](O)[C@@H](O)[C@@H]3O)c(O)ccc12
REMARK SMILES IDX 3 1 11 2 12 3 13 4 30 5 2 6 1 7 29 8 28 9 26 10 14 11 4 12
REMARK SMILES IDX 5 13 6 14 7 15 10 16 9 17 8 18 15 20 24 21 16 22 22 23 17 24
REMARK SMILES IDX 20 25 25 26 23 28 18 30 19 31 21 33 27 35
REMARK H PARENT 8 19 25 27 23 29 19 32 21 34 27 36
REMARK Flexibility Score: inf
ROOT
ATOM      1  C   UNL     1     164.533 175.174  74.480  1.00  0.00     0.065 A 
ATOM      2  C   UNL     1     164.488 173.756  74.558  1.00  0.00     0.208 A 
ATOM      3  O   UNL     1     163.462 173.135  75.166  1.00  0.00    -0.463 OA
ATOM      4  C   UNL     1     162.583 173.811  75.911  1.00  0.00     0.147 A 
ATOM      5  C   UNL     1     162.693 175.204  76.017  1.00  0.00     0.066 A 
ATOM      6  C   UNL     1     163.394 175.836  74.961  1.00  0.00     0.200 A 
ATOM      7  O   UNL     1     163.022 176.978  74.525  1.00  0.00    -0.288 OA
ATOM      8  C   UNL     1     163.097 175.573  77.316  1.00  0.00     0.020 A 
ATOM      9  C   UNL     1     162.945 174.692  78.400  1.00  0.00     0.047 A 
ATOM     10  C   UNL     1     162.174 173.529  78.235  1.00  0.00     0.125 A 
ATOM     11  C   UNL     1     161.874 173.109  76.913  1.00  0.00     0.069 A 
ENDROOT
BRANCH   1  12
ATOM     12  C   UNL     1     165.825 175.911  74.218  1.00  0.00    -0.011 A 
ATOM     13  C   UNL     1     166.445 176.681  75.242  1.00  0.00     0.013 A 
ATOM     14  C   UNL     1     167.809 177.027  75.157  1.00  0.00     0.047 A 
ATOM     15  C   UNL     1     168.557 176.695  74.024  1.00  0.00     0.115 A 
ATOM     16  C   UNL     1     166.591 175.651  73.053  1.00  0.00     0.013 A 
ATOM     17  C   UNL     1     167.954 175.995  72.976  1.00  0.00     0.047 A 
BRANCH  15  18
ATOM     18  O   UNL     1     169.942 176.828  74.091  1.00  0.00    -0.508 OA
ATOM     19  H   UNL     1     170.397 177.721  74.297  1.00  0.00     0.293 HD
ENDBRANCH  15  18
ENDBRANCH   1  12
BRANCH  11  20
ATOM     20  C   UNL     1     161.325 171.738  76.622  1.00  0.00     0.188 C 
ATOM     21  C   UNL     1     159.804 171.681  76.729  1.00  0.00     0.179 C 
ATOM     22  O   UNL     1     161.885 170.748  77.494  1.00  0.00    -0.362 OA
ATOM     23  C   UNL     1     159.265 170.329  76.189  1.00  0.00     0.177 C 
ATOM     24  C   UNL     1     161.476 169.423  77.123  1.00  0.00     0.176 C 
ATOM     25  C   UNL     1     160.438 169.342  75.949  1.00  0.00     0.177 C 
BRANCH  21  26
ATOM     26  O   UNL     1     159.194 172.786  76.089  1.00  0.00    -0.387 OA
ATOM     27  H   UNL     1     159.265 172.624  75.100  1.00  0.00     0.211 HD
ENDBRANCH  21  26
BRANCH  23  28
ATOM     28  O   UNL     1     158.299 169.797  77.086  1.00  0.00    -0.387 OA
ATOM     29  H   UNL     1     158.315 168.807  76.933  1.00  0.00     0.211 HD
ENDBRANCH  23  28
BRANCH  24  30
ATOM     30  C   UNL     1     162.735 168.561  76.819  1.00  0.00     0.191 C 
BRANCH  30  31
ATOM     31  O   UNL     1     162.850 168.255  75.443  1.00  0.00    -0.394 OA
ATOM     32  H   UNL     1     161.941 168.144  75.027  1.00  0.00     0.210 HD
ENDBRANCH  30  31
ENDBRANCH  24  30
BRANCH  25  33
ATOM     33  O   UNL     1     159.988 168.022  75.677  1.00  0.00    -0.388 OA
ATOM     34  H   UNL     1     160.078 167.892  74.683  1.00  0.00     0.211 HD
ENDBRANCH  25  33
ENDBRANCH  11  20
BRANCH  10  35
ATOM     35  O   UNL     1     161.788 172.751  79.325  1.00  0.00    -0.507 OA
ATOM     36  H   UNL     1     161.365 173.168  80.157  1.00  0.00     0.293 HD
ENDBRANCH  10  35
TORSDOF 9
ENDMDL
MODEL 9
REMARK VINA RESULT:    -5.492      4.369      8.903
REMARK INTER + INTRA:          -8.383
REMARK INTER:                  -7.384
REMARK INTRA:                  -0.999
REMARK UNBOUND:                -0.965
REMARK SMILES O=c1c(-c2ccc(O)cc2)coc2c([C@H]3O[C@H](CO)[C@@H](O)[C@@H](O)[C@@H]3O)c(O)ccc12
REMARK SMILES IDX 3 1 11 2 12 3 13 4 30 5 2 6 1 7 29 8 28 9 26 10 14 11 4 12
REMARK SMILES IDX 5 13 6 14 7 15 10 16 9 17 8 18 15 20 24 21 16 22 22 23 17 24
REMARK SMILES IDX 20 25 25 26 23 28 18 30 19 31 21 33 27 35
REMARK H PARENT 8 19 25 27 23 29 19 32 21 34 27 36
REMARK Flexibility Score: inf
ROOT
ATOM      1  C   UNL     1     162.664 175.469  76.463  1.00  0.00     0.065 A 
ATOM      2  C   UNL     1     161.651 176.340  75.980  1.00  0.00     0.208 A 
ATOM      3  O   UNL     1     160.354 176.091  76.234  1.00  0.00    -0.463 OA
ATOM      4  C   UNL     1     159.956 174.919  76.737  1.00  0.00     0.147 A 
ATOM      5  C   UNL     1     160.911 173.946  77.063  1.00  0.00     0.066 A 
ATOM      6  C   UNL     1     162.217 174.439  77.304  1.00  0.00     0.200 A 
ATOM      7  O   UNL     1     162.952 173.918  78.210  1.00  0.00    -0.288 OA
ATOM      8  C   UNL     1     160.832 172.856  76.173  1.00  0.00     0.020 A 
ATOM      9  C   UNL     1     159.676 172.626  75.409  1.00  0.00     0.047 A 
ATOM     10  C   UNL     1     158.506 173.347  75.702  1.00  0.00     0.125 A 
ATOM     11  C   UNL     1     158.623 174.510  76.507  1.00  0.00     0.069 A 
ENDROOT
BRANCH   1  12
ATOM     12  C   UNL     1     164.047 175.449  75.855  1.00  0.00    -0.011 A 
ATOM     13  C   UNL     1     164.461 174.373  75.021  1.00  0.00     0.013 A 
ATOM     14  C   UNL     1     165.549 174.523  74.139  1.00  0.00     0.047 A 
ATOM     15  C   UNL     1     166.300 175.702  74.129  1.00  0.00     0.115 A 
ATOM     16  C   UNL     1     164.868 176.605  75.871  1.00  0.00     0.013 A 
ATOM     17  C   UNL     1     165.952 176.750  74.985  1.00  0.00     0.047 A 
BRANCH  15  18
ATOM     18  O   UNL     1     167.193 175.902  73.079  1.00  0.00    -0.508 OA
ATOM     19  H   UNL     1     167.125 175.385  72.199  1.00  0.00     0.293 HD
ENDBRANCH  15  18
ENDBRANCH   1  12
BRANCH  11  20
ATOM     20  C   UNL     1     157.501 175.506  76.628  1.00  0.00     0.188 C 
ATOM     21  C   UNL     1     156.224 174.887  77.189  1.00  0.00     0.179 C 
ATOM     22  O   UNL     1     157.200 176.119  75.369  1.00  0.00    -0.362 OA
ATOM     23  C   UNL     1     155.181 175.985  77.523  1.00  0.00     0.177 C 
ATOM     24  C   UNL     1     156.235 177.172  75.508  1.00  0.00     0.176 C 
ATOM     25  C   UNL     1     155.638 177.352  76.949  1.00  0.00     0.177 C 
BRANCH  21  26
ATOM     26  O   UNL     1     156.493 174.056  78.303  1.00  0.00    -0.387 OA
ATOM     27  H   UNL     1     155.658 173.523  78.474  1.00  0.00     0.211 HD
ENDBRANCH  21  26
BRANCH  23  28
ATOM     28  O   UNL     1     153.900 175.606  77.036  1.00  0.00    -0.387 OA
ATOM     29  H   UNL     1     153.307 175.586  77.843  1.00  0.00     0.211 HD
ENDBRANCH  23  28
BRANCH  24  30
ATOM     30  C   UNL     1     156.845 178.504  74.984  1.00  0.00     0.191 C 
BRANCH  30  31
ATOM     31  O   UNL     1     157.345 179.310  76.034  1.00  0.00    -0.394 OA
ATOM     32  H   UNL     1     157.557 178.748  76.841  1.00  0.00     0.210 HD
ENDBRANCH  30  31
ENDBRANCH  24  30
BRANCH  25  33
ATOM     33  O   UNL     1     154.619 178.340  77.023  1.00  0.00    -0.388 OA
ATOM     34  H   UNL     1     154.533 178.583  77.996  1.00  0.00     0.211 HD
ENDBRANCH  25  33
ENDBRANCH  11  20
BRANCH  10  35
ATOM     35  O   UNL     1     157.276 172.994  75.150  1.00  0.00    -0.507 OA
ATOM     36  H   UNL     1     156.401 173.407  75.483  1.00  0.00     0.293 HD
ENDBRANCH  10  35
TORSDOF 9
ENDMDL
