MODEL 1
REMARK VINA RESULT:    -2.708      0.000      0.000
REMARK INTER + INTRA:          -7.238
REMARK INTER:                  -5.241
REMARK INTRA:                  -1.997
REMARK UNBOUND:                -1.997
REMARK SMILES CCCCCCCCCCCCCCCCCC(=O)[O-]
REMARK SMILES IDX 10 1 11 2 12 3 13 4 14 5 15 6 16 7 17 8 18 9 19 10 20 11
REMARK SMILES IDX 9 12 8 13 7 14 6 15 5 16 4 17 3 18 2 19 1 20
REMARK H PARENT
REMARK Flexibility Score: inf
ROOT
ATOM      1  C   UNL     1      28.300  16.774  47.786  1.00  0.00     0.000 C 
ENDROOT
BRANCH   1   2
ATOM      2  C   UNL     1      27.152  17.794  47.840  1.00  0.00     0.000 C 
BRANCH   2   3
ATOM      3  C   UNL     1      25.776  17.124  48.000  1.00  0.00     0.000 C 
BRANCH   3   4
ATOM      4  C   UNL     1      25.031  17.602  49.256  1.00  0.00     0.000 C 
BRANCH   4   5
ATOM      5  C   UNL     1      24.531  16.435  50.125  1.00  0.00     0.000 C 
BRANCH   5   6
ATOM      6  C   UNL     1      23.989  15.263  49.291  1.00  0.00     0.000 C 
BRANCH   6   7
ATOM      7  C   UNL     1      23.882  13.940  50.084  1.00  0.00     0.006 C 
BRANCH   7   8
ATOM      8  C   UNL     1      24.588  12.762  49.396  1.00  0.00     0.053 C 
BRANCH   8   9
ATOM      9  C   UNL     1      23.924  11.457  49.716  1.00  0.00     0.041 C 
ATOM     10  O   UNL     1      22.735  11.433  50.124  1.00  0.00    -0.550 OA
ATOM     11  O   UNL     1      24.632  10.267  49.590  1.00  0.00    -0.550 OA
ENDBRANCH   8   9
ENDBRANCH   7   8
ENDBRANCH   6   7
ENDBRANCH   5   6
ENDBRANCH   4   5
ENDBRANCH   3   4
ENDBRANCH   2   3
ENDBRANCH   1   2
BRANCH   1  12
ATOM     12  C   UNL     1      29.509  17.289  46.986  1.00  0.00     0.000 C 
BRANCH  12  13
ATOM     13  C   UNL     1      30.743  17.551  47.869  1.00  0.00    -0.000 C 
BRANCH  13  14
ATOM     14  C   UNL     1      30.656  16.966  49.290  1.00  0.00    -0.000 C 
BRANCH  14  15
ATOM     15  C   UNL     1      31.686  15.850  49.544  1.00  0.00    -0.000 C 
BRANCH  15  16
ATOM     16  C   UNL     1      31.534  14.684  48.543  1.00  0.00    -0.000 C 
BRANCH  16  17
ATOM     17  C   UNL     1      30.539  13.603  48.999  1.00  0.00    -0.000 C 
BRANCH  17  18
ATOM     18  C   UNL     1      29.531  13.221  47.902  1.00  0.00    -0.000 C 
BRANCH  18  19
ATOM     19  C   UNL     1      28.075  13.309  48.381  1.00  0.00    -0.003 C 
ATOM     20  C   UNL     1      27.957  13.724  49.848  1.00  0.00     0.004 C 
ENDBRANCH  18  19
ENDBRANCH  17  18
ENDBRANCH  16  17
ENDBRANCH  15  16
ENDBRANCH  14  15
ENDBRANCH  13  14
ENDBRANCH  12  13
ENDBRANCH   1  12
TORSDOF 16
ENDMDL
MODEL 2
REMARK VINA RESULT:    -2.239      2.008      5.684
REMARK INTER + INTRA:          -6.331
REMARK INTER:                  -4.736
REMARK INTRA:                  -1.595
REMARK UNBOUND:                -1.997
REMARK SMILES CCCCCCCCCCCCCCCCCC(=O)[O-]
REMARK SMILES IDX 10 1 11 2 12 3 13 4 14 5 15 6 16 7 17 8 18 9 19 10 20 11
REMARK SMILES IDX 9 12 8 13 7 14 6 15 5 16 4 17 3 18 2 19 1 20
REMARK H PARENT
REMARK Flexibility Score: inf
ROOT
ATOM      1  C   UNL     1      29.117  16.970  46.993  1.00  0.00     0.000 C 
ENDROOT
BRANCH   1   2
ATOM      2  C   UNL     1      29.926  18.125  47.602  1.00  0.00     0.000 C 
BRANCH   2   3
ATOM      3  C   UNL     1      31.388  17.736  47.884  1.00  0.00     0.000 C 
BRANCH   3   4
ATOM      4  C   UNL     1      31.659  17.510  49.379  1.00  0.00     0.000 C 
BRANCH   4   5
ATOM      5  C   UNL     1      32.021  16.049  49.699  1.00  0.00     0.000 C 
BRANCH   5   6
ATOM      6  C   UNL     1      31.932  15.132  48.469  1.00  0.00     0.000 C 
BRANCH   6   7
ATOM      7  C   UNL     1      31.506  13.685  48.808  1.00  0.00     0.006 C 
BRANCH   7   8
ATOM      8  C   UNL     1      30.703  13.011  47.685  1.00  0.00     0.053 C 
BRANCH   8   9
ATOM      9  C   UNL     1      29.269  12.813  48.074  1.00  0.00     0.041 C 
ATOM     10  O   UNL     1      28.349  13.062  47.253  1.00  0.00    -0.550 OA
ATOM     11  O   UNL     1      28.949  12.379  49.355  1.00  0.00    -0.550 OA
ENDBRANCH   8   9
ENDBRANCH   7   8
ENDBRANCH   6   7
ENDBRANCH   5   6
ENDBRANCH   4   5
ENDBRANCH   3   4
ENDBRANCH   2   3
ENDBRANCH   1   2
BRANCH   1  12
ATOM     12  C   UNL     1      27.818  16.686  47.767  1.00  0.00     0.000 C 
BRANCH  12  13
ATOM     13  C   UNL     1      27.032  17.966  48.106  1.00  0.00    -0.000 C 
BRANCH  13  14
ATOM     14  C   UNL     1      25.501  17.798  48.128  1.00  0.00    -0.000 C 
BRANCH  14  15
ATOM     15  C   UNL     1      24.882  18.110  49.502  1.00  0.00    -0.000 C 
BRANCH  15  16
ATOM     16  C   UNL     1      24.197  16.873  50.124  1.00  0.00    -0.000 C 
BRANCH  16  17
ATOM     17  C   UNL     1      25.046  15.593  50.045  1.00  0.00    -0.000 C 
BRANCH  17  18
ATOM     18  C   UNL     1      24.498  14.577  49.028  1.00  0.00    -0.000 C 
BRANCH  18  19
ATOM     19  C   UNL     1      25.425  13.367  48.845  1.00  0.00    -0.003 C 
ATOM     20  C   UNL     1      24.886  12.101  49.511  1.00  0.00     0.004 C 
ENDBRANCH  18  19
ENDBRANCH  17  18
ENDBRANCH  16  17
ENDBRANCH  15  16
ENDBRANCH  14  15
ENDBRANCH  13  14
ENDBRANCH  12  13
ENDBRANCH   1  12
TORSDOF 16
ENDMDL
MODEL 3
REMARK VINA RESULT:    -2.153      1.761      2.211
REMARK INTER + INTRA:          -6.165
REMARK INTER:                  -4.852
REMARK INTRA:                  -1.313
REMARK UNBOUND:                -1.997
REMARK SMILES CCCCCCCCCCCCCCCCCC(=O)[O-]
REMARK SMILES IDX 10 1 11 2 12 3 13 4 14 5 15 6 16 7 17 8 18 9 19 10 20 11
REMARK SMILES IDX 9 12 8 13 7 14 6 15 5 16 4 17 3 18 2 19 1 20
REMARK H PARENT
REMARK Flexibility Score: inf
ROOT
ATOM      1  C   UNL     1      28.013  16.707  47.927  1.00  0.00     0.000 C 
ENDROOT
BRANCH   1   2
ATOM      2  C   UNL     1      26.897  17.758  47.833  1.00  0.00     0.000 C 
BRANCH   2   3
ATOM      3  C   UNL     1      25.494  17.143  47.976  1.00  0.00     0.000 C 
BRANCH   3   4
ATOM      4  C   UNL     1      24.700  17.752  49.143  1.00  0.00     0.000 C 
BRANCH   4   5
ATOM      5  C   UNL     1      24.163  16.685  50.111  1.00  0.00     0.000 C 
BRANCH   5   6
ATOM      6  C   UNL     1      23.680  15.417  49.390  1.00  0.00     0.000 C 
BRANCH   6   7
ATOM      7  C   UNL     1      24.348  14.122  49.906  1.00  0.00     0.006 C 
BRANCH   7   8
ATOM      8  C   UNL     1      25.053  13.321  48.800  1.00  0.00     0.053 C 
BRANCH   8   9
ATOM      9  C   UNL     1      26.544  13.374  48.945  1.00  0.00     0.041 C 
ATOM     10  O   UNL     1      27.063  13.748  50.028  1.00  0.00    -0.550 OA
ATOM     11  O   UNL     1      27.359  13.035  47.872  1.00  0.00    -0.550 OA
ENDBRANCH   8   9
ENDBRANCH   7   8
ENDBRANCH   6   7
ENDBRANCH   5   6
ENDBRANCH   4   5
ENDBRANCH   3   4
ENDBRANCH   2   3
ENDBRANCH   1   2
BRANCH   1  12
ATOM     12  C   UNL     1      29.116  16.921  46.875  1.00  0.00     0.000 C 
BRANCH  12  13
ATOM     13  C   UNL     1      30.091  18.051  47.252  1.00  0.00    -0.000 C 
BRANCH  13  14
ATOM     14  C   UNL     1      30.527  18.062  48.729  1.00  0.00    -0.000 C 
BRANCH  14  15
ATOM     15  C   UNL     1      31.930  17.466  48.946  1.00  0.00    -0.000 C 
BRANCH  15  16
ATOM     16  C   UNL     1      31.959  15.945  48.683  1.00  0.00    -0.000 C 
BRANCH  16  17
ATOM     17  C   UNL     1      30.778  15.186  49.313  1.00  0.00    -0.000 C 
BRANCH  17  18
ATOM     18  C   UNL     1      31.047  13.679  49.455  1.00  0.00    -0.000 C 
BRANCH  18  19
ATOM     19  C   UNL     1      30.487  12.866  48.278  1.00  0.00    -0.003 C 
ATOM     20  C   UNL     1      31.583  12.286  47.384  1.00  0.00     0.004 C 
ENDBRANCH  18  19
ENDBRANCH  17  18
ENDBRANCH  16  17
ENDBRANCH  15  16
ENDBRANCH  14  15
ENDBRANCH  13  14
ENDBRANCH  12  13
ENDBRANCH   1  12
TORSDOF 16
ENDMDL
MODEL 4
REMARK VINA RESULT:    -1.838      3.037      6.587
REMARK INTER + INTRA:          -5.554
REMARK INTER:                  -4.650
REMARK INTRA:                  -0.904
REMARK UNBOUND:                -1.997
REMARK SMILES CCCCCCCCCCCCCCCCCC(=O)[O-]
REMARK SMILES IDX 10 1 11 2 12 3 13 4 14 5 15 6 16 7 17 8 18 9 19 10 20 11
REMARK SMILES IDX 9 12 8 13 7 14 6 15 5 16 4 17 3 18 2 19 1 20
REMARK H PARENT
REMARK Flexibility Score: inf
ROOT
ATOM      1  C   UNL     1      24.769  14.429  48.875  1.00  0.00     0.000 C 
ENDROOT
BRANCH   1   2
ATOM      2  C   UNL     1      25.865  13.405  49.207  1.00  0.00     0.000 C 
BRANCH   2   3
ATOM      3  C   UNL     1      26.979  13.999  50.088  1.00  0.00     0.000 C 
BRANCH   3   4
ATOM      4  C   UNL     1      28.371  13.858  49.453  1.00  0.00     0.000 C 
BRANCH   4   5
ATOM      5  C   UNL     1      28.459  12.666  48.485  1.00  0.00     0.000 C 
BRANCH   5   6
ATOM      6  C   UNL     1      29.834  11.979  48.511  1.00  0.00     0.000 C 
BRANCH   6   7
ATOM      7  C   UNL     1      30.793  12.477  47.405  1.00  0.00     0.006 C 
BRANCH   7   8
ATOM      8  C   UNL     1      32.123  13.015  47.954  1.00  0.00     0.053 C 
BRANCH   8   9
ATOM      9  C   UNL     1      31.927  14.275  48.742  1.00  0.00     0.041 C 
ATOM     10  O   UNL     1      31.716  14.222  49.981  1.00  0.00    -0.550 OA
ATOM     11  O   UNL     1      31.949  15.507  48.100  1.00  0.00    -0.550 OA
ENDBRANCH   8   9
ENDBRANCH   7   8
ENDBRANCH   6   7
ENDBRANCH   5   6
ENDBRANCH   4   5
ENDBRANCH   3   4
ENDBRANCH   2   3
ENDBRANCH   1   2
BRANCH   1  12
ATOM     12  C   UNL     1      23.997  14.893  50.123  1.00  0.00     0.000 C 
BRANCH  12  13
ATOM     13  C   UNL     1      23.014  16.039  49.826  1.00  0.00    -0.000 C 
BRANCH  13  14
ATOM     14  C   UNL     1      23.614  17.452  49.941  1.00  0.00    -0.000 C 
BRANCH  14  15
ATOM     15  C   UNL     1      25.146  17.468  49.795  1.00  0.00    -0.000 C 
BRANCH  15  16
ATOM     16  C   UNL     1      25.590  17.302  48.325  1.00  0.00    -0.000 C 
BRANCH  16  17
ATOM     17  C   UNL     1      26.844  18.116  47.963  1.00  0.00    -0.000 C 
BRANCH  17  18
ATOM     18  C   UNL     1      27.958  17.992  49.016  1.00  0.00    -0.000 C 
BRANCH  18  19
ATOM     19  C   UNL     1      29.184  17.229  48.492  1.00  0.00    -0.003 C 
ATOM     20  C   UNL     1      29.035  16.798  47.033  1.00  0.00     0.004 C 
ENDBRANCH  18  19
ENDBRANCH  17  18
ENDBRANCH  16  17
ENDBRANCH  15  16
ENDBRANCH  14  15
ENDBRANCH  13  14
ENDBRANCH  12  13
ENDBRANCH   1  12
TORSDOF 16
ENDMDL
MODEL 5
REMARK VINA RESULT:    -1.014      3.647      7.486
REMARK INTER + INTRA:          -3.961
REMARK INTER:                  -2.694
REMARK INTRA:                  -1.267
REMARK UNBOUND:                -1.997
REMARK SMILES CCCCCCCCCCCCCCCCCC(=O)[O-]
REMARK SMILES IDX 10 1 11 2 12 3 13 4 14 5 15 6 16 7 17 8 18 9 19 10 20 11
REMARK SMILES IDX 9 12 8 13 7 14 6 15 5 16 4 17 3 18 2 19 1 20
REMARK H PARENT
REMARK Flexibility Score: inf
ROOT
ATOM      1  C   UNL     1      24.962  14.061  48.185  1.00  0.00     0.000 C 
ENDROOT
BRANCH   1   2
ATOM      2  C   UNL     1      25.458  12.614  48.321  1.00  0.00     0.000 C 
BRANCH   2   3
ATOM      3  C   UNL     1      26.890  12.532  48.879  1.00  0.00     0.000 C 
BRANCH   3   4
ATOM      4  C   UNL     1      27.955  12.830  47.812  1.00  0.00     0.000 C 
BRANCH   4   5
ATOM      5  C   UNL     1      29.386  12.767  48.373  1.00  0.00     0.000 C 
BRANCH   5   6
ATOM      6  C   UNL     1      29.472  13.235  49.835  1.00  0.00     0.000 C 
BRANCH   6   7
ATOM      7  C   UNL     1      30.235  14.567  50.012  1.00  0.00     0.006 C 
BRANCH   7   8
ATOM      8  C   UNL     1      29.399  15.799  49.634  1.00  0.00     0.053 C 
BRANCH   8   9
ATOM      9  C   UNL     1      29.828  16.376  48.318  1.00  0.00     0.041 C 
ATOM     10  O   UNL     1      30.975  16.877  48.189  1.00  0.00    -0.550 OA
ATOM     11  O   UNL     1      28.949  16.384  47.242  1.00  0.00    -0.550 OA
ENDBRANCH   8   9
ENDBRANCH   7   8
ENDBRANCH   6   7
ENDBRANCH   5   6
ENDBRANCH   4   5
ENDBRANCH   3   4
ENDBRANCH   2   3
ENDBRANCH   1   2
BRANCH   1  12
ATOM     12  C   UNL     1      25.570  14.996  49.244  1.00  0.00     0.000 C 
BRANCH  12  13
ATOM     13  C   UNL     1      25.784  16.429  48.725  1.00  0.00    -0.000 C 
BRANCH  13  14
ATOM     14  C   UNL     1      24.509  17.290  48.660  1.00  0.00    -0.000 C 
BRANCH  14  15
ATOM     15  C   UNL     1      23.701  17.268  49.970  1.00  0.00    -0.000 C 
BRANCH  15  16
ATOM     16  C   UNL     1      22.576  16.209  49.939  1.00  0.00    -0.000 C 
BRANCH  16  17
ATOM     17  C   UNL     1      21.168  16.800  50.123  1.00  0.00    -0.000 C 
BRANCH  17  18
ATOM     18  C   UNL     1      20.059  15.741  50.006  1.00  0.00    -0.000 C 
BRANCH  18  19
ATOM     19  C   UNL     1      18.662  16.363  49.860  1.00  0.00    -0.003 C 
ATOM     20  C   UNL     1      18.705  17.878  49.662  1.00  0.00     0.004 C 
ENDBRANCH  18  19
ENDBRANCH  17  18
ENDBRANCH  16  17
ENDBRANCH  15  16
ENDBRANCH  14  15
ENDBRANCH  13  14
ENDBRANCH  12  13
ENDBRANCH   1  12
TORSDOF 16
ENDMDL
MODEL 6
REMARK VINA RESULT:    -1.001      3.072      6.379
REMARK INTER + INTRA:          -3.934
REMARK INTER:                  -2.562
REMARK INTRA:                  -1.373
REMARK UNBOUND:                -1.997
REMARK SMILES CCCCCCCCCCCCCCCCCC(=O)[O-]
REMARK SMILES IDX 10 1 11 2 12 3 13 4 14 5 15 6 16 7 17 8 18 9 19 10 20 11
REMARK SMILES IDX 9 12 8 13 7 14 6 15 5 16 4 17 3 18 2 19 1 20
REMARK H PARENT
REMARK Flexibility Score: inf
ROOT
ATOM      1  C   UNL     1      28.728  13.772  47.217  1.00  0.00     0.000 C 
ENDROOT
BRANCH   1   2
ATOM      2  C   UNL     1      28.416  15.208  47.662  1.00  0.00     0.000 C 
BRANCH   2   3
ATOM      3  C   UNL     1      29.233  16.256  46.885  1.00  0.00     0.000 C 
BRANCH   3   4
ATOM      4  C   UNL     1      29.347  17.591  47.637  1.00  0.00     0.000 C 
BRANCH   4   5
ATOM      5  C   UNL     1      29.565  17.400  49.147  1.00  0.00     0.000 C 
BRANCH   5   6
ATOM      6  C   UNL     1      30.818  18.124  49.664  1.00  0.00     0.000 C 
BRANCH   6   7
ATOM      7  C   UNL     1      32.125  17.329  49.443  1.00  0.00     0.006 C 
BRANCH   7   8
ATOM      8  C   UNL     1      32.120  15.952  50.125  1.00  0.00     0.053 C 
BRANCH   8   9
ATOM      9  C   UNL     1      32.047  14.840  49.123  1.00  0.00     0.041 C 
ATOM     10  O   UNL     1      32.121  13.642  49.498  1.00  0.00    -0.550 OA
ATOM     11  O   UNL     1      31.925  15.130  47.769  1.00  0.00    -0.550 OA
ENDBRANCH   8   9
ENDBRANCH   7   8
ENDBRANCH   6   7
ENDBRANCH   5   6
ENDBRANCH   4   5
ENDBRANCH   3   4
ENDBRANCH   2   3
ENDBRANCH   1   2
BRANCH   1  12
ATOM     12  C   UNL     1      29.189  12.880  48.383  1.00  0.00     0.000 C 
BRANCH  12  13
ATOM     13  C   UNL     1      28.676  13.368  49.749  1.00  0.00    -0.000 C 
BRANCH  13  14
ATOM     14  C   UNL     1      27.253  12.901  50.110  1.00  0.00    -0.000 C 
BRANCH  14  15
ATOM     15  C   UNL     1      26.355  12.705  48.875  1.00  0.00    -0.000 C 
BRANCH  15  16
ATOM     16  C   UNL     1      25.061  13.544  48.961  1.00  0.00    -0.000 C 
BRANCH  16  17
ATOM     17  C   UNL     1      25.169  14.750  49.909  1.00  0.00    -0.000 C 
BRANCH  17  18
ATOM     18  C   UNL     1      24.049  15.781  49.691  1.00  0.00    -0.000 C 
BRANCH  18  19
ATOM     19  C   UNL     1      24.529  17.226  49.892  1.00  0.00    -0.003 C 
ATOM     20  C   UNL     1      25.648  17.619  48.927  1.00  0.00     0.004 C 
ENDBRANCH  18  19
ENDBRANCH  17  18
ENDBRANCH  16  17
ENDBRANCH  15  16
ENDBRANCH  14  15
ENDBRANCH  13  14
ENDBRANCH  12  13
ENDBRANCH   1  12
TORSDOF 16
ENDMDL
MODEL 7
REMARK VINA RESULT:    -0.981     15.711     16.792
REMARK INTER + INTRA:          -3.897
REMARK INTER:                  -3.024
REMARK INTRA:                  -0.872
REMARK UNBOUND:                -1.997
REMARK SMILES CCCCCCCCCCCCCCCCCC(=O)[O-]
REMARK SMILES IDX 10 1 11 2 12 3 13 4 14 5 15 6 16 7 17 8 18 9 19 10 20 11
REMARK SMILES IDX 9 12 8 13 7 14 6 15 5 16 4 17 3 18 2 19 1 20
REMARK H PARENT
REMARK Flexibility Score: inf
ROOT
ATOM      1  C   UNL     1      27.934  -0.850  42.932  1.00  0.00     0.000 C 
ENDROOT
BRANCH   1   2
ATOM      2  C   UNL     1      26.811   0.138  43.282  1.00  0.00     0.000 C 
BRANCH   2   3
ATOM      3  C   UNL     1      26.000   0.570  42.048  1.00  0.00     0.000 C 
BRANCH   3   4
ATOM      4  C   UNL     1      24.700   1.300  42.423  1.00  0.00     0.000 C 
BRANCH   4   5
ATOM      5  C   UNL     1      24.029   1.969  41.211  1.00  0.00     0.000 C 
BRANCH   5   6
ATOM      6  C   UNL     1      22.515   2.156  41.398  1.00  0.00     0.000 C 
BRANCH   6   7
ATOM      7  C   UNL     1      21.674   1.001  40.809  1.00  0.00     0.006 C 
BRANCH   7   8
ATOM      8  C   UNL     1      20.660   1.466  39.753  1.00  0.00     0.053 C 
BRANCH   8   9
ATOM      9  C   UNL     1      19.433   2.050  40.385  1.00  0.00     0.041 C 
ATOM     10  O   UNL     1      19.277   2.001  41.633  1.00  0.00    -0.550 OA
ATOM     11  O   UNL     1      18.446   2.623  39.591  1.00  0.00    -0.550 OA
ENDBRANCH   8   9
ENDBRANCH   7   8
ENDBRANCH   6   7
ENDBRANCH   5   6
ENDBRANCH   4   5
ENDBRANCH   3   4
ENDBRANCH   2   3
ENDBRANCH   1   2
BRANCH   1  12
ATOM     12  C   UNL     1      28.979  -0.978  44.053  1.00  0.00     0.000 C 
BRANCH  12  13
ATOM     13  C   UNL     1      30.424  -1.023  43.523  1.00  0.00    -0.000 C 
BRANCH  13  14
ATOM     14  C   UNL     1      30.551  -0.978  41.989  1.00  0.00    -0.000 C 
BRANCH  14  15
ATOM     15  C   UNL     1      31.995  -0.741  41.512  1.00  0.00    -0.000 C 
BRANCH  15  16
ATOM     16  C   UNL     1      32.074  -0.528  39.985  1.00  0.00    -0.000 C 
BRANCH  16  17
ATOM     17  C   UNL     1      32.029   0.951  39.564  1.00  0.00    -0.000 C 
BRANCH  17  18
ATOM     18  C   UNL     1      30.595   1.474  39.377  1.00  0.00    -0.000 C 
BRANCH  18  19
ATOM     19  C   UNL     1      29.812   0.682  38.319  1.00  0.00    -0.003 C 
ATOM     20  C   UNL     1      28.657  -0.123  38.916  1.00  0.00     0.004 C 
ENDBRANCH  18  19
ENDBRANCH  17  18
ENDBRANCH  16  17
ENDBRANCH  15  16
ENDBRANCH  14  15
ENDBRANCH  13  14
ENDBRANCH  12  13
ENDBRANCH   1  12
TORSDOF 16
ENDMDL
MODEL 8
REMARK VINA RESULT:    -0.716     15.831     18.034
REMARK INTER + INTRA:          -3.382
REMARK INTER:                  -2.394
REMARK INTRA:                  -0.989
REMARK UNBOUND:                -1.997
REMARK SMILES CCCCCCCCCCCCCCCCCC(=O)[O-]
REMARK SMILES IDX 10 1 11 2 12 3 13 4 14 5 15 6 16 7 17 8 18 9 19 10 20 11
REMARK SMILES IDX 9 12 8 13 7 14 6 15 5 16 4 17 3 18 2 19 1 20
REMARK H PARENT
REMARK Flexibility Score: inf
ROOT
ATOM      1  C   UNL     1      27.328  -0.550  42.865  1.00  0.00     0.000 C 
ENDROOT
BRANCH   1   2
ATOM      2  C   UNL     1      28.515  -0.404  43.829  1.00  0.00     0.000 C 
BRANCH   2   3
ATOM      3  C   UNL     1      29.661  -1.379  43.506  1.00  0.00     0.000 C 
BRANCH   3   4
ATOM      4  C   UNL     1      30.017  -1.394  42.011  1.00  0.00     0.000 C 
BRANCH   4   5
ATOM      5  C   UNL     1      31.369  -0.722  41.721  1.00  0.00     0.000 C 
BRANCH   5   6
ATOM      6  C   UNL     1      31.765  -0.798  40.238  1.00  0.00     0.000 C 
BRANCH   6   7
ATOM      7  C   UNL     1      32.039   0.583  39.600  1.00  0.00     0.006 C 
BRANCH   7   8
ATOM      8  C   UNL     1      30.782   1.459  39.490  1.00  0.00     0.053 C 
BRANCH   8   9
ATOM      9  C   UNL     1      29.704   0.782  38.699  1.00  0.00     0.041 C 
ATOM     10  O   UNL     1      28.685   0.324  39.279  1.00  0.00    -0.550 OA
ATOM     11  O   UNL     1      29.838   0.633  37.324  1.00  0.00    -0.550 OA
ENDBRANCH   8   9
ENDBRANCH   7   8
ENDBRANCH   6   7
ENDBRANCH   5   6
ENDBRANCH   4   5
ENDBRANCH   3   4
ENDBRANCH   2   3
ENDBRANCH   1   2
BRANCH   1  12
ATOM     12  C   UNL     1      26.167   0.399  43.209  1.00  0.00     0.000 C 
BRANCH  12  13
ATOM     13  C   UNL     1      25.564   1.081  41.968  1.00  0.00    -0.000 C 
BRANCH  13  14
ATOM     14  C   UNL     1      24.063   1.407  42.075  1.00  0.00    -0.000 C 
BRANCH  14  15
ATOM     15  C   UNL     1      23.612   2.495  41.083  1.00  0.00    -0.000 C 
BRANCH  15  16
ATOM     16  C   UNL     1      22.324   2.096  40.331  1.00  0.00    -0.000 C 
BRANCH  16  17
ATOM     17  C   UNL     1      21.634   0.848  40.907  1.00  0.00    -0.000 C 
BRANCH  17  18
ATOM     18  C   UNL     1      20.124   1.050  41.122  1.00  0.00    -0.000 C 
BRANCH  18  19
ATOM     19  C   UNL     1      19.644   2.438  40.675  1.00  0.00    -0.003 C 
ATOM     20  C   UNL     1      18.435   2.376  39.742  1.00  0.00     0.004 C 
ENDBRANCH  18  19
ENDBRANCH  17  18
ENDBRANCH  16  17
ENDBRANCH  15  16
ENDBRANCH  14  15
ENDBRANCH  13  14
ENDBRANCH  12  13
ENDBRANCH   1  12
TORSDOF 16
ENDMDL
