MODEL 1
REMARK VINA RESULT:    -6.614      0.000      0.000
REMARK INTER + INTRA:          -8.467
REMARK INTER:                  -8.161
REMARK INTRA:                  -0.306
REMARK UNBOUND:                -0.306
REMARK SMILES O=c1c(O)c(-c2cc(O)c(O)c(O)c2)oc2cc(O)cc(O)c12
REMARK SMILES IDX 5 1 3 2 2 3 1 4 23 5 21 6 20 7 18 8 17 9 16 10 15 11 6 12
REMARK SMILES IDX 7 13 8 14 14 15 10 16 12 17 9 18 11 20 13 22 4 24 22 26
REMARK SMILES IDX 19 28
REMARK H PARENT 9 19 11 21 13 23 4 25 22 27 19 29
REMARK Flexibility Score: inf
ROOT
ATOM      1  C   UNL     1     134.950 136.390 142.600  1.00  0.00     0.180 A 
ATOM      2  C   UNL     1     135.043 137.656 143.203  1.00  0.00     0.208 A 
ATOM      3  C   UNL     1     136.313 138.202 143.449  1.00  0.00     0.238 A 
ATOM      4  O   UNL     1     136.390 139.302 144.055  1.00  0.00    -0.285 OA
ATOM      5  C   UNL     1     137.473 137.500 143.038  1.00  0.00     0.111 A 
ATOM      6  C   UNL     1     138.810 137.978 143.196  1.00  0.00     0.134 A 
ATOM      7  C   UNL     1     139.884 137.150 142.849  1.00  0.00     0.093 A 
ATOM      8  C   UNL     1     139.672 135.890 142.291  1.00  0.00     0.123 A 
ATOM      9  C   UNL     1     138.371 135.435 142.081  1.00  0.00     0.094 A 
ATOM     10  C   UNL     1     137.277 136.222 142.452  1.00  0.00     0.146 A 
ATOM     11  O   UNL     1     136.056 135.742 142.256  1.00  0.00    -0.452 OA
ENDROOT
BRANCH   1  12
ATOM     12  C   UNL     1     133.647 135.744 142.323  1.00  0.00     0.029 A 
ATOM     13  C   UNL     1     133.177 134.740 143.185  1.00  0.00     0.062 A 
ATOM     14  C   UNL     1     131.939 134.126 142.958  1.00  0.00     0.162 A 
ATOM     15  C   UNL     1     132.840 136.152 141.247  1.00  0.00     0.062 A 
ATOM     16  C   UNL     1     131.147 134.527 141.867  1.00  0.00     0.200 A 
ATOM     17  C   UNL     1     131.602 135.547 141.015  1.00  0.00     0.162 A 
BRANCH  14  18
ATOM     18  O   UNL     1     131.490 133.121 143.814  1.00  0.00    -0.504 OA
ATOM     19  H   UNL     1     132.065 132.773 144.572  1.00  0.00     0.293 HD
ENDBRANCH  14  18
BRANCH  16  20
ATOM     20  O   UNL     1     129.911 133.924 141.625  1.00  0.00    -0.502 OA
ATOM     21  H   UNL     1     129.143 134.424 141.195  1.00  0.00     0.293 HD
ENDBRANCH  16  20
BRANCH  17  22
ATOM     22  O   UNL     1     130.833 135.977 139.934  1.00  0.00    -0.504 OA
ATOM     23  H   UNL     1     130.926 136.906 139.540  1.00  0.00     0.293 HD
ENDBRANCH  17  22
ENDBRANCH   1  12
BRANCH   2  24
ATOM     24  O   UNL     1     133.885 138.367 143.530  1.00  0.00    -0.502 OA
ATOM     25  H   UNL     1     133.892 139.156 144.166  1.00  0.00     0.293 HD
ENDBRANCH   2  24
BRANCH   6  26
ATOM     26  O   UNL     1     139.135 139.256 143.661  1.00  0.00    -0.507 OA
ATOM     27  H   UNL     1     138.682 140.109 143.371  1.00  0.00     0.293 HD
ENDBRANCH   6  26
BRANCH   8  28
ATOM     28  O   UNL     1     140.766 135.101 141.941  1.00  0.00    -0.508 OA
ATOM     29  H   UNL     1     141.433 134.781 142.634  1.00  0.00     0.293 HD
ENDBRANCH   8  28
TORSDOF 7
ENDMDL
MODEL 2
REMARK VINA RESULT:    -6.096      5.139      6.676
REMARK INTER + INTRA:          -7.828
REMARK INTER:                  -7.589
REMARK INTRA:                  -0.239
REMARK UNBOUND:                -0.306
REMARK SMILES O=c1c(O)c(-c2cc(O)c(O)c(O)c2)oc2cc(O)cc(O)c12
REMARK SMILES IDX 5 1 3 2 2 3 1 4 23 5 21 6 20 7 18 8 17 9 16 10 15 11 6 12
REMARK SMILES IDX 7 13 8 14 14 15 10 16 12 17 9 18 11 20 13 22 4 24 22 26
REMARK SMILES IDX 19 28
REMARK H PARENT 9 19 11 21 13 23 4 25 22 27 19 29
REMARK Flexibility Score: inf
ROOT
ATOM      1  C   UNL     1     131.957 140.514 139.921  1.00  0.00     0.180 A 
ATOM      2  C   UNL     1     131.520 141.376 138.901  1.00  0.00     0.208 A 
ATOM      3  C   UNL     1     132.152 142.620 138.742  1.00  0.00     0.238 A 
ATOM      4  O   UNL     1     131.708 143.417 137.875  1.00  0.00    -0.285 OA
ATOM      5  C   UNL     1     133.251 142.962 139.567  1.00  0.00     0.111 A 
ATOM      6  C   UNL     1     133.996 144.177 139.466  1.00  0.00     0.134 A 
ATOM      7  C   UNL     1     134.995 144.455 140.406  1.00  0.00     0.093 A 
ATOM      8  C   UNL     1     135.320 143.537 141.405  1.00  0.00     0.123 A 
ATOM      9  C   UNL     1     134.637 142.324 141.480  1.00  0.00     0.094 A 
ATOM     10  C   UNL     1     133.608 142.033 140.580  1.00  0.00     0.146 A 
ATOM     11  O   UNL     1     132.968 140.877 140.701  1.00  0.00    -0.452 OA
ENDROOT
BRANCH   1  12
ATOM     12  C   UNL     1     131.330 139.194 140.159  1.00  0.00     0.029 A 
ATOM     13  C   UNL     1     132.090 138.028 139.981  1.00  0.00     0.062 A 
ATOM     14  C   UNL     1     131.528 136.767 140.220  1.00  0.00     0.162 A 
ATOM     15  C   UNL     1     130.007 139.084 140.618  1.00  0.00     0.062 A 
ATOM     16  C   UNL     1     130.197 136.664 140.658  1.00  0.00     0.200 A 
ATOM     17  C   UNL     1     129.439 137.830 140.861  1.00  0.00     0.162 A 
BRANCH  14  18
ATOM     18  O   UNL     1     132.290 135.614 140.025  1.00  0.00    -0.504 OA
ATOM     19  H   UNL     1     132.657 135.082 140.805  1.00  0.00     0.293 HD
ENDBRANCH  14  18
BRANCH  16  20
ATOM     20  O   UNL     1     129.621 135.415 140.898  1.00  0.00    -0.502 OA
ATOM     21  H   UNL     1     129.259 134.836 140.151  1.00  0.00     0.293 HD
ENDBRANCH  16  20
BRANCH  17  22
ATOM     22  O   UNL     1     128.121 137.762 141.310  1.00  0.00    -0.504 OA
ATOM     23  H   UNL     1     127.880 137.404 142.227  1.00  0.00     0.293 HD
ENDBRANCH  17  22
ENDBRANCH   1  12
BRANCH   2  24
ATOM     24  O   UNL     1     130.484 140.987 138.046  1.00  0.00    -0.502 OA
ATOM     25  H   UNL     1     129.831 140.250 138.283  1.00  0.00     0.293 HD
ENDBRANCH   2  24
BRANCH   6  26
ATOM     26  O   UNL     1     133.815 145.125 138.453  1.00  0.00    -0.507 OA
ATOM     27  H   UNL     1     134.555 145.654 138.020  1.00  0.00     0.293 HD
ENDBRANCH   6  26
BRANCH   8  28
ATOM     28  O   UNL     1     136.333 143.840 142.313  1.00  0.00    -0.508 OA
ATOM     29  H   UNL     1     136.678 144.786 142.425  1.00  0.00     0.293 HD
ENDBRANCH   8  28
TORSDOF 7
ENDMDL
MODEL 3
REMARK VINA RESULT:    -6.051      1.570      2.672
REMARK INTER + INTRA:          -7.772
REMARK INTER:                  -7.485
REMARK INTRA:                  -0.287
REMARK UNBOUND:                -0.306
REMARK SMILES O=c1c(O)c(-c2cc(O)c(O)c(O)c2)oc2cc(O)cc(O)c12
REMARK SMILES IDX 5 1 3 2 2 3 1 4 23 5 21 6 20 7 18 8 17 9 16 10 15 11 6 12
REMARK SMILES IDX 7 13 8 14 14 15 10 16 12 17 9 18 11 20 13 22 4 24 22 26
REMARK SMILES IDX 19 28
REMARK H PARENT 9 19 11 21 13 23 4 25 22 27 19 29
REMARK Flexibility Score: inf
ROOT
ATOM      1  C   UNL     1     135.407 136.457 142.347  1.00  0.00     0.180 A 
ATOM      2  C   UNL     1     136.414 136.284 141.383  1.00  0.00     0.208 A 
ATOM      3  C   UNL     1     137.731 136.654 141.699  1.00  0.00     0.238 A 
ATOM      4  O   UNL     1     138.614 136.565 140.807  1.00  0.00    -0.285 OA
ATOM      5  C   UNL     1     138.035 137.141 142.994  1.00  0.00     0.111 A 
ATOM      6  C   UNL     1     139.342 137.505 143.439  1.00  0.00     0.134 A 
ATOM      7  C   UNL     1     139.506 138.076 144.707  1.00  0.00     0.093 A 
ATOM      8  C   UNL     1     138.423 138.237 145.570  1.00  0.00     0.123 A 
ATOM      9  C   UNL     1     137.150 137.834 145.167  1.00  0.00     0.094 A 
ATOM     10  C   UNL     1     136.947 137.297 143.893  1.00  0.00     0.146 A 
ATOM     11  O   UNL     1     135.717 136.947 143.542  1.00  0.00    -0.452 OA
ENDROOT
BRANCH   1  12
ATOM     12  C   UNL     1     133.994 136.104 142.082  1.00  0.00     0.029 A 
ATOM     13  C   UNL     1     133.421 135.008 142.747  1.00  0.00     0.062 A 
ATOM     14  C   UNL     1     132.080 134.663 142.531  1.00  0.00     0.162 A 
ATOM     15  C   UNL     1     133.193 136.876 141.224  1.00  0.00     0.062 A 
ATOM     16  C   UNL     1     131.292 135.429 141.654  1.00  0.00     0.200 A 
ATOM     17  C   UNL     1     131.854 136.542 141.005  1.00  0.00     0.162 A 
BRANCH  14  18
ATOM     18  O   UNL     1     131.527 133.563 143.186  1.00  0.00    -0.504 OA
ATOM     19  H   UNL     1     131.378 132.681 142.710  1.00  0.00     0.293 HD
ENDBRANCH  14  18
BRANCH  16  20
ATOM     20  O   UNL     1     129.955 135.099 141.426  1.00  0.00    -0.502 OA
ATOM     21  H   UNL     1     129.300 135.754 141.017  1.00  0.00     0.293 HD
ENDBRANCH  16  20
BRANCH  17  22
ATOM     22  O   UNL     1     131.094 137.330 140.141  1.00  0.00    -0.504 OA
ATOM     23  H   UNL     1     131.487 138.123 139.648  1.00  0.00     0.293 HD
ENDBRANCH  17  22
ENDBRANCH   1  12
BRANCH   2  24
ATOM     24  O   UNL     1     136.108 135.729 140.137  1.00  0.00    -0.502 OA
ATOM     25  H   UNL     1     135.775 134.778 140.032  1.00  0.00     0.293 HD
ENDBRANCH   2  24
BRANCH   6  26
ATOM     26  O   UNL     1     140.508 137.306 142.692  1.00  0.00    -0.507 OA
ATOM     27  H   UNL     1     140.707 136.486 142.140  1.00  0.00     0.293 HD
ENDBRANCH   6  26
BRANCH   8  28
ATOM     28  O   UNL     1     138.626 138.792 146.832  1.00  0.00    -0.508 OA
ATOM     29  H   UNL     1     139.479 139.289 147.061  1.00  0.00     0.293 HD
ENDBRANCH   8  28
TORSDOF 7
ENDMDL
MODEL 4
REMARK VINA RESULT:    -6.044      6.670      8.136
REMARK INTER + INTRA:          -7.763
REMARK INTER:                  -7.468
REMARK INTRA:                  -0.295
REMARK UNBOUND:                -0.306
REMARK SMILES O=c1c(O)c(-c2cc(O)c(O)c(O)c2)oc2cc(O)cc(O)c12
REMARK SMILES IDX 5 1 3 2 2 3 1 4 23 5 21 6 20 7 18 8 17 9 16 10 15 11 6 12
REMARK SMILES IDX 7 13 8 14 14 15 10 16 12 17 9 18 11 20 13 22 4 24 22 26
REMARK SMILES IDX 19 28
REMARK H PARENT 9 19 11 21 13 23 4 25 22 27 19 29
REMARK Flexibility Score: inf
ROOT
ATOM      1  C   UNL     1     139.748 141.485 141.136  1.00  0.00     0.180 A 
ATOM      2  C   UNL     1     140.117 140.241 141.677  1.00  0.00     0.208 A 
ATOM      3  C   UNL     1     141.371 139.701 141.350  1.00  0.00     0.238 A 
ATOM      4  O   UNL     1     141.664 138.555 141.778  1.00  0.00    -0.285 OA
ATOM      5  C   UNL     1     142.263 140.437 140.532  1.00  0.00     0.111 A 
ATOM      6  C   UNL     1     143.577 140.007 140.172  1.00  0.00     0.134 A 
ATOM      7  C   UNL     1     144.330 140.768 139.270  1.00  0.00     0.093 A 
ATOM      8  C   UNL     1     143.845 141.974 138.764  1.00  0.00     0.123 A 
ATOM      9  C   UNL     1     142.586 142.431 139.152  1.00  0.00     0.094 A 
ATOM     10  C   UNL     1     141.794 141.675 140.020  1.00  0.00     0.146 A 
ATOM     11  O   UNL     1     140.593 142.136 140.346  1.00  0.00    -0.452 OA
ENDROOT
BRANCH   1  12
ATOM     12  C   UNL     1     138.437 142.111 141.423  1.00  0.00     0.029 A 
ATOM     13  C   UNL     1     138.224 142.725 142.667  1.00  0.00     0.062 A 
ATOM     14  C   UNL     1     137.000 143.343 142.957  1.00  0.00     0.162 A 
ATOM     15  C   UNL     1     137.419 142.157 140.455  1.00  0.00     0.062 A 
ATOM     16  C   UNL     1     135.980 143.366 141.991  1.00  0.00     0.200 A 
ATOM     17  C   UNL     1     136.197 142.774 140.736  1.00  0.00     0.162 A 
BRANCH  14  18
ATOM     18  O   UNL     1     136.796 143.937 144.203  1.00  0.00    -0.504 OA
ATOM     19  H   UNL     1     136.592 144.926 144.292  1.00  0.00     0.293 HD
ENDBRANCH  14  18
BRANCH  16  20
ATOM     20  O   UNL     1     134.754 143.975 142.264  1.00  0.00    -0.502 OA
ATOM     21  H   UNL     1     134.501 144.876 141.876  1.00  0.00     0.293 HD
ENDBRANCH  16  20
BRANCH  17  22
ATOM     22  O   UNL     1     135.209 142.793 139.751  1.00  0.00    -0.504 OA
ATOM     23  H   UNL     1     135.377 143.170 138.825  1.00  0.00     0.293 HD
ENDBRANCH  17  22
ENDBRANCH   1  12
BRANCH   2  24
ATOM     24  O   UNL     1     139.253 139.567 142.544  1.00  0.00    -0.502 OA
ATOM     25  H   UNL     1     138.285 139.838 142.668  1.00  0.00     0.293 HD
ENDBRANCH   2  24
BRANCH   6  26
ATOM     26  O   UNL     1     144.196 138.863 140.688  1.00  0.00    -0.507 OA
ATOM     27  H   UNL     1     145.168 138.626 140.560  1.00  0.00     0.293 HD
ENDBRANCH   6  26
BRANCH   8  28
ATOM     28  O   UNL     1     144.629 142.714 137.882  1.00  0.00    -0.508 OA
ATOM     29  H   UNL     1     144.600 142.552 136.883  1.00  0.00     0.293 HD
ENDBRANCH   8  28
TORSDOF 7
ENDMDL
MODEL 5
REMARK VINA RESULT:    -6.003      1.685      3.223
REMARK INTER + INTRA:          -7.713
REMARK INTER:                  -7.380
REMARK INTRA:                  -0.333
REMARK UNBOUND:                -0.306
REMARK SMILES O=c1c(O)c(-c2cc(O)c(O)c(O)c2)oc2cc(O)cc(O)c12
REMARK SMILES IDX 5 1 3 2 2 3 1 4 23 5 21 6 20 7 18 8 17 9 16 10 15 11 6 12
REMARK SMILES IDX 7 13 8 14 14 15 10 16 12 17 9 18 11 20 13 22 4 24 22 26
REMARK SMILES IDX 19 28
REMARK H PARENT 9 19 11 21 13 23 4 25 22 27 19 29
REMARK Flexibility Score: inf
ROOT
ATOM      1  C   UNL     1     135.182 136.596 142.410  1.00  0.00     0.180 A 
ATOM      2  C   UNL     1     136.185 136.312 141.468  1.00  0.00     0.208 A 
ATOM      3  C   UNL     1     137.525 136.570 141.802  1.00  0.00     0.238 A 
ATOM      4  O   UNL     1     138.411 136.382 140.928  1.00  0.00    -0.285 OA
ATOM      5  C   UNL     1     137.849 137.055 143.092  1.00  0.00     0.111 A 
ATOM      6  C   UNL     1     139.176 137.310 143.554  1.00  0.00     0.134 A 
ATOM      7  C   UNL     1     139.369 137.890 144.814  1.00  0.00     0.093 A 
ATOM      8  C   UNL     1     138.291 138.166 145.653  1.00  0.00     0.123 A 
ATOM      9  C   UNL     1     136.994 137.871 145.235  1.00  0.00     0.094 A 
ATOM     10  C   UNL     1     136.765 137.327 143.968  1.00  0.00     0.146 A 
ATOM     11  O   UNL     1     135.514 137.082 143.600  1.00  0.00    -0.452 OA
ENDROOT
BRANCH   1  12
ATOM     12  C   UNL     1     133.747 136.365 142.126  1.00  0.00     0.029 A 
ATOM     13  C   UNL     1     133.033 137.308 141.369  1.00  0.00     0.062 A 
ATOM     14  C   UNL     1     131.680 137.105 141.068  1.00  0.00     0.162 A 
ATOM     15  C   UNL     1     133.096 135.194 142.547  1.00  0.00     0.062 A 
ATOM     16  C   UNL     1     131.031 135.939 141.511  1.00  0.00     0.200 A 
ATOM     17  C   UNL     1     131.747 134.981 142.249  1.00  0.00     0.162 A 
BRANCH  14  18
ATOM     18  O   UNL     1     130.979 138.056 140.328  1.00  0.00    -0.504 OA
ATOM     19  H   UNL     1     131.083 138.129 139.323  1.00  0.00     0.293 HD
ENDBRANCH  14  18
BRANCH  16  20
ATOM     20  O   UNL     1     129.683 135.722 141.223  1.00  0.00    -0.502 OA
ATOM     21  H   UNL     1     129.319 134.802 141.007  1.00  0.00     0.293 HD
ENDBRANCH  16  20
BRANCH  17  22
ATOM     22  O   UNL     1     131.135 133.808 142.690  1.00  0.00    -0.504 OA
ATOM     23  H   UNL     1     131.216 133.484 143.647  1.00  0.00     0.293 HD
ENDBRANCH  17  22
ENDBRANCH   1  12
BRANCH   2  24
ATOM     24  O   UNL     1     135.852 135.760 140.228  1.00  0.00    -0.502 OA
ATOM     25  H   UNL     1     135.177 135.011 140.130  1.00  0.00     0.293 HD
ENDBRANCH   2  24
BRANCH   6  26
ATOM     26  O   UNL     1     140.332 136.990 142.834  1.00  0.00    -0.507 OA
ATOM     27  H   UNL     1     140.368 136.355 142.052  1.00  0.00     0.293 HD
ENDBRANCH   6  26
BRANCH   8  28
ATOM     28  O   UNL     1     138.522 138.728 146.907  1.00  0.00    -0.508 OA
ATOM     29  H   UNL     1     138.184 139.653 147.144  1.00  0.00     0.293 HD
ENDBRANCH   8  28
TORSDOF 7
ENDMDL
MODEL 6
REMARK VINA RESULT:    -5.992      2.886      4.233
REMARK INTER + INTRA:          -7.699
REMARK INTER:                  -7.398
REMARK INTRA:                  -0.301
REMARK UNBOUND:                -0.306
REMARK SMILES O=c1c(O)c(-c2cc(O)c(O)c(O)c2)oc2cc(O)cc(O)c12
REMARK SMILES IDX 5 1 3 2 2 3 1 4 23 5 21 6 20 7 18 8 17 9 16 10 15 11 6 12
REMARK SMILES IDX 7 13 8 14 14 15 10 16 12 17 9 18 11 20 13 22 4 24 22 26
REMARK SMILES IDX 19 28
REMARK H PARENT 9 19 11 21 13 23 4 25 22 27 19 29
REMARK Flexibility Score: inf
ROOT
ATOM      1  C   UNL     1     132.418 137.285 142.548  1.00  0.00     0.180 A 
ATOM      2  C   UNL     1     132.819 135.952 142.356  1.00  0.00     0.208 A 
ATOM      3  C   UNL     1     134.190 135.659 142.269  1.00  0.00     0.238 A 
ATOM      4  O   UNL     1     134.539 134.475 142.024  1.00  0.00    -0.285 OA
ATOM      5  C   UNL     1     135.144 136.693 142.431  1.00  0.00     0.111 A 
ATOM      6  C   UNL     1     136.559 136.504 142.407  1.00  0.00     0.134 A 
ATOM      7  C   UNL     1     137.406 137.617 142.471  1.00  0.00     0.093 A 
ATOM      8  C   UNL     1     136.893 138.905 142.623  1.00  0.00     0.123 A 
ATOM      9  C   UNL     1     135.514 139.096 142.705  1.00  0.00     0.094 A 
ATOM     10  C   UNL     1     134.641 138.009 142.604  1.00  0.00     0.146 A 
ATOM     11  O   UNL     1     133.335 138.238 142.664  1.00  0.00    -0.452 OA
ENDROOT
BRANCH   1  12
ATOM     12  C   UNL     1     130.992 137.674 142.635  1.00  0.00     0.029 A 
ATOM     13  C   UNL     1     130.461 138.075 143.871  1.00  0.00     0.062 A 
ATOM     14  C   UNL     1     129.120 138.468 143.978  1.00  0.00     0.162 A 
ATOM     15  C   UNL     1     130.171 137.707 141.496  1.00  0.00     0.062 A 
ATOM     16  C   UNL     1     128.300 138.478 142.837  1.00  0.00     0.200 A 
ATOM     17  C   UNL     1     128.833 138.100 141.593  1.00  0.00     0.162 A 
BRANCH  14  18
ATOM     18  O   UNL     1     128.601 138.850 145.214  1.00  0.00    -0.504 OA
ATOM     19  H   UNL     1     127.602 138.894 145.380  1.00  0.00     0.293 HD
ENDBRANCH  14  18
BRANCH  16  20
ATOM     20  O   UNL     1     126.961 138.864 142.925  1.00  0.00    -0.502 OA
ATOM     21  H   UNL     1     126.466 138.893 143.808  1.00  0.00     0.293 HD
ENDBRANCH  16  20
BRANCH  17  22
ATOM     22  O   UNL     1     128.049 138.113 140.440  1.00  0.00    -0.504 OA
ATOM     23  H   UNL     1     128.423 137.874 139.529  1.00  0.00     0.293 HD
ENDBRANCH  17  22
ENDBRANCH   1  12
BRANCH   2  24
ATOM     24  O   UNL     1     131.865 134.934 142.276  1.00  0.00    -0.502 OA
ATOM     25  H   UNL     1     132.117 133.959 142.168  1.00  0.00     0.293 HD
ENDBRANCH   2  24
BRANCH   6  26
ATOM     26  O   UNL     1     137.182 135.253 142.347  1.00  0.00    -0.507 OA
ATOM     27  H   UNL     1     136.877 134.432 142.847  1.00  0.00     0.293 HD
ENDBRANCH   6  26
BRANCH   8  28
ATOM     28  O   UNL     1     137.766 139.987 142.702  1.00  0.00    -0.508 OA
ATOM     29  H   UNL     1     138.755 139.859 142.881  1.00  0.00     0.293 HD
ENDBRANCH   8  28
TORSDOF 7
ENDMDL
MODEL 7
REMARK VINA RESULT:    -5.989      2.788      4.885
REMARK INTER + INTRA:          -7.696
REMARK INTER:                  -7.346
REMARK INTRA:                  -0.349
REMARK UNBOUND:                -0.306
REMARK SMILES O=c1c(O)c(-c2cc(O)c(O)c(O)c2)oc2cc(O)cc(O)c12
REMARK SMILES IDX 5 1 3 2 2 3 1 4 23 5 21 6 20 7 18 8 17 9 16 10 15 11 6 12
REMARK SMILES IDX 7 13 8 14 14 15 10 16 12 17 9 18 11 20 13 22 4 24 22 26
REMARK SMILES IDX 19 28
REMARK H PARENT 9 19 11 21 13 23 4 25 22 27 19 29
REMARK Flexibility Score: inf
ROOT
ATOM      1  C   UNL     1     132.723 137.669 141.152  1.00  0.00     0.180 A 
ATOM      2  C   UNL     1     133.196 136.469 140.595  1.00  0.00     0.208 A 
ATOM      3  C   UNL     1     134.432 135.959 141.023  1.00  0.00     0.238 A 
ATOM      4  O   UNL     1     134.884 134.924 140.468  1.00  0.00    -0.285 OA
ATOM      5  C   UNL     1     135.154 136.626 142.043  1.00  0.00     0.111 A 
ATOM      6  C   UNL     1     136.396 136.176 142.586  1.00  0.00     0.134 A 
ATOM      7  C   UNL     1     137.072 136.974 143.517  1.00  0.00     0.093 A 
ATOM      8  C   UNL     1     136.523 138.172 143.973  1.00  0.00     0.123 A 
ATOM      9  C   UNL     1     135.285 138.595 143.491  1.00  0.00     0.094 A 
ATOM     10  C   UNL     1     134.603 137.840 142.532  1.00  0.00     0.146 A 
ATOM     11  O   UNL     1     133.438 138.289 142.083  1.00  0.00    -0.452 OA
ENDROOT
BRANCH   1  12
ATOM     12  C   UNL     1     131.437 138.276 140.741  1.00  0.00     0.029 A 
ATOM     13  C   UNL     1     131.424 139.238 139.718  1.00  0.00     0.062 A 
ATOM     14  C   UNL     1     130.218 139.813 139.295  1.00  0.00     0.162 A 
ATOM     15  C   UNL     1     130.219 137.868 141.310  1.00  0.00     0.062 A 
ATOM     16  C   UNL     1     129.006 139.414 139.885  1.00  0.00     0.200 A 
ATOM     17  C   UNL     1     129.011 138.434 140.892  1.00  0.00     0.162 A 
BRANCH  14  18
ATOM     18  O   UNL     1     130.220 140.778 138.288  1.00  0.00    -0.504 OA
ATOM     19  H   UNL     1     130.479 141.739 138.475  1.00  0.00     0.293 HD
ENDBRANCH  14  18
BRANCH  16  20
ATOM     20  O   UNL     1     127.796 139.978 139.477  1.00  0.00    -0.502 OA
ATOM     21  H   UNL     1     127.538 140.929 139.712  1.00  0.00     0.293 HD
ENDBRANCH  16  20
BRANCH  17  22
ATOM     22  O   UNL     1     127.824 138.007 141.486  1.00  0.00    -0.504 OA
ATOM     23  H   UNL     1     127.597 137.025 141.594  1.00  0.00     0.293 HD
ENDBRANCH  17  22
ENDBRANCH   1  12
BRANCH   2  24
ATOM     24  O   UNL     1     132.432 135.785 139.645  1.00  0.00    -0.502 OA
ATOM     25  H   UNL     1     132.375 134.774 139.619  1.00  0.00     0.293 HD
ENDBRANCH   2  24
BRANCH   6  26
ATOM     26  O   UNL     1     136.993 134.952 142.269  1.00  0.00    -0.507 OA
ATOM     27  H   UNL     1     136.594 134.257 141.656  1.00  0.00     0.293 HD
ENDBRANCH   6  26
BRANCH   8  28
ATOM     28  O   UNL     1     137.216 138.932 144.913  1.00  0.00    -0.508 OA
ATOM     29  H   UNL     1     137.028 138.848 145.905  1.00  0.00     0.293 HD
ENDBRANCH   8  28
TORSDOF 7
ENDMDL
MODEL 8
REMARK VINA RESULT:    -5.945      5.553      7.292
REMARK INTER + INTRA:          -7.641
REMARK INTER:                  -7.281
REMARK INTRA:                  -0.360
REMARK UNBOUND:                -0.306
REMARK SMILES O=c1c(O)c(-c2cc(O)c(O)c(O)c2)oc2cc(O)cc(O)c12
REMARK SMILES IDX 5 1 3 2 2 3 1 4 23 5 21 6 20 7 18 8 17 9 16 10 15 11 6 12
REMARK SMILES IDX 7 13 8 14 14 15 10 16 12 17 9 18 11 20 13 22 4 24 22 26
REMARK SMILES IDX 19 28
REMARK H PARENT 9 19 11 21 13 23 4 25 22 27 19 29
REMARK Flexibility Score: inf
ROOT
ATOM      1  C   UNL     1     139.189 140.635 141.377  1.00  0.00     0.180 A 
ATOM      2  C   UNL     1     140.496 140.974 140.989  1.00  0.00     0.208 A 
ATOM      3  C   UNL     1     141.474 139.968 140.940  1.00  0.00     0.238 A 
ATOM      4  O   UNL     1     142.659 140.291 140.664  1.00  0.00    -0.285 OA
ATOM      5  C   UNL     1     141.121 138.626 141.224  1.00  0.00     0.111 A 
ATOM      6  C   UNL     1     142.020 137.519 141.162  1.00  0.00     0.134 A 
ATOM      7  C   UNL     1     141.584 136.252 141.568  1.00  0.00     0.093 A 
ATOM      8  C   UNL     1     140.267 136.038 141.973  1.00  0.00     0.123 A 
ATOM      9  C   UNL     1     139.365 137.101 141.985  1.00  0.00     0.094 A 
ATOM     10  C   UNL     1     139.779 138.386 141.622  1.00  0.00     0.146 A 
ATOM     11  O   UNL     1     138.895 139.373 141.669  1.00  0.00    -0.452 OA
ENDROOT
BRANCH   1  12
ATOM     12  C   UNL     1     138.107 141.642 141.467  1.00  0.00     0.029 A 
ATOM     13  C   UNL     1     137.323 141.915 140.335  1.00  0.00     0.062 A 
ATOM     14  C   UNL     1     136.281 142.849 140.397  1.00  0.00     0.162 A 
ATOM     15  C   UNL     1     137.808 142.290 142.677  1.00  0.00     0.062 A 
ATOM     16  C   UNL     1     136.002 143.508 141.607  1.00  0.00     0.200 A 
ATOM     17  C   UNL     1     136.768 143.221 142.749  1.00  0.00     0.162 A 
BRANCH  14  18
ATOM     18  O   UNL     1     135.518 143.122 139.262  1.00  0.00    -0.504 OA
ATOM     19  H   UNL     1     134.615 142.689 139.112  1.00  0.00     0.293 HD
ENDBRANCH  14  18
BRANCH  16  20
ATOM     20  O   UNL     1     134.968 144.443 141.686  1.00  0.00    -0.502 OA
ATOM     21  H   UNL     1     135.054 145.377 141.303  1.00  0.00     0.293 HD
ENDBRANCH  16  20
BRANCH  17  22
ATOM     22  O   UNL     1     136.507 143.848 143.967  1.00  0.00    -0.504 OA
ATOM     23  H   UNL     1     135.961 144.700 144.030  1.00  0.00     0.293 HD
ENDBRANCH  17  22
ENDBRANCH   1  12
BRANCH   2  24
ATOM     24  O   UNL     1     140.807 142.290 140.638  1.00  0.00    -0.502 OA
ATOM     25  H   UNL     1     141.326 142.909 141.250  1.00  0.00     0.293 HD
ENDBRANCH   2  24
BRANCH   6  26
ATOM     26  O   UNL     1     143.334 137.601 140.688  1.00  0.00    -0.507 OA
ATOM     27  H   UNL     1     144.061 136.930 140.882  1.00  0.00     0.293 HD
ENDBRANCH   6  26
BRANCH   8  28
ATOM     28  O   UNL     1     139.864 134.760 142.353  1.00  0.00    -0.508 OA
ATOM     29  H   UNL     1     140.477 133.959 142.252  1.00  0.00     0.293 HD
ENDBRANCH   8  28
TORSDOF 7
ENDMDL
MODEL 9
REMARK VINA RESULT:    -5.755      4.234      6.728
REMARK INTER + INTRA:          -7.406
REMARK INTER:                  -7.104
REMARK INTRA:                  -0.303
REMARK UNBOUND:                -0.306
REMARK SMILES O=c1c(O)c(-c2cc(O)c(O)c(O)c2)oc2cc(O)cc(O)c12
REMARK SMILES IDX 5 1 3 2 2 3 1 4 23 5 21 6 20 7 18 8 17 9 16 10 15 11 6 12
REMARK SMILES IDX 7 13 8 14 14 15 10 16 12 17 9 18 11 20 13 22 4 24 22 26
REMARK SMILES IDX 19 28
REMARK H PARENT 9 19 11 21 13 23 4 25 22 27 19 29
REMARK Flexibility Score: inf
ROOT
ATOM      1  C   UNL     1     138.212 139.529 141.579  1.00  0.00     0.180 A 
ATOM      2  C   UNL     1     137.388 138.550 142.159  1.00  0.00     0.208 A 
ATOM      3  C   UNL     1     137.891 137.251 142.332  1.00  0.00     0.238 A 
ATOM      4  O   UNL     1     137.124 136.361 142.784  1.00  0.00    -0.285 OA
ATOM      5  C   UNL     1     139.231 136.960 141.975  1.00  0.00     0.111 A 
ATOM      6  C   UNL     1     139.860 135.690 142.147  1.00  0.00     0.134 A 
ATOM      7  C   UNL     1     141.157 135.490 141.658  1.00  0.00     0.093 A 
ATOM      8  C   UNL     1     141.870 136.529 141.062  1.00  0.00     0.123 A 
ATOM      9  C   UNL     1     141.286 137.789 140.938  1.00  0.00     0.094 A 
ATOM     10  C   UNL     1     139.979 138.011 141.381  1.00  0.00     0.146 A 
ATOM     11  O   UNL     1     139.453 139.218 141.224  1.00  0.00    -0.452 OA
ENDROOT
BRANCH   1  12
ATOM     12  C   UNL     1     137.747 140.916 141.351  1.00  0.00     0.029 A 
ATOM     13  C   UNL     1     138.260 141.954 142.145  1.00  0.00     0.062 A 
ATOM     14  C   UNL     1     137.853 143.279 141.938  1.00  0.00     0.162 A 
ATOM     15  C   UNL     1     136.848 141.227 140.318  1.00  0.00     0.062 A 
ATOM     16  C   UNL     1     136.936 143.578 140.915  1.00  0.00     0.200 A 
ATOM     17  C   UNL     1     136.438 142.546 140.102  1.00  0.00     0.162 A 
BRANCH  14  18
ATOM     18  O   UNL     1     138.358 144.299 142.743  1.00  0.00    -0.504 OA
ATOM     19  H   UNL     1     137.755 144.852 143.340  1.00  0.00     0.293 HD
ENDBRANCH  14  18
BRANCH  16  20
ATOM     20  O   UNL     1     136.518 144.892 140.696  1.00  0.00    -0.502 OA
ATOM     21  H   UNL     1     135.555 145.124 140.487  1.00  0.00     0.293 HD
ENDBRANCH  16  20
BRANCH  17  22
ATOM     22  O   UNL     1     135.539 142.813 139.070  1.00  0.00    -0.504 OA
ATOM     23  H   UNL     1     134.542 142.901 139.231  1.00  0.00     0.293 HD
ENDBRANCH  17  22
ENDBRANCH   1  12
BRANCH   2  24
ATOM     24  O   UNL     1     136.094 138.876 142.576  1.00  0.00    -0.502 OA
ATOM     25  H   UNL     1     135.593 139.680 142.217  1.00  0.00     0.293 HD
ENDBRANCH   2  24
BRANCH   6  26
ATOM     26  O   UNL     1     139.272 134.607 142.808  1.00  0.00    -0.507 OA
ATOM     27  H   UNL     1     139.769 133.795 143.142  1.00  0.00     0.293 HD
ENDBRANCH   6  26
BRANCH   8  28
ATOM     28  O   UNL     1     143.165 136.298 140.603  1.00  0.00    -0.508 OA
ATOM     29  H   UNL     1     143.960 136.303 141.232  1.00  0.00     0.293 HD
ENDBRANCH   8  28
TORSDOF 7
ENDMDL
