MODEL 1
REMARK VINA RESULT:    -1.856      0.000      0.000
REMARK INTER + INTRA:          -2.754
REMARK INTER:                  -2.508
REMARK INTRA:                  -0.246
REMARK UNBOUND:                -0.246
REMARK SMILES CCCCCCCC=O
REMARK SMILES IDX 5 1 4 2 3 3 2 4 1 5 6 6 7 7 8 8 9 9
REMARK H PARENT
REMARK Flexibility Score: inf
ROOT
ATOM      1  C   UNL     1     126.011 109.208 137.064  1.00  0.00     0.000 C 
ENDROOT
BRANCH   1   2
ATOM      2  C   UNL     1     125.661 109.243 135.568  1.00  0.00     0.000 C 
BRANCH   2   3
ATOM      3  C   UNL     1     126.409 108.167 134.761  1.00  0.00    -0.000 C 
BRANCH   3   4
ATOM      4  C   UNL     1     127.089 108.739 133.506  1.00  0.00    -0.003 C 
ATOM      5  C   UNL     1     127.125 110.269 133.497  1.00  0.00     0.004 C 
ENDBRANCH   3   4
ENDBRANCH   2   3
ENDBRANCH   1   2
BRANCH   1   6
ATOM      6  C   UNL     1     125.720 110.540 137.773  1.00  0.00     0.008 C 
BRANCH   6   7
ATOM      7  C   UNL     1     127.017 111.312 138.039  1.00  0.00     0.072 C 
BRANCH   7   8
ATOM      8  C   UNL     1     127.020 112.622 137.309  1.00  0.00     0.224 C 
ATOM      9  O   UNL     1     127.057 113.675 137.927  1.00  0.00    -0.303 OA
ENDBRANCH   7   8
ENDBRANCH   6   7
ENDBRANCH   1   6
TORSDOF 6
ENDMDL
MODEL 2
REMARK VINA RESULT:    -1.797      1.505      2.563
REMARK INTER + INTRA:          -2.673
REMARK INTER:                  -2.207
REMARK INTRA:                  -0.466
REMARK UNBOUND:                -0.246
REMARK SMILES CCCCCCCC=O
REMARK SMILES IDX 5 1 4 2 3 3 2 4 1 5 6 6 7 7 8 8 9 9
REMARK H PARENT
REMARK Flexibility Score: inf
ROOT
ATOM      1  C   UNL     1     125.955 110.624 134.890  1.00  0.00     0.000 C 
ENDROOT
BRANCH   1   2
ATOM      2  C   UNL     1     126.806 109.552 134.190  1.00  0.00     0.000 C 
BRANCH   2   3
ATOM      3  C   UNL     1     126.390 108.122 134.580  1.00  0.00    -0.000 C 
BRANCH   3   4
ATOM      4  C   UNL     1     125.439 108.094 135.787  1.00  0.00    -0.003 C 
ATOM      5  C   UNL     1     126.106 107.556 137.054  1.00  0.00     0.004 C 
ENDBRANCH   3   4
ENDBRANCH   2   3
ENDBRANCH   1   2
BRANCH   1   6
ATOM      6  C   UNL     1     126.800 111.777 135.454  1.00  0.00     0.008 C 
BRANCH   6   7
ATOM      7  C   UNL     1     126.896 111.688 136.981  1.00  0.00     0.072 C 
BRANCH   7   8
ATOM      8  C   UNL     1     125.552 111.418 137.588  1.00  0.00     0.224 C 
ATOM      9  O   UNL     1     125.183 112.037 138.574  1.00  0.00    -0.303 OA
ENDBRANCH   7   8
ENDBRANCH   6   7
ENDBRANCH   1   6
TORSDOF 6
ENDMDL
MODEL 3
REMARK VINA RESULT:    -1.731      2.994      4.869
REMARK INTER + INTRA:          -2.584
REMARK INTER:                  -2.216
REMARK INTRA:                  -0.369
REMARK UNBOUND:                -0.246
REMARK SMILES CCCCCCCC=O
REMARK SMILES IDX 5 1 4 2 3 3 2 4 1 5 6 6 7 7 8 8 9 9
REMARK H PARENT
REMARK Flexibility Score: inf
ROOT
ATOM      1  C   UNL     1     125.358 110.345 136.506  1.00  0.00     0.000 C 
ENDROOT
BRANCH   1   2
ATOM      2  C   UNL     1     126.299 110.552 137.704  1.00  0.00     0.000 C 
BRANCH   2   3
ATOM      3  C   UNL     1     125.920 109.675 138.911  1.00  0.00    -0.000 C 
BRANCH   3   4
ATOM      4  C   UNL     1     126.897 108.508 139.120  1.00  0.00    -0.003 C 
ATOM      5  C   UNL     1     126.402 107.201 138.496  1.00  0.00     0.004 C 
ENDBRANCH   3   4
ENDBRANCH   2   3
ENDBRANCH   1   2
BRANCH   1   6
ATOM      6  C   UNL     1     126.116 110.152 135.183  1.00  0.00     0.008 C 
BRANCH   6   7
ATOM      7  C   UNL     1     126.371 108.665 134.912  1.00  0.00     0.072 C 
BRANCH   7   8
ATOM      8  C   UNL     1     127.083 108.473 133.606  1.00  0.00     0.224 C 
ATOM      9  O   UNL     1     127.125 107.372 133.080  1.00  0.00    -0.303 OA
ENDBRANCH   7   8
ENDBRANCH   6   7
ENDBRANCH   1   6
TORSDOF 6
ENDMDL
MODEL 4
REMARK VINA RESULT:    -1.721      3.035      5.125
REMARK INTER + INTRA:          -2.571
REMARK INTER:                  -2.297
REMARK INTRA:                  -0.275
REMARK UNBOUND:                -0.246
REMARK SMILES CCCCCCCC=O
REMARK SMILES IDX 5 1 4 2 3 3 2 4 1 5 6 6 7 7 8 8 9 9
REMARK H PARENT
REMARK Flexibility Score: inf
ROOT
ATOM      1  C   UNL     1     126.763 110.521 134.446  1.00  0.00     0.000 C 
ENDROOT
BRANCH   1   2
ATOM      2  C   UNL     1     126.123 111.054 135.738  1.00  0.00     0.000 C 
BRANCH   2   3
ATOM      3  C   UNL     1     125.812 109.934 136.747  1.00  0.00    -0.000 C 
BRANCH   3   4
ATOM      4  C   UNL     1     126.403 110.216 138.138  1.00  0.00    -0.003 C 
ATOM      5  C   UNL     1     126.967 111.632 138.267  1.00  0.00     0.004 C 
ENDBRANCH   3   4
ENDBRANCH   2   3
ENDBRANCH   1   2
BRANCH   1   6
ATOM      6  C   UNL     1     126.725 108.988 134.353  1.00  0.00     0.008 C 
BRANCH   6   7
ATOM      7  C   UNL     1     127.125 108.516 132.951  1.00  0.00     0.072 C 
BRANCH   7   8
ATOM      8  C   UNL     1     125.918 108.352 132.075  1.00  0.00     0.224 C 
ATOM      9  O   UNL     1     125.848 108.932 131.003  1.00  0.00    -0.303 OA
ENDBRANCH   7   8
ENDBRANCH   6   7
ENDBRANCH   1   6
TORSDOF 6
ENDMDL
MODEL 5
REMARK VINA RESULT:    -1.672      2.270      3.087
REMARK INTER + INTRA:          -2.505
REMARK INTER:                  -2.006
REMARK INTRA:                  -0.499
REMARK UNBOUND:                -0.246
REMARK SMILES CCCCCCCC=O
REMARK SMILES IDX 5 1 4 2 3 3 2 4 1 5 6 6 7 7 8 8 9 9
REMARK H PARENT
REMARK Flexibility Score: inf
ROOT
ATOM      1  C   UNL     1     125.761 112.020 137.556  1.00  0.00     0.000 C 
ENDROOT
BRANCH   1   2
ATOM      2  C   UNL     1     125.667 112.231 136.037  1.00  0.00     0.000 C 
BRANCH   2   3
ATOM      3  C   UNL     1     126.716 111.415 135.261  1.00  0.00    -0.000 C 
BRANCH   3   4
ATOM      4  C   UNL     1     126.079 110.439 134.259  1.00  0.00    -0.003 C 
ATOM      5  C   UNL     1     127.060 109.376 133.762  1.00  0.00     0.004 C 
ENDBRANCH   3   4
ENDBRANCH   2   3
ENDBRANCH   1   2
BRANCH   1   6
ATOM      6  C   UNL     1     126.865 111.026 137.950  1.00  0.00     0.008 C 
BRANCH   6   7
ATOM      7  C   UNL     1     126.288 109.861 138.761  1.00  0.00     0.072 C 
BRANCH   7   8
ATOM      8  C   UNL     1     125.537 108.912 137.875  1.00  0.00     0.224 C 
ATOM      9  O   UNL     1     126.129 108.242 137.043  1.00  0.00    -0.303 OA
ENDBRANCH   7   8
ENDBRANCH   6   7
ENDBRANCH   1   6
TORSDOF 6
ENDMDL
MODEL 6
REMARK VINA RESULT:    -1.667      2.698      4.340
REMARK INTER + INTRA:          -2.498
REMARK INTER:                  -2.135
REMARK INTRA:                  -0.363
REMARK UNBOUND:                -0.246
REMARK SMILES CCCCCCCC=O
REMARK SMILES IDX 5 1 4 2 3 3 2 4 1 5 6 6 7 7 8 8 9 9
REMARK H PARENT
REMARK Flexibility Score: inf
ROOT
ATOM      1  C   UNL     1     125.524 108.183 135.182  1.00  0.00     0.000 C 
ENDROOT
BRANCH   1   2
ATOM      2  C   UNL     1     126.009 107.152 136.213  1.00  0.00     0.000 C 
BRANCH   2   3
ATOM      3  C   UNL     1     125.858 107.648 137.662  1.00  0.00    -0.000 C 
BRANCH   3   4
ATOM      4  C   UNL     1     125.585 109.159 137.740  1.00  0.00    -0.003 C 
ATOM      5  C   UNL     1     126.584 109.897 138.633  1.00  0.00     0.004 C 
ENDBRANCH   3   4
ENDBRANCH   2   3
ENDBRANCH   1   2
BRANCH   1   6
ATOM      6  C   UNL     1     126.645 108.659 134.245  1.00  0.00     0.008 C 
BRANCH   6   7
ATOM      7  C   UNL     1     126.751 110.188 134.251  1.00  0.00     0.072 C 
BRANCH   7   8
ATOM      8  C   UNL     1     127.125 110.705 132.895  1.00  0.00     0.224 C 
ATOM      9  O   UNL     1     126.537 110.312 131.899  1.00  0.00    -0.303 OA
ENDBRANCH   7   8
ENDBRANCH   6   7
ENDBRANCH   1   6
TORSDOF 6
ENDMDL
MODEL 7
REMARK VINA RESULT:    -1.607      1.051      1.570
REMARK INTER + INTRA:          -2.417
REMARK INTER:                  -2.203
REMARK INTRA:                  -0.214
REMARK UNBOUND:                -0.246
REMARK SMILES CCCCCCCC=O
REMARK SMILES IDX 5 1 4 2 3 3 2 4 1 5 6 6 7 7 8 8 9 9
REMARK H PARENT
REMARK Flexibility Score: inf
ROOT
ATOM      1  C   UNL     1     125.586 110.388 136.484  1.00  0.00     0.000 C 
ENDROOT
BRANCH   1   2
ATOM      2  C   UNL     1     126.025 109.171 135.654  1.00  0.00     0.000 C 
BRANCH   2   3
ATOM      3  C   UNL     1     126.625 109.569 134.294  1.00  0.00    -0.000 C 
BRANCH   3   4
ATOM      4  C   UNL     1     127.125 108.355 133.494  1.00  0.00    -0.003 C 
ATOM      5  C   UNL     1     126.134 107.189 133.504  1.00  0.00     0.004 C 
ENDBRANCH   3   4
ENDBRANCH   2   3
ENDBRANCH   1   2
BRANCH   1   6
ATOM      6  C   UNL     1     126.746 111.020 137.269  1.00  0.00     0.008 C 
BRANCH   6   7
ATOM      7  C   UNL     1     127.120 112.387 136.686  1.00  0.00     0.072 C 
BRANCH   7   8
ATOM      8  C   UNL     1     126.252 113.469 137.256  1.00  0.00     0.224 C 
ATOM      9  O   UNL     1     125.995 113.492 138.449  1.00  0.00    -0.303 OA
ENDBRANCH   7   8
ENDBRANCH   6   7
ENDBRANCH   1   6
TORSDOF 6
ENDMDL
MODEL 8
REMARK VINA RESULT:    -1.544      3.490      4.859
REMARK INTER + INTRA:          -2.332
REMARK INTER:                  -1.963
REMARK INTRA:                  -0.369
REMARK UNBOUND:                -0.246
REMARK SMILES CCCCCCCC=O
REMARK SMILES IDX 5 1 4 2 3 3 2 4 1 5 6 6 7 7 8 8 9 9
REMARK H PARENT
REMARK Flexibility Score: inf
ROOT
ATOM      1  C   UNL     1     126.768 110.506 134.000  1.00  0.00     0.000 C 
ENDROOT
BRANCH   1   2
ATOM      2  C   UNL     1     127.125 109.097 133.499  1.00  0.00     0.000 C 
BRANCH   2   3
ATOM      3  C   UNL     1     126.399 107.990 134.284  1.00  0.00    -0.000 C 
BRANCH   3   4
ATOM      4  C   UNL     1     126.000 108.437 135.700  1.00  0.00    -0.003 C 
ATOM      5  C   UNL     1     125.977 107.281 136.702  1.00  0.00     0.004 C 
ENDBRANCH   3   4
ENDBRANCH   2   3
ENDBRANCH   1   2
BRANCH   1   6
ATOM      6  C   UNL     1     126.259 111.424 132.878  1.00  0.00     0.008 C 
BRANCH   6   7
ATOM      7  C   UNL     1     124.727 111.453 132.849  1.00  0.00     0.072 C 
BRANCH   7   8
ATOM      8  C   UNL     1     124.203 110.832 131.589  1.00  0.00     0.224 C 
ATOM      9  O   UNL     1     124.408 109.652 131.348  1.00  0.00    -0.303 OA
ENDBRANCH   7   8
ENDBRANCH   6   7
ENDBRANCH   1   6
TORSDOF 6
ENDMDL
MODEL 9
REMARK VINA RESULT:    -1.512      1.873      2.648
REMARK INTER + INTRA:          -2.289
REMARK INTER:                  -1.829
REMARK INTRA:                  -0.459
REMARK UNBOUND:                -0.246
REMARK SMILES CCCCCCCC=O
REMARK SMILES IDX 5 1 4 2 3 3 2 4 1 5 6 6 7 7 8 8 9 9
REMARK H PARENT
REMARK Flexibility Score: inf
ROOT
ATOM      1  C   UNL     1     125.624 111.691 134.826  1.00  0.00     0.000 C 
ENDROOT
BRANCH   1   2
ATOM      2  C   UNL     1     125.714 110.602 133.745  1.00  0.00     0.000 C 
BRANCH   2   3
ATOM      3  C   UNL     1     127.125 109.999 133.630  1.00  0.00    -0.000 C 
BRANCH   3   4
ATOM      4  C   UNL     1     127.100 108.471 133.468  1.00  0.00    -0.003 C 
ATOM      5  C   UNL     1     126.437 107.760 134.649  1.00  0.00     0.004 C 
ENDBRANCH   3   4
ENDBRANCH   2   3
ENDBRANCH   1   2
BRANCH   1   6
ATOM      6  C   UNL     1     126.936 111.861 135.608  1.00  0.00     0.008 C 
BRANCH   6   7
ATOM      7  C   UNL     1     126.702 111.680 137.112  1.00  0.00     0.072 C 
BRANCH   7   8
ATOM      8  C   UNL     1     125.774 110.532 137.377  1.00  0.00     0.224 C 
ATOM      9  O   UNL     1     126.205 109.477 137.815  1.00  0.00    -0.303 OA
ENDBRANCH   7   8
ENDBRANCH   6   7
ENDBRANCH   1   6
TORSDOF 6
ENDMDL
