MODEL 1
REMARK VINA RESULT:    -5.107      0.000      0.000
REMARK INTER + INTRA:          -5.601
REMARK INTER:                  -5.555
REMARK INTRA:                  -0.046
REMARK UNBOUND:                -0.046
REMARK SMILES COc1cc2ccc(=O)oc2cc1O
REMARK SMILES IDX 3 1 13 2 12 3 11 4 5 5 4 6 6 7 7 8 8 9 9 10 10 11 2 12 1 13
REMARK SMILES IDX 14 14
REMARK H PARENT 14 15
REMARK Flexibility Score: inf
ROOT
ATOM      1  C   UNL     1     -15.096  24.821 -26.200  1.00  0.00     0.161 A 
ATOM      2  C   UNL     1     -15.576  25.941 -25.503  1.00  0.00     0.161 A 
ATOM      3  C   UNL     1     -14.816  26.512 -24.473  1.00  0.00     0.098 A 
ATOM      4  C   UNL     1     -13.575  25.972 -24.130  1.00  0.00     0.142 A 
ATOM      5  C   UNL     1     -13.085  24.846 -24.826  1.00  0.00     0.022 A 
ATOM      6  C   UNL     1     -13.844  24.274 -25.856  1.00  0.00     0.062 A 
ATOM      7  C   UNL     1     -11.838  24.328 -24.460  1.00  0.00     0.019 A 
ATOM      8  C   UNL     1     -11.122  24.933 -23.427  1.00  0.00     0.094 A 
ATOM      9  C   UNL     1     -11.670  26.046 -22.783  1.00  0.00     0.336 A 
ATOM     10  O   UNL     1     -11.039  26.606 -21.849  1.00  0.00    -0.246 OA
ATOM     11  O   UNL     1     -12.859  26.519 -23.150  1.00  0.00    -0.423 OA
ENDROOT
BRANCH   1  12
ATOM     12  O   UNL     1     -15.891  24.282 -27.225  1.00  0.00    -0.493 OA
ATOM     13  C   UNL     1     -15.421  23.373 -28.216  1.00  0.00     0.278 C 
ENDBRANCH   1  12
BRANCH   2  14
ATOM     14  O   UNL     1     -16.815  26.483 -25.843  1.00  0.00    -0.504 OA
ATOM     15  H   UNL     1     -17.548  26.604 -25.154  1.00  0.00     0.293 HD
ENDBRANCH   2  14
TORSDOF 2
ENDMDL
MODEL 2
REMARK VINA RESULT:    -4.912     12.570     15.057
REMARK INTER + INTRA:          -5.388
REMARK INTER:                  -5.338
REMARK INTRA:                  -0.051
REMARK UNBOUND:                -0.046
REMARK SMILES COc1cc2ccc(=O)oc2cc1O
REMARK SMILES IDX 3 1 13 2 12 3 11 4 5 5 4 6 6 7 7 8 8 9 9 10 10 11 2 12 1 13
REMARK SMILES IDX 14 14
REMARK H PARENT 14 15
REMARK Flexibility Score: inf
ROOT
ATOM      1  C   UNL     1     -25.454  28.143 -19.233  1.00  0.00     0.161 A 
ATOM      2  C   UNL     1     -24.931  27.554 -20.395  1.00  0.00     0.161 A 
ATOM      3  C   UNL     1     -25.791  27.074 -21.393  1.00  0.00     0.098 A 
ATOM      4  C   UNL     1     -27.176  27.177 -21.240  1.00  0.00     0.142 A 
ATOM      5  C   UNL     1     -27.709  27.769 -20.075  1.00  0.00     0.022 A 
ATOM      6  C   UNL     1     -26.850  28.248 -19.077  1.00  0.00     0.062 A 
ATOM      7  C   UNL     1     -29.100  27.858 -19.950  1.00  0.00     0.019 A 
ATOM      8  C   UNL     1     -29.911  27.365 -20.971  1.00  0.00     0.094 A 
ATOM      9  C   UNL     1     -29.312  26.793 -22.097  1.00  0.00     0.336 A 
ATOM     10  O   UNL     1     -30.028  26.342 -23.029  1.00  0.00    -0.246 OA
ATOM     11  O   UNL     1     -27.987  26.719 -22.191  1.00  0.00    -0.423 OA
ENDROOT
BRANCH   1  12
ATOM     12  O   UNL     1     -24.555  28.610 -18.261  1.00  0.00    -0.493 OA
ATOM     13  C   UNL     1     -24.741  28.467 -16.855  1.00  0.00     0.278 C 
ENDBRANCH   1  12
BRANCH   2  14
ATOM     14  O   UNL     1     -23.550  27.449 -20.551  1.00  0.00    -0.504 OA
ATOM     15  H   UNL     1     -23.066  26.569 -20.419  1.00  0.00     0.293 HD
ENDBRANCH   2  14
TORSDOF 2
ENDMDL
MODEL 3
REMARK VINA RESULT:    -4.878     12.989     14.421
REMARK INTER + INTRA:          -5.351
REMARK INTER:                  -5.286
REMARK INTRA:                  -0.065
REMARK UNBOUND:                -0.046
REMARK SMILES COc1cc2ccc(=O)oc2cc1O
REMARK SMILES IDX 3 1 13 2 12 3 11 4 5 5 4 6 6 7 7 8 8 9 9 10 10 11 2 12 1 13
REMARK SMILES IDX 14 14
REMARK H PARENT 14 15
REMARK Flexibility Score: inf
ROOT
ATOM      1  C   UNL     1     -28.158  27.060 -21.235  1.00  0.00     0.161 A 
ATOM      2  C   UNL     1     -26.836  26.864 -21.665  1.00  0.00     0.161 A 
ATOM      3  C   UNL     1     -25.763  27.300 -20.875  1.00  0.00     0.098 A 
ATOM      4  C   UNL     1     -26.000  27.933 -19.652  1.00  0.00     0.142 A 
ATOM      5  C   UNL     1     -27.326  28.133 -19.213  1.00  0.00     0.022 A 
ATOM      6  C   UNL     1     -28.399  27.698 -20.002  1.00  0.00     0.062 A 
ATOM      7  C   UNL     1     -27.531  28.770 -17.984  1.00  0.00     0.019 A 
ATOM      8  C   UNL     1     -26.430  29.185 -17.236  1.00  0.00     0.094 A 
ATOM      9  C   UNL     1     -25.145  28.952 -17.735  1.00  0.00     0.336 A 
ATOM     10  O   UNL     1     -24.138  29.319 -17.074  1.00  0.00    -0.246 OA
ATOM     11  O   UNL     1     -24.977  28.345 -18.907  1.00  0.00    -0.423 OA
ENDROOT
BRANCH   1  12
ATOM     12  O   UNL     1     -29.201  26.606 -22.059  1.00  0.00    -0.493 OA
ATOM     13  C   UNL     1     -29.970  27.441 -22.920  1.00  0.00     0.278 C 
ENDBRANCH   1  12
BRANCH   2  14
ATOM     14  O   UNL     1     -26.596  26.233 -22.885  1.00  0.00    -0.504 OA
ATOM     15  H   UNL     1     -26.622  25.224 -22.974  1.00  0.00     0.293 HD
ENDBRANCH   2  14
TORSDOF 2
ENDMDL
MODEL 4
REMARK VINA RESULT:    -4.860      6.973      9.384
REMARK INTER + INTRA:          -5.331
REMARK INTER:                  -5.285
REMARK INTRA:                  -0.047
REMARK UNBOUND:                -0.046
REMARK SMILES COc1cc2ccc(=O)oc2cc1O
REMARK SMILES IDX 3 1 13 2 12 3 11 4 5 5 4 6 6 7 7 8 8 9 9 10 10 11 2 12 1 13
REMARK SMILES IDX 14 14
REMARK H PARENT 14 15
REMARK Flexibility Score: inf
ROOT
ATOM      1  C   UNL     1     -17.582  29.328 -20.630  1.00  0.00     0.161 A 
ATOM      2  C   UNL     1     -17.605  30.655 -20.170  1.00  0.00     0.161 A 
ATOM      3  C   UNL     1     -18.680  31.495 -20.491  1.00  0.00     0.098 A 
ATOM      4  C   UNL     1     -19.738  31.021 -21.269  1.00  0.00     0.142 A 
ATOM      5  C   UNL     1     -19.723  29.689 -21.734  1.00  0.00     0.022 A 
ATOM      6  C   UNL     1     -18.648  28.848 -21.415  1.00  0.00     0.062 A 
ATOM      7  C   UNL     1     -20.797  29.242 -22.512  1.00  0.00     0.019 A 
ATOM      8  C   UNL     1     -21.842  30.119 -22.803  1.00  0.00     0.094 A 
ATOM      9  C   UNL     1     -21.789  31.425 -22.307  1.00  0.00     0.336 A 
ATOM     10  O   UNL     1     -22.723  32.231 -22.558  1.00  0.00    -0.246 OA
ATOM     11  O   UNL     1     -20.756  31.825 -21.570  1.00  0.00    -0.423 OA
ENDROOT
BRANCH   1  12
ATOM     12  O   UNL     1     -16.485  28.522 -20.284  1.00  0.00    -0.493 OA
ATOM     13  C   UNL     1     -16.519  27.099 -20.219  1.00  0.00     0.278 C 
ENDBRANCH   1  12
BRANCH   2  14
ATOM     14  O   UNL     1     -16.550  31.131 -19.393  1.00  0.00    -0.504 OA
ATOM     15  H   UNL     1     -16.457  32.115 -19.171  1.00  0.00     0.293 HD
ENDBRANCH   2  14
TORSDOF 2
ENDMDL
MODEL 5
REMARK VINA RESULT:    -4.844     14.224     15.717
REMARK INTER + INTRA:          -5.314
REMARK INTER:                  -5.258
REMARK INTRA:                  -0.056
REMARK UNBOUND:                -0.046
REMARK SMILES COc1cc2ccc(=O)oc2cc1O
REMARK SMILES IDX 3 1 13 2 12 3 11 4 5 5 4 6 6 7 7 8 8 9 9 10 10 11 2 12 1 13
REMARK SMILES IDX 14 14
REMARK H PARENT 14 15
REMARK Flexibility Score: inf
ROOT
ATOM      1  C   UNL     1     -19.023  34.868 -14.641  1.00  0.00     0.161 A 
ATOM      2  C   UNL     1     -18.220  33.745 -14.387  1.00  0.00     0.161 A 
ATOM      3  C   UNL     1     -18.765  32.612 -13.766  1.00  0.00     0.098 A 
ATOM      4  C   UNL     1     -20.111  32.591 -13.394  1.00  0.00     0.142 A 
ATOM      5  C   UNL     1     -20.924  33.716 -13.646  1.00  0.00     0.022 A 
ATOM      6  C   UNL     1     -20.381  34.849 -14.266  1.00  0.00     0.062 A 
ATOM      7  C   UNL     1     -22.269  33.666 -13.261  1.00  0.00     0.019 A 
ATOM      8  C   UNL     1     -22.762  32.515 -12.646  1.00  0.00     0.094 A 
ATOM      9  C   UNL     1     -21.896  31.439 -12.429  1.00  0.00     0.336 A 
ATOM     10  O   UNL     1     -22.322  30.392 -11.875  1.00  0.00    -0.246 OA
ATOM     11  O   UNL     1     -20.621  31.513 -12.803  1.00  0.00    -0.423 OA
ENDROOT
BRANCH   1  12
ATOM     12  O   UNL     1     -18.435  35.980 -15.266  1.00  0.00    -0.493 OA
ATOM     13  C   UNL     1     -18.948  36.613 -16.435  1.00  0.00     0.278 C 
ENDBRANCH   1  12
BRANCH   2  14
ATOM     14  O   UNL     1     -16.876  33.763 -14.758  1.00  0.00    -0.504 OA
ATOM     15  H   UNL     1     -16.300  32.931 -14.704  1.00  0.00     0.293 HD
ENDBRANCH   2  14
TORSDOF 2
ENDMDL
MODEL 6
REMARK VINA RESULT:    -4.760     14.756     16.643
REMARK INTER + INTRA:          -5.223
REMARK INTER:                  -5.172
REMARK INTRA:                  -0.051
REMARK UNBOUND:                -0.046
REMARK SMILES COc1cc2ccc(=O)oc2cc1O
REMARK SMILES IDX 3 1 13 2 12 3 11 4 5 5 4 6 6 7 7 8 8 9 9 10 10 11 2 12 1 13
REMARK SMILES IDX 14 14
REMARK H PARENT 14 15
REMARK Flexibility Score: inf
ROOT
ATOM      1  C   UNL     1     -29.277  27.007 -22.156  1.00  0.00     0.161 A 
ATOM      2  C   UNL     1     -28.002  26.886 -21.580  1.00  0.00     0.161 A 
ATOM      3  C   UNL     1     -27.777  27.317 -20.265  1.00  0.00     0.098 A 
ATOM      4  C   UNL     1     -28.818  27.870 -19.516  1.00  0.00     0.142 A 
ATOM      5  C   UNL     1     -30.102  27.994 -20.088  1.00  0.00     0.022 A 
ATOM      6  C   UNL     1     -30.328  27.565 -21.402  1.00  0.00     0.062 A 
ATOM      7  C   UNL     1     -31.125  28.552 -19.313  1.00  0.00     0.019 A 
ATOM      8  C   UNL     1     -30.848  28.966 -18.010  1.00  0.00     0.094 A 
ATOM      9  C   UNL     1     -29.552  28.810 -17.510  1.00  0.00     0.336 A 
ATOM     10  O   UNL     1     -29.282  29.177 -16.337  1.00  0.00    -0.246 OA
ATOM     11  O   UNL     1     -28.597  28.277 -18.268  1.00  0.00    -0.423 OA
ENDROOT
BRANCH   1  12
ATOM     12  O   UNL     1     -29.457  26.562 -23.475  1.00  0.00    -0.493 OA
ATOM     13  C   UNL     1     -30.213  27.255 -24.464  1.00  0.00     0.278 C 
ENDBRANCH   1  12
BRANCH   2  14
ATOM     14  O   UNL     1     -26.961  26.335 -22.325  1.00  0.00    -0.504 OA
ATOM     15  H   UNL     1     -27.115  25.561 -22.961  1.00  0.00     0.293 HD
ENDBRANCH   2  14
TORSDOF 2
ENDMDL
MODEL 7
REMARK VINA RESULT:    -4.650     13.031     14.604
REMARK INTER + INTRA:          -5.104
REMARK INTER:                  -5.055
REMARK INTRA:                  -0.049
REMARK UNBOUND:                -0.046
REMARK SMILES COc1cc2ccc(=O)oc2cc1O
REMARK SMILES IDX 3 1 13 2 12 3 11 4 5 5 4 6 6 7 7 8 8 9 9 10 10 11 2 12 1 13
REMARK SMILES IDX 14 14
REMARK H PARENT 14 15
REMARK Flexibility Score: inf
ROOT
ATOM      1  C   UNL     1     -28.901  27.081 -21.434  1.00  0.00     0.161 A 
ATOM      2  C   UNL     1     -29.421  27.700 -20.287  1.00  0.00     0.161 A 
ATOM      3  C   UNL     1     -28.559  28.213 -19.307  1.00  0.00     0.098 A 
ATOM      4  C   UNL     1     -27.175  28.114 -19.465  1.00  0.00     0.142 A 
ATOM      5  C   UNL     1     -26.644  27.493 -20.616  1.00  0.00     0.022 A 
ATOM      6  C   UNL     1     -27.505  26.979 -21.595  1.00  0.00     0.062 A 
ATOM      7  C   UNL     1     -25.253  27.409 -20.746  1.00  0.00     0.019 A 
ATOM      8  C   UNL     1     -24.439  27.934 -19.743  1.00  0.00     0.094 A 
ATOM      9  C   UNL     1     -25.036  28.536 -18.631  1.00  0.00     0.336 A 
ATOM     10  O   UNL     1     -24.319  29.016 -17.715  1.00  0.00    -0.246 OA
ATOM     11  O   UNL     1     -26.362  28.602 -18.531  1.00  0.00    -0.423 OA
ENDROOT
BRANCH   1  12
ATOM     12  O   UNL     1     -29.802  26.582 -22.389  1.00  0.00    -0.493 OA
ATOM     13  C   UNL     1     -29.575  26.594 -23.796  1.00  0.00     0.278 C 
ENDBRANCH   1  12
BRANCH   2  14
ATOM     14  O   UNL     1     -30.802  27.801 -20.127  1.00  0.00    -0.504 OA
ATOM     15  H   UNL     1     -31.271  27.424 -19.311  1.00  0.00     0.293 HD
ENDBRANCH   2  14
TORSDOF 2
ENDMDL
MODEL 8
REMARK VINA RESULT:    -4.644     15.499     16.289
REMARK INTER + INTRA:          -5.097
REMARK INTER:                  -5.037
REMARK INTRA:                  -0.060
REMARK UNBOUND:                -0.046
REMARK SMILES COc1cc2ccc(=O)oc2cc1O
REMARK SMILES IDX 3 1 13 2 12 3 11 4 5 5 4 6 6 7 7 8 8 9 9 10 10 11 2 12 1 13
REMARK SMILES IDX 14 14
REMARK H PARENT 14 15
REMARK Flexibility Score: inf
ROOT
ATOM      1  C   UNL     1     -23.371  32.458 -13.128  1.00  0.00     0.161 A 
ATOM      2  C   UNL     1     -23.031  31.333 -12.359  1.00  0.00     0.161 A 
ATOM      3  C   UNL     1     -21.703  31.123 -11.962  1.00  0.00     0.098 A 
ATOM      4  C   UNL     1     -20.706  32.031 -12.326  1.00  0.00     0.142 A 
ATOM      5  C   UNL     1     -21.040  33.165 -13.098  1.00  0.00     0.022 A 
ATOM      6  C   UNL     1     -22.367  33.375 -13.496  1.00  0.00     0.062 A 
ATOM      7  C   UNL     1     -20.020  34.056 -13.448  1.00  0.00     0.019 A 
ATOM      8  C   UNL     1     -18.715  33.802 -13.027  1.00  0.00     0.094 A 
ATOM      9  C   UNL     1     -18.459  32.659 -12.264  1.00  0.00     0.336 A 
ATOM     10  O   UNL     1     -17.288  32.412 -11.875  1.00  0.00    -0.246 OA
ATOM     11  O   UNL     1     -19.447  31.826 -11.946  1.00  0.00    -0.423 OA
ENDROOT
BRANCH   1  12
ATOM     12  O   UNL     1     -24.713  32.628 -13.503  1.00  0.00    -0.493 OA
ATOM     13  C   UNL     1     -25.515  33.750 -13.145  1.00  0.00     0.278 C 
ENDBRANCH   1  12
BRANCH   2  14
ATOM     14  O   UNL     1     -24.023  30.425 -11.994  1.00  0.00    -0.504 OA
ATOM     15  H   UNL     1     -24.553  30.534 -11.137  1.00  0.00     0.293 HD
ENDBRANCH   2  14
TORSDOF 2
ENDMDL
MODEL 9
REMARK VINA RESULT:    -4.558     13.848     15.617
REMARK INTER + INTRA:          -5.003
REMARK INTER:                  -4.939
REMARK INTRA:                  -0.064
REMARK UNBOUND:                -0.046
REMARK SMILES COc1cc2ccc(=O)oc2cc1O
REMARK SMILES IDX 3 1 13 2 12 3 11 4 5 5 4 6 6 7 7 8 8 9 9 10 10 11 2 12 1 13
REMARK SMILES IDX 14 14
REMARK H PARENT 14 15
REMARK Flexibility Score: inf
ROOT
ATOM      1  C   UNL     1     -19.307  32.563 -13.316  1.00  0.00     0.161 A 
ATOM      2  C   UNL     1     -19.677  32.606 -14.670  1.00  0.00     0.161 A 
ATOM      3  C   UNL     1     -20.914  32.090 -15.081  1.00  0.00     0.098 A 
ATOM      4  C   UNL     1     -21.790  31.530 -14.148  1.00  0.00     0.142 A 
ATOM      5  C   UNL     1     -21.425  31.483 -12.786  1.00  0.00     0.022 A 
ATOM      6  C   UNL     1     -20.188  31.997 -12.374  1.00  0.00     0.062 A 
ATOM      7  C   UNL     1     -22.323  30.915 -11.875  1.00  0.00     0.019 A 
ATOM      8  C   UNL     1     -23.541  30.416 -12.336  1.00  0.00     0.094 A 
ATOM      9  C   UNL     1     -23.834  30.497 -13.700  1.00  0.00     0.336 A 
ATOM     10  O   UNL     1     -24.928  30.053 -14.135  1.00  0.00    -0.246 OA
ATOM     11  O   UNL     1     -22.962  31.042 -14.546  1.00  0.00    -0.423 OA
ENDROOT
BRANCH   1  12
ATOM     12  O   UNL     1     -18.059  33.091 -12.949  1.00  0.00    -0.493 OA
ATOM     13  C   UNL     1     -16.940  32.310 -12.540  1.00  0.00     0.278 C 
ENDBRANCH   1  12
BRANCH   2  14
ATOM     14  O   UNL     1     -18.806  33.165 -15.603  1.00  0.00    -0.504 OA
ATOM     15  H   UNL     1     -18.533  34.140 -15.557  1.00  0.00     0.293 HD
ENDBRANCH   2  14
TORSDOF 2
ENDMDL
