MODEL 1
REMARK VINA RESULT:    -5.388      0.000      0.000
REMARK INTER + INTRA:          -8.586
REMARK INTER:                  -8.222
REMARK INTRA:                  -0.363
REMARK UNBOUND:                -0.363
REMARK SMILES CC1=CCC[C@H](C)C(=O)C[C@H](C(C)C)C(=O)C1
REMARK SMILES IDX 8 1 9 2 6 3 7 4 5 5 4 6 3 7 2 8 1 9 10 11 11 12 15 13 16 14
REMARK SMILES IDX 17 15 12 17 13 18 14 19
REMARK H PARENT
REMARK Flexibility Score: 70.00
ROOT
ATOM      1  C   UNL     1      27.458  15.631  81.650  1.00  0.00     0.136 C 
ATOM      2  O   UNL     1      27.510  16.852  81.574  1.00  0.00    -0.299 OA
ENDROOT
BRANCH   1   3
ATOM      3  C   UNL     1      26.225  14.894  81.155  1.00  0.00     0.053 C 
ATOM      4  C   UNL     1      24.987  15.189  82.015  1.00  0.00     0.016 C 
BRANCH   3   5
ATOM      5  C   UNL     1      25.945  15.106  79.646  1.00  0.00     0.015 C 
BRANCH   5   6
ATOM      6  C   UNL     1      27.087  14.832  78.644  1.00  0.00     0.028 C 
BRANCH   6   7
ATOM      7  C   UNL     1      27.471  13.389  78.399  1.00  0.00    -0.028 C 
ATOM      8  C   UNL     1      28.606  12.772  78.809  1.00  0.00    -0.070 CG0
ATOM      9  C   UNL     1      28.699  11.278  78.613  1.00  0.00     0.039 C 
ATOM     10  G   UNL     1      29.808  13.497  79.379  1.00  0.00     0.000 G0
ENDBRANCH   6   7
ENDBRANCH   5   6
ENDBRANCH   3   5
ENDBRANCH   1   3
BRANCH   1  11
ATOM     11  C   UNL     1      28.632  14.897  82.264  1.00  0.00     0.087 C 
BRANCH  11  12
ATOM     12  C   UNL     1      28.746  13.420  81.799  1.00  0.00     0.066 C 
BRANCH  12  13
ATOM     13  C   UNL     1      29.929  13.224  80.866  1.00  0.00     0.140 C 
ATOM     14  O   UNL     1      31.010  12.885  81.322  1.00  0.00    -0.299 OA
BRANCH  13  15
ATOM     15  C   UNL     1      29.811  13.486  79.380  1.00  0.00     0.106 CG0
ATOM     16  G   UNL     1      28.603  12.763  78.819  1.00  0.00     0.000 G0
ENDBRANCH  13  15
ENDBRANCH  12  13
BRANCH  12  17
ATOM     17  C   UNL     1      28.749  12.385  82.972  1.00  0.00    -0.006 C 
ATOM     18  C   UNL     1      27.987  12.839  84.231  1.00  0.00     0.008 C 
ATOM     19  C   UNL     1      28.216  11.018  82.516  1.00  0.00     0.008 C 
ENDBRANCH  12  17
ENDBRANCH  11  12
ENDBRANCH   1  11
TORSDOF 1
ENDMDL
MODEL 2
REMARK VINA RESULT:    -5.356      1.837      3.918
REMARK INTER + INTRA:          -8.538
REMARK INTER:                  -8.370
REMARK INTRA:                  -0.167
REMARK UNBOUND:                -0.363
REMARK SMILES CC1=CCC[C@H](C)C(=O)C[C@H](C(C)C)C(=O)C1
REMARK SMILES IDX 8 1 9 2 6 3 7 4 5 5 4 6 3 7 2 8 1 9 10 11 11 12 15 13 16 14
REMARK SMILES IDX 17 15 12 17 13 18 14 19
REMARK H PARENT
REMARK Flexibility Score: 70.00
ROOT
ATOM      1  C   UNL     1      27.012  13.603  82.913  1.00  0.00     0.136 C 
ATOM      2  O   UNL     1      26.913  14.342  83.883  1.00  0.00    -0.299 OA
ENDROOT
BRANCH   1   3
ATOM      3  C   UNL     1      27.900  12.372  82.988  1.00  0.00     0.053 C 
ATOM      4  C   UNL     1      28.262  12.004  84.434  1.00  0.00     0.016 C 
BRANCH   3   5
ATOM      5  C   UNL     1      27.338  11.159  82.205  1.00  0.00     0.015 C 
BRANCH   5   6
ATOM      6  C   UNL     1      28.115  10.663  80.967  1.00  0.00     0.028 C 
BRANCH   6   7
ATOM      7  C   UNL     1      29.123  11.606  80.350  1.00  0.00    -0.028 C 
ATOM      8  C   UNL     1      28.855  12.706  79.606  1.00  0.00    -0.070 CG0
ATOM      9  C   UNL     1      30.011  13.607  79.245  1.00  0.00     0.039 C 
ATOM     10  G   UNL     1      27.483  13.044  79.055  1.00  0.00     0.000 G0
ENDBRANCH   6   7
ENDBRANCH   5   6
ENDBRANCH   3   5
ENDBRANCH   1   3
BRANCH   1  11
ATOM     11  C   UNL     1      26.254  13.963  81.652  1.00  0.00     0.087 C 
BRANCH  11  12
ATOM     12  C   UNL     1      26.985  15.011  80.771  1.00  0.00     0.066 C 
BRANCH  12  13
ATOM     13  C   UNL     1      27.158  14.513  79.346  1.00  0.00     0.140 C 
ATOM     14  O   UNL     1      26.998  15.283  78.412  1.00  0.00    -0.299 OA
BRANCH  13  15
ATOM     15  C   UNL     1      27.478  13.063  79.053  1.00  0.00     0.106 CG0
ATOM     16  G   UNL     1      28.845  12.711  79.605  1.00  0.00     0.000 G0
ENDBRANCH  13  15
ENDBRANCH  12  13
BRANCH  12  17
ATOM     17  C   UNL     1      26.343  16.437  80.818  1.00  0.00    -0.006 C 
ATOM     18  C   UNL     1      24.862  16.460  81.241  1.00  0.00     0.008 C 
ATOM     19  C   UNL     1      27.148  17.386  81.720  1.00  0.00     0.008 C 
ENDBRANCH  12  17
ENDBRANCH  11  12
ENDBRANCH   1  11
TORSDOF 1
ENDMDL
MODEL 3
REMARK VINA RESULT:    -5.263      2.043      4.239
REMARK INTER + INTRA:          -8.396
REMARK INTER:                  -8.062
REMARK INTRA:                  -0.334
REMARK UNBOUND:                -0.363
REMARK SMILES CC1=CCC[C@H](C)C(=O)C[C@H](C(C)C)C(=O)C1
REMARK SMILES IDX 8 1 9 2 6 3 7 4 5 5 4 6 3 7 2 8 1 9 10 11 11 12 15 13 16 14
REMARK SMILES IDX 17 15 12 17 13 18 14 19
REMARK H PARENT
REMARK Flexibility Score: 70.00
ROOT
ATOM      1  C   UNL     1      28.620  14.003  79.361  1.00  0.00     0.136 C 
ATOM      2  O   UNL     1      29.597  13.926  78.628  1.00  0.00    -0.299 OA
ENDROOT
BRANCH   1   3
ATOM      3  C   UNL     1      27.398  13.143  79.087  1.00  0.00     0.053 C 
ATOM      4  C   UNL     1      27.064  13.068  77.589  1.00  0.00     0.016 C 
BRANCH   3   5
ATOM      5  C   UNL     1      27.477  11.737  79.733  1.00  0.00     0.015 C 
BRANCH   5   6
ATOM      6  C   UNL     1      28.746  11.369  80.533  1.00  0.00     0.028 C 
BRANCH   6   7
ATOM      7  C   UNL     1      28.575  11.033  81.997  1.00  0.00    -0.028 C 
ATOM      8  C   UNL     1      28.630  11.897  83.039  1.00  0.00    -0.070 CG0
ATOM      9  C   UNL     1      28.250  11.374  84.403  1.00  0.00     0.039 C 
ATOM     10  G   UNL     1      29.121  13.327  82.931  1.00  0.00     0.000 G0
ENDBRANCH   6   7
ENDBRANCH   5   6
ENDBRANCH   3   5
ENDBRANCH   1   3
BRANCH   1  11
ATOM     11  C   UNL     1      28.661  14.984  80.514  1.00  0.00     0.087 C 
BRANCH  11  12
ATOM     12  C   UNL     1      27.474  14.823  81.502  1.00  0.00     0.066 C 
BRANCH  12  13
ATOM     13  C   UNL     1      27.941  14.288  82.845  1.00  0.00     0.140 C 
ATOM     14  O   UNL     1      27.386  14.655  83.870  1.00  0.00    -0.299 OA
BRANCH  13  15
ATOM     15  C   UNL     1      29.116  13.339  82.949  1.00  0.00     0.106 CG0
ATOM     16  G   UNL     1      28.622  11.910  83.056  1.00  0.00     0.000 G0
ENDBRANCH  13  15
ENDBRANCH  12  13
BRANCH  12  17
ATOM     17  C   UNL     1      26.600  16.112  81.658  1.00  0.00    -0.006 C 
ATOM     18  C   UNL     1      27.402  17.424  81.752  1.00  0.00     0.008 C 
ATOM     19  C   UNL     1      25.562  16.226  80.531  1.00  0.00     0.008 C 
ENDBRANCH  12  17
ENDBRANCH  11  12
ENDBRANCH   1  11
TORSDOF 1
ENDMDL
MODEL 4
REMARK VINA RESULT:    -5.237      2.196      4.500
REMARK INTER + INTRA:          -8.356
REMARK INTER:                  -8.313
REMARK INTRA:                  -0.043
REMARK UNBOUND:                -0.363
REMARK SMILES CC1=CCC[C@H](C)C(=O)C[C@H](C(C)C)C(=O)C1
REMARK SMILES IDX 8 1 9 2 6 3 7 4 5 5 4 6 3 7 2 8 1 9 10 11 11 12 15 13 16 14
REMARK SMILES IDX 17 15 12 17 13 18 14 19
REMARK H PARENT
REMARK Flexibility Score: 70.00
ROOT
ATOM      1  C   UNL     1      27.481  14.107  79.291  1.00  0.00     0.136 C 
ATOM      2  O   UNL     1      26.449  14.171  78.636  1.00  0.00    -0.299 OA
ENDROOT
BRANCH   1   3
ATOM      3  C   UNL     1      28.534  13.067  78.944  1.00  0.00     0.053 C 
ATOM      4  C   UNL     1      29.962  13.607  79.114  1.00  0.00     0.016 C 
BRANCH   3   5
ATOM      5  C   UNL     1      28.334  11.719  79.681  1.00  0.00     0.015 C 
BRANCH   5   6
ATOM      6  C   UNL     1      27.256  11.640  80.783  1.00  0.00     0.028 C 
BRANCH   6   7
ATOM      7  C   UNL     1      27.713  11.295  82.183  1.00  0.00    -0.028 C 
ATOM      8  C   UNL     1      28.113  12.165  83.143  1.00  0.00    -0.070 CG0
ATOM      9  C   UNL     1      28.351  11.617  84.528  1.00  0.00     0.039 C 
ATOM     10  G   UNL     1      28.407  13.630  82.891  1.00  0.00     0.000 G0
ENDBRANCH   6   7
ENDBRANCH   5   6
ENDBRANCH   3   5
ENDBRANCH   1   3
BRANCH   1  11
ATOM     11  C   UNL     1      27.659  15.064  80.451  1.00  0.00     0.087 C 
BRANCH  11  12
ATOM     12  C   UNL     1      26.557  14.928  81.536  1.00  0.00     0.066 C 
BRANCH  12  13
ATOM     13  C   UNL     1      27.137  14.446  82.855  1.00  0.00     0.140 C 
ATOM     14  O   UNL     1      26.583  14.740  83.904  1.00  0.00    -0.299 OA
BRANCH  13  15
ATOM     15  C   UNL     1      28.420  13.645  82.906  1.00  0.00     0.106 CG0
ATOM     16  G   UNL     1      28.109  12.181  83.150  1.00  0.00     0.000 G0
ENDBRANCH  13  15
ENDBRANCH  12  13
BRANCH  12  17
ATOM     17  C   UNL     1      25.683  16.213  81.716  1.00  0.00    -0.006 C 
ATOM     18  C   UNL     1      25.938  17.315  80.671  1.00  0.00     0.008 C 
ATOM     19  C   UNL     1      24.184  15.873  81.745  1.00  0.00     0.008 C 
ENDBRANCH  12  17
ENDBRANCH  11  12
ENDBRANCH   1  11
TORSDOF 1
ENDMDL
MODEL 5
REMARK VINA RESULT:    -5.189      1.713      4.693
REMARK INTER + INTRA:          -8.282
REMARK INTER:                  -8.042
REMARK INTRA:                  -0.240
REMARK UNBOUND:                -0.363
REMARK SMILES CC1=CCC[C@H](C)C(=O)C[C@H](C(C)C)C(=O)C1
REMARK SMILES IDX 8 1 9 2 6 3 7 4 5 5 4 6 3 7 2 8 1 9 10 11 11 12 15 13 16 14
REMARK SMILES IDX 17 15 12 17 13 18 14 19
REMARK H PARENT
REMARK Flexibility Score: 70.00
ROOT
ATOM      1  C   UNL     1      28.771  12.623  78.758  1.00  0.00     0.136 C 
ATOM      2  O   UNL     1      29.808  12.157  78.303  1.00  0.00    -0.299 OA
ENDROOT
BRANCH   1   3
ATOM      3  C   UNL     1      27.613  11.699  79.099  1.00  0.00     0.053 C 
ATOM      4  C   UNL     1      27.111  10.921  77.874  1.00  0.00     0.016 C 
BRANCH   3   5
ATOM      5  C   UNL     1      27.903  10.765  80.300  1.00  0.00     0.015 C 
BRANCH   5   6
ATOM      6  C   UNL     1      28.970  11.202  81.327  1.00  0.00     0.028 C 
BRANCH   6   7
ATOM      7  C   UNL     1      28.486  11.864  82.598  1.00  0.00    -0.028 C 
ATOM      8  C   UNL     1      28.523  13.187  82.888  1.00  0.00    -0.070 CG0
ATOM      9  C   UNL     1      27.818  13.649  84.140  1.00  0.00     0.039 C 
ATOM     10  G   UNL     1      29.290  14.212  82.077  1.00  0.00     0.000 G0
ENDBRANCH   6   7
ENDBRANCH   5   6
ENDBRANCH   3   5
ENDBRANCH   1   3
BRANCH   1  11
ATOM     11  C   UNL     1      28.676  14.123  78.946  1.00  0.00     0.087 C 
BRANCH  11  12
ATOM     12  C   UNL     1      27.645  14.544  80.027  1.00  0.00     0.066 C 
BRANCH  12  13
ATOM     13  C   UNL     1      28.335  15.082  81.269  1.00  0.00     0.140 C 
ATOM     14  O   UNL     1      28.151  16.240  81.610  1.00  0.00    -0.299 OA
BRANCH  13  15
ATOM     15  C   UNL     1      29.289  14.225  82.074  1.00  0.00     0.106 CG0
ATOM     16  G   UNL     1      28.514  13.198  82.876  1.00  0.00     0.000 G0
ENDBRANCH  13  15
ENDBRANCH  12  13
BRANCH  12  17
ATOM     17  C   UNL     1      26.540  15.520  79.504  1.00  0.00    -0.006 C 
ATOM     18  C   UNL     1      26.130  15.297  78.036  1.00  0.00     0.008 C 
ATOM     19  C   UNL     1      25.289  15.482  80.396  1.00  0.00     0.008 C 
ENDBRANCH  12  17
ENDBRANCH  11  12
ENDBRANCH   1  11
TORSDOF 1
ENDMDL
MODEL 6
REMARK VINA RESULT:    -5.151      2.109      4.139
REMARK INTER + INTRA:          -8.224
REMARK INTER:                  -7.934
REMARK INTRA:                  -0.290
REMARK UNBOUND:                -0.363
REMARK SMILES CC1=CCC[C@H](C)C(=O)C[C@H](C(C)C)C(=O)C1
REMARK SMILES IDX 8 1 9 2 6 3 7 4 5 5 4 6 3 7 2 8 1 9 10 11 11 12 15 13 16 14
REMARK SMILES IDX 17 15 12 17 13 18 14 19
REMARK H PARENT
REMARK Flexibility Score: 70.00
ROOT
ATOM      1  C   UNL     1      28.405  14.312  79.130  1.00  0.00     0.136 C 
ATOM      2  O   UNL     1      29.404  14.465  78.440  1.00  0.00    -0.299 OA
ENDROOT
BRANCH   1   3
ATOM      3  C   UNL     1      27.207  13.563  78.571  1.00  0.00     0.053 C 
ATOM      4  C   UNL     1      26.624  14.246  77.325  1.00  0.00     0.016 C 
BRANCH   3   5
ATOM      5  C   UNL     1      27.479  12.057  78.332  1.00  0.00     0.015 C 
BRANCH   5   6
ATOM      6  C   UNL     1      27.219  11.073  79.493  1.00  0.00     0.028 C 
BRANCH   6   7
ATOM      7  C   UNL     1      28.092  11.197  80.722  1.00  0.00    -0.028 C 
ATOM      8  C   UNL     1      27.745  11.750  81.910  1.00  0.00    -0.070 CG0
ATOM      9  C   UNL     1      28.712  11.601  83.059  1.00  0.00     0.039 C 
ATOM     10  G   UNL     1      26.489  12.568  82.131  1.00  0.00     0.000 G0
ENDBRANCH   6   7
ENDBRANCH   5   6
ENDBRANCH   3   5
ENDBRANCH   1   3
BRANCH   1  11
ATOM     11  C   UNL     1      28.394  14.904  80.524  1.00  0.00     0.087 C 
BRANCH  11  12
ATOM     12  C   UNL     1      26.976  14.983  81.149  1.00  0.00     0.066 C 
BRANCH  12  13
ATOM     13  C   UNL     1      26.840  14.040  82.333  1.00  0.00     0.140 C 
ATOM     14  O   UNL     1      27.053  14.452  83.463  1.00  0.00    -0.299 OA
BRANCH  13  15
ATOM     15  C   UNL     1      26.492  12.579  82.140  1.00  0.00     0.106 CG0
ATOM     16  G   UNL     1      27.752  11.772  81.898  1.00  0.00     0.000 G0
ENDBRANCH  13  15
ENDBRANCH  12  13
BRANCH  12  17
ATOM     17  C   UNL     1      26.519  16.436  81.505  1.00  0.00    -0.006 C 
ATOM     18  C   UNL     1      27.671  17.429  81.751  1.00  0.00     0.008 C 
ATOM     19  C   UNL     1      25.573  17.005  80.436  1.00  0.00     0.008 C 
ENDBRANCH  12  17
ENDBRANCH  11  12
ENDBRANCH   1  11
TORSDOF 1
ENDMDL
MODEL 7
REMARK VINA RESULT:    -5.050      1.820      3.812
REMARK INTER + INTRA:          -8.070
REMARK INTER:                  -8.125
REMARK INTRA:                   0.054
REMARK UNBOUND:                -0.363
REMARK SMILES CC1=CCC[C@H](C)C(=O)C[C@H](C(C)C)C(=O)C1
REMARK SMILES IDX 8 1 9 2 6 3 7 4 5 5 4 6 3 7 2 8 1 9 10 11 11 12 15 13 16 14
REMARK SMILES IDX 17 15 12 17 13 18 14 19
REMARK H PARENT
REMARK Flexibility Score: 70.00
ROOT
ATOM      1  C   UNL     1      27.398  11.902  80.629  1.00  0.00     0.136 C 
ATOM      2  O   UNL     1      27.645  11.210  81.608  1.00  0.00    -0.299 OA
ENDROOT
BRANCH   1   3
ATOM      3  C   UNL     1      27.734  11.392  79.237  1.00  0.00     0.053 C 
ATOM      4  C   UNL     1      27.451  12.439  78.150  1.00  0.00     0.016 C 
BRANCH   3   5
ATOM      5  C   UNL     1      29.167  10.812  79.124  1.00  0.00     0.015 C 
BRANCH   5   6
ATOM      6  C   UNL     1      30.323  11.778  78.786  1.00  0.00     0.028 C 
BRANCH   6   7
ATOM      7  C   UNL     1      30.987  12.501  79.936  1.00  0.00    -0.028 C 
ATOM      8  C   UNL     1      30.553  13.633  80.542  1.00  0.00    -0.070 CG0
ATOM      9  C   UNL     1      31.274  14.080  81.790  1.00  0.00     0.039 C 
ATOM     10  G   UNL     1      29.443  14.513  80.001  1.00  0.00     0.000 G0
ENDBRANCH   6   7
ENDBRANCH   5   6
ENDBRANCH   3   5
ENDBRANCH   1   3
BRANCH   1  11
ATOM     11  C   UNL     1      26.779  13.266  80.849  1.00  0.00     0.087 C 
BRANCH  11  12
ATOM     12  C   UNL     1      27.583  14.155  81.836  1.00  0.00     0.066 C 
BRANCH  12  13
ATOM     13  C   UNL     1      28.567  15.048  81.099  1.00  0.00     0.140 C 
ATOM     14  O   UNL     1      28.637  16.235  81.382  1.00  0.00    -0.299 OA
BRANCH  13  15
ATOM     15  C   UNL     1      29.436  14.510  79.983  1.00  0.00     0.106 CG0
ATOM     16  G   UNL     1      30.533  13.635  80.555  1.00  0.00     0.000 G0
ENDBRANCH  13  15
ENDBRANCH  12  13
BRANCH  12  17
ATOM     17  C   UNL     1      26.689  14.966  82.831  1.00  0.00    -0.006 C 
ATOM     18  C   UNL     1      25.194  15.007  82.464  1.00  0.00     0.008 C 
ATOM     19  C   UNL     1      26.848  14.456  84.272  1.00  0.00     0.008 C 
ENDBRANCH  12  17
ENDBRANCH  11  12
ENDBRANCH   1  11
TORSDOF 1
ENDMDL
MODEL 8
REMARK VINA RESULT:    -5.024      2.353      4.214
REMARK INTER + INTRA:          -8.031
REMARK INTER:                  -7.608
REMARK INTRA:                  -0.423
REMARK UNBOUND:                -0.363
REMARK SMILES CC1=CCC[C@H](C)C(=O)C[C@H](C(C)C)C(=O)C1
REMARK SMILES IDX 8 1 9 2 6 3 7 4 5 5 4 6 3 7 2 8 1 9 10 11 11 12 15 13 16 14
REMARK SMILES IDX 17 15 12 17 13 18 14 19
REMARK H PARENT
REMARK Flexibility Score: 70.00
ROOT
ATOM      1  C   UNL     1      27.460  12.464  79.782  1.00  0.00     0.136 C 
ATOM      2  O   UNL     1      27.169  11.460  79.144  1.00  0.00    -0.299 OA
ENDROOT
BRANCH   1   3
ATOM      3  C   UNL     1      28.164  13.621  79.091  1.00  0.00     0.053 C 
ATOM      4  C   UNL     1      29.586  13.252  78.644  1.00  0.00     0.016 C 
BRANCH   3   5
ATOM      5  C   UNL     1      27.337  14.244  77.939  1.00  0.00     0.015 C 
BRANCH   5   6
ATOM      6  C   UNL     1      26.051  15.019  78.296  1.00  0.00     0.028 C 
BRANCH   6   7
ATOM      7  C   UNL     1      26.190  16.227  79.196  1.00  0.00    -0.028 C 
ATOM      8  C   UNL     1      25.957  16.275  80.530  1.00  0.00    -0.070 CG0
ATOM      9  C   UNL     1      26.336  17.539  81.262  1.00  0.00     0.039 C 
ATOM     10  G   UNL     1      25.273  15.171  81.312  1.00  0.00     0.000 G0
ENDBRANCH   6   7
ENDBRANCH   5   6
ENDBRANCH   3   5
ENDBRANCH   1   3
BRANCH   1  11
ATOM     11  C   UNL     1      27.123  12.503  81.258  1.00  0.00     0.087 C 
BRANCH  11  12
ATOM     12  C   UNL     1      27.493  13.849  81.938  1.00  0.00     0.066 C 
BRANCH  12  13
ATOM     13  C   UNL     1      26.250  14.615  82.359  1.00  0.00     0.140 C 
ATOM     14  O   UNL     1      25.999  14.758  83.546  1.00  0.00    -0.299 OA
BRANCH  13  15
ATOM     15  C   UNL     1      25.282  15.169  81.336  1.00  0.00     0.106 CG0
ATOM     16  G   UNL     1      25.946  16.273  80.538  1.00  0.00     0.000 G0
ENDBRANCH  13  15
ENDBRANCH  12  13
BRANCH  12  17
ATOM     17  C   UNL     1      28.516  13.705  83.113  1.00  0.00    -0.006 C 
ATOM     18  C   UNL     1      28.347  12.430  83.960  1.00  0.00     0.008 C 
ATOM     19  C   UNL     1      29.966  13.795  82.608  1.00  0.00     0.008 C 
ENDBRANCH  12  17
ENDBRANCH  11  12
ENDBRANCH   1  11
TORSDOF 1
ENDMDL
MODEL 9
REMARK VINA RESULT:    -5.006      1.488      2.290
REMARK INTER + INTRA:          -8.004
REMARK INTER:                  -8.278
REMARK INTRA:                   0.274
REMARK UNBOUND:                -0.363
REMARK SMILES CC1=CCC[C@H](C)C(=O)C[C@H](C(C)C)C(=O)C1
REMARK SMILES IDX 8 1 9 2 6 3 7 4 5 5 4 6 3 7 2 8 1 9 10 11 11 12 15 13 16 14
REMARK SMILES IDX 17 15 12 17 13 18 14 19
REMARK H PARENT
REMARK Flexibility Score: 70.00
ROOT
ATOM      1  C   UNL     1      26.805  14.893  80.266  1.00  0.00     0.136 C 
ATOM      2  O   UNL     1      25.669  15.205  80.597  1.00  0.00    -0.299 OA
ENDROOT
BRANCH   1   3
ATOM      3  C   UNL     1      27.049  14.253  78.910  1.00  0.00     0.053 C 
ATOM      4  C   UNL     1      26.034  14.719  77.856  1.00  0.00     0.016 C 
BRANCH   3   5
ATOM      5  C   UNL     1      28.509  14.400  78.413  1.00  0.00     0.015 C 
BRANCH   5   6
ATOM      6  C   UNL     1      29.409  13.146  78.400  1.00  0.00     0.028 C 
BRANCH   6   7
ATOM      7  C   UNL     1      28.904  11.916  79.121  1.00  0.00    -0.028 C 
ATOM      8  C   UNL     1      29.203  11.539  80.387  1.00  0.00    -0.070 CG0
ATOM      9  C   UNL     1      28.442  10.373  80.969  1.00  0.00     0.039 C 
ATOM     10  G   UNL     1      30.302  12.166  81.222  1.00  0.00     0.000 G0
ENDBRANCH   6   7
ENDBRANCH   5   6
ENDBRANCH   3   5
ENDBRANCH   1   3
BRANCH   1  11
ATOM     11  C   UNL     1      27.934  15.140  81.245  1.00  0.00     0.087 C 
BRANCH  11  12
ATOM     12  C   UNL     1      28.395  13.859  81.990  1.00  0.00     0.066 C 
BRANCH  12  13
ATOM     13  C   UNL     1      29.854  13.546  81.702  1.00  0.00     0.140 C 
ATOM     14  O   UNL     1      30.694  14.426  81.808  1.00  0.00    -0.299 OA
BRANCH  13  15
ATOM     15  C   UNL     1      30.288  12.172  81.238  1.00  0.00     0.106 CG0
ATOM     16  G   UNL     1      29.212  11.554  80.368  1.00  0.00     0.000 G0
ENDBRANCH  13  15
ENDBRANCH  12  13
BRANCH  12  17
ATOM     17  C   UNL     1      28.093  13.875  83.525  1.00  0.00    -0.006 C 
ATOM     18  C   UNL     1      26.717  14.455  83.903  1.00  0.00     0.008 C 
ATOM     19  C   UNL     1      28.243  12.474  84.142  1.00  0.00     0.008 C 
ENDBRANCH  12  17
ENDBRANCH  11  12
ENDBRANCH   1  11
TORSDOF 1
ENDMDL
