MODEL 1
REMARK VINA RESULT:    -4.454      0.000      0.000
REMARK INTER + INTRA:          -6.951
REMARK INTER:                  -6.017
REMARK INTRA:                  -0.934
REMARK UNBOUND:                -0.934
REMARK SMILES C=CC(C)=CCC=C(C)CCC=C(C)C
REMARK SMILES IDX 8 1 7 2 9 3 10 4 11 5 12 6 14 7 13 8 15 9 6 10 5 11 3 12
REMARK SMILES IDX 4 13 2 14 1 15
REMARK H PARENT
REMARK Flexibility Score: inf
ROOT
ATOM      1  C   UNL     1      52.644  30.163  26.431  1.00  0.00    -0.077 C 
ATOM      2  C   UNL     1      51.339  30.378  26.712  1.00  0.00    -0.024 C 
ATOM      3  C   UNL     1      53.631  31.302  26.330  1.00  0.00     0.039 C 
ENDROOT
BRANCH   1   4
ATOM      4  C   UNL     1      53.128  28.746  26.218  1.00  0.00     0.034 C 
BRANCH   4   5
ATOM      5  C   UNL     1      54.006  28.289  27.388  1.00  0.00     0.032 C 
BRANCH   5   6
ATOM      6  C   UNL     1      55.231  27.565  26.888  1.00  0.00    -0.028 C 
ATOM      7  C   UNL     1      56.756  29.500  27.336  1.00  0.00     0.039 C 
ATOM      8  C   UNL     1      56.477  28.086  26.881  1.00  0.00    -0.080 C 
ATOM      9  C   UNL     1      57.612  27.228  26.386  1.00  0.00     0.039 C 
ENDBRANCH   5   6
ENDBRANCH   4   5
ENDBRANCH   1   4
BRANCH   2  10
ATOM     10  C   UNL     1      50.737  31.742  26.930  1.00  0.00     0.055 C 
BRANCH  10  11
ATOM     11  C   UNL     1      50.549  32.002  28.403  1.00  0.00    -0.020 C 
ATOM     12  C   UNL     1      50.844  33.161  29.025  1.00  0.00    -0.055 C 
ATOM     13  C   UNL     1      51.310  34.375  28.253  1.00  0.00     0.044 C 
BRANCH  12  14
ATOM     14  C   UNL     1      50.682  33.217  30.499  1.00  0.00    -0.005 C 
ATOM     15  C   UNL     1      50.816  32.155  31.294  1.00  0.00     0.009 C 
ENDBRANCH  12  14
ENDBRANCH  10  11
ENDBRANCH   2  10
TORSDOF 6
ENDMDL
MODEL 2
REMARK VINA RESULT:    -4.359     19.089     21.584
REMARK INTER + INTRA:          -6.822
REMARK INTER:                  -5.617
REMARK INTRA:                  -1.205
REMARK UNBOUND:                -0.934
REMARK SMILES C=CC(C)=CCC=C(C)CCC=C(C)C
REMARK SMILES IDX 8 1 7 2 9 3 10 4 11 5 12 6 14 7 13 8 15 9 6 10 5 11 3 12
REMARK SMILES IDX 4 13 2 14 1 15
REMARK H PARENT
REMARK Flexibility Score: inf
ROOT
ATOM      1  C   UNL     1      59.696  43.550  41.586  1.00  0.00    -0.077 C 
ATOM      2  C   UNL     1      60.327  43.597  42.782  1.00  0.00    -0.024 C 
ATOM      3  C   UNL     1      59.509  42.251  40.838  1.00  0.00     0.039 C 
ENDROOT
BRANCH   1   4
ATOM      4  C   UNL     1      59.162  44.831  40.985  1.00  0.00     0.034 C 
BRANCH   4   5
ATOM      5  C   UNL     1      58.020  45.397  41.837  1.00  0.00     0.032 C 
BRANCH   5   6
ATOM      6  C   UNL     1      56.794  44.525  41.735  1.00  0.00    -0.028 C 
ATOM      7  C   UNL     1      56.923  43.788  44.125  1.00  0.00     0.039 C 
ATOM      8  C   UNL     1      56.274  43.816  42.761  1.00  0.00    -0.080 C 
ATOM      9  C   UNL     1      55.018  43.017  42.518  1.00  0.00     0.039 C 
ENDBRANCH   5   6
ENDBRANCH   4   5
ENDBRANCH   1   4
BRANCH   2  10
ATOM     10  C   UNL     1      60.913  42.393  43.472  1.00  0.00     0.055 C 
BRANCH  10  11
ATOM     11  C   UNL     1      62.413  42.382  43.321  1.00  0.00    -0.020 C 
ATOM     12  C   UNL     1      63.147  41.302  42.983  1.00  0.00    -0.055 C 
ATOM     13  C   UNL     1      62.494  39.989  42.615  1.00  0.00     0.044 C 
BRANCH  12  14
ATOM     14  C   UNL     1      64.623  41.445  42.966  1.00  0.00    -0.005 C 
ATOM     15  C   UNL     1      65.247  42.623  42.916  1.00  0.00     0.009 C 
ENDBRANCH  12  14
ENDBRANCH  10  11
ENDBRANCH   2  10
TORSDOF 6
ENDMDL
MODEL 3
REMARK VINA RESULT:    -4.341     19.109     20.526
REMARK INTER + INTRA:          -6.798
REMARK INTER:                  -6.053
REMARK INTRA:                  -0.745
REMARK UNBOUND:                -0.934
REMARK SMILES C=CC(C)=CCC=C(C)CCC=C(C)C
REMARK SMILES IDX 8 1 7 2 9 3 10 4 11 5 12 6 14 7 13 8 15 9 6 10 5 11 3 12
REMARK SMILES IDX 4 13 2 14 1 15
REMARK H PARENT
REMARK Flexibility Score: inf
ROOT
ATOM      1  C   UNL     1      59.674  43.110  42.497  1.00  0.00    -0.077 C 
ATOM      2  C   UNL     1      58.793  43.211  43.518  1.00  0.00    -0.024 C 
ATOM      3  C   UNL     1      59.263  42.579  41.144  1.00  0.00     0.039 C 
ENDROOT
BRANCH   1   4
ATOM      4  C   UNL     1      61.107  43.543  42.716  1.00  0.00     0.034 C 
BRANCH   4   5
ATOM      5  C   UNL     1      61.765  42.710  43.822  1.00  0.00     0.032 C 
BRANCH   5   6
ATOM      6  C   UNL     1      61.892  41.268  43.400  1.00  0.00    -0.028 C 
ATOM      7  C   UNL     1      64.312  41.491  42.795  1.00  0.00     0.039 C 
ATOM      8  C   UNL     1      63.036  40.698  42.961  1.00  0.00    -0.080 C 
ATOM      9  C   UNL     1      63.021  39.233  42.611  1.00  0.00     0.039 C 
ENDBRANCH   5   6
ENDBRANCH   4   5
ENDBRANCH   1   4
BRANCH   2  10
ATOM     10  C   UNL     1      57.347  42.797  43.426  1.00  0.00     0.055 C 
BRANCH  10  11
ATOM     11  C   UNL     1      56.477  43.995  43.139  1.00  0.00    -0.020 C 
ATOM     12  C   UNL     1      55.232  43.939  42.625  1.00  0.00    -0.055 C 
ATOM     13  C   UNL     1      54.539  42.618  42.380  1.00  0.00     0.044 C 
BRANCH  12  14
ATOM     14  C   UNL     1      54.550  45.221  42.320  1.00  0.00    -0.005 C 
ATOM     15  C   UNL     1      53.232  45.330  42.152  1.00  0.00     0.009 C 
ENDBRANCH  12  14
ENDBRANCH  10  11
ENDBRANCH   2  10
TORSDOF 6
ENDMDL
MODEL 4
REMARK VINA RESULT:    -4.331      0.944      1.452
REMARK INTER + INTRA:          -6.785
REMARK INTER:                  -6.015
REMARK INTRA:                  -0.770
REMARK UNBOUND:                -0.934
REMARK SMILES C=CC(C)=CCC=C(C)CCC=C(C)C
REMARK SMILES IDX 8 1 7 2 9 3 10 4 11 5 12 6 14 7 13 8 15 9 6 10 5 11 3 12
REMARK SMILES IDX 4 13 2 14 1 15
REMARK H PARENT
REMARK Flexibility Score: inf
ROOT
ATOM      1  C   UNL     1      52.336  29.532  26.766  1.00  0.00    -0.077 C 
ATOM      2  C   UNL     1      51.132  29.738  27.348  1.00  0.00    -0.024 C 
ATOM      3  C   UNL     1      53.101  30.655  26.107  1.00  0.00     0.039 C 
ENDROOT
BRANCH   1   4
ATOM      4  C   UNL     1      52.932  28.142  26.781  1.00  0.00     0.034 C 
BRANCH   4   5
ATOM      5  C   UNL     1      54.105  28.063  27.765  1.00  0.00     0.032 C 
BRANCH   5   6
ATOM      6  C   UNL     1      55.306  27.425  27.116  1.00  0.00    -0.028 C 
ATOM      7  C   UNL     1      56.661  29.530  27.182  1.00  0.00     0.039 C 
ATOM      8  C   UNL     1      56.471  28.064  26.870  1.00  0.00    -0.080 C 
ATOM      9  C   UNL     1      57.601  27.284  26.248  1.00  0.00     0.039 C 
ENDBRANCH   5   6
ENDBRANCH   4   5
ENDBRANCH   1   4
BRANCH   2  10
ATOM     10  C   UNL     1      50.431  31.071  27.384  1.00  0.00     0.055 C 
BRANCH  10  11
ATOM     11  C   UNL     1      50.850  31.850  28.606  1.00  0.00    -0.020 C 
ATOM     12  C   UNL     1      50.214  31.820  29.794  1.00  0.00    -0.055 C 
ATOM     13  C   UNL     1      49.045  30.893  30.041  1.00  0.00     0.044 C 
BRANCH  12  14
ATOM     14  C   UNL     1      50.708  32.719  30.867  1.00  0.00    -0.005 C 
ATOM     15  C   UNL     1      51.002  34.005  30.671  1.00  0.00     0.009 C 
ENDBRANCH  12  14
ENDBRANCH  10  11
ENDBRANCH   2  10
TORSDOF 6
ENDMDL
MODEL 5
REMARK VINA RESULT:    -4.262      1.168      6.658
REMARK INTER + INTRA:          -6.692
REMARK INTER:                  -5.915
REMARK INTRA:                  -0.777
REMARK UNBOUND:                -0.934
REMARK SMILES C=CC(C)=CCC=C(C)CCC=C(C)C
REMARK SMILES IDX 8 1 7 2 9 3 10 4 11 5 12 6 14 7 13 8 15 9 6 10 5 11 3 12
REMARK SMILES IDX 4 13 2 14 1 15
REMARK H PARENT
REMARK Flexibility Score: inf
ROOT
ATOM      1  C   UNL     1      52.399  31.213  26.463  1.00  0.00    -0.077 C 
ATOM      2  C   UNL     1      53.319  30.249  26.231  1.00  0.00    -0.024 C 
ATOM      3  C   UNL     1      52.775  32.676  26.495  1.00  0.00     0.039 C 
ENDROOT
BRANCH   1   4
ATOM      4  C   UNL     1      50.957  30.817  26.690  1.00  0.00     0.034 C 
BRANCH   4   5
ATOM      5  C   UNL     1      50.239  31.854  27.560  1.00  0.00     0.032 C 
BRANCH   5   6
ATOM      6  C   UNL     1      50.392  31.524  29.023  1.00  0.00    -0.028 C 
ATOM      7  C   UNL     1      50.861  33.897  29.674  1.00  0.00     0.039 C 
ATOM      8  C   UNL     1      50.647  32.435  29.989  1.00  0.00    -0.080 C 
ATOM      9  C   UNL     1      50.736  31.961  31.417  1.00  0.00     0.039 C 
ENDBRANCH   5   6
ENDBRANCH   4   5
ENDBRANCH   1   4
BRANCH   2  10
ATOM     10  C   UNL     1      54.784  30.519  26.006  1.00  0.00     0.055 C 
BRANCH  10  11
ATOM     11  C   UNL     1      55.559  29.225  25.994  1.00  0.00    -0.020 C 
ATOM     12  C   UNL     1      56.570  28.923  26.832  1.00  0.00    -0.055 C 
ATOM     13  C   UNL     1      56.960  29.849  27.963  1.00  0.00     0.044 C 
BRANCH  12  14
ATOM     14  C   UNL     1      57.284  27.640  26.623  1.00  0.00    -0.005 C 
ATOM     15  C   UNL     1      57.526  27.121  25.419  1.00  0.00     0.009 C 
ENDBRANCH  12  14
ENDBRANCH  10  11
ENDBRANCH   2  10
TORSDOF 6
ENDMDL
MODEL 6
REMARK VINA RESULT:    -4.235      1.003      1.943
REMARK INTER + INTRA:          -6.655
REMARK INTER:                  -5.713
REMARK INTRA:                  -0.941
REMARK UNBOUND:                -0.934
REMARK SMILES C=CC(C)=CCC=C(C)CCC=C(C)C
REMARK SMILES IDX 8 1 7 2 9 3 10 4 11 5 12 6 14 7 13 8 15 9 6 10 5 11 3 12
REMARK SMILES IDX 4 13 2 14 1 15
REMARK H PARENT
REMARK Flexibility Score: inf
ROOT
ATOM      1  C   UNL     1      53.180  30.650  26.139  1.00  0.00    -0.077 C 
ATOM      2  C   UNL     1      52.630  31.885  26.185  1.00  0.00    -0.024 C 
ATOM      3  C   UNL     1      52.410  29.422  26.566  1.00  0.00     0.039 C 
ENDROOT
BRANCH   1   4
ATOM      4  C   UNL     1      54.600  30.494  25.642  1.00  0.00     0.034 C 
BRANCH   4   5
ATOM      5  C   UNL     1      55.559  30.233  26.810  1.00  0.00     0.032 C 
BRANCH   5   6
ATOM      6  C   UNL     1      56.624  29.241  26.415  1.00  0.00    -0.028 C 
ATOM      7  C   UNL     1      55.283  27.261  27.159  1.00  0.00     0.039 C 
ATOM      8  C   UNL     1      56.505  27.901  26.542  1.00  0.00    -0.080 C 
ATOM      9  C   UNL     1      57.640  27.030  26.068  1.00  0.00     0.039 C 
ENDBRANCH   5   6
ENDBRANCH   4   5
ENDBRANCH   1   4
BRANCH   2  10
ATOM     10  C   UNL     1      51.233  32.167  26.674  1.00  0.00     0.055 C 
BRANCH  10  11
ATOM     11  C   UNL     1      51.266  32.656  28.100  1.00  0.00    -0.020 C 
ATOM     12  C   UNL     1      50.529  32.146  29.107  1.00  0.00    -0.055 C 
ATOM     13  C   UNL     1      49.651  30.932  28.906  1.00  0.00     0.044 C 
BRANCH  12  14
ATOM     14  C   UNL     1      50.617  32.807  30.433  1.00  0.00    -0.005 C 
ATOM     15  C   UNL     1      50.914  34.097  30.593  1.00  0.00     0.009 C 
ENDBRANCH  12  14
ENDBRANCH  10  11
ENDBRANCH   2  10
TORSDOF 6
ENDMDL
MODEL 7
REMARK VINA RESULT:    -4.166     19.090     20.472
REMARK INTER + INTRA:          -6.562
REMARK INTER:                  -5.795
REMARK INTRA:                  -0.767
REMARK UNBOUND:                -0.934
REMARK SMILES C=CC(C)=CCC=C(C)CCC=C(C)C
REMARK SMILES IDX 8 1 7 2 9 3 10 4 11 5 12 6 14 7 13 8 15 9 6 10 5 11 3 12
REMARK SMILES IDX 4 13 2 14 1 15
REMARK H PARENT
REMARK Flexibility Score: inf
ROOT
ATOM      1  C   UNL     1      60.714  43.519  42.930  1.00  0.00    -0.077 C 
ATOM      2  C   UNL     1      59.975  42.942  41.954  1.00  0.00    -0.024 C 
ATOM      3  C   UNL     1      60.419  44.914  43.428  1.00  0.00     0.039 C 
ENDROOT
BRANCH   1   4
ATOM      4  C   UNL     1      61.862  42.745  43.540  1.00  0.00     0.034 C 
BRANCH   4   5
ATOM      5  C   UNL     1      61.915  41.319  42.979  1.00  0.00     0.032 C 
BRANCH   5   6
ATOM      6  C   UNL     1      63.343  40.865  42.810  1.00  0.00    -0.028 C 
ATOM      7  C   UNL     1      62.762  38.436  43.010  1.00  0.00     0.039 C 
ATOM      8  C   UNL     1      63.737  39.572  42.797  1.00  0.00    -0.080 C 
ATOM      9  C   UNL     1      65.197  39.267  42.580  1.00  0.00     0.039 C 
ENDBRANCH   5   6
ENDBRANCH   4   5
ENDBRANCH   1   4
BRANCH   2  10
ATOM     10  C   UNL     1      58.820  43.617  41.262  1.00  0.00     0.055 C 
BRANCH  10  11
ATOM     11  C   UNL     1      57.514  43.178  41.873  1.00  0.00    -0.020 C 
ATOM     12  C   UNL     1      56.576  44.009  42.370  1.00  0.00    -0.055 C 
ATOM     13  C   UNL     1      56.716  45.511  42.260  1.00  0.00     0.044 C 
BRANCH  12  14
ATOM     14  C   UNL     1      55.387  43.404  43.018  1.00  0.00    -0.005 C 
ATOM     15  C   UNL     1      54.478  42.684  42.360  1.00  0.00     0.009 C 
ENDBRANCH  12  14
ENDBRANCH  10  11
ENDBRANCH   2  10
TORSDOF 6
ENDMDL
MODEL 8
REMARK VINA RESULT:    -4.156      1.429      6.526
REMARK INTER + INTRA:          -6.549
REMARK INTER:                  -5.697
REMARK INTRA:                  -0.852
REMARK UNBOUND:                -0.934
REMARK SMILES C=CC(C)=CCC=C(C)CCC=C(C)C
REMARK SMILES IDX 8 1 7 2 9 3 10 4 11 5 12 6 14 7 13 8 15 9 6 10 5 11 3 12
REMARK SMILES IDX 4 13 2 14 1 15
REMARK H PARENT
REMARK Flexibility Score: inf
ROOT
ATOM      1  C   UNL     1      51.867  32.571  26.553  1.00  0.00    -0.077 C 
ATOM      2  C   UNL     1      53.206  32.456  26.393  1.00  0.00    -0.024 C 
ATOM      3  C   UNL     1      50.910  31.557  25.971  1.00  0.00     0.039 C 
ENDROOT
BRANCH   1   4
ATOM      4  C   UNL     1      51.316  33.741  27.337  1.00  0.00     0.034 C 
BRANCH   4   5
ATOM      5  C   UNL     1      50.093  33.318  28.158  1.00  0.00     0.032 C 
BRANCH   5   6
ATOM      6  C   UNL     1      50.466  33.112  29.605  1.00  0.00    -0.028 C 
ATOM      7  C   UNL     1      50.074  30.640  29.521  1.00  0.00     0.039 C 
ATOM      8  C   UNL     1      50.486  31.912  30.225  1.00  0.00    -0.080 C 
ATOM      9  C   UNL     1      50.918  31.857  31.668  1.00  0.00     0.039 C 
ENDBRANCH   5   6
ENDBRANCH   4   5
ENDBRANCH   1   4
BRANCH   2  10
ATOM     10  C   UNL     1      53.870  31.346  25.622  1.00  0.00     0.055 C 
BRANCH  10  11
ATOM     11  C   UNL     1      54.786  30.558  26.524  1.00  0.00    -0.020 C 
ATOM     12  C   UNL     1      55.943  29.983  26.137  1.00  0.00    -0.055 C 
ATOM     13  C   UNL     1      56.489  30.172  24.740  1.00  0.00     0.044 C 
BRANCH  12  14
ATOM     14  C   UNL     1      56.679  29.167  27.134  1.00  0.00    -0.005 C 
ATOM     15  C   UNL     1      57.250  27.997  26.848  1.00  0.00     0.009 C 
ENDBRANCH  12  14
ENDBRANCH  10  11
ENDBRANCH   2  10
TORSDOF 6
ENDMDL
MODEL 9
REMARK VINA RESULT:    -4.085     19.624     21.295
REMARK INTER + INTRA:          -6.452
REMARK INTER:                  -6.680
REMARK INTRA:                   0.228
REMARK UNBOUND:                -0.934
REMARK SMILES C=CC(C)=CCC=C(C)CCC=C(C)C
REMARK SMILES IDX 8 1 7 2 9 3 10 4 11 5 12 6 14 7 13 8 15 9 6 10 5 11 3 12
REMARK SMILES IDX 4 13 2 14 1 15
REMARK H PARENT
REMARK Flexibility Score: inf
ROOT
ATOM      1  C   UNL     1      56.439  45.146  42.250  1.00  0.00    -0.077 C 
ATOM      2  C   UNL     1      55.441  45.534  43.076  1.00  0.00    -0.024 C 
ATOM      3  C   UNL     1      57.333  46.149  41.559  1.00  0.00     0.039 C 
ENDROOT
BRANCH   1   4
ATOM      4  C   UNL     1      56.670  43.669  42.016  1.00  0.00     0.034 C 
BRANCH   4   5
ATOM      5  C   UNL     1      57.219  42.998  43.280  1.00  0.00     0.032 C 
BRANCH   5   6
ATOM      6  C   UNL     1      58.648  43.412  43.528  1.00  0.00    -0.028 C 
ATOM      7  C   UNL     1      59.427  42.654  41.272  1.00  0.00     0.039 C 
ATOM      8  C   UNL     1      59.646  43.287  42.626  1.00  0.00    -0.080 C 
ATOM      9  C   UNL     1      61.019  43.782  43.002  1.00  0.00     0.039 C 
ENDBRANCH   5   6
ENDBRANCH   4   5
ENDBRANCH   1   4
BRANCH   2  10
ATOM     10  C   UNL     1      55.107  46.973  43.374  1.00  0.00     0.055 C 
BRANCH  10  11
ATOM     11  C   UNL     1      53.656  47.102  43.764  1.00  0.00    -0.020 C 
ATOM     12  C   UNL     1      52.624  46.555  43.091  1.00  0.00    -0.055 C 
ATOM     13  C   UNL     1      52.850  45.648  41.902  1.00  0.00     0.044 C 
BRANCH  12  14
ATOM     14  C   UNL     1      51.250  46.857  43.563  1.00  0.00    -0.005 C 
ATOM     15  C   UNL     1      50.234  47.124  42.742  1.00  0.00     0.009 C 
ENDBRANCH  12  14
ENDBRANCH  10  11
ENDBRANCH   2  10
TORSDOF 6
ENDMDL
