MODEL 1
REMARK VINA RESULT:    -3.473      0.000      0.000
REMARK INTER + INTRA:          -5.651
REMARK INTER:                  -5.301
REMARK INTRA:                  -0.350
REMARK UNBOUND:                -0.350
REMARK SMILES CC1=CCC[C@@H](C)C(=O)C[C@H](C(C)C)C(=O)C1
REMARK SMILES IDX 8 1 9 2 6 3 7 4 5 5 4 6 3 7 2 8 1 9 10 11 11 12 15 13 16 14
REMARK SMILES IDX 17 15 12 17 13 18 14 19
REMARK H PARENT
REMARK Flexibility Score: 70.00
ROOT
ATOM      1  C   UNL     1     -30.526  20.502  26.384  1.00  0.00     0.136 C 
ATOM      2  O   UNL     1     -31.194  21.223  27.110  1.00  0.00    -0.299 OA
ENDROOT
BRANCH   1   3
ATOM      3  C   UNL     1     -29.144  20.969  25.972  1.00  0.00     0.053 C 
ATOM      4  C   UNL     1     -28.402  21.539  27.188  1.00  0.00     0.016 C 
BRANCH   3   5
ATOM      5  C   UNL     1     -29.164  21.998  24.814  1.00  0.00     0.015 C 
BRANCH   5   6
ATOM      6  C   UNL     1     -28.791  21.486  23.397  1.00  0.00     0.028 C 
BRANCH   6   7
ATOM      7  C   UNL     1     -28.091  20.144  23.348  1.00  0.00    -0.028 C 
ATOM      8  C   UNL     1     -28.630  18.978  22.915  1.00  0.00    -0.070 CG0
ATOM      9  C   UNL     1     -27.772  17.741  22.977  1.00  0.00     0.039 C 
ATOM     10  G   UNL     1     -30.059  18.836  22.423  1.00  0.00     0.000 G0
ENDBRANCH   6   7
ENDBRANCH   5   6
ENDBRANCH   3   5
ENDBRANCH   1   3
BRANCH   1  11
ATOM     11  C   UNL     1     -31.143  19.215  25.876  1.00  0.00     0.087 C 
BRANCH  11  12
ATOM     12  C   UNL     1     -31.695  19.321  24.430  1.00  0.00     0.066 C 
BRANCH  12  13
ATOM     13  C   UNL     1     -30.997  18.332  23.512  1.00  0.00     0.140 C 
ATOM     14  O   UNL     1     -31.161  17.132  23.679  1.00  0.00    -0.299 OA
BRANCH  13  15
ATOM     15  C   UNL     1     -30.079  18.803  22.415  1.00  0.00     0.106 CG0
ATOM     16  G   UNL     1     -28.660  18.961  22.931  1.00  0.00     0.000 G0
ENDBRANCH  13  15
ENDBRANCH  12  13
BRANCH  12  17
ATOM     17  C   UNL     1     -33.242  19.124  24.373  1.00  0.00    -0.006 C 
ATOM     18  C   UNL     1     -33.760  18.287  25.557  1.00  0.00     0.008 C 
ATOM     19  C   UNL     1     -33.976  20.477  24.360  1.00  0.00     0.008 C 
ENDBRANCH  12  17
ENDBRANCH  11  12
ENDBRANCH   1  11
TORSDOF 1
ENDMDL
MODEL 2
REMARK VINA RESULT:    -3.119      1.726      4.134
REMARK INTER + INTRA:          -5.111
REMARK INTER:                  -4.870
REMARK INTRA:                  -0.241
REMARK UNBOUND:                -0.350
REMARK SMILES CC1=CCC[C@@H](C)C(=O)C[C@H](C(C)C)C(=O)C1
REMARK SMILES IDX 8 1 9 2 6 3 7 4 5 5 4 6 3 7 2 8 1 9 10 11 11 12 15 13 16 14
REMARK SMILES IDX 17 15 12 17 13 18 14 19
REMARK H PARENT
REMARK Flexibility Score: 70.00
ROOT
ATOM      1  C   UNL     1     -29.330  21.622  26.158  1.00  0.00     0.136 C 
ATOM      2  O   UNL     1     -28.169  21.931  26.386  1.00  0.00    -0.299 OA
ENDROOT
BRANCH   1   3
ATOM      3  C   UNL     1     -30.241  21.316  27.329  1.00  0.00     0.053 C 
ATOM      4  C   UNL     1     -30.161  22.448  28.362  1.00  0.00     0.016 C 
BRANCH   3   5
ATOM      5  C   UNL     1     -29.946  19.949  27.995  1.00  0.00     0.015 C 
BRANCH   5   6
ATOM      6  C   UNL     1     -30.371  18.672  27.221  1.00  0.00     0.028 C 
BRANCH   6   7
ATOM      7  C   UNL     1     -31.677  18.770  26.460  1.00  0.00    -0.028 C 
ATOM      8  C   UNL     1     -31.846  18.544  25.134  1.00  0.00    -0.070 CG0
ATOM      9  C   UNL     1     -33.228  18.726  24.560  1.00  0.00     0.039 C 
ATOM     10  G   UNL     1     -30.719  18.171  24.186  1.00  0.00     0.000 G0
ENDBRANCH   6   7
ENDBRANCH   5   6
ENDBRANCH   3   5
ENDBRANCH   1   3
BRANCH   1  11
ATOM     11  C   UNL     1     -29.774  21.492  24.716  1.00  0.00     0.087 C 
BRANCH  11  12
ATOM     12  C   UNL     1     -29.152  20.274  23.983  1.00  0.00     0.066 C 
BRANCH  12  13
ATOM     13  C   UNL     1     -30.237  19.376  23.412  1.00  0.00     0.140 C 
ATOM     14  O   UNL     1     -30.743  19.650  22.333  1.00  0.00    -0.299 OA
BRANCH  13  15
ATOM     15  C   UNL     1     -30.723  18.167  24.166  1.00  0.00     0.106 CG0
ATOM     16  G   UNL     1     -31.830  18.545  25.134  1.00  0.00     0.000 G0
ENDBRANCH  13  15
ENDBRANCH  12  13
BRANCH  12  17
ATOM     17  C   UNL     1     -28.153  20.705  22.866  1.00  0.00    -0.006 C 
ATOM     18  C   UNL     1     -27.880  22.220  22.889  1.00  0.00     0.008 C 
ATOM     19  C   UNL     1     -26.814  19.955  22.996  1.00  0.00     0.008 C 
ENDBRANCH  12  17
ENDBRANCH  11  12
ENDBRANCH   1  11
TORSDOF 1
ENDMDL
MODEL 3
REMARK VINA RESULT:    -3.081      2.107      4.486
REMARK INTER + INTRA:          -5.052
REMARK INTER:                  -4.787
REMARK INTRA:                  -0.265
REMARK UNBOUND:                -0.350
REMARK SMILES CC1=CCC[C@@H](C)C(=O)C[C@H](C(C)C)C(=O)C1
REMARK SMILES IDX 8 1 9 2 6 3 7 4 5 5 4 6 3 7 2 8 1 9 10 11 11 12 15 13 16 14
REMARK SMILES IDX 17 15 12 17 13 18 14 19
REMARK H PARENT
REMARK Flexibility Score: 70.00
ROOT
ATOM      1  C   UNL     1     -33.003  16.712  24.357  1.00  0.00     0.136 C 
ATOM      2  O   UNL     1     -33.881  16.335  23.595  1.00  0.00    -0.299 OA
ENDROOT
BRANCH   1   3
ATOM      3  C   UNL     1     -33.390  17.597  25.525  1.00  0.00     0.053 C 
ATOM      4  C   UNL     1     -34.442  16.890  26.390  1.00  0.00     0.016 C 
BRANCH   3   5
ATOM      5  C   UNL     1     -33.890  18.998  25.095  1.00  0.00     0.015 C 
BRANCH   5   6
ATOM      6  C   UNL     1     -32.815  20.068  24.759  1.00  0.00     0.028 C 
BRANCH   6   7
ATOM      7  C   UNL     1     -31.534  19.985  25.563  1.00  0.00    -0.028 C 
ATOM      8  C   UNL     1     -30.296  19.743  25.066  1.00  0.00    -0.070 CG0
ATOM      9  C   UNL     1     -29.149  19.668  26.043  1.00  0.00     0.039 C 
ATOM     10  G   UNL     1     -30.005  19.491  23.598  1.00  0.00     0.000 G0
ENDBRANCH   6   7
ENDBRANCH   5   6
ENDBRANCH   3   5
ENDBRANCH   1   3
BRANCH   1  11
ATOM     11  C   UNL     1     -31.568  16.335  24.052  1.00  0.00     0.087 C 
BRANCH  11  12
ATOM     12  C   UNL     1     -30.957  17.131  22.868  1.00  0.00     0.066 C 
BRANCH  12  13
ATOM     13  C   UNL     1     -29.799  17.994  23.339  1.00  0.00     0.140 C 
ATOM     14  O   UNL     1     -28.707  17.484  23.540  1.00  0.00    -0.299 OA
BRANCH  13  15
ATOM     15  C   UNL     1     -29.981  19.468  23.593  1.00  0.00     0.106 CG0
ATOM     16  G   UNL     1     -30.310  19.725  25.053  1.00  0.00     0.000 G0
ENDBRANCH  13  15
ENDBRANCH  12  13
BRANCH  12  17
ATOM     17  C   UNL     1     -30.506  16.198  21.701  1.00  0.00    -0.006 C 
ATOM     18  C   UNL     1     -31.295  14.876  21.682  1.00  0.00     0.008 C 
ATOM     19  C   UNL     1     -30.667  16.895  20.337  1.00  0.00     0.008 C 
ENDBRANCH  12  17
ENDBRANCH  11  12
ENDBRANCH   1  11
TORSDOF 1
ENDMDL
MODEL 4
REMARK VINA RESULT:    -3.036      1.301      1.909
REMARK INTER + INTRA:          -4.983
REMARK INTER:                  -4.764
REMARK INTRA:                  -0.219
REMARK UNBOUND:                -0.350
REMARK SMILES CC1=CCC[C@@H](C)C(=O)C[C@H](C(C)C)C(=O)C1
REMARK SMILES IDX 8 1 9 2 6 3 7 4 5 5 4 6 3 7 2 8 1 9 10 11 11 12 15 13 16 14
REMARK SMILES IDX 17 15 12 17 13 18 14 19
REMARK H PARENT
REMARK Flexibility Score: 70.00
ROOT
ATOM      1  C   UNL     1     -29.773  20.041  25.347  1.00  0.00     0.136 C 
ATOM      2  O   UNL     1     -30.298  20.649  26.269  1.00  0.00    -0.299 OA
ENDROOT
BRANCH   1   3
ATOM      3  C   UNL     1     -28.706  20.742  24.531  1.00  0.00     0.053 C 
ATOM      4  C   UNL     1     -29.340  21.396  23.295  1.00  0.00     0.016 C 
BRANCH   3   5
ATOM      5  C   UNL     1     -27.539  19.812  24.117  1.00  0.00     0.015 C 
BRANCH   5   6
ATOM      6  C   UNL     1     -27.514  19.308  22.649  1.00  0.00     0.028 C 
BRANCH   6   7
ATOM      7  C   UNL     1     -27.540  17.804  22.471  1.00  0.00    -0.028 C 
ATOM      8  C   UNL     1     -28.604  17.067  22.068  1.00  0.00    -0.070 CG0
ATOM      9  C   UNL     1     -28.433  15.572  21.984  1.00  0.00     0.039 C 
ATOM     10  G   UNL     1     -29.968  17.652  21.748  1.00  0.00     0.000 G0
ENDBRANCH   6   7
ENDBRANCH   5   6
ENDBRANCH   3   5
ENDBRANCH   1   3
BRANCH   1  11
ATOM     11  C   UNL     1     -30.269  18.646  25.025  1.00  0.00     0.087 C 
BRANCH  11  12
ATOM     12  C   UNL     1     -31.276  18.603  23.845  1.00  0.00     0.066 C 
BRANCH  12  13
ATOM     13  C   UNL     1     -30.943  17.468  22.893  1.00  0.00     0.140 C 
ATOM     14  O   UNL     1     -31.440  16.365  23.069  1.00  0.00    -0.299 OA
BRANCH  13  15
ATOM     15  C   UNL     1     -29.986  17.668  21.748  1.00  0.00     0.106 CG0
ATOM     16  G   UNL     1     -28.632  17.060  22.066  1.00  0.00     0.000 G0
ENDBRANCH  13  15
ENDBRANCH  12  13
BRANCH  12  17
ATOM     17  C   UNL     1     -32.754  18.494  24.334  1.00  0.00    -0.006 C 
ATOM     18  C   UNL     1     -32.847  17.951  25.771  1.00  0.00     0.008 C 
ATOM     19  C   UNL     1     -33.465  19.858  24.269  1.00  0.00     0.008 C 
ENDBRANCH  12  17
ENDBRANCH  11  12
ENDBRANCH   1  11
TORSDOF 1
ENDMDL
MODEL 5
REMARK VINA RESULT:    -3.009      2.957      4.253
REMARK INTER + INTRA:          -4.943
REMARK INTER:                  -4.695
REMARK INTRA:                  -0.248
REMARK UNBOUND:                -0.350
REMARK SMILES CC1=CCC[C@@H](C)C(=O)C[C@H](C(C)C)C(=O)C1
REMARK SMILES IDX 8 1 9 2 6 3 7 4 5 5 4 6 3 7 2 8 1 9 10 11 11 12 15 13 16 14
REMARK SMILES IDX 17 15 12 17 13 18 14 19
REMARK H PARENT
REMARK Flexibility Score: 70.00
ROOT
ATOM      1  C   UNL     1     -29.237  21.881  26.436  1.00  0.00     0.136 C 
ATOM      2  O   UNL     1     -29.017  23.051  26.159  1.00  0.00    -0.299 OA
ENDROOT
BRANCH   1   3
ATOM      3  C   UNL     1     -29.286  21.479  27.896  1.00  0.00     0.053 C 
ATOM      4  C   UNL     1     -30.154  22.471  28.682  1.00  0.00     0.016 C 
BRANCH   3   5
ATOM      5  C   UNL     1     -27.885  21.347  28.544  1.00  0.00     0.015 C 
BRANCH   5   6
ATOM      6  C   UNL     1     -26.944  20.244  27.990  1.00  0.00     0.028 C 
BRANCH   6   7
ATOM      7  C   UNL     1     -27.554  18.864  27.864  1.00  0.00    -0.028 C 
ATOM      8  C   UNL     1     -27.497  18.063  26.771  1.00  0.00    -0.070 CG0
ATOM      9  C   UNL     1     -28.200  16.731  26.838  1.00  0.00     0.039 C 
ATOM     10  G   UNL     1     -26.815  18.450  25.472  1.00  0.00     0.000 G0
ENDBRANCH   6   7
ENDBRANCH   5   6
ENDBRANCH   3   5
ENDBRANCH   1   3
BRANCH   1  11
ATOM     11  C   UNL     1     -29.376  20.884  25.304  1.00  0.00     0.087 C 
BRANCH  11  12
ATOM     12  C   UNL     1     -28.042  20.593  24.566  1.00  0.00     0.066 C 
BRANCH  12  13
ATOM     13  C   UNL     1     -27.771  19.099  24.511  1.00  0.00     0.140 C 
ATOM     14  O   UNL     1     -28.360  18.408  23.693  1.00  0.00    -0.299 OA
BRANCH  13  15
ATOM     15  C   UNL     1     -26.808  18.447  25.468  1.00  0.00     0.106 CG0
ATOM     16  G   UNL     1     -27.510  18.063  26.758  1.00  0.00     0.000 G0
ENDBRANCH  13  15
ENDBRANCH  12  13
BRANCH  12  17
ATOM     17  C   UNL     1     -28.014  21.209  23.134  1.00  0.00    -0.006 C 
ATOM     18  C   UNL     1     -29.423  21.585  22.640  1.00  0.00     0.008 C 
ATOM     19  C   UNL     1     -27.118  22.460  23.082  1.00  0.00     0.008 C 
ENDBRANCH  12  17
ENDBRANCH  11  12
ENDBRANCH   1  11
TORSDOF 1
ENDMDL
MODEL 6
REMARK VINA RESULT:    -2.943      1.497      3.901
REMARK INTER + INTRA:          -4.841
REMARK INTER:                  -4.719
REMARK INTRA:                  -0.123
REMARK UNBOUND:                -0.350
REMARK SMILES CC1=CCC[C@@H](C)C(=O)C[C@H](C(C)C)C(=O)C1
REMARK SMILES IDX 8 1 9 2 6 3 7 4 5 5 4 6 3 7 2 8 1 9 10 11 11 12 15 13 16 14
REMARK SMILES IDX 17 15 12 17 13 18 14 19
REMARK H PARENT
REMARK Flexibility Score: 70.00
ROOT
ATOM      1  C   UNL     1     -30.431  17.908  23.039  1.00  0.00     0.136 C 
ATOM      2  O   UNL     1     -30.862  16.823  23.402  1.00  0.00    -0.299 OA
ENDROOT
BRANCH   1   3
ATOM      3  C   UNL     1     -29.259  17.937  22.079  1.00  0.00     0.053 C 
ATOM      4  C   UNL     1     -29.314  16.716  21.151  1.00  0.00     0.016 C 
BRANCH   3   5
ATOM      5  C   UNL     1     -27.886  18.021  22.789  1.00  0.00     0.015 C 
BRANCH   5   6
ATOM      6  C   UNL     1     -27.465  19.399  23.370  1.00  0.00     0.028 C 
BRANCH   6   7
ATOM      7  C   UNL     1     -27.295  19.452  24.873  1.00  0.00    -0.028 C 
ATOM      8  C   UNL     1     -28.118  20.083  25.747  1.00  0.00    -0.070 CG0
ATOM      9  C   UNL     1     -27.754  20.044  27.209  1.00  0.00     0.039 C 
ATOM     10  G   UNL     1     -29.351  20.868  25.335  1.00  0.00     0.000 G0
ENDBRANCH   6   7
ENDBRANCH   5   6
ENDBRANCH   3   5
ENDBRANCH   1   3
BRANCH   1  11
ATOM     11  C   UNL     1     -31.045  19.163  23.625  1.00  0.00     0.087 C 
BRANCH  11  12
ATOM     12  C   UNL     1     -31.287  19.078  25.155  1.00  0.00     0.066 C 
BRANCH  12  13
ATOM     13  C   UNL     1     -30.625  20.242  25.872  1.00  0.00     0.140 C 
ATOM     14  O   UNL     1     -31.127  20.688  26.894  1.00  0.00    -0.299 OA
BRANCH  13  15
ATOM     15  C   UNL     1     -29.373  20.879  25.329  1.00  0.00     0.106 CG0
ATOM     16  G   UNL     1     -28.144  20.094  25.749  1.00  0.00     0.000 G0
ENDBRANCH  13  15
ENDBRANCH  12  13
BRANCH  12  17
ATOM     17  C   UNL     1     -32.805  19.009  25.509  1.00  0.00    -0.006 C 
ATOM     18  C   UNL     1     -33.654  19.897  24.582  1.00  0.00     0.008 C 
ATOM     19  C   UNL     1     -33.329  17.563  25.432  1.00  0.00     0.008 C 
ENDBRANCH  12  17
ENDBRANCH  11  12
ENDBRANCH   1  11
TORSDOF 1
ENDMDL
MODEL 7
REMARK VINA RESULT:    -2.845      2.369      4.011
REMARK INTER + INTRA:          -4.693
REMARK INTER:                  -5.183
REMARK INTRA:                   0.491
REMARK UNBOUND:                -0.350
REMARK SMILES CC1=CCC[C@@H](C)C(=O)C[C@H](C(C)C)C(=O)C1
REMARK SMILES IDX 8 1 9 2 6 3 7 4 5 5 4 6 3 7 2 8 1 9 10 11 11 12 15 13 16 14
REMARK SMILES IDX 17 15 12 17 13 18 14 19
REMARK H PARENT
REMARK Flexibility Score: 70.00
ROOT
ATOM      1  C   UNL     1     -29.842  20.150  23.606  1.00  0.00     0.136 C 
ATOM      2  O   UNL     1     -29.298  19.338  22.872  1.00  0.00    -0.299 OA
ENDROOT
BRANCH   1   3
ATOM      3  C   UNL     1     -29.095  21.420  23.961  1.00  0.00     0.053 C 
ATOM      4  C   UNL     1     -28.162  21.815  22.809  1.00  0.00     0.016 C 
BRANCH   3   5
ATOM      5  C   UNL     1     -28.306  21.317  25.290  1.00  0.00     0.015 C 
BRANCH   5   6
ATOM      6  C   UNL     1     -28.724  22.270  26.443  1.00  0.00     0.028 C 
BRANCH   6   7
ATOM      7  C   UNL     1     -28.910  21.619  27.797  1.00  0.00    -0.028 C 
ATOM      8  C   UNL     1     -29.874  20.724  28.126  1.00  0.00    -0.070 CG0
ATOM      9  C   UNL     1     -29.906  20.215  29.545  1.00  0.00     0.039 C 
ATOM     10  G   UNL     1     -30.951  20.247  27.169  1.00  0.00     0.000 G0
ENDBRANCH   6   7
ENDBRANCH   5   6
ENDBRANCH   3   5
ENDBRANCH   1   3
BRANCH   1  11
ATOM     11  C   UNL     1     -31.203  19.810  24.179  1.00  0.00     0.087 C 
BRANCH  11  12
ATOM     12  C   UNL     1     -31.185  18.591  25.138  1.00  0.00     0.066 C 
BRANCH  12  13
ATOM     13  C   UNL     1     -30.579  18.968  26.479  1.00  0.00     0.140 C 
ATOM     14  O   UNL     1     -29.775  18.216  27.012  1.00  0.00    -0.299 OA
BRANCH  13  15
ATOM     15  C   UNL     1     -30.973  20.240  27.181  1.00  0.00     0.106 CG0
ATOM     16  G   UNL     1     -29.874  20.698  28.123  1.00  0.00     0.000 G0
ENDBRANCH  13  15
ENDBRANCH  12  13
BRANCH  12  17
ATOM     17  C   UNL     1     -32.603  17.972  25.332  1.00  0.00    -0.006 C 
ATOM     18  C   UNL     1     -33.721  18.991  25.048  1.00  0.00     0.008 C 
ATOM     19  C   UNL     1     -32.805  16.745  24.423  1.00  0.00     0.008 C 
ENDBRANCH  12  17
ENDBRANCH  11  12
ENDBRANCH   1  11
TORSDOF 1
ENDMDL
MODEL 8
REMARK VINA RESULT:    -2.714      2.087      4.167
REMARK INTER + INTRA:          -4.492
REMARK INTER:                  -4.483
REMARK INTRA:                  -0.009
REMARK UNBOUND:                -0.350
REMARK SMILES CC1=CCC[C@@H](C)C(=O)C[C@H](C(C)C)C(=O)C1
REMARK SMILES IDX 8 1 9 2 6 3 7 4 5 5 4 6 3 7 2 8 1 9 10 11 11 12 15 13 16 14
REMARK SMILES IDX 17 15 12 17 13 18 14 19
REMARK H PARENT
REMARK Flexibility Score: 70.00
ROOT
ATOM      1  C   UNL     1     -30.849  19.836  23.579  1.00  0.00     0.136 C 
ATOM      2  O   UNL     1     -30.884  20.200  22.412  1.00  0.00    -0.299 OA
ENDROOT
BRANCH   1   3
ATOM      3  C   UNL     1     -31.512  18.525  23.948  1.00  0.00     0.053 C 
ATOM      4  C   UNL     1     -31.560  18.376  25.475  1.00  0.00     0.016 C 
BRANCH   3   5
ATOM      5  C   UNL     1     -30.836  17.291  23.301  1.00  0.00     0.015 C 
BRANCH   5   6
ATOM      6  C   UNL     1     -29.340  17.040  23.635  1.00  0.00     0.028 C 
BRANCH   6   7
ATOM      7  C   UNL     1     -28.362  17.325  22.515  1.00  0.00    -0.028 C 
ATOM      8  C   UNL     1     -27.300  18.166  22.578  1.00  0.00    -0.070 CG0
ATOM      9  C   UNL     1     -26.462  18.335  21.337  1.00  0.00     0.039 C 
ATOM     10  G   UNL     1     -26.939  18.985  23.804  1.00  0.00     0.000 G0
ENDBRANCH   6   7
ENDBRANCH   5   6
ENDBRANCH   3   5
ENDBRANCH   1   3
BRANCH   1  11
ATOM     11  C   UNL     1     -30.209  20.750  24.604  1.00  0.00     0.087 C 
BRANCH  11  12
ATOM     12  C   UNL     1     -28.834  20.243  25.114  1.00  0.00     0.066 C 
BRANCH  12  13
ATOM     13  C   UNL     1     -27.827  20.180  23.978  1.00  0.00     0.140 C 
ATOM     14  O   UNL     1     -27.767  21.098  23.172  1.00  0.00    -0.299 OA
BRANCH  13  15
ATOM     15  C   UNL     1     -26.919  18.991  23.808  1.00  0.00     0.106 CG0
ATOM     16  G   UNL     1     -27.319  18.179  22.589  1.00  0.00     0.000 G0
ENDBRANCH  13  15
ENDBRANCH  12  13
BRANCH  12  17
ATOM     17  C   UNL     1     -28.284  21.111  26.287  1.00  0.00    -0.006 C 
ATOM     18  C   UNL     1     -28.670  22.593  26.139  1.00  0.00     0.008 C 
ATOM     19  C   UNL     1     -28.792  20.596  27.647  1.00  0.00     0.008 C 
ENDBRANCH  12  17
ENDBRANCH  11  12
ENDBRANCH   1  11
TORSDOF 1
ENDMDL
MODEL 9
REMARK VINA RESULT:    -2.602      2.011      4.319
REMARK INTER + INTRA:          -4.321
REMARK INTER:                  -4.323
REMARK INTRA:                   0.002
REMARK UNBOUND:                -0.350
REMARK SMILES CC1=CCC[C@@H](C)C(=O)C[C@H](C(C)C)C(=O)C1
REMARK SMILES IDX 8 1 9 2 6 3 7 4 5 5 4 6 3 7 2 8 1 9 10 11 11 12 15 13 16 14
REMARK SMILES IDX 17 15 12 17 13 18 14 19
REMARK H PARENT
REMARK Flexibility Score: 70.00
ROOT
ATOM      1  C   UNL     1     -31.366  17.835  24.051  1.00  0.00     0.136 C 
ATOM      2  O   UNL     1     -32.322  17.207  23.619  1.00  0.00    -0.299 OA
ENDROOT
BRANCH   1   3
ATOM      3  C   UNL     1     -31.493  19.339  24.194  1.00  0.00     0.053 C 
ATOM      4  C   UNL     1     -32.964  19.720  24.406  1.00  0.00     0.016 C 
BRANCH   3   5
ATOM      5  C   UNL     1     -30.893  20.122  23.000  1.00  0.00     0.015 C 
BRANCH   5   6
ATOM      6  C   UNL     1     -29.659  21.020  23.284  1.00  0.00     0.028 C 
BRANCH   6   7
ATOM      7  C   UNL     1     -29.239  21.118  24.735  1.00  0.00    -0.028 C 
ATOM      8  C   UNL     1     -28.185  20.483  25.305  1.00  0.00    -0.070 CG0
ATOM      9  C   UNL     1     -27.954  20.689  26.780  1.00  0.00     0.039 C 
ATOM     10  G   UNL     1     -27.261  19.537  24.560  1.00  0.00     0.000 G0
ENDBRANCH   6   7
ENDBRANCH   5   6
ENDBRANCH   3   5
ENDBRANCH   1   3
BRANCH   1  11
ATOM     11  C   UNL     1     -30.083  17.087  24.349  1.00  0.00     0.087 C 
BRANCH  11  12
ATOM     12  C   UNL     1     -28.847  17.653  23.601  1.00  0.00     0.066 C 
BRANCH  12  13
ATOM     13  C   UNL     1     -27.787  18.118  24.584  1.00  0.00     0.140 C 
ATOM     14  O   UNL     1     -27.367  17.343  25.432  1.00  0.00    -0.299 OA
BRANCH  13  15
ATOM     15  C   UNL     1     -27.264  19.530  24.555  1.00  0.00     0.106 CG0
ATOM     16  G   UNL     1     -28.197  20.465  25.305  1.00  0.00     0.000 G0
ENDBRANCH  13  15
ENDBRANCH  12  13
BRANCH  12  17
ATOM     17  C   UNL     1     -28.247  16.625  22.593  1.00  0.00    -0.006 C 
ATOM     18  C   UNL     1     -29.299  16.116  21.591  1.00  0.00     0.008 C 
ATOM     19  C   UNL     1     -27.067  17.233  21.812  1.00  0.00     0.008 C 
ENDBRANCH  12  17
ENDBRANCH  11  12
ENDBRANCH   1  11
TORSDOF 1
ENDMDL
