MODEL 1
REMARK VINA RESULT:    -5.206      0.000      0.000
REMARK INTER + INTRA:          -6.579
REMARK INTER:                  -6.271
REMARK INTRA:                  -0.308
REMARK UNBOUND:                -0.308
REMARK SMILES [NH3+][C@H](Cc1c[nH]c2ccccc12)C(=O)[O-]
REMARK SMILES IDX 3 1 2 2 1 3 13 7 14 8 15 9 4 10 12 11 5 12 7 13 11 14 6 15
REMARK SMILES IDX 8 16 10 17 9 19
REMARK H PARENT 1 4 1 5 1 6 6 18
REMARK Flexibility Score: inf
ROOT
ATOM      1  C   UNL     1      -9.441 -33.603  12.461  1.00  0.00     0.109 C 
ENDROOT
BRANCH   1   2
ATOM      2  C   UNL     1      -9.927 -32.965  11.141  1.00  0.00     0.232 C 
BRANCH   2   3
ATOM      3  N   UNL     1     -11.371 -32.695  11.162  1.00  0.00    -0.350 N 
ATOM      4  H   UNL     1     -11.609 -31.959  11.866  1.00  0.00     0.345 HD
ATOM      5  H   UNL     1     -11.681 -32.370  10.217  1.00  0.00     0.345 HD
ATOM      6  H   UNL     1     -11.892 -33.571  11.392  1.00  0.00     0.345 HD
ENDBRANCH   2   3
BRANCH   2   7
ATOM      7  C   UNL     1      -9.139 -31.724  10.805  1.00  0.00     0.099 C 
ATOM      8  O   UNL     1      -7.880 -31.731  10.829  1.00  0.00    -0.544 OA
ATOM      9  O   UNL     1      -9.808 -30.571  10.411  1.00  0.00    -0.544 OA
ENDBRANCH   2   7
ENDBRANCH   1   2
BRANCH   1  10
ATOM     10  C   UNL     1      -8.719 -34.907  12.266  1.00  0.00    -0.016 A 
ATOM     11  C   UNL     1      -7.356 -35.137  12.311  1.00  0.00     0.003 A 
ATOM     12  C   UNL     1      -9.297 -36.137  11.961  1.00  0.00     0.087 A 
ATOM     13  C   UNL     1      -7.169 -36.468  12.037  1.00  0.00     0.046 A 
ATOM     14  C   UNL     1      -6.283 -34.284  12.565  1.00  0.00     0.010 A 
ATOM     15  N   UNL     1      -8.344 -37.086  11.822  1.00  0.00    -0.361 N 
ATOM     16  C   UNL     1      -5.898 -37.037  11.996  1.00  0.00     0.026 A 
ATOM     17  C   UNL     1      -4.986 -34.830  12.531  1.00  0.00     0.001 A 
ATOM     18  H   UNL     1      -8.494 -38.093  11.592  1.00  0.00     0.166 HD
ATOM     19  C   UNL     1      -4.795 -36.200  12.248  1.00  0.00     0.002 A 
ENDBRANCH   1  10
TORSDOF 4
ENDMDL
MODEL 2
REMARK VINA RESULT:    -4.597      1.583      2.248
REMARK INTER + INTRA:          -5.845
REMARK INTER:                  -5.747
REMARK INTRA:                  -0.099
REMARK UNBOUND:                -0.308
REMARK SMILES [NH3+][C@H](Cc1c[nH]c2ccccc12)C(=O)[O-]
REMARK SMILES IDX 3 1 2 2 1 3 13 7 14 8 15 9 4 10 12 11 5 12 7 13 11 14 6 15
REMARK SMILES IDX 8 16 10 17 9 19
REMARK H PARENT 1 4 1 5 1 6 6 18
REMARK Flexibility Score: inf
ROOT
ATOM      1  C   UNL     1      -7.144 -33.211  12.284  1.00  0.00     0.109 C 
ENDROOT
BRANCH   1   2
ATOM      2  C   UNL     1      -8.615 -33.365  11.840  1.00  0.00     0.232 C 
BRANCH   2   3
ATOM      3  N   UNL     1      -9.521 -33.506  12.989  1.00  0.00    -0.350 N 
ATOM      4  H   UNL     1     -10.493 -33.207  12.744  1.00  0.00     0.345 HD
ATOM      5  H   UNL     1      -9.544 -34.506  13.297  1.00  0.00     0.345 HD
ATOM      6  H   UNL     1      -9.175 -32.927  13.787  1.00  0.00     0.345 HD
ENDBRANCH   2   3
BRANCH   2   7
ATOM      7  C   UNL     1      -9.042 -32.235  10.939  1.00  0.00     0.099 C 
ATOM      8  O   UNL     1     -10.244 -32.109  10.584  1.00  0.00    -0.544 OA
ATOM      9  O   UNL     1      -8.108 -31.287  10.535  1.00  0.00    -0.544 OA
ENDBRANCH   2   7
ENDBRANCH   1   2
BRANCH   1  10
ATOM     10  C   UNL     1      -6.432 -34.523  12.467  1.00  0.00    -0.016 A 
ATOM     11  C   UNL     1      -5.185 -34.885  11.992  1.00  0.00     0.003 A 
ATOM     12  C   UNL     1      -6.924 -35.647  13.125  1.00  0.00     0.087 A 
ATOM     13  C   UNL     1      -4.978 -36.186  12.374  1.00  0.00     0.046 A 
ATOM     14  C   UNL     1      -4.234 -34.176  11.259  1.00  0.00     0.010 A 
ATOM     15  N   UNL     1      -6.030 -36.660  13.065  1.00  0.00    -0.361 N 
ATOM     16  C   UNL     1      -3.807 -36.868  12.049  1.00  0.00     0.026 A 
ATOM     17  C   UNL     1      -3.041 -34.839  10.916  1.00  0.00     0.001 A 
ATOM     18  H   UNL     1      -6.140 -37.616  13.470  1.00  0.00     0.166 HD
ATOM     19  C   UNL     1      -2.828 -36.179  11.310  1.00  0.00     0.002 A 
ENDBRANCH   1  10
TORSDOF 4
ENDMDL
MODEL 3
REMARK VINA RESULT:    -4.473      2.639      5.105
REMARK INTER + INTRA:          -5.696
REMARK INTER:                  -5.872
REMARK INTRA:                   0.175
REMARK UNBOUND:                -0.308
REMARK SMILES [NH3+][C@H](Cc1c[nH]c2ccccc12)C(=O)[O-]
REMARK SMILES IDX 3 1 2 2 1 3 13 7 14 8 15 9 4 10 12 11 5 12 7 13 11 14 6 15
REMARK SMILES IDX 8 16 10 17 9 19
REMARK H PARENT 1 4 1 5 1 6 6 18
REMARK Flexibility Score: inf
ROOT
ATOM      1  C   UNL     1      -6.225 -34.593  12.975  1.00  0.00     0.109 C 
ENDROOT
BRANCH   1   2
ATOM      2  C   UNL     1      -5.726 -35.997  12.567  1.00  0.00     0.232 C 
BRANCH   2   3
ATOM      3  N   UNL     1      -6.653 -36.658  11.637  1.00  0.00    -0.350 N 
ATOM      4  H   UNL     1      -7.020 -35.985  10.926  1.00  0.00     0.345 HD
ATOM      5  H   UNL     1      -6.158 -37.435  11.142  1.00  0.00     0.345 HD
ATOM      6  H   UNL     1      -7.455 -37.068  12.168  1.00  0.00     0.345 HD
ENDBRANCH   2   3
BRANCH   2   7
ATOM      7  C   UNL     1      -4.328 -35.944  12.005  1.00  0.00     0.099 C 
ATOM      8  O   UNL     1      -3.879 -34.888  11.485  1.00  0.00    -0.544 OA
ATOM      9  O   UNL     1      -3.503 -37.058  12.110  1.00  0.00    -0.544 OA
ENDBRANCH   2   7
ENDBRANCH   1   2
BRANCH   1  10
ATOM     10  C   UNL     1      -7.677 -34.359  12.663  1.00  0.00    -0.016 A 
ATOM     11  C   UNL     1      -8.229 -33.345  11.902  1.00  0.00     0.003 A 
ATOM     12  C   UNL     1      -8.755 -35.110  13.125  1.00  0.00     0.087 A 
ATOM     13  C   UNL     1      -9.589 -33.521  11.932  1.00  0.00     0.046 A 
ATOM     14  C   UNL     1      -7.642 -32.294  11.198  1.00  0.00     0.010 A 
ATOM     15  N   UNL     1      -9.920 -34.593  12.674  1.00  0.00    -0.361 N 
ATOM     16  C   UNL     1     -10.456 -32.659  11.264  1.00  0.00     0.026 A 
ATOM     17  C   UNL     1      -8.492 -31.406  10.512  1.00  0.00     0.001 A 
ATOM     18  H   UNL     1     -10.881 -34.954  12.868  1.00  0.00     0.166 HD
ATOM     19  C   UNL     1      -9.892 -31.588  10.545  1.00  0.00     0.002 A 
ENDBRANCH   1  10
TORSDOF 4
ENDMDL
MODEL 4
REMARK VINA RESULT:    -3.716      3.390      5.391
REMARK INTER + INTRA:          -4.784
REMARK INTER:                  -4.527
REMARK INTRA:                  -0.257
REMARK UNBOUND:                -0.308
REMARK SMILES [NH3+][C@H](Cc1c[nH]c2ccccc12)C(=O)[O-]
REMARK SMILES IDX 3 1 2 2 1 3 13 7 14 8 15 9 4 10 12 11 5 12 7 13 11 14 6 15
REMARK SMILES IDX 8 16 10 17 9 19
REMARK H PARENT 1 4 1 5 1 6 6 18
REMARK Flexibility Score: inf
ROOT
ATOM      1  C   UNL     1      -5.007 -34.954  12.681  1.00  0.00     0.109 C 
ENDROOT
BRANCH   1   2
ATOM      2  C   UNL     1      -4.349 -35.118  11.293  1.00  0.00     0.232 C 
BRANCH   2   3
ATOM      3  N   UNL     1      -3.305 -34.111  11.060  1.00  0.00    -0.350 N 
ATOM      4  H   UNL     1      -3.136 -33.534  11.916  1.00  0.00     0.345 HD
ATOM      5  H   UNL     1      -2.412 -34.587  10.793  1.00  0.00     0.345 HD
ATOM      6  H   UNL     1      -3.587 -33.483  10.273  1.00  0.00     0.345 HD
ENDBRANCH   2   3
BRANCH   2   7
ATOM      7  C   UNL     1      -3.820 -36.516  11.095  1.00  0.00     0.099 C 
ATOM      8  O   UNL     1      -3.994 -37.124  10.005  1.00  0.00    -0.544 OA
ATOM      9  O   UNL     1      -3.084 -37.123  12.106  1.00  0.00    -0.544 OA
ENDBRANCH   2   7
ENDBRANCH   1   2
BRANCH   1  10
ATOM     10  C   UNL     1      -6.428 -34.465  12.616  1.00  0.00    -0.016 A 
ATOM     11  C   UNL     1      -7.559 -35.186  12.282  1.00  0.00     0.003 A 
ATOM     12  C   UNL     1      -6.867 -33.164  12.846  1.00  0.00     0.087 A 
ATOM     13  C   UNL     1      -8.614 -34.311  12.323  1.00  0.00     0.046 A 
ATOM     14  C   UNL     1      -7.733 -36.529  11.946  1.00  0.00     0.010 A 
ATOM     15  N   UNL     1      -8.204 -33.077  12.666  1.00  0.00    -0.361 N 
ATOM     16  C   UNL     1      -9.915 -34.716  12.029  1.00  0.00     0.026 A 
ATOM     17  C   UNL     1      -9.036 -36.967  11.644  1.00  0.00     0.001 A 
ATOM     18  H   UNL     1      -8.794 -32.222  12.769  1.00  0.00     0.166 HD
ATOM     19  C   UNL     1     -10.122 -36.065  11.686  1.00  0.00     0.002 A 
ENDBRANCH   1  10
TORSDOF 4
ENDMDL
MODEL 5
REMARK VINA RESULT:    -3.595      2.743      4.958
REMARK INTER + INTRA:          -4.638
REMARK INTER:                  -5.200
REMARK INTRA:                   0.561
REMARK UNBOUND:                -0.308
REMARK SMILES [NH3+][C@H](Cc1c[nH]c2ccccc12)C(=O)[O-]
REMARK SMILES IDX 3 1 2 2 1 3 13 7 14 8 15 9 4 10 12 11 5 12 7 13 11 14 6 15
REMARK SMILES IDX 8 16 10 17 9 19
REMARK H PARENT 1 4 1 5 1 6 6 18
REMARK Flexibility Score: inf
ROOT
ATOM      1  C   UNL     1      -5.387 -34.742  12.866  1.00  0.00     0.109 C 
ENDROOT
BRANCH   1   2
ATOM      2  C   UNL     1      -4.281 -35.709  12.391  1.00  0.00     0.232 C 
BRANCH   2   3
ATOM      3  N   UNL     1      -4.701 -37.114  12.495  1.00  0.00    -0.350 N 
ATOM      4  H   UNL     1      -4.134 -37.726  11.864  1.00  0.00     0.345 HD
ATOM      5  H   UNL     1      -4.581 -37.443  13.481  1.00  0.00     0.345 HD
ATOM      6  H   UNL     1      -5.711 -37.201  12.242  1.00  0.00     0.345 HD
ENDBRANCH   2   3
BRANCH   2   7
ATOM      7  C   UNL     1      -3.815 -35.376  10.997  1.00  0.00     0.099 C 
ATOM      8  O   UNL     1      -3.439 -34.210  10.703  1.00  0.00    -0.544 OA
ATOM      9  O   UNL     1      -3.749 -36.377  10.036  1.00  0.00    -0.544 OA
ENDBRANCH   2   7
ENDBRANCH   1   2
BRANCH   1  10
ATOM     10  C   UNL     1      -6.765 -35.138  12.412  1.00  0.00    -0.016 A 
ATOM     11  C   UNL     1      -7.766 -34.318  11.924  1.00  0.00     0.003 A 
ATOM     12  C   UNL     1      -7.308 -36.420  12.436  1.00  0.00     0.087 A 
ATOM     13  C   UNL     1      -8.851 -35.121  11.678  1.00  0.00     0.046 A 
ATOM     14  C   UNL     1      -7.802 -32.944  11.686  1.00  0.00     0.010 A 
ATOM     15  N   UNL     1      -8.583 -36.402  11.986  1.00  0.00    -0.361 N 
ATOM     16  C   UNL     1     -10.047 -34.606  11.180  1.00  0.00     0.026 A 
ATOM     17  C   UNL     1      -8.996 -32.396  11.183  1.00  0.00     0.001 A 
ATOM     18  H   UNL     1      -9.227 -37.220  11.901  1.00  0.00     0.166 HD
ATOM     19  C   UNL     1     -10.113 -33.222  10.930  1.00  0.00     0.002 A 
ENDBRANCH   1  10
TORSDOF 4
ENDMDL
MODEL 6
REMARK VINA RESULT:    -3.539      2.630      4.782
REMARK INTER + INTRA:          -4.572
REMARK INTER:                  -4.356
REMARK INTRA:                  -0.216
REMARK UNBOUND:                -0.308
REMARK SMILES [NH3+][C@H](Cc1c[nH]c2ccccc12)C(=O)[O-]
REMARK SMILES IDX 3 1 2 2 1 3 13 7 14 8 15 9 4 10 12 11 5 12 7 13 11 14 6 15
REMARK SMILES IDX 8 16 10 17 9 19
REMARK H PARENT 1 4 1 5 1 6 6 18
REMARK Flexibility Score: inf
ROOT
ATOM      1  C   UNL     1      -9.796 -35.386  12.581  1.00  0.00     0.109 C 
ENDROOT
BRANCH   1   2
ATOM      2  C   UNL     1      -9.095 -36.504  11.778  1.00  0.00     0.232 C 
BRANCH   2   3
ATOM      3  N   UNL     1      -9.389 -36.414  10.342  1.00  0.00    -0.350 N 
ATOM      4  H   UNL     1     -10.348 -36.775  10.128  1.00  0.00     0.345 HD
ATOM      5  H   UNL     1      -9.329 -35.416  10.033  1.00  0.00     0.345 HD
ATOM      6  H   UNL     1      -8.686 -36.966   9.800  1.00  0.00     0.345 HD
ENDBRANCH   2   3
BRANCH   2   7
ATOM      7  C   UNL     1      -7.609 -36.520  12.036  1.00  0.00     0.099 C 
ATOM      8  O   UNL     1      -6.825 -37.123  11.255  1.00  0.00    -0.544 OA
ATOM      9  O   UNL     1      -7.091 -35.818  13.117  1.00  0.00    -0.544 OA
ENDBRANCH   2   7
ENDBRANCH   1   2
BRANCH   1  10
ATOM     10  C   UNL     1     -10.213 -34.213  11.736  1.00  0.00    -0.016 A 
ATOM     11  C   UNL     1      -9.448 -33.125  11.359  1.00  0.00     0.003 A 
ATOM     12  C   UNL     1     -11.478 -33.986  11.202  1.00  0.00     0.087 A 
ATOM     13  C   UNL     1     -10.265 -32.301  10.627  1.00  0.00     0.046 A 
ATOM     14  C   UNL     1      -8.113 -32.803  11.606  1.00  0.00     0.010 A 
ATOM     15  N   UNL     1     -11.503 -32.815  10.525  1.00  0.00    -0.361 N 
ATOM     16  C   UNL     1      -9.805 -31.098  10.094  1.00  0.00     0.026 A 
ATOM     17  C   UNL     1      -7.621 -31.594  11.081  1.00  0.00     0.001 A 
ATOM     18  H   UNL     1     -12.321 -32.398  10.029  1.00  0.00     0.166 HD
ATOM     19  C   UNL     1      -8.463 -30.746  10.328  1.00  0.00     0.002 A 
ENDBRANCH   1  10
TORSDOF 4
ENDMDL
MODEL 7
REMARK VINA RESULT:    -3.054      1.567      2.529
REMARK INTER + INTRA:          -3.986
REMARK INTER:                  -3.745
REMARK INTRA:                  -0.242
REMARK UNBOUND:                -0.308
REMARK SMILES [NH3+][C@H](Cc1c[nH]c2ccccc12)C(=O)[O-]
REMARK SMILES IDX 3 1 2 2 1 3 13 7 14 8 15 9 4 10 12 11 5 12 7 13 11 14 6 15
REMARK SMILES IDX 8 16 10 17 9 19
REMARK H PARENT 1 4 1 5 1 6 6 18
REMARK Flexibility Score: inf
ROOT
ATOM      1  C   UNL     1      -9.209 -32.207  12.132  1.00  0.00     0.109 C 
ENDROOT
BRANCH   1   2
ATOM      2  C   UNL     1      -9.615 -32.109  10.645  1.00  0.00     0.232 C 
BRANCH   2   3
ATOM      3  N   UNL     1     -11.066 -32.252  10.463  1.00  0.00    -0.350 N 
ATOM      4  H   UNL     1     -11.418 -33.133  10.902  1.00  0.00     0.345 HD
ATOM      5  H   UNL     1     -11.556 -31.438  10.901  1.00  0.00     0.345 HD
ATOM      6  H   UNL     1     -11.296 -32.261   9.443  1.00  0.00     0.345 HD
ENDBRANCH   2   3
BRANCH   2   7
ATOM      7  C   UNL     1      -9.104 -30.838  10.015  1.00  0.00     0.099 C 
ATOM      8  O   UNL     1      -9.851 -29.831   9.894  1.00  0.00    -0.544 OA
ATOM      9  O   UNL     1      -7.777 -30.756   9.611  1.00  0.00    -0.544 OA
ENDBRANCH   2   7
ENDBRANCH   1   2
BRANCH   1  10
ATOM     10  C   UNL     1      -7.992 -33.059  12.366  1.00  0.00    -0.016 A 
ATOM     11  C   UNL     1      -7.866 -34.425  12.195  1.00  0.00     0.003 A 
ATOM     12  C   UNL     1      -6.758 -32.626  12.844  1.00  0.00     0.087 A 
ATOM     13  C   UNL     1      -6.589 -34.756  12.568  1.00  0.00     0.046 A 
ATOM     14  C   UNL     1      -8.772 -35.387  11.748  1.00  0.00     0.010 A 
ATOM     15  N   UNL     1      -5.905 -33.668  12.964  1.00  0.00    -0.361 N 
ATOM     16  C   UNL     1      -6.129 -36.071  12.522  1.00  0.00     0.026 A 
ATOM     17  C   UNL     1      -8.336 -36.724  11.691  1.00  0.00     0.001 A 
ATOM     18  H   UNL     1      -4.917 -33.632  13.302  1.00  0.00     0.166 HD
ATOM     19  C   UNL     1      -7.020 -37.064  12.075  1.00  0.00     0.002 A 
ENDBRANCH   1  10
TORSDOF 4
ENDMDL
MODEL 8
REMARK VINA RESULT:    -2.678      2.429      3.902
REMARK INTER + INTRA:          -3.534
REMARK INTER:                  -3.915
REMARK INTRA:                   0.381
REMARK UNBOUND:                -0.308
REMARK SMILES [NH3+][C@H](Cc1c[nH]c2ccccc12)C(=O)[O-]
REMARK SMILES IDX 3 1 2 2 1 3 13 7 14 8 15 9 4 10 12 11 5 12 7 13 11 14 6 15
REMARK SMILES IDX 8 16 10 17 9 19
REMARK H PARENT 1 4 1 5 1 6 6 18
REMARK Flexibility Score: inf
ROOT
ATOM      1  C   UNL     1      -9.242 -32.859  10.309  1.00  0.00     0.109 C 
ENDROOT
BRANCH   1   2
ATOM      2  C   UNL     1      -8.918 -31.466  10.894  1.00  0.00     0.232 C 
BRANCH   2   3
ATOM      3  N   UNL     1      -7.619 -31.449  11.580  1.00  0.00    -0.350 N 
ATOM      4  H   UNL     1      -6.833 -31.333  10.900  1.00  0.00     0.345 HD
ATOM      5  H   UNL     1      -7.593 -30.656  12.263  1.00  0.00     0.345 HD
ATOM      6  H   UNL     1      -7.486 -32.340  12.110  1.00  0.00     0.345 HD
ENDBRANCH   2   3
BRANCH   2   7
ATOM      7  C   UNL     1      -8.998 -30.392   9.839  1.00  0.00     0.099 C 
ATOM      8  O   UNL     1      -9.985 -29.610   9.786  1.00  0.00    -0.544 OA
ATOM      9  O   UNL     1      -7.946 -30.225   8.946  1.00  0.00    -0.544 OA
ENDBRANCH   2   7
ENDBRANCH   1   2
BRANCH   1  10
ATOM     10  C   UNL     1      -9.255 -33.953  11.340  1.00  0.00    -0.016 A 
ATOM     11  C   UNL     1     -10.197 -34.952  11.505  1.00  0.00     0.003 A 
ATOM     12  C   UNL     1      -8.327 -34.141  12.361  1.00  0.00     0.087 A 
ATOM     13  C   UNL     1      -9.808 -35.688  12.595  1.00  0.00     0.046 A 
ATOM     14  C   UNL     1     -11.353 -35.260  10.788  1.00  0.00     0.010 A 
ATOM     15  N   UNL     1      -8.671 -35.203  13.124  1.00  0.00    -0.361 N 
ATOM     16  C   UNL     1     -10.548 -36.780  13.045  1.00  0.00     0.026 A 
ATOM     17  C   UNL     1     -12.121 -36.358  11.218  1.00  0.00     0.001 A 
ATOM     18  H   UNL     1      -8.156 -35.567  13.956  1.00  0.00     0.166 HD
ATOM     19  C   UNL     1     -11.720 -37.115  12.341  1.00  0.00     0.002 A 
ENDBRANCH   1  10
TORSDOF 4
ENDMDL
