MODEL 1
REMARK VINA RESULT:    -2.567      0.000      0.000
REMARK INTER + INTRA:          -2.567
REMARK INTER:                  -2.567
REMARK INTRA:                   0.000
REMARK UNBOUND:                 0.000
REMARK SMILES CC(=O)[O-]
REMARK SMILES IDX 1 1 2 2 3 3 4 4
REMARK H PARENT
REMARK Flexibility Score: inf
ROOT
ATOM      1  C   UNL     1     -25.221 -50.102  56.176  1.00  0.00     0.063 C 
ATOM      2  C   UNL     1     -25.789 -51.382  55.664  1.00  0.00     0.038 C 
ATOM      3  O   UNL     1     -26.037 -52.326  56.458  1.00  0.00    -0.550 OA
ATOM      4  O   UNL     1     -25.994 -51.557  54.301  1.00  0.00    -0.550 OA
ENDROOT
TORSDOF 0
ENDMDL
MODEL 2
REMARK VINA RESULT:    -2.200      1.339      2.153
REMARK INTER + INTRA:          -2.200
REMARK INTER:                  -2.200
REMARK INTRA:                   0.000
REMARK UNBOUND:                 0.000
REMARK SMILES CC(=O)[O-]
REMARK SMILES IDX 1 1 2 2 3 3 4 4
REMARK H PARENT
REMARK Flexibility Score: inf
ROOT
ATOM      1  C   UNL     1     -26.224 -52.611  56.362  1.00  0.00     0.063 C 
ATOM      2  C   UNL     1     -25.815 -51.410  55.580  1.00  0.00     0.038 C 
ATOM      3  O   UNL     1     -25.906 -51.412  54.325  1.00  0.00    -0.550 OA
ATOM      4  O   UNL     1     -25.281 -50.304  56.229  1.00  0.00    -0.550 OA
ENDROOT
TORSDOF 0
ENDMDL
MODEL 3
REMARK VINA RESULT:    -2.125      2.282      2.847
REMARK INTER + INTRA:          -2.125
REMARK INTER:                  -2.125
REMARK INTRA:                   0.000
REMARK UNBOUND:                 0.000
REMARK SMILES CC(=O)[O-]
REMARK SMILES IDX 1 1 2 2 3 3 4 4
REMARK H PARENT
REMARK Flexibility Score: inf
ROOT
ATOM      1  C   UNL     1     -27.776 -53.706  56.442  1.00  0.00     0.063 C 
ATOM      2  C   UNL     1     -26.333 -53.335  56.516  1.00  0.00     0.038 C 
ATOM      3  O   UNL     1     -25.477 -54.191  56.859  1.00  0.00    -0.550 OA
ATOM      4  O   UNL     1     -25.937 -52.029  56.259  1.00  0.00    -0.550 OA
ENDROOT
TORSDOF 0
ENDMDL
MODEL 4
REMARK VINA RESULT:    -2.079      2.198      2.860
REMARK INTER + INTRA:          -2.079
REMARK INTER:                  -2.079
REMARK INTRA:                   0.000
REMARK UNBOUND:                 0.000
REMARK SMILES CC(=O)[O-]
REMARK SMILES IDX 1 1 2 2 3 3 4 4
REMARK H PARENT
REMARK Flexibility Score: inf
ROOT
ATOM      1  C   UNL     1     -26.960 -53.188  54.542  1.00  0.00     0.063 C 
ATOM      2  C   UNL     1     -26.757 -52.990  56.006  1.00  0.00     0.038 C 
ATOM      3  O   UNL     1     -25.873 -52.196  56.420  1.00  0.00    -0.550 OA
ATOM      4  O   UNL     1     -27.505 -53.723  56.918  1.00  0.00    -0.550 OA
ENDROOT
TORSDOF 0
ENDMDL
MODEL 5
REMARK VINA RESULT:    -1.998      2.705      3.239
REMARK INTER + INTRA:          -1.998
REMARK INTER:                  -1.998
REMARK INTRA:                   0.000
REMARK UNBOUND:                 0.000
REMARK SMILES CC(=O)[O-]
REMARK SMILES IDX 1 1 2 2 3 3 4 4
REMARK H PARENT
REMARK Flexibility Score: inf
ROOT
ATOM      1  C   UNL     1     -27.376 -51.303  52.168  1.00  0.00     0.063 C 
ATOM      2  C   UNL     1     -26.550 -52.150  53.076  1.00  0.00     0.038 C 
ATOM      3  O   UNL     1     -26.091 -51.670  54.145  1.00  0.00    -0.550 OA
ATOM      4  O   UNL     1     -26.239 -53.456  52.719  1.00  0.00    -0.550 OA
ENDROOT
TORSDOF 0
ENDMDL
MODEL 6
REMARK VINA RESULT:    -1.958     12.513     12.937
REMARK INTER + INTRA:          -1.958
REMARK INTER:                  -1.958
REMARK INTRA:                   0.000
REMARK UNBOUND:                 0.000
REMARK SMILES CC(=O)[O-]
REMARK SMILES IDX 1 1 2 2 3 3 4 4
REMARK H PARENT
REMARK Flexibility Score: inf
ROOT
ATOM      1  C   UNL     1     -31.858 -53.220  65.787  1.00  0.00     0.063 C 
ATOM      2  C   UNL     1     -31.189 -53.776  66.998  1.00  0.00     0.038 C 
ATOM      3  O   UNL     1     -30.803 -54.974  67.013  1.00  0.00    -0.550 OA
ATOM      4  O   UNL     1     -31.041 -52.990  68.133  1.00  0.00    -0.550 OA
ENDROOT
TORSDOF 0
ENDMDL
MODEL 7
REMARK VINA RESULT:    -1.952     12.326     12.747
REMARK INTER + INTRA:          -1.952
REMARK INTER:                  -1.952
REMARK INTRA:                   0.000
REMARK UNBOUND:                 0.000
REMARK SMILES CC(=O)[O-]
REMARK SMILES IDX 1 1 2 2 3 3 4 4
REMARK H PARENT
REMARK Flexibility Score: inf
ROOT
ATOM      1  C   UNL     1     -29.223 -59.577  62.496  1.00  0.00     0.063 C 
ATOM      2  C   UNL     1     -30.002 -60.403  63.463  1.00  0.00     0.038 C 
ATOM      3  O   UNL     1     -30.098 -61.647  63.298  1.00  0.00    -0.550 OA
ATOM      4  O   UNL     1     -30.672 -59.795  64.517  1.00  0.00    -0.550 OA
ENDROOT
TORSDOF 0
ENDMDL
MODEL 8
REMARK VINA RESULT:    -1.940      7.927      8.049
REMARK INTER + INTRA:          -1.940
REMARK INTER:                  -1.940
REMARK INTRA:                   0.000
REMARK UNBOUND:                 0.000
REMARK SMILES CC(=O)[O-]
REMARK SMILES IDX 1 1 2 2 3 3 4 4
REMARK H PARENT
REMARK Flexibility Score: inf
ROOT
ATOM      1  C   UNL     1     -19.837 -54.717  53.178  1.00  0.00     0.063 C 
ATOM      2  C   UNL     1     -18.853 -54.718  54.298  1.00  0.00     0.038 C 
ATOM      3  O   UNL     1     -18.776 -53.729  55.073  1.00  0.00    -0.550 OA
ATOM      4  O   UNL     1     -17.979 -55.786  54.457  1.00  0.00    -0.550 OA
ENDROOT
TORSDOF 0
ENDMDL
MODEL 9
REMARK VINA RESULT:    -1.910      3.748      4.643
REMARK INTER + INTRA:          -1.910
REMARK INTER:                  -1.910
REMARK INTRA:                   0.000
REMARK UNBOUND:                 0.000
REMARK SMILES CC(=O)[O-]
REMARK SMILES IDX 1 1 2 2 3 3 4 4
REMARK H PARENT
REMARK Flexibility Score: inf
ROOT
ATOM      1  C   UNL     1     -27.797 -52.704  51.040  1.00  0.00     0.063 C 
ATOM      2  C   UNL     1     -27.475 -51.630  52.023  1.00  0.00     0.038 C 
ATOM      3  O   UNL     1     -27.893 -50.458  51.837  1.00  0.00    -0.550 OA
ATOM      4  O   UNL     1     -26.667 -51.908  53.117  1.00  0.00    -0.550 OA
ENDROOT
TORSDOF 0
ENDMDL
