MODEL 1
REMARK VINA RESULT:    -3.619      0.000      0.000
REMARK INTER + INTRA:          -4.608
REMARK INTER:                  -4.465
REMARK INTRA:                  -0.143
REMARK UNBOUND:                -0.143
REMARK SMILES CCCCCC(=O)[O-]
REMARK SMILES IDX 4 1 5 2 6 3 7 4 8 5 3 6 2 7 1 8
REMARK H PARENT
REMARK Flexibility Score: inf
ROOT
ATOM      1  C   UNL     1     -21.049  -5.760 -13.314  1.00  0.00     0.006 C 
ENDROOT
BRANCH   1   2
ATOM      2  C   UNL     1     -19.892  -4.849 -13.743  1.00  0.00     0.053 C 
BRANCH   2   3
ATOM      3  C   UNL     1     -19.859  -4.656 -15.228  1.00  0.00     0.041 C 
ATOM      4  O   UNL     1     -19.233  -3.684 -15.728  1.00  0.00    -0.550 OA
ATOM      5  O   UNL     1     -20.547  -5.532 -16.058  1.00  0.00    -0.550 OA
ENDBRANCH   2   3
ENDBRANCH   1   2
BRANCH   1   6
ATOM      6  C   UNL     1     -20.553  -7.046 -12.630  1.00  0.00     0.000 C 
BRANCH   6   7
ATOM      7  C   UNL     1     -20.164  -8.137 -13.638  1.00  0.00    -0.003 C 
ATOM      8  C   UNL     1     -20.136  -9.533 -13.015  1.00  0.00     0.004 C 
ENDBRANCH   6   7
ENDBRANCH   1   6
TORSDOF 4
ENDMDL
MODEL 2
REMARK VINA RESULT:    -3.618      0.974      1.214
REMARK INTER + INTRA:          -4.607
REMARK INTER:                  -4.510
REMARK INTRA:                  -0.097
REMARK UNBOUND:                -0.143
REMARK SMILES CCCCCC(=O)[O-]
REMARK SMILES IDX 4 1 5 2 6 3 7 4 8 5 3 6 2 7 1 8
REMARK H PARENT
REMARK Flexibility Score: inf
ROOT
ATOM      1  C   UNL     1     -20.206  -5.675 -12.981  1.00  0.00     0.006 C 
ENDROOT
BRANCH   1   2
ATOM      2  C   UNL     1     -19.876  -5.508 -14.469  1.00  0.00     0.053 C 
BRANCH   2   3
ATOM      3  C   UNL     1     -19.917  -4.071 -14.889  1.00  0.00     0.041 C 
ATOM      4  O   UNL     1     -20.592  -3.237 -14.230  1.00  0.00    -0.550 OA
ATOM      5  O   UNL     1     -19.237  -3.659 -16.028  1.00  0.00    -0.550 OA
ENDBRANCH   2   3
ENDBRANCH   1   2
BRANCH   1   6
ATOM      6  C   UNL     1     -20.686  -7.097 -12.648  1.00  0.00     0.000 C 
BRANCH   6   7
ATOM      7  C   UNL     1     -20.123  -8.151 -13.613  1.00  0.00    -0.003 C 
ATOM      8  C   UNL     1     -20.130  -9.559 -13.020  1.00  0.00     0.004 C 
ENDBRANCH   6   7
ENDBRANCH   1   6
TORSDOF 4
ENDMDL
MODEL 3
REMARK VINA RESULT:    -3.478      2.262      2.736
REMARK INTER + INTRA:          -4.435
REMARK INTER:                  -4.285
REMARK INTRA:                  -0.150
REMARK UNBOUND:                -0.143
REMARK SMILES CCCCCC(=O)[O-]
REMARK SMILES IDX 4 1 5 2 6 3 7 4 8 5 3 6 2 7 1 8
REMARK H PARENT
REMARK Flexibility Score: inf
ROOT
ATOM      1  C   UNL     1     -20.430  -5.857 -14.332  1.00  0.00     0.006 C 
ENDROOT
BRANCH   1   2
ATOM      2  C   UNL     1     -20.324  -5.008 -13.059  1.00  0.00     0.053 C 
BRANCH   2   3
ATOM      3  C   UNL     1     -21.646  -4.416 -12.676  1.00  0.00     0.041 C 
ATOM      4  O   UNL     1     -22.716  -5.011 -12.967  1.00  0.00    -0.550 OA
ATOM      5  O   UNL     1     -21.696  -3.189 -12.025  1.00  0.00    -0.550 OA
ENDBRANCH   2   3
ENDBRANCH   1   2
BRANCH   1   6
ATOM      6  C   UNL     1     -19.851  -7.269 -14.138  1.00  0.00     0.000 C 
BRANCH   6   7
ATOM      7  C   UNL     1     -20.474  -8.002 -12.941  1.00  0.00    -0.003 C 
ATOM      8  C   UNL     1     -20.197  -9.505 -12.960  1.00  0.00     0.004 C 
ENDBRANCH   6   7
ENDBRANCH   1   6
TORSDOF 4
ENDMDL
MODEL 4
REMARK VINA RESULT:    -3.241     20.091     20.872
REMARK INTER + INTRA:          -4.142
REMARK INTER:                  -4.027
REMARK INTRA:                  -0.115
REMARK UNBOUND:                -0.143
REMARK SMILES CCCCCC(=O)[O-]
REMARK SMILES IDX 4 1 5 2 6 3 7 4 8 5 3 6 2 7 1 8
REMARK H PARENT
REMARK Flexibility Score: inf
ROOT
ATOM      1  C   UNL     1      -6.702 -10.298  -0.487  1.00  0.00     0.006 C 
ENDROOT
BRANCH   1   2
ATOM      2  C   UNL     1      -5.552 -11.036   0.209  1.00  0.00     0.053 C 
BRANCH   2   3
ATOM      3  C   UNL     1      -6.017 -12.305   0.855  1.00  0.00     0.041 C 
ATOM      4  O   UNL     1      -6.040 -13.379   0.199  1.00  0.00    -0.550 OA
ATOM      5  O   UNL     1      -6.455 -12.294   2.173  1.00  0.00    -0.550 OA
ENDBRANCH   2   3
ENDBRANCH   1   2
BRANCH   1   6
ATOM      6  C   UNL     1      -7.340  -9.231   0.418  1.00  0.00     0.000 C 
BRANCH   6   7
ATOM      7  C   UNL     1      -7.569  -7.899  -0.312  1.00  0.00    -0.003 C 
ATOM      8  C   UNL     1      -6.471  -6.874  -0.027  1.00  0.00     0.004 C 
ENDBRANCH   6   7
ENDBRANCH   1   6
TORSDOF 4
ENDMDL
MODEL 5
REMARK VINA RESULT:    -3.211     19.325     19.985
REMARK INTER + INTRA:          -4.106
REMARK INTER:                  -4.046
REMARK INTRA:                  -0.060
REMARK UNBOUND:                -0.143
REMARK SMILES CCCCCC(=O)[O-]
REMARK SMILES IDX 4 1 5 2 6 3 7 4 8 5 3 6 2 7 1 8
REMARK H PARENT
REMARK Flexibility Score: inf
ROOT
ATOM      1  C   UNL     1      -6.775  -9.503   0.387  1.00  0.00     0.006 C 
ENDROOT
BRANCH   1   2
ATOM      2  C   UNL     1      -7.612  -8.436  -0.330  1.00  0.00     0.053 C 
BRANCH   2   3
ATOM      3  C   UNL     1      -7.219  -7.051   0.085  1.00  0.00     0.041 C 
ATOM      4  O   UNL     1      -6.166  -6.528  -0.367  1.00  0.00    -0.550 OA
ATOM      5  O   UNL     1      -7.998  -6.351   0.997  1.00  0.00    -0.550 OA
ENDBRANCH   2   3
ENDBRANCH   1   2
BRANCH   1   6
ATOM      6  C   UNL     1      -6.373 -10.653  -0.551  1.00  0.00     0.000 C 
BRANCH   6   7
ATOM      7  C   UNL     1      -5.323 -11.584   0.073  1.00  0.00    -0.003 C 
ATOM      8  C   UNL     1      -5.946 -12.786   0.782  1.00  0.00     0.004 C 
ENDBRANCH   6   7
ENDBRANCH   1   6
TORSDOF 4
ENDMDL
MODEL 6
REMARK VINA RESULT:    -3.075     19.433     20.011
REMARK INTER + INTRA:          -3.937
REMARK INTER:                  -3.848
REMARK INTRA:                  -0.089
REMARK UNBOUND:                -0.143
REMARK SMILES CCCCCC(=O)[O-]
REMARK SMILES IDX 4 1 5 2 6 3 7 4 8 5 3 6 2 7 1 8
REMARK H PARENT
REMARK Flexibility Score: inf
ROOT
ATOM      1  C   UNL     1      -7.558  -7.891  -0.311  1.00  0.00     0.006 C 
ENDROOT
BRANCH   1   2
ATOM      2  C   UNL     1      -6.477  -6.856   0.024  1.00  0.00     0.053 C 
BRANCH   2   3
ATOM      3  C   UNL     1      -6.934  -5.901   1.085  1.00  0.00     0.041 C 
ATOM      4  O   UNL     1      -8.010  -6.108   1.704  1.00  0.00    -0.550 OA
ATOM      5  O   UNL     1      -6.186  -4.765   1.367  1.00  0.00    -0.550 OA
ENDBRANCH   2   3
ENDBRANCH   1   2
BRANCH   1   6
ATOM      6  C   UNL     1      -7.291  -9.248   0.363  1.00  0.00     0.000 C 
BRANCH   6   7
ATOM      7  C   UNL     1      -6.612 -10.251  -0.581  1.00  0.00    -0.003 C 
ATOM      8  C   UNL     1      -5.677 -11.212   0.152  1.00  0.00     0.004 C 
ENDBRANCH   6   7
ENDBRANCH   1   6
TORSDOF 4
ENDMDL
MODEL 7
REMARK VINA RESULT:    -3.017     19.857     20.561
REMARK INTER + INTRA:          -3.866
REMARK INTER:                  -3.819
REMARK INTRA:                  -0.047
REMARK UNBOUND:                -0.143
REMARK SMILES CCCCCC(=O)[O-]
REMARK SMILES IDX 4 1 5 2 6 3 7 4 8 5 3 6 2 7 1 8
REMARK H PARENT
REMARK Flexibility Score: inf
ROOT
ATOM      1  C   UNL     1      -7.035  -8.696   0.518  1.00  0.00     0.006 C 
ENDROOT
BRANCH   1   2
ATOM      2  C   UNL     1      -7.050  -9.929  -0.395  1.00  0.00     0.053 C 
BRANCH   2   3
ATOM      3  C   UNL     1      -6.217 -11.042   0.163  1.00  0.00     0.041 C 
ATOM      4  O   UNL     1      -6.383 -11.425   1.351  1.00  0.00    -0.550 OA
ATOM      5  O   UNL     1      -5.234 -11.635  -0.620  1.00  0.00    -0.550 OA
ENDBRANCH   2   3
ENDBRANCH   1   2
BRANCH   1   6
ATOM      6  C   UNL     1      -6.943  -7.385  -0.280  1.00  0.00     0.000 C 
BRANCH   6   7
ATOM      7  C   UNL     1      -6.331  -6.239   0.539  1.00  0.00    -0.003 C 
ATOM      8  C   UNL     1      -5.541  -5.254  -0.323  1.00  0.00     0.004 C 
ENDBRANCH   6   7
ENDBRANCH   1   6
TORSDOF 4
ENDMDL
MODEL 8
REMARK VINA RESULT:    -2.969      3.155      4.270
REMARK INTER + INTRA:          -3.806
REMARK INTER:                  -3.645
REMARK INTRA:                  -0.161
REMARK UNBOUND:                -0.143
REMARK SMILES CCCCCC(=O)[O-]
REMARK SMILES IDX 4 1 5 2 6 3 7 4 8 5 3 6 2 7 1 8
REMARK H PARENT
REMARK Flexibility Score: inf
ROOT
ATOM      1  C   UNL     1     -20.395  -6.137 -13.096  1.00  0.00     0.006 C 
ENDROOT
BRANCH   1   2
ATOM      2  C   UNL     1     -20.146  -7.489 -13.775  1.00  0.00     0.053 C 
BRANCH   2   3
ATOM      3  C   UNL     1     -20.442  -8.634 -12.856  1.00  0.00     0.041 C 
ATOM      4  O   UNL     1     -20.905  -8.421 -11.705  1.00  0.00    -0.550 OA
ATOM      5  O   UNL     1     -20.176  -9.937 -13.260  1.00  0.00    -0.550 OA
ENDBRANCH   2   3
ENDBRANCH   1   2
BRANCH   1   6
ATOM      6  C   UNL     1     -21.738  -5.515 -13.515  1.00  0.00     0.000 C 
BRANCH   6   7
ATOM      7  C   UNL     1     -22.232  -6.038 -14.872  1.00  0.00    -0.003 C 
ATOM      8  C   UNL     1     -22.043  -5.023 -15.999  1.00  0.00     0.004 C 
ENDBRANCH   6   7
ENDBRANCH   1   6
TORSDOF 4
ENDMDL
MODEL 9
REMARK VINA RESULT:    -2.899     19.841     20.666
REMARK INTER + INTRA:          -3.720
REMARK INTER:                  -3.667
REMARK INTRA:                  -0.053
REMARK UNBOUND:                -0.143
REMARK SMILES CCCCCC(=O)[O-]
REMARK SMILES IDX 4 1 5 2 6 3 7 4 8 5 3 6 2 7 1 8
REMARK H PARENT
REMARK Flexibility Score: inf
ROOT
ATOM      1  C   UNL     1      -6.268 -11.457   0.735  1.00  0.00     0.006 C 
ENDROOT
BRANCH   1   2
ATOM      2  C   UNL     1      -6.481 -10.374  -0.330  1.00  0.00     0.053 C 
BRANCH   2   3
ATOM      3  C   UNL     1      -7.148  -9.159   0.239  1.00  0.00     0.041 C 
ATOM      4  O   UNL     1      -7.082  -8.919   1.473  1.00  0.00    -0.550 OA
ATOM      5  O   UNL     1      -7.869  -8.309  -0.590  1.00  0.00    -0.550 OA
ENDBRANCH   2   3
ENDBRANCH   1   2
BRANCH   1   6
ATOM      6  C   UNL     1      -5.758 -12.775   0.130  1.00  0.00     0.000 C 
BRANCH   6   7
ATOM      7  C   UNL     1      -5.718 -13.918   1.156  1.00  0.00    -0.003 C 
ATOM      8  C   UNL     1      -6.653 -15.070   0.792  1.00  0.00     0.004 C 
ENDBRANCH   6   7
ENDBRANCH   1   6
TORSDOF 4
ENDMDL
