MODEL 1
REMARK VINA RESULT:    -3.894      0.000      0.000
REMARK INTER + INTRA:          -5.397
REMARK INTER:                  -5.943
REMARK INTRA:                   0.545
REMARK UNBOUND:                 0.545
REMARK SMILES CC1=CCC[C@@H](C)C(=O)C[C@H](C(C)C)C(=O)C1
REMARK SMILES IDX 8 1 9 2 6 3 7 4 5 5 4 6 3 7 2 8 1 9 10 11 11 12 15 13 16 14
REMARK SMILES IDX 17 15 12 17 13 18 14 19
REMARK H PARENT
REMARK Flexibility Score: 70.00
ROOT
ATOM      1  C   UNL     1     -14.640  11.181 -28.852  1.00  0.00     0.136 C 
ATOM      2  O   UNL     1     -14.100  10.248 -29.434  1.00  0.00    -0.299 OA
ENDROOT
BRANCH   1   3
ATOM      3  C   UNL     1     -15.384  10.917 -27.557  1.00  0.00     0.053 C 
ATOM      4  C   UNL     1     -14.439  10.306 -26.514  1.00  0.00     0.016 C 
BRANCH   3   5
ATOM      5  C   UNL     1     -16.598   9.993 -27.810  1.00  0.00     0.015 C 
BRANCH   5   6
ATOM      6  C   UNL     1     -16.992   9.969 -29.300  1.00  0.00     0.028 C 
BRANCH   6   7
ATOM      7  C   UNL     1     -18.405  10.436 -29.554  1.00  0.00    -0.028 C 
ATOM      8  C   UNL     1     -18.763  11.469 -30.359  1.00  0.00    -0.070 CG0
ATOM      9  C   UNL     1     -20.223  11.847 -30.399  1.00  0.00     0.039 C 
ATOM     10  G   UNL     1     -17.788  12.224 -31.252  1.00  0.00     0.000 G0
ENDBRANCH   6   7
ENDBRANCH   5   6
ENDBRANCH   3   5
ENDBRANCH   1   3
BRANCH   1  11
ATOM     11  C   UNL     1     -14.523  12.571 -29.435  1.00  0.00     0.087 C 
BRANCH  11  12
ATOM     12  C   UNL     1     -15.257  12.694 -30.798  1.00  0.00     0.066 C 
BRANCH  12  13
ATOM     13  C   UNL     1     -16.727  13.003 -30.555  1.00  0.00     0.140 C 
ATOM     14  O   UNL     1     -17.043  13.917 -29.805  1.00  0.00    -0.299 OA
BRANCH  13  15
ATOM     15  C   UNL     1     -17.795  12.216 -31.274  1.00  0.00     0.106 CG0
ATOM     16  G   UNL     1     -18.762  11.490 -30.347  1.00  0.00     0.000 G0
ENDBRANCH  13  15
ENDBRANCH  12  13
BRANCH  12  17
ATOM     17  C   UNL     1     -14.608  13.748 -31.755  1.00  0.00    -0.006 C 
ATOM     18  C   UNL     1     -13.502  13.105 -32.615  1.00  0.00     0.008 C 
ATOM     19  C   UNL     1     -14.005  14.944 -30.995  1.00  0.00     0.008 C 
ENDBRANCH  12  17
ENDBRANCH  11  12
ENDBRANCH   1  11
TORSDOF 1
ENDMDL
MODEL 2
REMARK VINA RESULT:    -3.468      1.736      4.868
REMARK INTER + INTRA:          -4.747
REMARK INTER:                  -5.589
REMARK INTRA:                   0.842
REMARK UNBOUND:                 0.545
REMARK SMILES CC1=CCC[C@@H](C)C(=O)C[C@H](C(C)C)C(=O)C1
REMARK SMILES IDX 8 1 9 2 6 3 7 4 5 5 4 6 3 7 2 8 1 9 10 11 11 12 15 13 16 14
REMARK SMILES IDX 17 15 12 17 13 18 14 19
REMARK H PARENT
REMARK Flexibility Score: 70.00
ROOT
ATOM      1  C   UNL     1     -16.780  13.255 -30.244  1.00  0.00     0.136 C 
ATOM      2  O   UNL     1     -17.342  13.835 -29.324  1.00  0.00    -0.299 OA
ENDROOT
BRANCH   1   3
ATOM      3  C   UNL     1     -15.321  13.554 -30.530  1.00  0.00     0.053 C 
ATOM      4  C   UNL     1     -15.108  15.067 -30.680  1.00  0.00     0.016 C 
BRANCH   3   5
ATOM      5  C   UNL     1     -14.853  12.803 -31.797  1.00  0.00     0.015 C 
BRANCH   5   6
ATOM      6  C   UNL     1     -14.288  11.410 -31.454  1.00  0.00     0.028 C 
BRANCH   6   7
ATOM      7  C   UNL     1     -13.911  11.257 -30.001  1.00  0.00    -0.028 C 
ATOM      8  C   UNL     1     -14.676  10.676 -29.042  1.00  0.00    -0.070 CG0
ATOM      9  C   UNL     1     -14.165  10.715 -27.623  1.00  0.00     0.039 C 
ATOM     10  G   UNL     1     -15.985   9.950 -29.327  1.00  0.00     0.000 G0
ENDBRANCH   6   7
ENDBRANCH   5   6
ENDBRANCH   3   5
ENDBRANCH   1   3
BRANCH   1  11
ATOM     11  C   UNL     1     -17.557  12.238 -31.050  1.00  0.00     0.087 C 
BRANCH  11  12
ATOM     12  C   UNL     1     -18.197  11.147 -30.148  1.00  0.00     0.066 C 
BRANCH  12  13
ATOM     13  C   UNL     1     -17.231  10.786 -29.029  1.00  0.00     0.140 C 
ATOM     14  O   UNL     1     -17.469  11.134 -27.881  1.00  0.00    -0.299 OA
BRANCH  13  15
ATOM     15  C   UNL     1     -16.005   9.958 -29.326  1.00  0.00     0.106 CG0
ATOM     16  G   UNL     1     -14.689  10.678 -29.059  1.00  0.00     0.000 G0
ENDBRANCH  13  15
ENDBRANCH  12  13
BRANCH  12  17
ATOM     17  C   UNL     1     -19.595  11.560 -29.579  1.00  0.00    -0.006 C 
ATOM     18  C   UNL     1     -20.495  10.325 -29.376  1.00  0.00     0.008 C 
ATOM     19  C   UNL     1     -20.332  12.560 -30.488  1.00  0.00     0.008 C 
ENDBRANCH  12  17
ENDBRANCH  11  12
ENDBRANCH   1  11
TORSDOF 1
ENDMDL
MODEL 3
REMARK VINA RESULT:    -3.002      1.733      3.873
REMARK INTER + INTRA:          -4.036
REMARK INTER:                  -4.320
REMARK INTRA:                   0.284
REMARK UNBOUND:                 0.545
REMARK SMILES CC1=CCC[C@@H](C)C(=O)C[C@H](C(C)C)C(=O)C1
REMARK SMILES IDX 8 1 9 2 6 3 7 4 5 5 4 6 3 7 2 8 1 9 10 11 11 12 15 13 16 14
REMARK SMILES IDX 17 15 12 17 13 18 14 19
REMARK H PARENT
REMARK Flexibility Score: 70.00
ROOT
ATOM      1  C   UNL     1     -15.213  12.670 -31.996  1.00  0.00     0.136 C 
ATOM      2  O   UNL     1     -16.217  12.604 -32.693  1.00  0.00    -0.299 OA
ENDROOT
BRANCH   1   3
ATOM      3  C   UNL     1     -14.648  14.032 -31.636  1.00  0.00     0.053 C 
ATOM      4  C   UNL     1     -13.324  13.875 -30.876  1.00  0.00     0.016 C 
BRANCH   3   5
ATOM      5  C   UNL     1     -15.670  14.838 -30.803  1.00  0.00     0.015 C 
BRANCH   5   6
ATOM      6  C   UNL     1     -16.202  14.018 -29.610  1.00  0.00     0.028 C 
BRANCH   6   7
ATOM      7  C   UNL     1     -17.674  13.701 -29.709  1.00  0.00    -0.028 C 
ATOM      8  C   UNL     1     -18.234  12.478 -29.526  1.00  0.00    -0.070 CG0
ATOM      9  C   UNL     1     -19.716  12.345 -29.774  1.00  0.00     0.039 C 
ATOM     10  G   UNL     1     -17.462  11.257 -29.041  1.00  0.00     0.000 G0
ENDBRANCH   6   7
ENDBRANCH   5   6
ENDBRANCH   3   5
ENDBRANCH   1   3
BRANCH   1  11
ATOM     11  C   UNL     1     -14.582  11.389 -31.498  1.00  0.00     0.087 C 
BRANCH  11  12
ATOM     12  C   UNL     1     -15.039  11.039 -30.056  1.00  0.00     0.066 C 
BRANCH  12  13
ATOM     13  C   UNL     1     -16.517  10.675 -30.068  1.00  0.00     0.140 C 
ATOM     14  O   UNL     1     -16.943   9.876 -30.890  1.00  0.00    -0.299 OA
BRANCH  13  15
ATOM     15  C   UNL     1     -17.450  11.265 -29.038  1.00  0.00     0.106 CG0
ATOM     16  G   UNL     1     -18.246  12.465 -29.534  1.00  0.00     0.000 G0
ENDBRANCH  13  15
ENDBRANCH  12  13
BRANCH  12  17
ATOM     17  C   UNL     1     -14.184   9.907 -29.397  1.00  0.00    -0.006 C 
ATOM     18  C   UNL     1     -14.347   9.913 -27.863  1.00  0.00     0.008 C 
ATOM     19  C   UNL     1     -12.686  10.027 -29.730  1.00  0.00     0.008 C 
ENDBRANCH  12  17
ENDBRANCH  11  12
ENDBRANCH   1  11
TORSDOF 1
ENDMDL
MODEL 4
REMARK VINA RESULT:    -2.914      1.974      5.327
REMARK INTER + INTRA:          -3.901
REMARK INTER:                  -5.302
REMARK INTRA:                   1.401
REMARK UNBOUND:                 0.545
REMARK SMILES CC1=CCC[C@@H](C)C(=O)C[C@H](C(C)C)C(=O)C1
REMARK SMILES IDX 8 1 9 2 6 3 7 4 5 5 4 6 3 7 2 8 1 9 10 11 11 12 15 13 16 14
REMARK SMILES IDX 17 15 12 17 13 18 14 19
REMARK H PARENT
REMARK Flexibility Score: 70.00
ROOT
ATOM      1  C   UNL     1     -16.624  13.395 -29.661  1.00  0.00     0.136 C 
ATOM      2  O   UNL     1     -17.390  13.688 -28.752  1.00  0.00    -0.299 OA
ENDROOT
BRANCH   1   3
ATOM      3  C   UNL     1     -17.048  13.642 -31.097  1.00  0.00     0.053 C 
ATOM      4  C   UNL     1     -17.876  12.460 -31.618  1.00  0.00     0.016 C 
BRANCH   3   5
ATOM      5  C   UNL     1     -15.810  13.885 -31.991  1.00  0.00     0.015 C 
BRANCH   5   6
ATOM      6  C   UNL     1     -14.700  14.637 -31.231  1.00  0.00     0.028 C 
BRANCH   6   7
ATOM      7  C   UNL     1     -13.308  14.264 -31.679  1.00  0.00    -0.028 C 
ATOM      8  C   UNL     1     -12.859  13.002 -31.897  1.00  0.00    -0.070 CG0
ATOM      9  C   UNL     1     -11.400  12.830 -32.240  1.00  0.00     0.039 C 
ATOM     10  G   UNL     1     -13.752  11.767 -31.864  1.00  0.00     0.000 G0
ENDBRANCH   6   7
ENDBRANCH   5   6
ENDBRANCH   3   5
ENDBRANCH   1   3
BRANCH   1  11
ATOM     11  C   UNL     1     -15.269  12.819 -29.318  1.00  0.00     0.087 C 
BRANCH  11  12
ATOM     12  C   UNL     1     -15.166  11.314 -29.691  1.00  0.00     0.066 C 
BRANCH  12  13
ATOM     13  C   UNL     1     -13.908  11.084 -30.517  1.00  0.00     0.140 C 
ATOM     14  O   UNL     1     -13.031  10.339 -30.100  1.00  0.00    -0.299 OA
BRANCH  13  15
ATOM     15  C   UNL     1     -13.762  11.735 -31.870  1.00  0.00     0.106 CG0
ATOM     16  G   UNL     1     -12.871  12.971 -31.872  1.00  0.00     0.000 G0
ENDBRANCH  13  15
ENDBRANCH  12  13
BRANCH  12  17
ATOM     17  C   UNL     1     -15.208  10.367 -28.447  1.00  0.00    -0.006 C 
ATOM     18  C   UNL     1     -16.644   9.880 -28.172  1.00  0.00     0.008 C 
ATOM     19  C   UNL     1     -14.666  11.040 -27.172  1.00  0.00     0.008 C 
ENDBRANCH  12  17
ENDBRANCH  11  12
ENDBRANCH   1  11
TORSDOF 1
ENDMDL
MODEL 5
REMARK VINA RESULT:    -2.339     10.102     12.297
REMARK INTER + INTRA:          -3.024
REMARK INTER:                  -2.754
REMARK INTRA:                  -0.270
REMARK UNBOUND:                 0.545
REMARK SMILES CC1=CCC[C@@H](C)C(=O)C[C@H](C(C)C)C(=O)C1
REMARK SMILES IDX 8 1 9 2 6 3 7 4 5 5 4 6 3 7 2 8 1 9 10 11 11 12 15 13 16 14
REMARK SMILES IDX 17 15 12 17 13 18 14 19
REMARK H PARENT
REMARK Flexibility Score: 70.00
ROOT
ATOM      1  C   UNL     1     -26.379  19.847 -34.295  1.00  0.00     0.136 C 
ATOM      2  O   UNL     1     -26.146  21.033 -34.485  1.00  0.00    -0.299 OA
ENDROOT
BRANCH   1   3
ATOM      3  C   UNL     1     -27.819  19.372 -34.238  1.00  0.00     0.053 C 
ATOM      4  C   UNL     1     -28.623  20.227 -33.249  1.00  0.00     0.016 C 
BRANCH   3   5
ATOM      5  C   UNL     1     -27.880  17.876 -33.852  1.00  0.00     0.015 C 
BRANCH   5   6
ATOM      6  C   UNL     1     -28.064  17.690 -32.334  1.00  0.00     0.028 C 
BRANCH   6   7
ATOM      7  C   UNL     1     -27.433  16.425 -31.804  1.00  0.00    -0.028 C 
ATOM      8  C   UNL     1     -26.193  16.327 -31.260  1.00  0.00    -0.070 CG0
ATOM      9  C   UNL     1     -25.703  14.951 -30.885  1.00  0.00     0.039 C 
ATOM     10  G   UNL     1     -25.301  17.526 -30.965  1.00  0.00     0.000 G0
ENDBRANCH   6   7
ENDBRANCH   5   6
ENDBRANCH   3   5
ENDBRANCH   1   3
BRANCH   1  11
ATOM     11  C   UNL     1     -25.218  18.889 -34.145  1.00  0.00     0.087 C 
BRANCH  11  12
ATOM     12  C   UNL     1     -24.420  19.143 -32.837  1.00  0.00     0.066 C 
BRANCH  12  13
ATOM     13  C   UNL     1     -24.303  17.841 -32.056  1.00  0.00     0.140 C 
ATOM     14  O   UNL     1     -23.378  17.073 -32.284  1.00  0.00    -0.299 OA
BRANCH  13  15
ATOM     15  C   UNL     1     -25.299  17.519 -30.969  1.00  0.00     0.106 CG0
ATOM     16  G   UNL     1     -26.186  16.319 -31.275  1.00  0.00     0.000 G0
ENDBRANCH  13  15
ENDBRANCH  12  13
BRANCH  12  17
ATOM     17  C   UNL     1     -23.014  19.781 -33.088  1.00  0.00    -0.006 C 
ATOM     18  C   UNL     1     -22.986  21.253 -32.629  1.00  0.00     0.008 C 
ATOM     19  C   UNL     1     -22.592  19.721 -34.567  1.00  0.00     0.008 C 
ENDBRANCH  12  17
ENDBRANCH  11  12
ENDBRANCH   1  11
TORSDOF 1
ENDMDL
MODEL 6
REMARK VINA RESULT:    -1.769      1.718      4.483
REMARK INTER + INTRA:          -2.154
REMARK INTER:                  -4.700
REMARK INTRA:                   2.545
REMARK UNBOUND:                 0.545
REMARK SMILES CC1=CCC[C@@H](C)C(=O)C[C@H](C(C)C)C(=O)C1
REMARK SMILES IDX 8 1 9 2 6 3 7 4 5 5 4 6 3 7 2 8 1 9 10 11 11 12 15 13 16 14
REMARK SMILES IDX 17 15 12 17 13 18 14 19
REMARK H PARENT
REMARK Flexibility Score: 70.00
ROOT
ATOM      1  C   UNL     1     -17.657  12.248 -29.012  1.00  0.00     0.136 C 
ATOM      2  O   UNL     1     -17.421  13.188 -28.264  1.00  0.00    -0.299 OA
ENDROOT
BRANCH   1   3
ATOM      3  C   UNL     1     -18.502  12.479 -30.251  1.00  0.00     0.053 C 
ATOM      4  C   UNL     1     -19.870  11.802 -30.096  1.00  0.00     0.016 C 
BRANCH   3   5
ATOM      5  C   UNL     1     -17.769  11.962 -31.510  1.00  0.00     0.015 C 
BRANCH   5   6
ATOM      6  C   UNL     1     -17.500  13.097 -32.516  1.00  0.00     0.028 C 
BRANCH   6   7
ATOM      7  C   UNL     1     -16.556  14.152 -31.993  1.00  0.00    -0.028 C 
ATOM      8  C   UNL     1     -15.429  13.918 -31.274  1.00  0.00    -0.070 CG0
ATOM      9  C   UNL     1     -14.674  15.114 -30.751  1.00  0.00     0.039 C 
ATOM     10  G   UNL     1     -14.864  12.527 -31.013  1.00  0.00     0.000 G0
ENDBRANCH   6   7
ENDBRANCH   5   6
ENDBRANCH   3   5
ENDBRANCH   1   3
BRANCH   1  11
ATOM     11  C   UNL     1     -17.076  10.891 -28.686  1.00  0.00     0.087 C 
BRANCH  11  12
ATOM     12  C   UNL     1     -15.646  10.716 -29.267  1.00  0.00     0.066 C 
BRANCH  12  13
ATOM     13  C   UNL     1     -15.049  12.084 -29.563  1.00  0.00     0.140 C 
ATOM     14  O   UNL     1     -14.688  12.805 -28.644  1.00  0.00    -0.299 OA
BRANCH  13  15
ATOM     15  C   UNL     1     -14.860  12.533 -30.992  1.00  0.00     0.106 CG0
ATOM     16  G   UNL     1     -15.416  13.920 -31.286  1.00  0.00     0.000 G0
ENDBRANCH  13  15
ENDBRANCH  12  13
BRANCH  12  17
ATOM     17  C   UNL     1     -14.704   9.876 -28.342  1.00  0.00    -0.006 C 
ATOM     18  C   UNL     1     -14.966  10.191 -26.855  1.00  0.00     0.008 C 
ATOM     19  C   UNL     1     -13.213  10.118 -28.639  1.00  0.00     0.008 C 
ENDBRANCH  12  17
ENDBRANCH  11  12
ENDBRANCH   1  11
TORSDOF 1
ENDMDL
MODEL 7
REMARK VINA RESULT:    -1.730     10.517     13.106
REMARK INTER + INTRA:          -2.094
REMARK INTER:                  -2.287
REMARK INTRA:                   0.193
REMARK UNBOUND:                 0.545
REMARK SMILES CC1=CCC[C@@H](C)C(=O)C[C@H](C(C)C)C(=O)C1
REMARK SMILES IDX 8 1 9 2 6 3 7 4 5 5 4 6 3 7 2 8 1 9 10 11 11 12 15 13 16 14
REMARK SMILES IDX 17 15 12 17 13 18 14 19
REMARK H PARENT
REMARK Flexibility Score: 70.00
ROOT
ATOM      1  C   UNL     1     -27.880  18.136 -33.124  1.00  0.00     0.136 C 
ATOM      2  O   UNL     1     -28.101  16.991 -33.495  1.00  0.00    -0.299 OA
ENDROOT
BRANCH   1   3
ATOM      3  C   UNL     1     -28.722  19.271 -33.676  1.00  0.00     0.053 C 
ATOM      4  C   UNL     1     -30.080  18.742 -34.156  1.00  0.00     0.016 C 
BRANCH   3   5
ATOM      5  C   UNL     1     -27.974  19.991 -34.822  1.00  0.00     0.015 C 
BRANCH   5   6
ATOM      6  C   UNL     1     -26.643  20.598 -34.337  1.00  0.00     0.028 C 
BRANCH   6   7
ATOM      7  C   UNL     1     -25.431  20.007 -35.015  1.00  0.00    -0.028 C 
ATOM      8  C   UNL     1     -24.348  19.486 -34.385  1.00  0.00    -0.070 CG0
ATOM      9  C   UNL     1     -23.190  19.040 -35.243  1.00  0.00     0.039 C 
ATOM     10  G   UNL     1     -24.261  19.283 -32.878  1.00  0.00     0.000 G0
ENDBRANCH   6   7
ENDBRANCH   5   6
ENDBRANCH   3   5
ENDBRANCH   1   3
BRANCH   1  11
ATOM     11  C   UNL     1     -26.789  18.377 -32.105  1.00  0.00     0.087 C 
BRANCH  11  12
ATOM     12  C   UNL     1     -25.726  17.245 -32.113  1.00  0.00     0.066 C 
BRANCH  12  13
ATOM     13  C   UNL     1     -24.360  17.836 -32.431  1.00  0.00     0.140 C 
ATOM     14  O   UNL     1     -23.361  17.133 -32.371  1.00  0.00    -0.299 OA
BRANCH  13  15
ATOM     15  C   UNL     1     -24.242  19.276 -32.865  1.00  0.00     0.106 CG0
ATOM     16  G   UNL     1     -24.334  19.480 -34.372  1.00  0.00     0.000 G0
ENDBRANCH  13  15
ENDBRANCH  12  13
BRANCH  12  17
ATOM     17  C   UNL     1     -25.691  16.422 -30.783  1.00  0.00    -0.006 C 
ATOM     18  C   UNL     1     -26.412  15.070 -30.950  1.00  0.00     0.008 C 
ATOM     19  C   UNL     1     -26.333  17.177 -29.604  1.00  0.00     0.008 C 
ENDBRANCH  12  17
ENDBRANCH  11  12
ENDBRANCH   1  11
TORSDOF 1
ENDMDL
MODEL 8
REMARK VINA RESULT:    -1.545     10.693     13.008
REMARK INTER + INTRA:          -1.813
REMARK INTER:                  -2.501
REMARK INTRA:                   0.688
REMARK UNBOUND:                 0.545
REMARK SMILES CC1=CCC[C@@H](C)C(=O)C[C@H](C(C)C)C(=O)C1
REMARK SMILES IDX 8 1 9 2 6 3 7 4 5 5 4 6 3 7 2 8 1 9 10 11 11 12 15 13 16 14
REMARK SMILES IDX 17 15 12 17 13 18 14 19
REMARK H PARENT
REMARK Flexibility Score: 70.00
ROOT
ATOM      1  C   UNL     1     -24.798  19.673 -34.321  1.00  0.00     0.136 C 
ATOM      2  O   UNL     1     -24.831  19.451 -35.524  1.00  0.00    -0.299 OA
ENDROOT
BRANCH   1   3
ATOM      3  C   UNL     1     -23.462  19.679 -33.603  1.00  0.00     0.053 C 
ATOM      4  C   UNL     1     -22.317  19.842 -34.611  1.00  0.00     0.016 C 
BRANCH   3   5
ATOM      5  C   UNL     1     -23.287  18.385 -32.775  1.00  0.00     0.015 C 
BRANCH   5   6
ATOM      6  C   UNL     1     -24.269  18.335 -31.588  1.00  0.00     0.028 C 
BRANCH   6   7
ATOM      7  C   UNL     1     -25.016  17.028 -31.482  1.00  0.00    -0.028 C 
ATOM      8  C   UNL     1     -26.363  16.879 -31.562  1.00  0.00    -0.070 CG0
ATOM      9  C   UNL     1     -26.927  15.500 -31.325  1.00  0.00     0.039 C 
ATOM     10  G   UNL     1     -27.321  18.007 -31.925  1.00  0.00     0.000 G0
ENDBRANCH   6   7
ENDBRANCH   5   6
ENDBRANCH   3   5
ENDBRANCH   1   3
BRANCH   1  11
ATOM     11  C   UNL     1     -26.093  19.959 -33.595  1.00  0.00     0.087 C 
BRANCH  11  12
ATOM     12  C   UNL     1     -27.301  19.236 -34.252  1.00  0.00     0.066 C 
BRANCH  12  13
ATOM     13  C   UNL     1     -27.705  18.046 -33.394  1.00  0.00     0.140 C 
ATOM     14  O   UNL     1     -28.308  17.107 -33.896  1.00  0.00    -0.299 OA
BRANCH  13  15
ATOM     15  C   UNL     1     -27.322  18.000 -31.935  1.00  0.00     0.106 CG0
ATOM     16  G   UNL     1     -26.366  16.869 -31.578  1.00  0.00     0.000 G0
ENDBRANCH  13  15
ENDBRANCH  12  13
BRANCH  12  17
ATOM     17  C   UNL     1     -28.517  20.183 -34.516  1.00  0.00    -0.006 C 
ATOM     18  C   UNL     1     -28.388  21.487 -33.703  1.00  0.00     0.008 C 
ATOM     19  C   UNL     1     -29.866  19.524 -34.173  1.00  0.00     0.008 C 
ENDBRANCH  12  17
ENDBRANCH  11  12
ENDBRANCH   1  11
TORSDOF 1
ENDMDL
MODEL 9
REMARK VINA RESULT:    -1.250      1.606      3.844
REMARK INTER + INTRA:          -1.362
REMARK INTER:                  -4.395
REMARK INTRA:                   3.033
REMARK UNBOUND:                 0.545
REMARK SMILES CC1=CCC[C@@H](C)C(=O)C[C@H](C(C)C)C(=O)C1
REMARK SMILES IDX 8 1 9 2 6 3 7 4 5 5 4 6 3 7 2 8 1 9 10 11 11 12 15 13 16 14
REMARK SMILES IDX 17 15 12 17 13 18 14 19
REMARK H PARENT
REMARK Flexibility Score: 70.00
ROOT
ATOM      1  C   UNL     1     -14.150  12.737 -30.728  1.00  0.00     0.136 C 
ATOM      2  O   UNL     1     -13.126  12.320 -31.254  1.00  0.00    -0.299 OA
ENDROOT
BRANCH   1   3
ATOM      3  C   UNL     1     -15.191  13.437 -31.582  1.00  0.00     0.053 C 
ATOM      4  C   UNL     1     -15.921  14.507 -30.759  1.00  0.00     0.016 C 
BRANCH   3   5
ATOM      5  C   UNL     1     -16.190  12.412 -32.165  1.00  0.00     0.015 C 
BRANCH   5   6
ATOM      6  C   UNL     1     -17.649  12.875 -31.982  1.00  0.00     0.028 C 
BRANCH   6   7
ATOM      7  C   UNL     1     -18.340  12.232 -30.804  1.00  0.00    -0.028 C 
ATOM      8  C   UNL     1     -18.049  11.012 -30.287  1.00  0.00    -0.070 CG0
ATOM      9  C   UNL     1     -18.926  10.500 -29.172  1.00  0.00     0.039 C 
ATOM     10  G   UNL     1     -16.865  10.163 -30.732  1.00  0.00     0.000 G0
ENDBRANCH   6   7
ENDBRANCH   5   6
ENDBRANCH   3   5
ENDBRANCH   1   3
BRANCH   1  11
ATOM     11  C   UNL     1     -14.352  12.518 -29.246  1.00  0.00     0.087 C 
BRANCH  11  12
ATOM     12  C   UNL     1     -15.505  11.518 -28.957  1.00  0.00     0.066 C 
BRANCH  12  13
ATOM     13  C   UNL     1     -15.560  10.476 -30.066  1.00  0.00     0.140 C 
ATOM     14  O   UNL     1     -14.544   9.877 -30.392  1.00  0.00    -0.299 OA
BRANCH  13  15
ATOM     15  C   UNL     1     -16.874  10.148 -30.731  1.00  0.00     0.106 CG0
ATOM     16  G   UNL     1     -18.040  11.010 -30.262  1.00  0.00     0.000 G0
ENDBRANCH  13  15
ENDBRANCH  12  13
BRANCH  12  17
ATOM     17  C   UNL     1     -15.397  10.842 -27.551  1.00  0.00    -0.006 C 
ATOM     18  C   UNL     1     -16.660  11.112 -26.710  1.00  0.00     0.008 C 
ATOM     19  C   UNL     1     -14.168  11.322 -26.757  1.00  0.00     0.008 C 
ENDBRANCH  12  17
ENDBRANCH  11  12
ENDBRANCH   1  11
TORSDOF 1
ENDMDL
