MODEL 1
REMARK VINA RESULT:    -4.094      0.000      0.000
REMARK INTER + INTRA:          -5.725
REMARK INTER:                  -5.770
REMARK INTRA:                   0.045
REMARK UNBOUND:                 0.045
REMARK SMILES CC1=CCC(=C(C)C)C(=O)CC(C)=CCC1
REMARK SMILES IDX 12 1 14 2 13 3 15 4 16 5 2 6 1 7 3 8 11 10 9 11 10 12 5 13
REMARK SMILES IDX 6 14 7 15 8 16 4 17
REMARK H PARENT
REMARK Flexibility Score: 60.00
ROOT
ATOM      1  C   UNL     1     -15.539  13.755 -30.790  1.00  0.00    -0.070 C 
ATOM      2  C   UNL     1     -15.458  14.872 -31.556  1.00  0.00    -0.027 C 
ATOM      3  C   UNL     1     -16.537  13.769 -29.655  1.00  0.00     0.039 C 
ENDROOT
BRANCH   2   4
ATOM      4  C   UNL     1     -14.447  15.137 -32.644  1.00  0.00     0.032 C 
BRANCH   4   5
ATOM      5  C   UNL     1     -13.338  16.118 -32.231  1.00  0.00     0.034 C 
BRANCH   5   6
ATOM      6  C   UNL     1     -12.004  15.413 -32.106  1.00  0.00    -0.077 C 
ATOM      7  C   UNL     1     -11.096  15.363 -33.309  1.00  0.00     0.039 C 
ATOM      8  C   UNL     1     -11.588  14.809 -30.967  1.00  0.00    -0.023 CG0
ATOM      9  G   UNL     1     -12.342  14.750 -29.653  1.00  0.00     0.000 G0
ENDBRANCH   5   6
ENDBRANCH   4   5
ENDBRANCH   2   4
BRANCH   1  10
ATOM     10  C   UNL     1     -14.751  12.479 -31.048  1.00  0.00     0.111 C 
BRANCH  10  11
ATOM     11  C   UNL     1     -13.374  12.490 -30.431  1.00  0.00     0.163 C 
ATOM     12  O   UNL     1     -12.528  11.702 -30.933  1.00  0.00    -0.294 OA
BRANCH  11  13
ATOM     13  C   UNL     1     -12.961  13.400 -29.304  1.00  0.00    -0.002 C 
ATOM     14  C   UNL     1     -13.064  12.987 -28.000  1.00  0.00    -0.069 C 
ATOM     15  C   UNL     1     -13.798  11.721 -27.620  1.00  0.00     0.039 C 
ATOM     16  C   UNL     1     -12.506  13.800 -26.853  1.00  0.00     0.039 C 
BRANCH  13  17
ATOM     17  C   UNL     1     -12.341  14.757 -29.644  1.00  0.00     0.066 CG0
ATOM     18  G   UNL     1     -11.601  14.781 -30.967  1.00  0.00     0.000 G0
ENDBRANCH  13  17
ENDBRANCH  11  13
ENDBRANCH  10  11
ENDBRANCH   1  10
TORSDOF 0
ENDMDL
MODEL 2
REMARK VINA RESULT:    -3.921      1.958      3.755
REMARK INTER + INTRA:          -5.480
REMARK INTER:                  -5.826
REMARK INTRA:                   0.345
REMARK UNBOUND:                 0.045
REMARK SMILES CC1=CCC(=C(C)C)C(=O)CC(C)=CCC1
REMARK SMILES IDX 12 1 14 2 13 3 15 4 16 5 2 6 1 7 3 8 11 10 9 11 10 12 5 13
REMARK SMILES IDX 6 14 7 15 8 16 4 17
REMARK H PARENT
REMARK Flexibility Score: 60.00
ROOT
ATOM      1  C   UNL     1     -12.527  13.518 -28.006  1.00  0.00    -0.070 C 
ATOM      2  C   UNL     1     -11.826  14.543 -28.553  1.00  0.00    -0.027 C 
ATOM      3  C   UNL     1     -12.498  13.390 -26.501  1.00  0.00     0.039 C 
ENDROOT
BRANCH   2   4
ATOM      4  C   UNL     1     -11.598  14.782 -30.026  1.00  0.00     0.032 C 
BRANCH   4   5
ATOM      5  C   UNL     1     -12.667  15.671 -30.680  1.00  0.00     0.034 C 
BRANCH   5   6
ATOM      6  C   UNL     1     -13.431  14.912 -31.744  1.00  0.00    -0.077 C 
ATOM      7  C   UNL     1     -12.768  14.666 -33.075  1.00  0.00     0.039 C 
ATOM      8  C   UNL     1     -14.693  14.453 -31.566  1.00  0.00    -0.023 CG0
ATOM      9  G   UNL     1     -15.531  14.587 -30.310  1.00  0.00     0.000 G0
ENDBRANCH   5   6
ENDBRANCH   4   5
ENDBRANCH   2   4
BRANCH   1  10
ATOM     10  C   UNL     1     -13.390  12.549 -28.801  1.00  0.00     0.111 C 
BRANCH  10  11
ATOM     11  C   UNL     1     -14.870  12.740 -28.575  1.00  0.00     0.163 C 
ATOM     12  O   UNL     1     -15.298  12.492 -27.415  1.00  0.00    -0.294 OA
BRANCH  11  13
ATOM     13  C   UNL     1     -15.827  13.238 -29.626  1.00  0.00    -0.002 C 
ATOM     14  C   UNL     1     -16.980  12.549 -29.903  1.00  0.00    -0.069 C 
ATOM     15  C   UNL     1     -17.234  11.164 -29.350  1.00  0.00     0.039 C 
ATOM     16  C   UNL     1     -18.045  13.100 -30.825  1.00  0.00     0.039 C 
BRANCH  13  17
ATOM     17  C   UNL     1     -15.533  14.572 -30.315  1.00  0.00     0.066 CG0
ATOM     18  G   UNL     1     -14.680  14.445 -31.562  1.00  0.00     0.000 G0
ENDBRANCH  13  17
ENDBRANCH  11  13
ENDBRANCH  10  11
ENDBRANCH   1  10
TORSDOF 0
ENDMDL
MODEL 3
REMARK VINA RESULT:    -3.895      1.879      4.261
REMARK INTER + INTRA:          -5.444
REMARK INTER:                  -5.710
REMARK INTRA:                   0.266
REMARK UNBOUND:                 0.045
REMARK SMILES CC1=CCC(=C(C)C)C(=O)CC(C)=CCC1
REMARK SMILES IDX 12 1 14 2 13 3 15 4 16 5 2 6 1 7 3 8 11 10 9 11 10 12 5 13
REMARK SMILES IDX 6 14 7 15 8 16 4 17
REMARK H PARENT
REMARK Flexibility Score: 60.00
ROOT
ATOM      1  C   UNL     1     -17.295  13.539 -29.168  1.00  0.00    -0.070 C 
ATOM      2  C   UNL     1     -17.103  12.678 -28.138  1.00  0.00    -0.027 C 
ATOM      3  C   UNL     1     -18.638  13.498 -29.860  1.00  0.00     0.039 C 
ENDROOT
BRANCH   2   4
ATOM      4  C   UNL     1     -15.809  12.445 -27.399  1.00  0.00     0.032 C 
BRANCH   4   5
ATOM      5  C   UNL     1     -14.861  11.464 -28.108  1.00  0.00     0.034 C 
BRANCH   5   6
ATOM      6  C   UNL     1     -13.417  11.892 -27.953  1.00  0.00    -0.077 C 
ATOM      7  C   UNL     1     -12.748  11.713 -26.614  1.00  0.00     0.039 C 
ATOM      8  C   UNL     1     -12.695  12.444 -28.958  1.00  0.00    -0.023 CG0
ATOM      9  G   UNL     1     -13.174  12.702 -30.373  1.00  0.00     0.000 G0
ENDBRANCH   5   6
ENDBRANCH   4   5
ENDBRANCH   2   4
BRANCH   1  10
ATOM     10  C   UNL     1     -16.281  14.583 -29.614  1.00  0.00     0.111 C 
BRANCH  10  11
ATOM     11  C   UNL     1     -15.358  14.094 -30.703  1.00  0.00     0.163 C 
ATOM     12  O   UNL     1     -15.902  13.737 -31.783  1.00  0.00    -0.294 OA
BRANCH  11  13
ATOM     13  C   UNL     1     -13.857  14.054 -30.582  1.00  0.00    -0.002 C 
ATOM     14  C   UNL     1     -13.126  15.215 -30.574  1.00  0.00    -0.069 C 
ATOM     15  C   UNL     1     -13.749  16.552 -30.912  1.00  0.00     0.039 C 
ATOM     16  C   UNL     1     -11.641  15.229 -30.287  1.00  0.00     0.039 C 
BRANCH  13  17
ATOM     17  C   UNL     1     -13.171  12.702 -30.380  1.00  0.00     0.066 CG0
ATOM     18  G   UNL     1     -12.686  12.464 -28.964  1.00  0.00     0.000 G0
ENDBRANCH  13  17
ENDBRANCH  11  13
ENDBRANCH  10  11
ENDBRANCH   1  10
TORSDOF 0
ENDMDL
MODEL 4
REMARK VINA RESULT:    -3.828      1.768      4.973
REMARK INTER + INTRA:          -5.350
REMARK INTER:                  -5.571
REMARK INTRA:                   0.221
REMARK UNBOUND:                 0.045
REMARK SMILES CC1=CCC(=C(C)C)C(=O)CC(C)=CCC1
REMARK SMILES IDX 12 1 14 2 13 3 15 4 16 5 2 6 1 7 3 8 11 10 9 11 10 12 5 13
REMARK SMILES IDX 6 14 7 15 8 16 4 17
REMARK H PARENT
REMARK Flexibility Score: 60.00
ROOT
ATOM      1  C   UNL     1     -12.161  13.469 -28.589  1.00  0.00    -0.070 C 
ATOM      2  C   UNL     1     -12.743  13.171 -27.401  1.00  0.00    -0.027 C 
ATOM      3  C   UNL     1     -11.771  14.910 -28.824  1.00  0.00     0.039 C 
ENDROOT
BRANCH   2   4
ATOM      4  C   UNL     1     -13.337  11.842 -27.006  1.00  0.00     0.032 C 
BRANCH   4   5
ATOM      5  C   UNL     1     -14.322  11.274 -28.041  1.00  0.00     0.034 C 
BRANCH   5   6
ATOM      6  C   UNL     1     -15.426  12.265 -28.345  1.00  0.00    -0.077 C 
ATOM      7  C   UNL     1     -16.272  12.777 -27.207  1.00  0.00     0.039 C 
ATOM      8  C   UNL     1     -15.703  12.706 -29.595  1.00  0.00    -0.023 CG0
ATOM      9  G   UNL     1     -14.973  12.323 -30.867  1.00  0.00     0.000 G0
ENDBRANCH   5   6
ENDBRANCH   4   5
ENDBRANCH   2   4
BRANCH   1  10
ATOM     10  C   UNL     1     -11.813  12.441 -29.656  1.00  0.00     0.111 C 
BRANCH  10  11
ATOM     11  C   UNL     1     -12.391  12.763 -31.011  1.00  0.00     0.163 C 
ATOM     12  O   UNL     1     -11.640  12.565 -32.004  1.00  0.00    -0.294 OA
BRANCH  11  13
ATOM     13  C   UNL     1     -13.797  13.257 -31.235  1.00  0.00    -0.002 C 
ATOM     14  C   UNL     1     -14.023  14.481 -31.810  1.00  0.00    -0.069 C 
ATOM     15  C   UNL     1     -12.907  15.477 -32.033  1.00  0.00     0.039 C 
ATOM     16  C   UNL     1     -15.410  14.940 -32.205  1.00  0.00     0.039 C 
BRANCH  13  17
ATOM     17  C   UNL     1     -14.965  12.331 -30.890  1.00  0.00     0.066 CG0
ATOM     18  G   UNL     1     -15.691  12.706 -29.612  1.00  0.00     0.000 G0
ENDBRANCH  13  17
ENDBRANCH  11  13
ENDBRANCH  10  11
ENDBRANCH   1  10
TORSDOF 0
ENDMDL
MODEL 5
REMARK VINA RESULT:    -3.774      1.790      2.983
REMARK INTER + INTRA:          -5.273
REMARK INTER:                  -5.405
REMARK INTRA:                   0.132
REMARK UNBOUND:                 0.045
REMARK SMILES CC1=CCC(=C(C)C)C(=O)CC(C)=CCC1
REMARK SMILES IDX 12 1 14 2 13 3 15 4 16 5 2 6 1 7 3 8 11 10 9 11 10 12 5 13
REMARK SMILES IDX 6 14 7 15 8 16 4 17
REMARK H PARENT
REMARK Flexibility Score: 60.00
ROOT
ATOM      1  C   UNL     1     -12.204  15.004 -29.748  1.00  0.00    -0.070 C 
ATOM      2  C   UNL     1     -13.132  15.906 -30.155  1.00  0.00    -0.027 C 
ATOM      3  C   UNL     1     -11.784  15.055 -28.298  1.00  0.00     0.039 C 
ENDROOT
BRANCH   2   4
ATOM      4  C   UNL     1     -13.594  16.133 -31.574  1.00  0.00     0.032 C 
BRANCH   4   5
ATOM      5  C   UNL     1     -14.971  15.521 -31.880  1.00  0.00     0.034 C 
BRANCH   5   6
ATOM      6  C   UNL     1     -14.832  14.209 -32.621  1.00  0.00    -0.077 C 
ATOM      7  C   UNL     1     -14.686  14.237 -34.122  1.00  0.00     0.039 C 
ATOM      8  C   UNL     1     -14.847  13.003 -32.004  1.00  0.00    -0.023 CG0
ATOM      9  G   UNL     1     -14.975  12.756 -30.514  1.00  0.00     0.000 G0
ENDBRANCH   5   6
ENDBRANCH   4   5
ENDBRANCH   2   4
BRANCH   1  10
ATOM     10  C   UNL     1     -11.624  13.911 -30.634  1.00  0.00     0.111 C 
BRANCH  10  11
ATOM     11  C   UNL     1     -12.371  12.604 -30.539  1.00  0.00     0.163 C 
ATOM     12  O   UNL     1     -11.836  11.609 -31.100  1.00  0.00    -0.294 OA
BRANCH  11  13
ATOM     13  C   UNL     1     -13.666  12.423 -29.791  1.00  0.00    -0.002 C 
ATOM     14  C   UNL     1     -13.662  12.048 -28.472  1.00  0.00    -0.069 C 
ATOM     15  C   UNL     1     -12.403  11.582 -27.778  1.00  0.00     0.039 C 
ATOM     16  C   UNL     1     -14.927  12.019 -27.641  1.00  0.00     0.039 C 
BRANCH  13  17
ATOM     17  C   UNL     1     -14.979  12.749 -30.504  1.00  0.00     0.066 CG0
ATOM     18  G   UNL     1     -14.827  12.991 -31.993  1.00  0.00     0.000 G0
ENDBRANCH  13  17
ENDBRANCH  11  13
ENDBRANCH  10  11
ENDBRANCH   1  10
TORSDOF 0
ENDMDL
MODEL 6
REMARK VINA RESULT:    -3.615      1.866      3.784
REMARK INTER + INTRA:          -5.049
REMARK INTER:                  -5.452
REMARK INTRA:                   0.403
REMARK UNBOUND:                 0.045
REMARK SMILES CC1=CCC(=C(C)C)C(=O)CC(C)=CCC1
REMARK SMILES IDX 12 1 14 2 13 3 15 4 16 5 2 6 1 7 3 8 11 10 9 11 10 12 5 13
REMARK SMILES IDX 6 14 7 15 8 16 4 17
REMARK H PARENT
REMARK Flexibility Score: 60.00
ROOT
ATOM      1  C   UNL     1     -14.656  14.976 -31.284  1.00  0.00    -0.070 C 
ATOM      2  C   UNL     1     -15.881  14.767 -30.738  1.00  0.00    -0.027 C 
ATOM      3  C   UNL     1     -14.002  16.312 -31.020  1.00  0.00     0.039 C 
ENDROOT
BRANCH   2   4
ATOM      4  C   UNL     1     -16.775  13.577 -30.981  1.00  0.00     0.032 C 
BRANCH   4   5
ATOM      5  C   UNL     1     -16.295  12.292 -30.287  1.00  0.00     0.034 C 
BRANCH   5   6
ATOM      6  C   UNL     1     -15.917  12.559 -28.845  1.00  0.00    -0.077 C 
ATOM      7  C   UNL     1     -16.995  12.982 -27.880  1.00  0.00     0.039 C 
ATOM      8  C   UNL     1     -14.649  12.451 -28.379  1.00  0.00    -0.023 CG0
ATOM      9  G   UNL     1     -13.429  12.036 -29.178  1.00  0.00     0.000 G0
ENDBRANCH   5   6
ENDBRANCH   4   5
ENDBRANCH   2   4
BRANCH   1  10
ATOM     10  C   UNL     1     -13.880  13.930 -32.072  1.00  0.00     0.111 C 
BRANCH  10  11
ATOM     11  C   UNL     1     -12.709  13.356 -31.314  1.00  0.00     0.163 C 
ATOM     12  O   UNL     1     -11.703  13.026 -32.000  1.00  0.00    -0.294 OA
BRANCH  11  13
ATOM     13  C   UNL     1     -12.665  13.202 -29.816  1.00  0.00    -0.002 C 
ATOM     14  C   UNL     1     -12.027  14.134 -29.037  1.00  0.00    -0.069 C 
ATOM     15  C   UNL     1     -11.155  15.213 -29.638  1.00  0.00     0.039 C 
ATOM     16  C   UNL     1     -12.104  14.107 -27.527  1.00  0.00     0.039 C 
BRANCH  13  17
ATOM     17  C   UNL     1     -13.420  12.037 -29.174  1.00  0.00     0.066 CG0
ATOM     18  G   UNL     1     -14.637  12.459 -28.374  1.00  0.00     0.000 G0
ENDBRANCH  13  17
ENDBRANCH  11  13
ENDBRANCH  10  11
ENDBRANCH   1  10
TORSDOF 0
ENDMDL
MODEL 7
REMARK VINA RESULT:    -3.492      2.016      4.981
REMARK INTER + INTRA:          -4.876
REMARK INTER:                  -5.114
REMARK INTRA:                   0.238
REMARK UNBOUND:                 0.045
REMARK SMILES CC1=CCC(=C(C)C)C(=O)CC(C)=CCC1
REMARK SMILES IDX 12 1 14 2 13 3 15 4 16 5 2 6 1 7 3 8 11 10 9 11 10 12 5 13
REMARK SMILES IDX 6 14 7 15 8 16 4 17
REMARK H PARENT
REMARK Flexibility Score: 60.00
ROOT
ATOM      1  C   UNL     1     -11.772  13.767 -29.743  1.00  0.00    -0.070 C 
ATOM      2  C   UNL     1     -12.543  12.691 -29.445  1.00  0.00    -0.027 C 
ATOM      3  C   UNL     1     -10.374  13.493 -30.247  1.00  0.00     0.039 C 
ENDROOT
BRANCH   2   4
ATOM      4  C   UNL     1     -13.907  12.723 -28.800  1.00  0.00     0.032 C 
BRANCH   4   5
ATOM      5  C   UNL     1     -15.048  12.323 -29.749  1.00  0.00     0.034 C 
BRANCH   5   6
ATOM      6  C   UNL     1     -15.841  13.535 -30.191  1.00  0.00    -0.077 C 
ATOM      7  C   UNL     1     -17.000  13.991 -29.340  1.00  0.00     0.039 C 
ATOM      8  C   UNL     1     -15.571  14.225 -31.324  1.00  0.00    -0.023 CG0
ATOM      9  G   UNL     1     -14.453  13.939 -32.308  1.00  0.00     0.000 G0
ENDBRANCH   5   6
ENDBRANCH   4   5
ENDBRANCH   2   4
BRANCH   1  10
ATOM     10  C   UNL     1     -12.249  15.210 -29.675  1.00  0.00     0.111 C 
BRANCH  10  11
ATOM     11  C   UNL     1     -13.071  15.627 -30.869  1.00  0.00     0.163 C 
ATOM     12  O   UNL     1     -13.645  16.747 -30.792  1.00  0.00    -0.294 OA
BRANCH  11  13
ATOM     13  C   UNL     1     -13.202  14.814 -32.130  1.00  0.00    -0.002 C 
ATOM     14  C   UNL     1     -12.192  14.799 -33.058  1.00  0.00    -0.069 C 
ATOM     15  C   UNL     1     -11.023  15.755 -32.980  1.00  0.00     0.039 C 
ATOM     16  C   UNL     1     -12.210  13.869 -34.252  1.00  0.00     0.039 C 
BRANCH  13  17
ATOM     17  C   UNL     1     -14.442  13.937 -32.315  1.00  0.00     0.066 CG0
ATOM     18  G   UNL     1     -15.551  14.224 -31.322  1.00  0.00     0.000 G0
ENDBRANCH  13  17
ENDBRANCH  11  13
ENDBRANCH  10  11
ENDBRANCH   1  10
TORSDOF 0
ENDMDL
MODEL 8
REMARK VINA RESULT:    -3.489      1.691      3.038
REMARK INTER + INTRA:          -4.872
REMARK INTER:                  -5.109
REMARK INTRA:                   0.237
REMARK UNBOUND:                 0.045
REMARK SMILES CC1=CCC(=C(C)C)C(=O)CC(C)=CCC1
REMARK SMILES IDX 12 1 14 2 13 3 15 4 16 5 2 6 1 7 3 8 11 10 9 11 10 12 5 13
REMARK SMILES IDX 6 14 7 15 8 16 4 17
REMARK H PARENT
REMARK Flexibility Score: 60.00
ROOT
ATOM      1  C   UNL     1     -13.670  16.039 -31.810  1.00  0.00    -0.070 C 
ATOM      2  C   UNL     1     -12.395  15.945 -32.264  1.00  0.00    -0.027 C 
ATOM      3  C   UNL     1     -13.922  16.978 -30.654  1.00  0.00     0.039 C 
ENDROOT
BRANCH   2   4
ATOM      4  C   UNL     1     -11.887  14.977 -33.304  1.00  0.00     0.032 C 
BRANCH   4   5
ATOM      5  C   UNL     1     -11.094  13.799 -32.716  1.00  0.00     0.034 C 
BRANCH   5   6
ATOM      6  C   UNL     1     -11.051  13.869 -31.205  1.00  0.00    -0.077 C 
ATOM      7  C   UNL     1      -9.950  14.663 -30.548  1.00  0.00     0.039 C 
ATOM      8  C   UNL     1     -11.947  13.241 -30.407  1.00  0.00    -0.023 CG0
ATOM      9  G   UNL     1     -13.126  12.403 -30.863  1.00  0.00     0.000 G0
ENDBRANCH   5   6
ENDBRANCH   4   5
ENDBRANCH   2   4
BRANCH   1  10
ATOM     10  C   UNL     1     -14.858  15.322 -32.436  1.00  0.00     0.111 C 
BRANCH  10  11
ATOM     11  C   UNL     1     -14.823  13.826 -32.247  1.00  0.00     0.163 C 
ATOM     12  O   UNL     1     -15.088  13.125 -33.261  1.00  0.00    -0.294 OA
BRANCH  11  13
ATOM     13  C   UNL     1     -14.456  13.146 -30.954  1.00  0.00    -0.002 C 
ATOM     14  C   UNL     1     -15.333  13.134 -29.899  1.00  0.00    -0.069 C 
ATOM     15  C   UNL     1     -16.587  13.979 -29.894  1.00  0.00     0.039 C 
ATOM     16  C   UNL     1     -15.075  12.323 -28.648  1.00  0.00     0.039 C 
BRANCH  13  17
ATOM     17  C   UNL     1     -13.126  12.395 -30.869  1.00  0.00     0.066 CG0
ATOM     18  G   UNL     1     -11.963  13.254 -30.410  1.00  0.00     0.000 G0
ENDBRANCH  13  17
ENDBRANCH  11  13
ENDBRANCH  10  11
ENDBRANCH   1  10
TORSDOF 0
ENDMDL
MODEL 9
REMARK VINA RESULT:    -3.225      1.943      4.983
REMARK INTER + INTRA:          -4.499
REMARK INTER:                  -4.665
REMARK INTRA:                   0.166
REMARK UNBOUND:                 0.045
REMARK SMILES CC1=CCC(=C(C)C)C(=O)CC(C)=CCC1
REMARK SMILES IDX 12 1 14 2 13 3 15 4 16 5 2 6 1 7 3 8 11 10 9 11 10 12 5 13
REMARK SMILES IDX 6 14 7 15 8 16 4 17
REMARK H PARENT
REMARK Flexibility Score: 60.00
ROOT
ATOM      1  C   UNL     1     -10.704  13.720 -31.782  1.00  0.00    -0.070 C 
ATOM      2  C   UNL     1     -10.678  12.410 -31.431  1.00  0.00    -0.027 C 
ATOM      3  C   UNL     1     -10.637  14.041 -33.257  1.00  0.00     0.039 C 
ENDROOT
BRANCH   2   4
ATOM      4  C   UNL     1     -10.594  11.863 -30.028  1.00  0.00     0.032 C 
BRANCH   4   5
ATOM      5  C   UNL     1     -11.848  11.090 -29.589  1.00  0.00     0.034 C 
BRANCH   5   6
ATOM      6  C   UNL     1     -12.699  11.918 -28.650  1.00  0.00    -0.077 C 
ATOM      7  C   UNL     1     -12.500  11.761 -27.164  1.00  0.00     0.039 C 
ATOM      8  C   UNL     1     -13.645  12.788 -29.079  1.00  0.00    -0.023 CG0
ATOM      9  G   UNL     1     -13.996  13.098 -30.521  1.00  0.00     0.000 G0
ENDBRANCH   5   6
ENDBRANCH   4   5
ENDBRANCH   2   4
BRANCH   1  10
ATOM     10  C   UNL     1     -10.870  14.868 -30.796  1.00  0.00     0.111 C 
BRANCH  10  11
ATOM     11  C   UNL     1     -12.296  15.072 -30.349  1.00  0.00     0.163 C 
ATOM     12  O   UNL     1     -12.472  15.846 -29.369  1.00  0.00    -0.294 OA
BRANCH  11  13
ATOM     13  C   UNL     1     -13.491  14.449 -31.022  1.00  0.00    -0.002 C 
ATOM     14  C   UNL     1     -14.065  15.046 -32.116  1.00  0.00    -0.069 C 
ATOM     15  C   UNL     1     -13.688  16.444 -32.551  1.00  0.00     0.039 C 
ATOM     16  C   UNL     1     -15.154  14.371 -32.921  1.00  0.00     0.039 C 
BRANCH  13  17
ATOM     17  C   UNL     1     -13.995  13.095 -30.520  1.00  0.00     0.066 CG0
ATOM     18  G   UNL     1     -13.635  12.802 -29.077  1.00  0.00     0.000 G0
ENDBRANCH  13  17
ENDBRANCH  11  13
ENDBRANCH  10  11
ENDBRANCH   1  10
TORSDOF 0
ENDMDL
