MODEL 1
REMARK VINA RESULT:    -2.599      0.000      0.000
REMARK INTER + INTRA:          -2.599
REMARK INTER:                  -2.599
REMARK INTRA:                   0.000
REMARK UNBOUND:                 0.000
REMARK SMILES CC(=O)[O-]
REMARK SMILES IDX 1 1 2 2 3 3 4 4
REMARK H PARENT
REMARK Flexibility Score: inf
ROOT
ATOM      1  C   UNL     1       2.496  43.126  70.437  1.00  0.00     0.063 C 
ATOM      2  C   UNL     1       3.664  43.542  71.265  1.00  0.00     0.038 C 
ATOM      3  O   UNL     1       3.523  44.405  72.170  1.00  0.00    -0.550 OA
ATOM      4  O   UNL     1       4.924  43.016  71.004  1.00  0.00    -0.550 OA
ENDROOT
TORSDOF 0
ENDMDL
MODEL 2
REMARK VINA RESULT:    -2.441      1.270      1.905
REMARK INTER + INTRA:          -2.441
REMARK INTER:                  -2.441
REMARK INTRA:                   0.000
REMARK UNBOUND:                 0.000
REMARK SMILES CC(=O)[O-]
REMARK SMILES IDX 1 1 2 2 3 3 4 4
REMARK H PARENT
REMARK Flexibility Score: inf
ROOT
ATOM      1  C   UNL     1       3.187  43.014  70.112  1.00  0.00     0.063 C 
ATOM      2  C   UNL     1       2.778  43.699  71.371  1.00  0.00     0.038 C 
ATOM      3  O   UNL     1       3.638  44.282  72.082  1.00  0.00    -0.550 OA
ATOM      4  O   UNL     1       1.455  43.649  71.793  1.00  0.00    -0.550 OA
ENDROOT
TORSDOF 0
ENDMDL
MODEL 3
REMARK VINA RESULT:    -2.332     10.817     11.320
REMARK INTER + INTRA:          -2.332
REMARK INTER:                  -2.332
REMARK INTRA:                   0.000
REMARK UNBOUND:                 0.000
REMARK SMILES CC(=O)[O-]
REMARK SMILES IDX 1 1 2 2 3 3 4 4
REMARK H PARENT
REMARK Flexibility Score: inf
ROOT
ATOM      1  C   UNL     1      11.828  49.767  77.892  1.00  0.00     0.063 C 
ATOM      2  C   UNL     1      10.668  48.853  78.096  1.00  0.00     0.038 C 
ATOM      3  O   UNL     1       9.924  48.992  79.102  1.00  0.00    -0.550 OA
ATOM      4  O   UNL     1      10.436  47.812  77.206  1.00  0.00    -0.550 OA
ENDROOT
TORSDOF 0
ENDMDL
MODEL 4
REMARK VINA RESULT:    -2.320      1.393      2.079
REMARK INTER + INTRA:          -2.320
REMARK INTER:                  -2.320
REMARK INTRA:                   0.000
REMARK UNBOUND:                 0.000
REMARK SMILES CC(=O)[O-]
REMARK SMILES IDX 1 1 2 2 3 3 4 4
REMARK H PARENT
REMARK Flexibility Score: inf
ROOT
ATOM      1  C   UNL     1       4.899  42.983  70.897  1.00  0.00     0.063 C 
ATOM      2  C   UNL     1       3.533  43.495  71.204  1.00  0.00     0.038 C 
ATOM      3  O   UNL     1       2.555  43.159  70.486  1.00  0.00    -0.550 OA
ATOM      4  O   UNL     1       3.344  44.389  72.251  1.00  0.00    -0.550 OA
ENDROOT
TORSDOF 0
ENDMDL
MODEL 5
REMARK VINA RESULT:    -2.260     10.652     11.124
REMARK INTER + INTRA:          -2.260
REMARK INTER:                  -2.260
REMARK INTRA:                   0.000
REMARK UNBOUND:                 0.000
REMARK SMILES CC(=O)[O-]
REMARK SMILES IDX 1 1 2 2 3 3 4 4
REMARK H PARENT
REMARK Flexibility Score: inf
ROOT
ATOM      1  C   UNL     1      10.035  49.110  78.758  1.00  0.00     0.063 C 
ATOM      2  C   UNL     1      10.897  48.641  77.635  1.00  0.00     0.038 C 
ATOM      3  O   UNL     1      10.599  47.593  77.005  1.00  0.00    -0.550 OA
ATOM      4  O   UNL     1      12.061  49.330  77.316  1.00  0.00    -0.550 OA
ENDROOT
TORSDOF 0
ENDMDL
MODEL 6
REMARK VINA RESULT:    -2.235      1.766      2.036
REMARK INTER + INTRA:          -2.235
REMARK INTER:                  -2.235
REMARK INTRA:                   0.000
REMARK UNBOUND:                 0.000
REMARK SMILES CC(=O)[O-]
REMARK SMILES IDX 1 1 2 2 3 3 4 4
REMARK H PARENT
REMARK Flexibility Score: inf
ROOT
ATOM      1  C   UNL     1       3.530  43.972  71.680  1.00  0.00     0.063 C 
ATOM      2  C   UNL     1       2.812  43.343  70.534  1.00  0.00     0.038 C 
ATOM      3  O   UNL     1       1.557  43.399  70.467  1.00  0.00    -0.550 OA
ATOM      4  O   UNL     1       3.524  42.645  69.566  1.00  0.00    -0.550 OA
ENDROOT
TORSDOF 0
ENDMDL
MODEL 7
REMARK VINA RESULT:    -2.210     13.737     14.256
REMARK INTER + INTRA:          -2.210
REMARK INTER:                  -2.210
REMARK INTRA:                   0.000
REMARK UNBOUND:                 0.000
REMARK SMILES CC(=O)[O-]
REMARK SMILES IDX 1 1 2 2 3 3 4 4
REMARK H PARENT
REMARK Flexibility Score: inf
ROOT
ATOM      1  C   UNL     1      17.228  40.821  74.466  1.00  0.00     0.063 C 
ATOM      2  C   UNL     1      16.855  39.415  74.137  1.00  0.00     0.038 C 
ATOM      3  O   UNL     1      15.659  39.038  74.241  1.00  0.00    -0.550 OA
ATOM      4  O   UNL     1      17.836  38.504  73.766  1.00  0.00    -0.550 OA
ENDROOT
TORSDOF 0
ENDMDL
MODEL 8
REMARK VINA RESULT:    -2.195      9.389      9.708
REMARK INTER + INTRA:          -2.195
REMARK INTER:                  -2.195
REMARK INTRA:                   0.000
REMARK UNBOUND:                 0.000
REMARK SMILES CC(=O)[O-]
REMARK SMILES IDX 1 1 2 2 3 3 4 4
REMARK H PARENT
REMARK Flexibility Score: inf
ROOT
ATOM      1  C   UNL     1      11.570  47.505  74.917  1.00  0.00     0.063 C 
ATOM      2  C   UNL     1      10.993  46.964  76.181  1.00  0.00     0.038 C 
ATOM      3  O   UNL     1      10.837  45.723  76.325  1.00  0.00    -0.550 OA
ATOM      4  O   UNL     1      10.575  47.832  77.182  1.00  0.00    -0.550 OA
ENDROOT
TORSDOF 0
ENDMDL
MODEL 9
REMARK VINA RESULT:    -2.158     10.347     10.864
REMARK INTER + INTRA:          -2.158
REMARK INTER:                  -2.158
REMARK INTRA:                   0.000
REMARK UNBOUND:                 0.000
REMARK SMILES CC(=O)[O-]
REMARK SMILES IDX 1 1 2 2 3 3 4 4
REMARK H PARENT
REMARK Flexibility Score: inf
ROOT
ATOM      1  C   UNL     1       8.101  32.907  67.311  1.00  0.00     0.063 C 
ATOM      2  C   UNL     1       7.477  34.247  67.511  1.00  0.00     0.038 C 
ATOM      3  O   UNL     1       7.634  34.861  68.598  1.00  0.00    -0.550 OA
ATOM      4  O   UNL     1       6.676  34.797  66.517  1.00  0.00    -0.550 OA
ENDROOT
TORSDOF 0
ENDMDL
