MODEL 1
REMARK VINA RESULT:    -4.700      0.000      0.000
REMARK INTER + INTRA:          -5.141
REMARK INTER:                  -5.112
REMARK INTRA:                  -0.029
REMARK UNBOUND:                -0.029
REMARK SMILES O=C([O-])c1ccc(O)cc1
REMARK SMILES IDX 4 1 5 2 10 3 6 4 9 5 7 6 2 7 1 8 3 9 8 10
REMARK H PARENT 8 11
REMARK Flexibility Score: inf
ROOT
ATOM      1  C   UNL     1      32.061  34.705  22.335  1.00  0.00    -0.003 A 
ATOM      2  C   UNL     1      32.091  35.916  23.049  1.00  0.00     0.014 A 
ATOM      3  C   UNL     1      31.644  33.534  22.995  1.00  0.00     0.014 A 
ATOM      4  C   UNL     1      31.710  35.954  24.395  1.00  0.00     0.047 A 
ATOM      5  C   UNL     1      31.264  33.576  24.340  1.00  0.00     0.047 A 
ATOM      6  C   UNL     1      31.295  34.784  25.043  1.00  0.00     0.115 A 
ENDROOT
BRANCH   1   7
ATOM      7  C   UNL     1      32.464  34.666  20.912  1.00  0.00     0.071 C 
ATOM      8  O   UNL     1      31.892  35.401  20.064  1.00  0.00    -0.545 OA
ATOM      9  O   UNL     1      33.481  33.816  20.491  1.00  0.00    -0.545 OA
ENDBRANCH   1   7
BRANCH   6  10
ATOM     10  O   UNL     1      30.914  34.810  26.383  1.00  0.00    -0.508 OA
ATOM     11  H   UNL     1      30.255  35.498  26.732  1.00  0.00     0.293 HD
ENDBRANCH   6  10
TORSDOF 2
ENDMDL
MODEL 2
REMARK VINA RESULT:    -4.672     10.755     11.472
REMARK INTER + INTRA:          -5.111
REMARK INTER:                  -5.078
REMARK INTRA:                  -0.033
REMARK UNBOUND:                -0.029
REMARK SMILES O=C([O-])c1ccc(O)cc1
REMARK SMILES IDX 4 1 5 2 10 3 6 4 9 5 7 6 2 7 1 8 3 9 8 10
REMARK H PARENT 8 11
REMARK Flexibility Score: inf
ROOT
ATOM      1  C   UNL     1      25.277  28.330  17.412  1.00  0.00    -0.003 A 
ATOM      2  C   UNL     1      26.164  28.597  16.354  1.00  0.00     0.014 A 
ATOM      3  C   UNL     1      25.337  27.079  18.054  1.00  0.00     0.014 A 
ATOM      4  C   UNL     1      27.092  27.632  15.948  1.00  0.00     0.047 A 
ATOM      5  C   UNL     1      26.266  26.117  17.645  1.00  0.00     0.047 A 
ATOM      6  C   UNL     1      27.145  26.390  16.592  1.00  0.00     0.115 A 
ENDROOT
BRANCH   1   7
ATOM      7  C   UNL     1      24.297  29.351  17.841  1.00  0.00     0.071 C 
ATOM      8  O   UNL     1      23.796  30.150  17.006  1.00  0.00    -0.545 OA
ATOM      9  O   UNL     1      23.915  29.445  19.175  1.00  0.00    -0.545 OA
ENDBRANCH   1   7
BRANCH   6  10
ATOM     10  O   UNL     1      28.065  25.421  16.196  1.00  0.00    -0.508 OA
ATOM     11  H   UNL     1      28.084  25.068  15.245  1.00  0.00     0.293 HD
ENDBRANCH   6  10
TORSDOF 2
ENDMDL
MODEL 3
REMARK VINA RESULT:    -4.620      1.046      4.195
REMARK INTER + INTRA:          -5.054
REMARK INTER:                  -5.026
REMARK INTRA:                  -0.029
REMARK UNBOUND:                -0.029
REMARK SMILES O=C([O-])c1ccc(O)cc1
REMARK SMILES IDX 4 1 5 2 10 3 6 4 9 5 7 6 2 7 1 8 3 9 8 10
REMARK H PARENT 8 11
REMARK Flexibility Score: inf
ROOT
ATOM      1  C   UNL     1      31.676  34.732  23.721  1.00  0.00    -0.003 A 
ATOM      2  C   UNL     1      31.739  35.891  22.927  1.00  0.00     0.014 A 
ATOM      3  C   UNL     1      31.946  33.484  23.129  1.00  0.00     0.014 A 
ATOM      4  C   UNL     1      32.066  35.802  21.570  1.00  0.00     0.047 A 
ATOM      5  C   UNL     1      32.273  33.400  21.772  1.00  0.00     0.047 A 
ATOM      6  C   UNL     1      32.335  34.557  20.989  1.00  0.00     0.115 A 
ENDROOT
BRANCH   1   7
ATOM      7  C   UNL     1      31.330  34.827  25.156  1.00  0.00     0.071 C 
ATOM      8  O   UNL     1      32.070  35.460  25.954  1.00  0.00    -0.545 OA
ATOM      9  O   UNL     1      30.179  34.217  25.645  1.00  0.00    -0.545 OA
ENDBRANCH   1   7
BRANCH   6  10
ATOM     10  O   UNL     1      32.661  34.457  19.639  1.00  0.00    -0.508 OA
ATOM     11  H   UNL     1      31.946  34.347  18.928  1.00  0.00     0.293 HD
ENDBRANCH   6  10
TORSDOF 2
ENDMDL
MODEL 4
REMARK VINA RESULT:    -4.596     12.865     15.090
REMARK INTER + INTRA:          -5.028
REMARK INTER:                  -4.998
REMARK INTRA:                  -0.030
REMARK UNBOUND:                -0.029
REMARK SMILES O=C([O-])c1ccc(O)cc1
REMARK SMILES IDX 4 1 5 2 10 3 6 4 9 5 7 6 2 7 1 8 3 9 8 10
REMARK H PARENT 8 11
REMARK Flexibility Score: inf
ROOT
ATOM      1  C   UNL     1      29.927  25.595  35.029  1.00  0.00    -0.003 A 
ATOM      2  C   UNL     1      31.045  25.786  34.198  1.00  0.00     0.014 A 
ATOM      3  C   UNL     1      29.155  26.710  35.403  1.00  0.00     0.014 A 
ATOM      4  C   UNL     1      31.383  27.068  33.751  1.00  0.00     0.047 A 
ATOM      5  C   UNL     1      29.497  27.990  34.954  1.00  0.00     0.047 A 
ATOM      6  C   UNL     1      30.610  28.173  34.127  1.00  0.00     0.115 A 
ENDROOT
BRANCH   1   7
ATOM      7  C   UNL     1      29.570  24.239  35.500  1.00  0.00     0.071 C 
ATOM      8  O   UNL     1      28.402  23.792  35.346  1.00  0.00    -0.545 OA
ATOM      9  O   UNL     1      30.521  23.436  36.122  1.00  0.00    -0.545 OA
ENDBRANCH   1   7
BRANCH   6  10
ATOM     10  O   UNL     1      30.937  29.453  33.689  1.00  0.00    -0.508 OA
ATOM     11  H   UNL     1      31.433  29.603  32.817  1.00  0.00     0.293 HD
ENDBRANCH   6  10
TORSDOF 2
ENDMDL
MODEL 5
REMARK VINA RESULT:    -4.564     12.936     15.101
REMARK INTER + INTRA:          -4.994
REMARK INTER:                  -4.964
REMARK INTRA:                  -0.030
REMARK UNBOUND:                -0.029
REMARK SMILES O=C([O-])c1ccc(O)cc1
REMARK SMILES IDX 4 1 5 2 10 3 6 4 9 5 7 6 2 7 1 8 3 9 8 10
REMARK H PARENT 8 11
REMARK Flexibility Score: inf
ROOT
ATOM      1  C   UNL     1      29.839  25.578  35.035  1.00  0.00    -0.003 A 
ATOM      2  C   UNL     1      29.044  26.677  35.406  1.00  0.00     0.014 A 
ATOM      3  C   UNL     1      30.980  25.798  34.240  1.00  0.00     0.014 A 
ATOM      4  C   UNL     1      29.384  27.969  34.990  1.00  0.00     0.047 A 
ATOM      5  C   UNL     1      31.316  27.091  33.827  1.00  0.00     0.047 A 
ATOM      6  C   UNL     1      30.520  28.179  34.200  1.00  0.00     0.115 A 
ENDROOT
BRANCH   1   7
ATOM      7  C   UNL     1      29.479  24.213  35.475  1.00  0.00     0.071 C 
ATOM      8  O   UNL     1      28.324  23.756  35.269  1.00  0.00    -0.545 OA
ATOM      9  O   UNL     1      30.413  23.412  36.125  1.00  0.00    -0.545 OA
ENDBRANCH   1   7
BRANCH   6  10
ATOM     10  O   UNL     1      30.868  29.461  33.780  1.00  0.00    -0.508 OA
ATOM     11  H   UNL     1      30.172  30.108  33.426  1.00  0.00     0.293 HD
ENDBRANCH   6  10
TORSDOF 2
ENDMDL
MODEL 6
REMARK VINA RESULT:    -4.530     10.537     10.956
REMARK INTER + INTRA:          -4.957
REMARK INTER:                  -4.921
REMARK INTRA:                  -0.036
REMARK UNBOUND:                -0.029
REMARK SMILES O=C([O-])c1ccc(O)cc1
REMARK SMILES IDX 4 1 5 2 10 3 6 4 9 5 7 6 2 7 1 8 3 9 8 10
REMARK H PARENT 8 11
REMARK Flexibility Score: inf
ROOT
ATOM      1  C   UNL     1      22.546  31.592  19.047  1.00  0.00    -0.003 A 
ATOM      2  C   UNL     1      22.308  31.702  20.429  1.00  0.00     0.014 A 
ATOM      3  C   UNL     1      22.126  32.631  18.197  1.00  0.00     0.014 A 
ATOM      4  C   UNL     1      21.662  32.829  20.948  1.00  0.00     0.047 A 
ATOM      5  C   UNL     1      21.481  33.757  18.720  1.00  0.00     0.047 A 
ATOM      6  C   UNL     1      21.248  33.859  20.095  1.00  0.00     0.115 A 
ENDROOT
BRANCH   1   7
ATOM      7  C   UNL     1      23.229  30.399  18.500  1.00  0.00     0.071 C 
ATOM      8  O   UNL     1      23.783  29.568  19.267  1.00  0.00    -0.545 OA
ATOM      9  O   UNL     1      23.270  30.179  17.127  1.00  0.00    -0.545 OA
ENDBRANCH   1   7
BRANCH   6  10
ATOM     10  O   UNL     1      20.604  34.986  20.601  1.00  0.00    -0.508 OA
ATOM     11  H   UNL     1      20.803  35.336  21.532  1.00  0.00     0.293 HD
ENDBRANCH   6  10
TORSDOF 2
ENDMDL
MODEL 7
REMARK VINA RESULT:    -4.500     10.870     11.553
REMARK INTER + INTRA:          -4.924
REMARK INTER:                  -4.894
REMARK INTRA:                  -0.030
REMARK UNBOUND:                -0.029
REMARK SMILES O=C([O-])c1ccc(O)cc1
REMARK SMILES IDX 4 1 5 2 10 3 6 4 9 5 7 6 2 7 1 8 3 9 8 10
REMARK H PARENT 8 11
REMARK Flexibility Score: inf
ROOT
ATOM      1  C   UNL     1      24.036  29.085  17.821  1.00  0.00    -0.003 A 
ATOM      2  C   UNL     1      24.510  29.432  16.543  1.00  0.00     0.014 A 
ATOM      3  C   UNL     1      24.652  28.027  18.513  1.00  0.00     0.014 A 
ATOM      4  C   UNL     1      25.580  28.734  15.972  1.00  0.00     0.047 A 
ATOM      5  C   UNL     1      25.721  27.332  17.939  1.00  0.00     0.047 A 
ATOM      6  C   UNL     1      26.188  27.683  16.668  1.00  0.00     0.115 A 
ENDROOT
BRANCH   1   7
ATOM      7  C   UNL     1      22.905  29.824  18.424  1.00  0.00     0.071 C 
ATOM      8  O   UNL     1      21.830  29.984  17.787  1.00  0.00    -0.545 OA
ATOM      9  O   UNL     1      23.014  30.355  19.705  1.00  0.00    -0.545 OA
ENDBRANCH   1   7
BRANCH   6  10
ATOM     10  O   UNL     1      27.253  26.981  16.109  1.00  0.00    -0.508 OA
ATOM     11  H   UNL     1      27.727  27.314  15.277  1.00  0.00     0.293 HD
ENDBRANCH   6  10
TORSDOF 2
ENDMDL
MODEL 8
REMARK VINA RESULT:    -4.478     11.177     11.636
REMARK INTER + INTRA:          -4.900
REMARK INTER:                  -4.869
REMARK INTRA:                  -0.031
REMARK UNBOUND:                -0.029
REMARK SMILES O=C([O-])c1ccc(O)cc1
REMARK SMILES IDX 4 1 5 2 10 3 6 4 9 5 7 6 2 7 1 8 3 9 8 10
REMARK H PARENT 8 11
REMARK Flexibility Score: inf
ROOT
ATOM      1  C   UNL     1      24.876  27.814  17.401  1.00  0.00    -0.003 A 
ATOM      2  C   UNL     1      24.869  28.565  16.212  1.00  0.00     0.014 A 
ATOM      3  C   UNL     1      24.125  28.269  18.500  1.00  0.00     0.014 A 
ATOM      4  C   UNL     1      24.125  29.746  16.125  1.00  0.00     0.047 A 
ATOM      5  C   UNL     1      23.382  29.450  18.409  1.00  0.00     0.047 A 
ATOM      6  C   UNL     1      23.379  30.191  17.223  1.00  0.00     0.115 A 
ENDROOT
BRANCH   1   7
ATOM      7  C   UNL     1      25.664  26.565  17.492  1.00  0.00     0.071 C 
ATOM      8  O   UNL     1      26.381  26.330  18.500  1.00  0.00    -0.545 OA
ATOM      9  O   UNL     1      25.624  25.631  16.462  1.00  0.00    -0.545 OA
ENDBRANCH   1   7
BRANCH   6  10
ATOM     10  O   UNL     1      22.635  31.366  17.148  1.00  0.00    -0.508 OA
ATOM     11  H   UNL     1      22.562  31.892  16.284  1.00  0.00     0.293 HD
ENDBRANCH   6  10
TORSDOF 2
ENDMDL
MODEL 9
REMARK VINA RESULT:    -4.467     10.529     11.203
REMARK INTER + INTRA:          -4.888
REMARK INTER:                  -4.857
REMARK INTRA:                  -0.031
REMARK UNBOUND:                -0.029
REMARK SMILES O=C([O-])c1ccc(O)cc1
REMARK SMILES IDX 4 1 5 2 10 3 6 4 9 5 7 6 2 7 1 8 3 9 8 10
REMARK H PARENT 8 11
REMARK Flexibility Score: inf
ROOT
ATOM      1  C   UNL     1      23.891  29.590  18.064  1.00  0.00    -0.003 A 
ATOM      2  C   UNL     1      23.471  30.131  16.835  1.00  0.00     0.014 A 
ATOM      3  C   UNL     1      23.377  30.128  19.258  1.00  0.00     0.014 A 
ATOM      4  C   UNL     1      22.556  31.188  16.804  1.00  0.00     0.047 A 
ATOM      5  C   UNL     1      22.462  31.185  19.222  1.00  0.00     0.047 A 
ATOM      6  C   UNL     1      22.048  31.718  17.997  1.00  0.00     0.115 A 
ENDROOT
BRANCH   1   7
ATOM      7  C   UNL     1      24.859  28.472  18.096  1.00  0.00     0.071 C 
ATOM      8  O   UNL     1      24.686  27.496  18.873  1.00  0.00    -0.545 OA
ATOM      9  O   UNL     1      25.976  28.483  17.267  1.00  0.00    -0.545 OA
ENDBRANCH   1   7
BRANCH   6  10
ATOM     10  O   UNL     1      21.137  32.770  17.977  1.00  0.00    -0.508 OA
ATOM     11  H   UNL     1      20.169  32.637  18.248  1.00  0.00     0.293 HD
ENDBRANCH   6  10
TORSDOF 2
ENDMDL
