MODEL 1
REMARK VINA RESULT:    -8.205      0.000      0.000
REMARK INTER + INTRA:         -12.430
REMARK INTER:                 -11.562
REMARK INTRA:                  -0.867
REMARK UNBOUND:                -0.867
REMARK SMILES COc1c(O[C@@H]2O[C@H](C(=O)[O-])[C@H](O)[C@H](O)[C@@H]2O)cc(O)c2c(=O)cc(-c3ccccc3)oc12
REMARK SMILES IDX 5 1 6 2 8 3 12 4 7 5 14 6 16 7 9 8 10 9 11 10 13 11 15 13
REMARK SMILES IDX 17 15 4 17 3 18 18 19 33 20 19 21 21 22 32 23 22 24 25 25
REMARK SMILES IDX 24 26 23 27 2 28 1 29 20 30 26 32 27 33 31 34 28 35 30 36
REMARK SMILES IDX 29 37
REMARK H PARENT 13 12 15 14 17 16 20 31
REMARK Flexibility Score: inf
ROOT
ATOM      1  O   UNL     1       4.791  -1.918   6.589  1.00  0.00    -0.458 OA
ENDROOT
BRANCH   1   2
ATOM      2  C   UNL     1       4.632  -1.344   7.893  1.00  0.00     0.339 C 
ATOM      3  C   UNL     1       4.048  -3.423   8.935  1.00  0.00     0.199 C 
ATOM      4  C   UNL     1       2.621  -3.182   8.360  1.00  0.00     0.180 C 
ATOM      5  O   UNL     1       4.923  -2.296   8.905  1.00  0.00    -0.328 OA
ATOM      6  C   UNL     1       2.214  -1.732   8.663  1.00  0.00     0.181 C 
ATOM      7  C   UNL     1       3.220  -0.723   8.059  1.00  0.00     0.214 C 
BRANCH   3   8
ATOM      8  C   UNL     1       4.731  -4.638   8.367  1.00  0.00     0.073 C 
ATOM      9  O   UNL     1       4.931  -4.744   7.127  1.00  0.00    -0.547 OA
ATOM     10  O   UNL     1       5.047  -5.706   9.197  1.00  0.00    -0.547 OA
ENDBRANCH   3   8
BRANCH   4  11
ATOM     11  O   UNL     1       2.589  -3.419   6.972  1.00  0.00    -0.387 OA
ATOM     12  H   UNL     1       3.515  -3.632   6.688  1.00  0.00     0.211 HD
ENDBRANCH   4  11
BRANCH   6  13
ATOM     13  O   UNL     1       0.889  -1.463   8.273  1.00  0.00    -0.387 OA
ATOM     14  H   UNL     1       0.277  -1.871   8.938  1.00  0.00     0.211 HD
ENDBRANCH   6  13
BRANCH   7  15
ATOM     15  O   UNL     1       2.759  -0.243   6.821  1.00  0.00    -0.384 OA
ATOM     16  H   UNL     1       2.129   0.501   7.018  1.00  0.00     0.211 HD
ENDBRANCH   7  15
ENDBRANCH   1   2
BRANCH   1  17
ATOM     17  C   UNL     1       5.809  -1.577   5.690  1.00  0.00     0.172 A 
ATOM     18  C   UNL     1       5.640  -0.576   4.713  1.00  0.00     0.205 A 
ATOM     19  C   UNL     1       6.997  -2.305   5.749  1.00  0.00     0.097 A 
ATOM     20  C   UNL     1       6.728  -0.251   3.861  1.00  0.00     0.188 A 
ATOM     21  C   UNL     1       8.072  -2.002   4.913  1.00  0.00     0.134 A 
ATOM     22  C   UNL     1       7.953  -0.961   3.967  1.00  0.00     0.111 A 
ATOM     23  O   UNL     1       6.607   0.713   2.949  1.00  0.00    -0.452 OA
ATOM     24  C   UNL     1       9.004  -0.603   3.098  1.00  0.00     0.197 A 
ATOM     25  C   UNL     1       7.573   1.063   2.105  1.00  0.00     0.138 A 
ATOM     26  C   UNL     1       8.812   0.413   2.167  1.00  0.00     0.100 A 
ATOM     27  O   UNL     1      10.122  -1.187   3.140  1.00  0.00    -0.289 OA
BRANCH  18  28
ATOM     28  O   UNL     1       4.366   0.012   4.599  1.00  0.00    -0.490 OA
ATOM     29  C   UNL     1       3.895   0.825   3.532  1.00  0.00     0.278 C 
ENDBRANCH  18  28
BRANCH  21  30
ATOM     30  O   UNL     1       9.253  -2.738   5.031  1.00  0.00    -0.507 OA
ATOM     31  H   UNL     1       9.318  -3.697   4.715  1.00  0.00     0.293 HD
ENDBRANCH  21  30
BRANCH  25  32
ATOM     32  C   UNL     1       7.314   2.141   1.119  1.00  0.00     0.017 A 
ATOM     33  C   UNL     1       7.922   3.398   1.285  1.00  0.00     0.012 A 
ATOM     34  C   UNL     1       6.445   1.946   0.027  1.00  0.00     0.012 A 
ATOM     35  C   UNL     1       7.680   4.431   0.374  1.00  0.00     0.001 A 
ATOM     36  C   UNL     1       6.207   2.982  -0.883  1.00  0.00     0.001 A 
ATOM     37  C   UNL     1       6.825   4.222  -0.710  1.00  0.00     0.000 A 
ENDBRANCH  25  32
ENDBRANCH   1  17
TORSDOF 9
ENDMDL
MODEL 2
REMARK VINA RESULT:    -7.733      0.849      2.650
REMARK INTER + INTRA:         -11.765
REMARK INTER:                 -11.104
REMARK INTRA:                  -0.661
REMARK UNBOUND:                -0.867
REMARK SMILES COc1c(O[C@@H]2O[C@H](C(=O)[O-])[C@H](O)[C@H](O)[C@@H]2O)cc(O)c2c(=O)cc(-c3ccccc3)oc12
REMARK SMILES IDX 5 1 6 2 8 3 12 4 7 5 14 6 16 7 9 8 10 9 11 10 13 11 15 13
REMARK SMILES IDX 17 15 4 17 3 18 18 19 33 20 19 21 21 22 32 23 22 24 25 25
REMARK SMILES IDX 24 26 23 27 2 28 1 29 20 30 26 32 27 33 31 34 28 35 30 36
REMARK SMILES IDX 29 37
REMARK H PARENT 13 12 15 14 17 16 20 31
REMARK Flexibility Score: inf
ROOT
ATOM      1  O   UNL     1       4.945  -1.996   6.625  1.00  0.00    -0.458 OA
ENDROOT
BRANCH   1   2
ATOM      2  C   UNL     1       4.158  -3.192   6.541  1.00  0.00     0.339 C 
ATOM      3  C   UNL     1       2.275  -2.249   7.687  1.00  0.00     0.199 C 
ATOM      4  C   UNL     1       3.067  -2.541   8.996  1.00  0.00     0.180 C 
ATOM      5  O   UNL     1       2.772  -2.886   6.511  1.00  0.00    -0.328 OA
ATOM      6  C   UNL     1       3.612  -3.976   8.924  1.00  0.00     0.181 C 
ATOM      7  C   UNL     1       4.518  -4.176   7.686  1.00  0.00     0.214 C 
BRANCH   3   8
ATOM      8  C   UNL     1       2.040  -0.783   7.436  1.00  0.00     0.073 C 
ATOM      9  O   UNL     1       2.171   0.057   8.365  1.00  0.00    -0.547 OA
ATOM     10  O   UNL     1       1.567  -0.360   6.201  1.00  0.00    -0.547 OA
ENDBRANCH   3   8
BRANCH   4  11
ATOM     11  O   UNL     1       4.123  -1.625   9.162  1.00  0.00    -0.387 OA
ATOM     12  H   UNL     1       4.868  -2.109   9.604  1.00  0.00     0.211 HD
ENDBRANCH   4  11
BRANCH   6  13
ATOM     13  O   UNL     1       4.249  -4.359  10.119  1.00  0.00    -0.387 OA
ATOM     14  H   UNL     1       3.998  -5.297  10.321  1.00  0.00     0.211 HD
ENDBRANCH   6  13
BRANCH   7  15
ATOM     15  O   UNL     1       5.872  -4.033   8.033  1.00  0.00    -0.384 OA
ATOM     16  H   UNL     1       6.272  -3.402   7.377  1.00  0.00     0.211 HD
ENDBRANCH   7  15
ENDBRANCH   1   2
BRANCH   1  17
ATOM     17  C   UNL     1       5.920  -1.620   5.694  1.00  0.00     0.172 A 
ATOM     18  C   UNL     1       5.701  -0.594   4.753  1.00  0.00     0.205 A 
ATOM     19  C   UNL     1       7.115  -2.340   5.680  1.00  0.00     0.097 A 
ATOM     20  C   UNL     1       6.748  -0.236   3.864  1.00  0.00     0.188 A 
ATOM     21  C   UNL     1       8.150  -2.004   4.807  1.00  0.00     0.134 A 
ATOM     22  C   UNL     1       7.982  -0.938   3.898  1.00  0.00     0.111 A 
ATOM     23  O   UNL     1       6.580   0.752   2.987  1.00  0.00    -0.452 OA
ATOM     24  C   UNL     1       8.992  -0.546   2.994  1.00  0.00     0.197 A 
ATOM     25  C   UNL     1       7.506   1.134   2.111  1.00  0.00     0.138 A 
ATOM     26  C   UNL     1       8.751   0.494   2.102  1.00  0.00     0.100 A 
ATOM     27  O   UNL     1      10.114  -1.121   2.971  1.00  0.00    -0.289 OA
BRANCH  18  28
ATOM     28  O   UNL     1       4.419  -0.015   4.712  1.00  0.00    -0.490 OA
ATOM     29  C   UNL     1       3.868   0.763   3.656  1.00  0.00     0.278 C 
ENDBRANCH  18  28
BRANCH  21  30
ATOM     30  O   UNL     1       9.341  -2.732   4.853  1.00  0.00    -0.507 OA
ATOM     31  H   UNL     1       9.356  -3.737   4.732  1.00  0.00     0.293 HD
ENDBRANCH  21  30
BRANCH  25  32
ATOM     32  C   UNL     1       7.196   2.237   1.169  1.00  0.00     0.017 A 
ATOM     33  C   UNL     1       6.305   2.014   0.103  1.00  0.00     0.012 A 
ATOM     34  C   UNL     1       7.798   3.505   1.296  1.00  0.00     0.012 A 
ATOM     35  C   UNL     1       6.010   3.038  -0.803  1.00  0.00     0.001 A 
ATOM     36  C   UNL     1       7.499   4.526   0.388  1.00  0.00     0.001 A 
ATOM     37  C   UNL     1       6.605   4.293  -0.659  1.00  0.00     0.000 A 
ENDBRANCH  25  32
ENDBRANCH   1  17
TORSDOF 9
ENDMDL
MODEL 3
REMARK VINA RESULT:    -7.592      2.207      8.914
REMARK INTER + INTRA:         -11.567
REMARK INTER:                 -10.120
REMARK INTRA:                  -1.446
REMARK UNBOUND:                -0.867
REMARK SMILES COc1c(O[C@@H]2O[C@H](C(=O)[O-])[C@H](O)[C@H](O)[C@@H]2O)cc(O)c2c(=O)cc(-c3ccccc3)oc12
REMARK SMILES IDX 5 1 6 2 8 3 12 4 7 5 14 6 16 7 9 8 10 9 11 10 13 11 15 13
REMARK SMILES IDX 17 15 4 17 3 18 18 19 33 20 19 21 21 22 32 23 22 24 25 25
REMARK SMILES IDX 24 26 23 27 2 28 1 29 20 30 26 32 27 33 31 34 28 35 30 36
REMARK SMILES IDX 29 37
REMARK H PARENT 13 12 15 14 17 16 20 31
REMARK Flexibility Score: inf
ROOT
ATOM      1  O   UNL     1       6.900  -0.850   4.642  1.00  0.00    -0.458 OA
ENDROOT
BRANCH   1   2
ATOM      2  C   UNL     1       7.288   0.529   4.719  1.00  0.00     0.339 C 
ATOM      3  C   UNL     1       6.149   1.149   2.702  1.00  0.00     0.199 C 
ATOM      4  C   UNL     1       7.386   0.564   1.957  1.00  0.00     0.180 C 
ATOM      5  O   UNL     1       6.319   1.363   4.103  1.00  0.00    -0.328 OA
ATOM      6  C   UNL     1       8.658   1.107   2.626  1.00  0.00     0.181 C 
ATOM      7  C   UNL     1       8.707   0.741   4.129  1.00  0.00     0.214 C 
BRANCH   3   8
ATOM      8  C   UNL     1       4.871   0.401   2.432  1.00  0.00     0.073 C 
ATOM      9  O   UNL     1       4.778  -0.379   1.447  1.00  0.00    -0.547 OA
ATOM     10  O   UNL     1       3.746   0.653   3.206  1.00  0.00    -0.547 OA
ENDBRANCH   3   8
BRANCH   4  11
ATOM     11  O   UNL     1       7.378  -0.844   1.992  1.00  0.00    -0.387 OA
ATOM     12  H   UNL     1       8.221  -1.133   2.427  1.00  0.00     0.211 HD
ENDBRANCH   4  11
BRANCH   6  13
ATOM     13  O   UNL     1       9.823   0.713   1.942  1.00  0.00    -0.387 OA
ATOM     14  H   UNL     1      10.328   1.528   1.688  1.00  0.00     0.211 HD
ENDBRANCH   6  13
BRANCH   7  15
ATOM     15  O   UNL     1       9.489  -0.408   4.335  1.00  0.00    -0.384 OA
ATOM     16  H   UNL     1       9.312  -0.714   5.264  1.00  0.00     0.211 HD
ENDBRANCH   7  15
ENDBRANCH   1   2
BRANCH   1  17
ATOM     17  C   UNL     1       6.176  -1.527   5.630  1.00  0.00     0.172 A 
ATOM     18  C   UNL     1       6.520  -2.828   6.051  1.00  0.00     0.205 A 
ATOM     19  C   UNL     1       5.050  -0.894   6.157  1.00  0.00     0.097 A 
ATOM     20  C   UNL     1       5.768  -3.440   7.087  1.00  0.00     0.188 A 
ATOM     21  C   UNL     1       4.297  -1.487   7.171  1.00  0.00     0.134 A 
ATOM     22  C   UNL     1       4.657  -2.763   7.657  1.00  0.00     0.111 A 
ATOM     23  O   UNL     1       6.090  -4.655   7.527  1.00  0.00    -0.452 OA
ATOM     24  C   UNL     1       3.940  -3.413   8.683  1.00  0.00     0.197 A 
ATOM     25  C   UNL     1       5.424  -5.301   8.481  1.00  0.00     0.138 A 
ATOM     26  C   UNL     1       4.328  -4.683   9.096  1.00  0.00     0.100 A 
ATOM     27  O   UNL     1       2.946  -2.870   9.238  1.00  0.00    -0.289 OA
BRANCH  18  28
ATOM     28  O   UNL     1       7.567  -3.475   5.369  1.00  0.00    -0.490 OA
ATOM     29  C   UNL     1       8.935  -3.522   5.756  1.00  0.00     0.278 C 
ENDBRANCH  18  28
BRANCH  21  30
ATOM     30  O   UNL     1       3.198  -0.801   7.691  1.00  0.00    -0.507 OA
ATOM     31  H   UNL     1       2.943  -0.865   8.669  1.00  0.00     0.293 HD
ENDBRANCH  21  30
BRANCH  25  32
ATOM     32  C   UNL     1       5.866  -6.661   8.874  1.00  0.00     0.017 A 
ATOM     33  C   UNL     1       7.040  -7.201   8.318  1.00  0.00     0.012 A 
ATOM     34  C   UNL     1       5.120  -7.446   9.777  1.00  0.00     0.012 A 
ATOM     35  C   UNL     1       7.466  -8.487   8.667  1.00  0.00     0.001 A 
ATOM     36  C   UNL     1       5.551  -8.731  10.123  1.00  0.00     0.001 A 
ATOM     37  C   UNL     1       6.724  -9.250   9.570  1.00  0.00     0.000 A 
ENDBRANCH  25  32
ENDBRANCH   1  17
TORSDOF 9
ENDMDL
MODEL 4
REMARK VINA RESULT:    -7.015      1.202      2.319
REMARK INTER + INTRA:         -10.753
REMARK INTER:                 -10.488
REMARK INTRA:                  -0.265
REMARK UNBOUND:                -0.867
REMARK SMILES COc1c(O[C@@H]2O[C@H](C(=O)[O-])[C@H](O)[C@H](O)[C@@H]2O)cc(O)c2c(=O)cc(-c3ccccc3)oc12
REMARK SMILES IDX 5 1 6 2 8 3 12 4 7 5 14 6 16 7 9 8 10 9 11 10 13 11 15 13
REMARK SMILES IDX 17 15 4 17 3 18 18 19 33 20 19 21 21 22 32 23 22 24 25 25
REMARK SMILES IDX 24 26 23 27 2 28 1 29 20 30 26 32 27 33 31 34 28 35 30 36
REMARK SMILES IDX 29 37
REMARK H PARENT 13 12 15 14 17 16 20 31
REMARK Flexibility Score: inf
ROOT
ATOM      1  O   UNL     1       5.117  -1.982   7.282  1.00  0.00    -0.458 OA
ENDROOT
BRANCH   1   2
ATOM      2  C   UNL     1       5.443  -2.215   8.659  1.00  0.00     0.339 C 
ATOM      3  C   UNL     1       3.183  -1.971   9.422  1.00  0.00     0.199 C 
ATOM      4  C   UNL     1       3.441  -0.437   9.343  1.00  0.00     0.180 C 
ATOM      5  O   UNL     1       4.346  -2.795   9.348  1.00  0.00    -0.328 OA
ATOM      6  C   UNL     1       4.789  -0.135  10.014  1.00  0.00     0.181 C 
ATOM      7  C   UNL     1       5.944  -0.914   9.340  1.00  0.00     0.214 C 
BRANCH   3   8
ATOM      8  C   UNL     1       2.128  -2.458   8.466  1.00  0.00     0.073 C 
ATOM      9  O   UNL     1       2.288  -3.528   7.822  1.00  0.00    -0.547 OA
ATOM     10  O   UNL     1       1.015  -1.669   8.203  1.00  0.00    -0.547 OA
ENDBRANCH   3   8
BRANCH   4  11
ATOM     11  O   UNL     1       3.450   0.005   8.005  1.00  0.00    -0.387 OA
ATOM     12  H   UNL     1       3.860  -0.715   7.460  1.00  0.00     0.211 HD
ENDBRANCH   4  11
BRANCH   6  13
ATOM     13  O   UNL     1       5.047   1.247  10.082  1.00  0.00    -0.387 OA
ATOM     14  H   UNL     1       4.497   1.632  10.813  1.00  0.00     0.211 HD
ENDBRANCH   6  13
BRANCH   7  15
ATOM     15  O   UNL     1       6.607  -0.106   8.401  1.00  0.00    -0.384 OA
ATOM     16  H   UNL     1       7.193  -0.707   7.867  1.00  0.00     0.211 HD
ENDBRANCH   7  15
ENDBRANCH   1   2
BRANCH   1  17
ATOM     17  C   UNL     1       6.054  -1.693   6.282  1.00  0.00     0.172 A 
ATOM     18  C   UNL     1       5.816  -0.718   5.292  1.00  0.00     0.205 A 
ATOM     19  C   UNL     1       7.227  -2.448   6.255  1.00  0.00     0.097 A 
ATOM     20  C   UNL     1       6.827  -0.446   4.334  1.00  0.00     0.188 A 
ATOM     21  C   UNL     1       8.225  -2.197   5.314  1.00  0.00     0.134 A 
ATOM     22  C   UNL     1       8.041  -1.182   4.350  1.00  0.00     0.111 A 
ATOM     23  O   UNL     1       6.642   0.492   3.406  1.00  0.00    -0.452 OA
ATOM     24  C   UNL     1       9.014  -0.876   3.376  1.00  0.00     0.197 A 
ATOM     25  C   UNL     1       7.533   0.792   2.465  1.00  0.00     0.138 A 
ATOM     26  C   UNL     1       8.758   0.115   2.434  1.00  0.00     0.100 A 
ATOM     27  O   UNL     1      10.118  -1.486   3.333  1.00  0.00    -0.289 OA
BRANCH  18  28
ATOM     28  O   UNL     1       4.551  -0.103   5.278  1.00  0.00    -0.490 OA
ATOM     29  C   UNL     1       4.052   0.798   4.298  1.00  0.00     0.278 C 
ENDBRANCH  18  28
BRANCH  21  30
ATOM     30  O   UNL     1       9.396  -2.957   5.346  1.00  0.00    -0.507 OA
ATOM     31  H   UNL     1      10.010  -3.025   4.544  1.00  0.00     0.293 HD
ENDBRANCH  21  30
BRANCH  25  32
ATOM     32  C   UNL     1       7.207   1.846   1.473  1.00  0.00     0.017 A 
ATOM     33  C   UNL     1       6.208   1.612   0.510  1.00  0.00     0.012 A 
ATOM     34  C   UNL     1       7.896   3.075   1.450  1.00  0.00     0.012 A 
ATOM     35  C   UNL     1       5.895   2.588  -0.441  1.00  0.00     0.001 A 
ATOM     36  C   UNL     1       7.579   4.048   0.497  1.00  0.00     0.001 A 
ATOM     37  C   UNL     1       6.578   3.806  -0.446  1.00  0.00     0.000 A 
ENDBRANCH  25  32
ENDBRANCH   1  17
TORSDOF 9
ENDMDL
MODEL 5
REMARK VINA RESULT:    -6.937      2.494      8.047
REMARK INTER + INTRA:         -10.643
REMARK INTER:                 -10.055
REMARK INTRA:                  -0.588
REMARK UNBOUND:                -0.867
REMARK SMILES COc1c(O[C@@H]2O[C@H](C(=O)[O-])[C@H](O)[C@H](O)[C@@H]2O)cc(O)c2c(=O)cc(-c3ccccc3)oc12
REMARK SMILES IDX 5 1 6 2 8 3 12 4 7 5 14 6 16 7 9 8 10 9 11 10 13 11 15 13
REMARK SMILES IDX 17 15 4 17 3 18 18 19 33 20 19 21 21 22 32 23 22 24 25 25
REMARK SMILES IDX 24 26 23 27 2 28 1 29 20 30 26 32 27 33 31 34 28 35 30 36
REMARK SMILES IDX 29 37
REMARK H PARENT 13 12 15 14 17 16 20 31
REMARK Flexibility Score: inf
ROOT
ATOM      1  O   UNL     1       6.789   0.650   3.631  1.00  0.00    -0.458 OA
ENDROOT
BRANCH   1   2
ATOM      2  C   UNL     1       7.576  -0.306   2.907  1.00  0.00     0.339 C 
ATOM      3  C   UNL     1       7.206   0.733   0.777  1.00  0.00     0.199 C 
ATOM      4  C   UNL     1       5.832  -0.001   0.784  1.00  0.00     0.180 C 
ATOM      5  O   UNL     1       8.150   0.283   1.749  1.00  0.00    -0.328 OA
ATOM      6  C   UNL     1       6.067  -1.466   1.184  1.00  0.00     0.181 C 
ATOM      7  C   UNL     1       6.745  -1.572   2.571  1.00  0.00     0.214 C 
BRANCH   3   8
ATOM      8  C   UNL     1       7.090   2.234   0.809  1.00  0.00     0.073 C 
ATOM      9  O   UNL     1       6.228   2.827   0.106  1.00  0.00    -0.547 OA
ATOM     10  O   UNL     1       8.010   2.984   1.530  1.00  0.00    -0.547 OA
ENDBRANCH   3   8
BRANCH   4  11
ATOM     11  O   UNL     1       4.935   0.613   1.678  1.00  0.00    -0.387 OA
ATOM     12  H   UNL     1       5.367   0.619   2.572  1.00  0.00     0.211 HD
ENDBRANCH   4  11
BRANCH   6  13
ATOM     13  O   UNL     1       4.887  -2.229   1.107  1.00  0.00    -0.387 OA
ATOM     14  H   UNL     1       4.767  -2.708   1.967  1.00  0.00     0.211 HD
ENDBRANCH   6  13
BRANCH   7  15
ATOM     15  O   UNL     1       5.788  -1.797   3.576  1.00  0.00    -0.384 OA
ATOM     16  H   UNL     1       5.289  -2.617   3.319  1.00  0.00     0.211 HD
ENDBRANCH   7  15
ENDBRANCH   1   2
BRANCH   1  17
ATOM     17  C   UNL     1       6.432   0.525   4.979  1.00  0.00     0.172 A 
ATOM     18  C   UNL     1       5.116   0.221   5.380  1.00  0.00     0.205 A 
ATOM     19  C   UNL     1       7.417   0.771   5.935  1.00  0.00     0.097 A 
ATOM     20  C   UNL     1       4.833   0.068   6.762  1.00  0.00     0.188 A 
ATOM     21  C   UNL     1       7.152   0.632   7.298  1.00  0.00     0.134 A 
ATOM     22  C   UNL     1       5.858   0.266   7.726  1.00  0.00     0.111 A 
ATOM     23  O   UNL     1       3.605  -0.251   7.168  1.00  0.00    -0.452 OA
ATOM     24  C   UNL     1       5.527   0.103   9.087  1.00  0.00     0.197 A 
ATOM     25  C   UNL     1       3.258  -0.394   8.445  1.00  0.00     0.138 A 
ATOM     26  C   UNL     1       4.224  -0.229   9.445  1.00  0.00     0.100 A 
ATOM     27  O   UNL     1       6.387   0.258   9.997  1.00  0.00    -0.289 OA
BRANCH  18  28
ATOM     28  O   UNL     1       4.134   0.142   4.376  1.00  0.00    -0.490 OA
ATOM     29  C   UNL     1       3.082   1.069   4.137  1.00  0.00     0.278 C 
ENDBRANCH  18  28
BRANCH  21  30
ATOM     30  O   UNL     1       8.178   0.857   8.217  1.00  0.00    -0.507 OA
ATOM     31  H   UNL     1       8.067   1.497   8.994  1.00  0.00     0.293 HD
ENDBRANCH  21  30
BRANCH  25  32
ATOM     32  C   UNL     1       1.852  -0.733   8.776  1.00  0.00     0.017 A 
ATOM     33  C   UNL     1       1.572  -1.889   9.527  1.00  0.00     0.012 A 
ATOM     34  C   UNL     1       0.778   0.063   8.330  1.00  0.00     0.012 A 
ATOM     35  C   UNL     1       0.252  -2.232   9.839  1.00  0.00     0.001 A 
ATOM     36  C   UNL     1      -0.540  -0.284   8.644  1.00  0.00     0.001 A 
ATOM     37  C   UNL     1      -0.802  -1.429   9.400  1.00  0.00     0.000 A 
ENDBRANCH  25  32
ENDBRANCH   1  17
TORSDOF 9
ENDMDL
MODEL 6
REMARK VINA RESULT:    -6.688      2.124      8.712
REMARK INTER + INTRA:         -10.293
REMARK INTER:                  -9.546
REMARK INTRA:                  -0.747
REMARK UNBOUND:                -0.867
REMARK SMILES COc1c(O[C@@H]2O[C@H](C(=O)[O-])[C@H](O)[C@H](O)[C@@H]2O)cc(O)c2c(=O)cc(-c3ccccc3)oc12
REMARK SMILES IDX 5 1 6 2 8 3 12 4 7 5 14 6 16 7 9 8 10 9 11 10 13 11 15 13
REMARK SMILES IDX 17 15 4 17 3 18 18 19 33 20 19 21 21 22 32 23 22 24 25 25
REMARK SMILES IDX 24 26 23 27 2 28 1 29 20 30 26 32 27 33 31 34 28 35 30 36
REMARK SMILES IDX 29 37
REMARK H PARENT 13 12 15 14 17 16 20 31
REMARK Flexibility Score: inf
ROOT
ATOM      1  O   UNL     1       6.022  -0.667   4.151  1.00  0.00    -0.458 OA
ENDROOT
BRANCH   1   2
ATOM      2  C   UNL     1       6.027  -1.231   2.832  1.00  0.00     0.339 C 
ATOM      3  C   UNL     1       8.203  -0.385   2.284  1.00  0.00     0.199 C 
ATOM      4  C   UNL     1       7.482   0.965   1.995  1.00  0.00     0.180 C 
ATOM      5  O   UNL     1       7.351  -1.523   2.412  1.00  0.00    -0.328 OA
ATOM      6  C   UNL     1       6.245   0.680   1.131  1.00  0.00     0.181 C 
ATOM      7  C   UNL     1       5.282  -0.310   1.831  1.00  0.00     0.214 C 
BRANCH   3   8
ATOM      8  C   UNL     1       9.173  -0.319   3.434  1.00  0.00     0.073 C 
ATOM      9  O   UNL     1      10.125  -1.140   3.520  1.00  0.00    -0.547 OA
ATOM     10  O   UNL     1       8.957   0.580   4.471  1.00  0.00    -0.547 OA
ENDBRANCH   3   8
BRANCH   4  11
ATOM     11  O   UNL     1       7.107   1.603   3.193  1.00  0.00    -0.387 OA
ATOM     12  H   UNL     1       7.005   0.898   3.883  1.00  0.00     0.211 HD
ENDBRANCH   4  11
BRANCH   6  13
ATOM     13  O   UNL     1       5.596   1.863   0.732  1.00  0.00    -0.387 OA
ATOM     14  H   UNL     1       6.126   2.281   0.005  1.00  0.00     0.211 HD
ENDBRANCH   6  13
BRANCH   7  15
ATOM     15  O   UNL     1       4.252   0.382   2.490  1.00  0.00    -0.384 OA
ATOM     16  H   UNL     1       3.403   0.135   2.036  1.00  0.00     0.211 HD
ENDBRANCH   7  15
ENDBRANCH   1   2
BRANCH   1  17
ATOM     17  C   UNL     1       5.489  -1.298   5.282  1.00  0.00     0.172 A 
ATOM     18  C   UNL     1       5.906  -2.581   5.689  1.00  0.00     0.205 A 
ATOM     19  C   UNL     1       4.475  -0.637   5.975  1.00  0.00     0.097 A 
ATOM     20  C   UNL     1       5.355  -3.145   6.869  1.00  0.00     0.188 A 
ATOM     21  C   UNL     1       3.918  -1.183   7.132  1.00  0.00     0.134 A 
ATOM     22  C   UNL     1       4.362  -2.438   7.600  1.00  0.00     0.111 A 
ATOM     23  O   UNL     1       5.754  -4.342   7.295  1.00  0.00    -0.452 OA
ATOM     24  C   UNL     1       3.844  -3.041   8.765  1.00  0.00     0.197 A 
ATOM     25  C   UNL     1       5.272  -4.943   8.380  1.00  0.00     0.138 A 
ATOM     26  C   UNL     1       4.303  -4.295   9.155  1.00  0.00     0.100 A 
ATOM     27  O   UNL     1       2.965  -2.470   9.466  1.00  0.00    -0.289 OA
BRANCH  18  28
ATOM     28  O   UNL     1       6.816  -3.261   4.858  1.00  0.00    -0.490 OA
ATOM     29  C   UNL     1       8.173  -3.567   5.151  1.00  0.00     0.278 C 
ENDBRANCH  18  28
BRANCH  21  30
ATOM     30  O   UNL     1       2.928  -0.470   7.811  1.00  0.00    -0.507 OA
ATOM     31  H   UNL     1       1.970  -0.795   7.852  1.00  0.00     0.293 HD
ENDBRANCH  21  30
BRANCH  25  32
ATOM     32  C   UNL     1       5.782  -6.288   8.745  1.00  0.00     0.017 A 
ATOM     33  C   UNL     1       5.086  -7.065   9.689  1.00  0.00     0.012 A 
ATOM     34  C   UNL     1       6.971  -6.801   8.188  1.00  0.00     0.012 A 
ATOM     35  C   UNL     1       5.558  -8.329  10.055  1.00  0.00     0.001 A 
ATOM     36  C   UNL     1       7.438  -8.066   8.557  1.00  0.00     0.001 A 
ATOM     37  C   UNL     1       6.732  -8.830   9.488  1.00  0.00     0.000 A 
ENDBRANCH  25  32
ENDBRANCH   1  17
TORSDOF 9
ENDMDL
MODEL 7
REMARK VINA RESULT:    -6.448      3.017      8.319
REMARK INTER + INTRA:          -9.954
REMARK INTER:                  -9.007
REMARK INTRA:                  -0.947
REMARK UNBOUND:                -0.867
REMARK SMILES COc1c(O[C@@H]2O[C@H](C(=O)[O-])[C@H](O)[C@H](O)[C@@H]2O)cc(O)c2c(=O)cc(-c3ccccc3)oc12
REMARK SMILES IDX 5 1 6 2 8 3 12 4 7 5 14 6 16 7 9 8 10 9 11 10 13 11 15 13
REMARK SMILES IDX 17 15 4 17 3 18 18 19 33 20 19 21 21 22 32 23 22 24 25 25
REMARK SMILES IDX 24 26 23 27 2 28 1 29 20 30 26 32 27 33 31 34 28 35 30 36
REMARK SMILES IDX 29 37
REMARK H PARENT 13 12 15 14 17 16 20 31
REMARK Flexibility Score: inf
ROOT
ATOM      1  O   UNL     1       8.167  -0.009   3.869  1.00  0.00    -0.458 OA
ENDROOT
BRANCH   1   2
ATOM      2  C   UNL     1       7.953   1.368   3.529  1.00  0.00     0.339 C 
ATOM      3  C   UNL     1       5.622   1.075   3.051  1.00  0.00     0.199 C 
ATOM      4  C   UNL     1       6.088   0.527   1.670  1.00  0.00     0.180 C 
ATOM      5  O   UNL     1       6.618   1.758   3.811  1.00  0.00    -0.328 OA
ATOM      6  C   UNL     1       7.141   1.487   1.096  1.00  0.00     0.181 C 
ATOM      7  C   UNL     1       8.347   1.643   2.053  1.00  0.00     0.214 C 
BRANCH   3   8
ATOM      8  C   UNL     1       4.917   0.052   3.901  1.00  0.00     0.073 C 
ATOM      9  O   UNL     1       5.255  -1.161   3.861  1.00  0.00    -0.547 OA
ATOM     10  O   UNL     1       3.811   0.423   4.655  1.00  0.00    -0.547 OA
ENDBRANCH   3   8
BRANCH   4  11
ATOM     11  O   UNL     1       6.626  -0.769   1.797  1.00  0.00    -0.387 OA
ATOM     12  H   UNL     1       5.948  -1.325   2.262  1.00  0.00     0.211 HD
ENDBRANCH   4  11
BRANCH   6  13
ATOM     13  O   UNL     1       7.536   1.122  -0.205  1.00  0.00    -0.387 OA
ATOM     14  H   UNL     1       6.855   0.504  -0.576  1.00  0.00     0.211 HD
ENDBRANCH   6  13
BRANCH   7  15
ATOM     15  O   UNL     1       9.398   0.791   1.671  1.00  0.00    -0.384 OA
ATOM     16  H   UNL     1      10.042   1.344   1.153  1.00  0.00     0.211 HD
ENDBRANCH   7  15
ENDBRANCH   1   2
BRANCH   1  17
ATOM     17  C   UNL     1       8.285  -0.494   5.178  1.00  0.00     0.172 A 
ATOM     18  C   UNL     1       8.147  -1.863   5.484  1.00  0.00     0.205 A 
ATOM     19  C   UNL     1       8.489   0.436   6.197  1.00  0.00     0.097 A 
ATOM     20  C   UNL     1       8.321  -2.291   6.826  1.00  0.00     0.188 A 
ATOM     21  C   UNL     1       8.654   0.030   7.522  1.00  0.00     0.134 A 
ATOM     22  C   UNL     1       8.584  -1.341   7.849  1.00  0.00     0.111 A 
ATOM     23  O   UNL     1       8.228  -3.582   7.139  1.00  0.00    -0.452 OA
ATOM     24  C   UNL     1       8.748  -1.816   9.167  1.00  0.00     0.197 A 
ATOM     25  C   UNL     1       8.361  -4.059   8.374  1.00  0.00     0.138 A 
ATOM     26  C   UNL     1       8.638  -3.178   9.427  1.00  0.00     0.100 A 
ATOM     27  O   UNL     1       8.989  -1.031  10.124  1.00  0.00    -0.289 OA
BRANCH  18  28
ATOM     28  O   UNL     1       7.784  -2.729   4.436  1.00  0.00    -0.490 OA
ATOM     29  C   UNL     1       8.602  -3.721   3.829  1.00  0.00     0.278 C 
ENDBRANCH  18  28
BRANCH  21  30
ATOM     30  O   UNL     1       8.888   0.994   8.504  1.00  0.00    -0.507 OA
ATOM     31  H   UNL     1       8.921   1.982   8.284  1.00  0.00     0.293 HD
ENDBRANCH  21  30
BRANCH  25  32
ATOM     32  C   UNL     1       8.218  -5.517   8.604  1.00  0.00     0.017 A 
ATOM     33  C   UNL     1       7.103  -6.199   8.084  1.00  0.00     0.012 A 
ATOM     34  C   UNL     1       9.163  -6.240   9.360  1.00  0.00     0.012 A 
ATOM     35  C   UNL     1       6.944  -7.572   8.300  1.00  0.00     0.001 A 
ATOM     36  C   UNL     1       9.000  -7.613   9.573  1.00  0.00     0.001 A 
ATOM     37  C   UNL     1       7.893  -8.278   9.042  1.00  0.00     0.000 A 
ENDBRANCH  25  32
ENDBRANCH   1  17
TORSDOF 9
ENDMDL
MODEL 8
REMARK VINA RESULT:    -6.248      2.630      5.283
REMARK INTER + INTRA:          -9.672
REMARK INTER:                  -8.015
REMARK INTRA:                  -1.657
REMARK UNBOUND:                -0.867
REMARK SMILES COc1c(O[C@@H]2O[C@H](C(=O)[O-])[C@H](O)[C@H](O)[C@@H]2O)cc(O)c2c(=O)cc(-c3ccccc3)oc12
REMARK SMILES IDX 5 1 6 2 8 3 12 4 7 5 14 6 16 7 9 8 10 9 11 10 13 11 15 13
REMARK SMILES IDX 17 15 4 17 3 18 18 19 33 20 19 21 21 22 32 23 22 24 25 25
REMARK SMILES IDX 24 26 23 27 2 28 1 29 20 30 26 32 27 33 31 34 28 35 30 36
REMARK SMILES IDX 29 37
REMARK H PARENT 13 12 15 14 17 16 20 31
REMARK Flexibility Score: inf
ROOT
ATOM      1  O   UNL     1       7.129  -4.679   7.521  1.00  0.00    -0.458 OA
ENDROOT
BRANCH   1   2
ATOM      2  C   UNL     1       7.088  -5.124   8.884  1.00  0.00     0.339 C 
ATOM      3  C   UNL     1       8.967  -3.796   9.561  1.00  0.00     0.199 C 
ATOM      4  C   UNL     1       9.845  -4.921   8.938  1.00  0.00     0.180 C 
ATOM      5  O   UNL     1       7.591  -4.125   9.758  1.00  0.00    -0.328 OA
ATOM      6  C   UNL     1       9.316  -6.278   9.429  1.00  0.00     0.181 C 
ATOM      7  C   UNL     1       7.829  -6.477   9.049  1.00  0.00     0.214 C 
BRANCH   3   8
ATOM      8  C   UNL     1       9.098  -2.469   8.863  1.00  0.00     0.073 C 
ATOM      9  O   UNL     1      10.096  -2.221   8.136  1.00  0.00    -0.547 OA
ATOM     10  O   UNL     1       8.170  -1.464   9.107  1.00  0.00    -0.547 OA
ENDBRANCH   3   8
BRANCH   4  11
ATOM     11  O   UNL     1       9.815  -4.864   7.531  1.00  0.00    -0.387 OA
ATOM     12  H   UNL     1       9.725  -5.795   7.200  1.00  0.00     0.211 HD
ENDBRANCH   4  11
BRANCH   6  13
ATOM     13  O   UNL     1      10.125  -7.346   8.998  1.00  0.00    -0.387 OA
ATOM     14  H   UNL     1      10.141  -8.034   9.712  1.00  0.00     0.211 HD
ENDBRANCH   6  13
BRANCH   7  15
ATOM     15  O   UNL     1       7.715  -7.233   7.870  1.00  0.00    -0.384 OA
ATOM     16  H   UNL     1       6.963  -6.843   7.350  1.00  0.00     0.211 HD
ENDBRANCH   7  15
ENDBRANCH   1   2
BRANCH   1  17
ATOM     17  C   UNL     1       6.416  -3.581   7.023  1.00  0.00     0.172 A 
ATOM     18  C   UNL     1       6.893  -2.804   5.949  1.00  0.00     0.205 A 
ATOM     19  C   UNL     1       5.228  -3.234   7.666  1.00  0.00     0.097 A 
ATOM     20  C   UNL     1       6.100  -1.730   5.467  1.00  0.00     0.188 A 
ATOM     21  C   UNL     1       4.441  -2.177   7.208  1.00  0.00     0.134 A 
ATOM     22  C   UNL     1       4.863  -1.420   6.094  1.00  0.00     0.111 A 
ATOM     23  O   UNL     1       6.512  -0.998   4.433  1.00  0.00    -0.452 OA
ATOM     24  C   UNL     1       4.112  -0.343   5.579  1.00  0.00     0.197 A 
ATOM     25  C   UNL     1       5.834   0.033   3.936  1.00  0.00     0.138 A 
ATOM     26  C   UNL     1       4.599   0.382   4.497  1.00  0.00     0.100 A 
ATOM     27  O   UNL     1       3.003  -0.015   6.082  1.00  0.00    -0.289 OA
BRANCH  18  28
ATOM     28  O   UNL     1       8.173  -3.106   5.447  1.00  0.00    -0.490 OA
ATOM     29  C   UNL     1       8.476  -3.735   4.208  1.00  0.00     0.278 C 
ENDBRANCH  18  28
BRANCH  21  30
ATOM     30  O   UNL     1       3.243  -1.887   7.864  1.00  0.00    -0.507 OA
ATOM     31  H   UNL     1       2.372  -2.333   7.605  1.00  0.00     0.293 HD
ENDBRANCH  21  30
BRANCH  25  32
ATOM     32  C   UNL     1       6.403   0.786   2.791  1.00  0.00     0.017 A 
ATOM     33  C   UNL     1       7.582   1.532   2.965  1.00  0.00     0.012 A 
ATOM     34  C   UNL     1       5.773   0.796   1.530  1.00  0.00     0.012 A 
ATOM     35  C   UNL     1       8.128   2.258   1.901  1.00  0.00     0.001 A 
ATOM     36  C   UNL     1       6.322   1.523   0.469  1.00  0.00     0.001 A 
ATOM     37  C   UNL     1       7.499   2.252   0.654  1.00  0.00     0.000 A 
ENDBRANCH  25  32
ENDBRANCH   1  17
TORSDOF 9
ENDMDL
MODEL 9
REMARK VINA RESULT:    -5.922      2.144      4.150
REMARK INTER + INTRA:          -9.213
REMARK INTER:                  -8.264
REMARK INTRA:                  -0.949
REMARK UNBOUND:                -0.867
REMARK SMILES COc1c(O[C@@H]2O[C@H](C(=O)[O-])[C@H](O)[C@H](O)[C@@H]2O)cc(O)c2c(=O)cc(-c3ccccc3)oc12
REMARK SMILES IDX 5 1 6 2 8 3 12 4 7 5 14 6 16 7 9 8 10 9 11 10 13 11 15 13
REMARK SMILES IDX 17 15 4 17 3 18 18 19 33 20 19 21 21 22 32 23 22 24 25 25
REMARK SMILES IDX 24 26 23 27 2 28 1 29 20 30 26 32 27 33 31 34 28 35 30 36
REMARK SMILES IDX 29 37
REMARK H PARENT 13 12 15 14 17 16 20 31
REMARK Flexibility Score: inf
ROOT
ATOM      1  O   UNL     1       7.276  -3.831   7.618  1.00  0.00    -0.458 OA
ENDROOT
BRANCH   1   2
ATOM      2  C   UNL     1       6.517  -4.861   6.969  1.00  0.00     0.339 C 
ATOM      3  C   UNL     1       4.621  -4.625   8.418  1.00  0.00     0.199 C 
ATOM      4  C   UNL     1       5.429  -5.487   9.432  1.00  0.00     0.180 C 
ATOM      5  O   UNL     1       5.125  -4.611   7.082  1.00  0.00    -0.328 OA
ATOM      6  C   UNL     1       6.007  -6.700   8.687  1.00  0.00     0.181 C 
ATOM      7  C   UNL     1       6.909  -6.262   7.507  1.00  0.00     0.214 C 
BRANCH   3   8
ATOM      8  C   UNL     1       4.350  -3.223   8.895  1.00  0.00     0.073 C 
ATOM      9  O   UNL     1       4.438  -2.932  10.117  1.00  0.00    -0.547 OA
ATOM     10  O   UNL     1       3.890  -2.265   8.001  1.00  0.00    -0.547 OA
ENDBRANCH   3   8
BRANCH   4  11
ATOM     11  O   UNL     1       6.465  -4.735  10.020  1.00  0.00    -0.387 OA
ATOM     12  H   UNL     1       7.323  -5.104   9.687  1.00  0.00     0.211 HD
ENDBRANCH   4  11
BRANCH   6  13
ATOM     13  O   UNL     1       6.662  -7.591   9.557  1.00  0.00    -0.387 OA
ATOM     14  H   UNL     1       7.584  -7.257   9.711  1.00  0.00     0.211 HD
ENDBRANCH   6  13
BRANCH   7  15
ATOM     15  O   UNL     1       8.262  -6.269   7.887  1.00  0.00    -0.384 OA
ATOM     16  H   UNL     1       8.712  -6.963   7.335  1.00  0.00     0.211 HD
ENDBRANCH   7  15
ENDBRANCH   1   2
BRANCH   1  17
ATOM     17  C   UNL     1       7.241  -2.477   7.263  1.00  0.00     0.172 A 
ATOM     18  C   UNL     1       7.177  -2.056   5.920  1.00  0.00     0.205 A 
ATOM     19  C   UNL     1       7.332  -1.535   8.289  1.00  0.00     0.097 A 
ATOM     20  C   UNL     1       7.103  -0.668   5.633  1.00  0.00     0.188 A 
ATOM     21  C   UNL     1       7.267  -0.168   8.021  1.00  0.00     0.134 A 
ATOM     22  C   UNL     1       7.138   0.281   6.689  1.00  0.00     0.111 A 
ATOM     23  O   UNL     1       7.009  -0.244   4.374  1.00  0.00    -0.452 OA
ATOM     24  C   UNL     1       7.062   1.648   6.353  1.00  0.00     0.197 A 
ATOM     25  C   UNL     1       6.952   1.039   4.024  1.00  0.00     0.138 A 
ATOM     26  C   UNL     1       6.966   2.025   5.017  1.00  0.00     0.100 A 
ATOM     27  O   UNL     1       7.083   2.546   7.239  1.00  0.00    -0.289 OA
BRANCH  18  28
ATOM     28  O   UNL     1       7.250  -3.049   4.925  1.00  0.00    -0.490 OA
ATOM     29  C   UNL     1       8.383  -3.380   4.132  1.00  0.00     0.278 C 
ENDBRANCH  18  28
BRANCH  21  30
ATOM     30  O   UNL     1       7.329   0.736   9.083  1.00  0.00    -0.507 OA
ATOM     31  H   UNL     1       6.714   0.661   9.884  1.00  0.00     0.293 HD
ENDBRANCH  21  30
BRANCH  25  32
ATOM     32  C   UNL     1       6.867   1.391   2.586  1.00  0.00     0.017 A 
ATOM     33  C   UNL     1       7.678   2.418   2.070  1.00  0.00     0.012 A 
ATOM     34  C   UNL     1       5.968   0.737   1.719  1.00  0.00     0.012 A 
ATOM     35  C   UNL     1       7.604   2.773   0.720  1.00  0.00     0.001 A 
ATOM     36  C   UNL     1       5.898   1.095   0.369  1.00  0.00     0.001 A 
ATOM     37  C   UNL     1       6.716   2.111  -0.131  1.00  0.00     0.000 A 
ENDBRANCH  25  32
ENDBRANCH   1  17
TORSDOF 9
ENDMDL
