MODEL 1
REMARK VINA RESULT:    -4.197      0.000      0.000
REMARK INTER + INTRA:          -5.210
REMARK INTER:                  -4.933
REMARK INTRA:                  -0.277
REMARK UNBOUND:                -0.277
REMARK SMILES O=c1c(O)c(-c2ccc(O)cc2)oc2cc(O)cc(O)c12
REMARK SMILES IDX 5 1 3 2 2 3 1 4 21 5 19 6 18 7 16 8 15 9 14 10 13 11 6 12
REMARK SMILES IDX 7 13 8 14 9 15 12 16 11 17 10 18 4 20 20 22 17 24
REMARK H PARENT 10 19 4 21 20 23 17 25
REMARK Flexibility Score: inf
ROOT
ATOM      1  C   UNL     1      18.686  34.584  43.499  1.00  0.00     0.180 A 
ATOM      2  C   UNL     1      19.399  33.372  43.410  1.00  0.00     0.208 A 
ATOM      3  C   UNL     1      20.625  33.254  44.083  1.00  0.00     0.238 A 
ATOM      4  O   UNL     1      21.277  32.178  44.000  1.00  0.00    -0.285 OA
ATOM      5  C   UNL     1      21.106  34.337  44.848  1.00  0.00     0.111 A 
ATOM      6  C   UNL     1      22.330  34.298  45.560  1.00  0.00     0.134 A 
ATOM      7  C   UNL     1      22.736  35.413  46.306  1.00  0.00     0.093 A 
ATOM      8  C   UNL     1      21.942  36.566  46.355  1.00  0.00     0.123 A 
ATOM      9  C   UNL     1      20.736  36.609  45.655  1.00  0.00     0.094 A 
ATOM     10  C   UNL     1      20.314  35.508  44.904  1.00  0.00     0.146 A 
ATOM     11  O   UNL     1      19.165  35.578  44.243  1.00  0.00    -0.452 OA
ENDROOT
BRANCH   1  12
ATOM     12  C   UNL     1      17.397  34.792  42.803  1.00  0.00     0.021 A 
ATOM     13  C   UNL     1      17.346  35.113  41.434  1.00  0.00     0.016 A 
ATOM     14  C   UNL     1      16.116  35.329  40.804  1.00  0.00     0.047 A 
ATOM     15  C   UNL     1      14.925  35.240  41.535  1.00  0.00     0.115 A 
ATOM     16  C   UNL     1      16.197  34.726  43.533  1.00  0.00     0.016 A 
ATOM     17  C   UNL     1      14.970  34.941  42.900  1.00  0.00     0.047 A 
BRANCH  15  18
ATOM     18  O   UNL     1      13.694  35.452  40.918  1.00  0.00    -0.508 OA
ATOM     19  H   UNL     1      13.568  36.181  40.224  1.00  0.00     0.293 HD
ENDBRANCH  15  18
ENDBRANCH   1  12
BRANCH   2  20
ATOM     20  O   UNL     1      18.876  32.298  42.685  1.00  0.00    -0.502 OA
ATOM     21  H   UNL     1      19.362  31.886  41.898  1.00  0.00     0.293 HD
ENDBRANCH   2  20
BRANCH   6  22
ATOM     22  O   UNL     1      23.142  33.163  45.532  1.00  0.00    -0.507 OA
ATOM     23  H   UNL     1      23.909  33.040  46.182  1.00  0.00     0.293 HD
ENDBRANCH   6  22
BRANCH   8  24
ATOM     24  O   UNL     1      22.345  37.674  47.098  1.00  0.00    -0.508 OA
ATOM     25  H   UNL     1      23.325  37.885  47.247  1.00  0.00     0.293 HD
ENDBRANCH   8  24
TORSDOF 5
ENDMDL
MODEL 2
REMARK VINA RESULT:    -4.146      3.473      3.867
REMARK INTER + INTRA:          -5.150
REMARK INTER:                  -4.885
REMARK INTRA:                  -0.265
REMARK UNBOUND:                -0.277
REMARK SMILES O=c1c(O)c(-c2ccc(O)cc2)oc2cc(O)cc(O)c12
REMARK SMILES IDX 5 1 3 2 2 3 1 4 21 5 19 6 18 7 16 8 15 9 14 10 13 11 6 12
REMARK SMILES IDX 7 13 8 14 9 15 12 16 11 17 10 18 4 20 20 22 17 24
REMARK H PARENT 10 19 4 21 20 23 17 25
REMARK Flexibility Score: inf
ROOT
ATOM      1  C   UNL     1      21.454  34.118  42.779  1.00  0.00     0.180 A 
ATOM      2  C   UNL     1      22.703  33.753  43.321  1.00  0.00     0.208 A 
ATOM      3  C   UNL     1      23.089  34.291  44.558  1.00  0.00     0.238 A 
ATOM      4  O   UNL     1      24.209  33.980  45.046  1.00  0.00    -0.285 OA
ATOM      5  C   UNL     1      22.217  35.164  45.241  1.00  0.00     0.111 A 
ATOM      6  C   UNL     1      22.529  35.745  46.494  1.00  0.00     0.134 A 
ATOM      7  C   UNL     1      21.604  36.597  47.115  1.00  0.00     0.093 A 
ATOM      8  C   UNL     1      20.374  36.878  46.507  1.00  0.00     0.123 A 
ATOM      9  C   UNL     1      20.063  36.308  45.272  1.00  0.00     0.094 A 
ATOM     10  C   UNL     1      20.972  35.457  44.637  1.00  0.00     0.146 A 
ATOM     11  O   UNL     1      20.652  34.933  43.459  1.00  0.00    -0.452 OA
ENDROOT
BRANCH   1  12
ATOM     12  C   UNL     1      20.984  33.609  41.471  1.00  0.00     0.021 A 
ATOM     13  C   UNL     1      21.064  34.394  40.306  1.00  0.00     0.016 A 
ATOM     14  C   UNL     1      20.591  33.901  39.087  1.00  0.00     0.047 A 
ATOM     15  C   UNL     1      20.022  32.623  39.018  1.00  0.00     0.115 A 
ATOM     16  C   UNL     1      20.392  32.336  41.396  1.00  0.00     0.016 A 
ATOM     17  C   UNL     1      19.922  31.845  40.175  1.00  0.00     0.047 A 
BRANCH  15  18
ATOM     18  O   UNL     1      19.548  32.120  37.808  1.00  0.00    -0.508 OA
ATOM     19  H   UNL     1      18.581  31.836  37.695  1.00  0.00     0.293 HD
ENDBRANCH  15  18
ENDBRANCH   1  12
BRANCH   2  20
ATOM     20  O   UNL     1      23.526  32.848  42.647  1.00  0.00    -0.502 OA
ATOM     21  H   UNL     1      24.076  32.148  43.132  1.00  0.00     0.293 HD
ENDBRANCH   2  20
BRANCH   6  22
ATOM     22  O   UNL     1      23.746  35.483  47.125  1.00  0.00    -0.507 OA
ATOM     23  H   UNL     1      24.523  36.132  47.076  1.00  0.00     0.293 HD
ENDBRANCH   6  22
BRANCH   8  24
ATOM     24  O   UNL     1      19.455  37.724  47.124  1.00  0.00    -0.508 OA
ATOM     25  H   UNL     1      19.649  38.155  48.021  1.00  0.00     0.293 HD
ENDBRANCH   8  24
TORSDOF 5
ENDMDL
MODEL 3
REMARK VINA RESULT:    -4.103      1.390      3.260
REMARK INTER + INTRA:          -5.100
REMARK INTER:                  -4.802
REMARK INTRA:                  -0.297
REMARK UNBOUND:                -0.277
REMARK SMILES O=c1c(O)c(-c2ccc(O)cc2)oc2cc(O)cc(O)c12
REMARK SMILES IDX 5 1 3 2 2 3 1 4 21 5 19 6 18 7 16 8 15 9 14 10 13 11 6 12
REMARK SMILES IDX 7 13 8 14 9 15 12 16 11 17 10 18 4 20 20 22 17 24
REMARK H PARENT 10 19 4 21 20 23 17 25
REMARK Flexibility Score: inf
ROOT
ATOM      1  C   UNL     1      19.180  34.950  44.542  1.00  0.00     0.180 A 
ATOM      2  C   UNL     1      19.754  36.149  45.007  1.00  0.00     0.208 A 
ATOM      3  C   UNL     1      21.018  36.105  45.616  1.00  0.00     0.238 A 
ATOM      4  O   UNL     1      21.536  37.171  46.046  1.00  0.00    -0.285 OA
ATOM      5  C   UNL     1      21.693  34.872  45.731  1.00  0.00     0.111 A 
ATOM      6  C   UNL     1      22.970  34.742  46.328  1.00  0.00     0.134 A 
ATOM      7  C   UNL     1      23.581  33.482  46.397  1.00  0.00     0.093 A 
ATOM      8  C   UNL     1      22.940  32.350  45.880  1.00  0.00     0.123 A 
ATOM      9  C   UNL     1      21.680  32.473  45.292  1.00  0.00     0.094 A 
ATOM     10  C   UNL     1      21.054  33.720  45.215  1.00  0.00     0.146 A 
ATOM     11  O   UNL     1      19.853  33.808  44.655  1.00  0.00    -0.452 OA
ENDROOT
BRANCH   1  12
ATOM     12  C   UNL     1      17.843  34.911  43.906  1.00  0.00     0.021 A 
ATOM     13  C   UNL     1      16.677  34.697  44.663  1.00  0.00     0.016 A 
ATOM     14  C   UNL     1      15.428  34.641  44.037  1.00  0.00     0.047 A 
ATOM     15  C   UNL     1      15.331  34.785  42.647  1.00  0.00     0.115 A 
ATOM     16  C   UNL     1      17.738  35.033  42.510  1.00  0.00     0.016 A 
ATOM     17  C   UNL     1      16.488  34.977  41.887  1.00  0.00     0.047 A 
BRANCH  15  18
ATOM     18  O   UNL     1      14.092  34.731  42.011  1.00  0.00    -0.508 OA
ATOM     19  H   UNL     1      13.993  34.355  41.075  1.00  0.00     0.293 HD
ENDBRANCH  15  18
ENDBRANCH   1  12
BRANCH   2  20
ATOM     20  O   UNL     1      19.086  37.364  44.836  1.00  0.00    -0.502 OA
ATOM     21  H   UNL     1      18.103  37.478  45.052  1.00  0.00     0.293 HD
ENDBRANCH   2  20
BRANCH   6  22
ATOM     22  O   UNL     1      23.636  35.852  46.851  1.00  0.00    -0.507 OA
ATOM     23  H   UNL     1      24.647  35.910  46.864  1.00  0.00     0.293 HD
ENDBRANCH   6  22
BRANCH   8  24
ATOM     24  O   UNL     1      23.546  31.097  45.947  1.00  0.00    -0.508 OA
ATOM     25  H   UNL     1      24.477  30.979  46.332  1.00  0.00     0.293 HD
ENDBRANCH   8  24
TORSDOF 5
ENDMDL
MODEL 4
REMARK VINA RESULT:    -4.093      2.660      7.189
REMARK INTER + INTRA:          -5.088
REMARK INTER:                  -4.790
REMARK INTRA:                  -0.298
REMARK UNBOUND:                -0.277
REMARK SMILES O=c1c(O)c(-c2ccc(O)cc2)oc2cc(O)cc(O)c12
REMARK SMILES IDX 5 1 3 2 2 3 1 4 21 5 19 6 18 7 16 8 15 9 14 10 13 11 6 12
REMARK SMILES IDX 7 13 8 14 9 15 12 16 11 17 10 18 4 20 20 22 17 24
REMARK H PARENT 10 19 4 21 20 23 17 25
REMARK Flexibility Score: inf
ROOT
ATOM      1  C   UNL     1      22.951  34.031  45.078  1.00  0.00     0.180 A 
ATOM      2  C   UNL     1      23.106  35.040  46.049  1.00  0.00     0.208 A 
ATOM      3  C   UNL     1      22.053  35.941  46.265  1.00  0.00     0.238 A 
ATOM      4  O   UNL     1      22.186  36.855  47.124  1.00  0.00    -0.285 OA
ATOM      5  C   UNL     1      20.860  35.809  45.525  1.00  0.00     0.111 A 
ATOM      6  C   UNL     1      19.750  36.674  45.686  1.00  0.00     0.134 A 
ATOM      7  C   UNL     1      18.594  36.472  44.919  1.00  0.00     0.093 A 
ATOM      8  C   UNL     1      18.526  35.421  43.996  1.00  0.00     0.123 A 
ATOM      9  C   UNL     1      19.617  34.567  43.834  1.00  0.00     0.094 A 
ATOM     10  C   UNL     1      20.780  34.753  44.588  1.00  0.00     0.146 A 
ATOM     11  O   UNL     1      21.805  33.928  44.410  1.00  0.00    -0.452 OA
ENDROOT
BRANCH   1  12
ATOM     12  C   UNL     1      24.023  33.054  44.778  1.00  0.00     0.021 A 
ATOM     13  C   UNL     1      24.997  33.312  43.797  1.00  0.00     0.016 A 
ATOM     14  C   UNL     1      25.985  32.364  43.515  1.00  0.00     0.047 A 
ATOM     15  C   UNL     1      26.004  31.142  44.200  1.00  0.00     0.115 A 
ATOM     16  C   UNL     1      24.037  31.817  45.445  1.00  0.00     0.016 A 
ATOM     17  C   UNL     1      25.027  30.871  45.162  1.00  0.00     0.047 A 
BRANCH  15  18
ATOM     18  O   UNL     1      26.984  30.190  43.928  1.00  0.00    -0.508 OA
ATOM     19  H   UNL     1      27.781  30.403  43.339  1.00  0.00     0.293 HD
ENDBRANCH  15  18
ENDBRANCH   1  12
BRANCH   2  20
ATOM     20  O   UNL     1      24.280  35.118  46.803  1.00  0.00    -0.502 OA
ATOM     21  H   UNL     1      24.333  35.632  47.674  1.00  0.00     0.293 HD
ENDBRANCH   2  20
BRANCH   6  22
ATOM     22  O   UNL     1      19.787  37.729  46.599  1.00  0.00    -0.507 OA
ATOM     23  H   UNL     1      18.957  38.040  47.088  1.00  0.00     0.293 HD
ENDBRANCH   6  22
BRANCH   8  24
ATOM     24  O   UNL     1      17.377  35.218  43.234  1.00  0.00    -0.508 OA
ATOM     25  H   UNL     1      17.429  34.954  42.257  1.00  0.00     0.293 HD
ENDBRANCH   8  24
TORSDOF 5
ENDMDL
MODEL 5
REMARK VINA RESULT:    -3.936      2.070      6.972
REMARK INTER + INTRA:          -4.904
REMARK INTER:                  -4.617
REMARK INTRA:                  -0.286
REMARK UNBOUND:                -0.277
REMARK SMILES O=c1c(O)c(-c2ccc(O)cc2)oc2cc(O)cc(O)c12
REMARK SMILES IDX 5 1 3 2 2 3 1 4 21 5 19 6 18 7 16 8 15 9 14 10 13 11 6 12
REMARK SMILES IDX 7 13 8 14 9 15 12 16 11 17 10 18 4 20 20 22 17 24
REMARK H PARENT 10 19 4 21 20 23 17 25
REMARK Flexibility Score: inf
ROOT
ATOM      1  C   UNL     1      17.910  35.366  44.223  1.00  0.00     0.180 A 
ATOM      2  C   UNL     1      16.854  34.830  44.986  1.00  0.00     0.208 A 
ATOM      3  C   UNL     1      15.692  34.397  44.329  1.00  0.00     0.238 A 
ATOM      4  O   UNL     1      14.737  33.927  45.004  1.00  0.00    -0.285 OA
ATOM      5  C   UNL     1      15.613  34.488  42.924  1.00  0.00     0.111 A 
ATOM      6  C   UNL     1      14.480  34.070  42.184  1.00  0.00     0.134 A 
ATOM      7  C   UNL     1      14.481  34.183  40.787  1.00  0.00     0.093 A 
ATOM      8  C   UNL     1      15.593  34.704  40.115  1.00  0.00     0.123 A 
ATOM      9  C   UNL     1      16.711  35.118  40.839  1.00  0.00     0.094 A 
ATOM     10  C   UNL     1      16.729  35.015  42.233  1.00  0.00     0.146 A 
ATOM     11  O   UNL     1      17.804  35.421  42.898  1.00  0.00    -0.452 OA
ENDROOT
BRANCH   1  12
ATOM     12  C   UNL     1      19.159  35.861  44.845  1.00  0.00     0.021 A 
ATOM     13  C   UNL     1      20.227  34.994  45.135  1.00  0.00     0.016 A 
ATOM     14  C   UNL     1      21.388  35.481  45.744  1.00  0.00     0.047 A 
ATOM     15  C   UNL     1      21.489  36.836  46.084  1.00  0.00     0.115 A 
ATOM     16  C   UNL     1      19.261  37.216  45.208  1.00  0.00     0.016 A 
ATOM     17  C   UNL     1      20.423  37.699  45.816  1.00  0.00     0.047 A 
BRANCH  15  18
ATOM     18  O   UNL     1      22.640  37.333  46.691  1.00  0.00    -0.508 OA
ATOM     19  H   UNL     1      23.174  36.776  47.350  1.00  0.00     0.293 HD
ENDBRANCH  15  18
ENDBRANCH   1  12
BRANCH   2  20
ATOM     20  O   UNL     1      16.978  34.707  46.373  1.00  0.00    -0.502 OA
ATOM     21  H   UNL     1      16.359  35.184  47.018  1.00  0.00     0.293 HD
ENDBRANCH   2  20
BRANCH   6  22
ATOM     22  O   UNL     1      13.357  33.544  42.826  1.00  0.00    -0.507 OA
ATOM     23  H   UNL     1      13.222  33.636  43.825  1.00  0.00     0.293 HD
ENDBRANCH   6  22
BRANCH   8  24
ATOM     24  O   UNL     1      15.595  34.816  38.725  1.00  0.00    -0.508 OA
ATOM     25  H   UNL     1      15.082  35.552  38.253  1.00  0.00     0.293 HD
ENDBRANCH   8  24
TORSDOF 5
ENDMDL
MODEL 6
REMARK VINA RESULT:    -3.871      1.918      3.262
REMARK INTER + INTRA:          -4.827
REMARK INTER:                  -4.536
REMARK INTRA:                  -0.291
REMARK UNBOUND:                -0.277
REMARK SMILES O=c1c(O)c(-c2ccc(O)cc2)oc2cc(O)cc(O)c12
REMARK SMILES IDX 5 1 3 2 2 3 1 4 21 5 19 6 18 7 16 8 15 9 14 10 13 11 6 12
REMARK SMILES IDX 7 13 8 14 9 15 12 16 11 17 10 18 4 20 20 22 17 24
REMARK H PARENT 10 19 4 21 20 23 17 25
REMARK Flexibility Score: inf
ROOT
ATOM      1  C   UNL     1      19.983  34.230  43.815  1.00  0.00     0.180 A 
ATOM      2  C   UNL     1      19.898  35.471  44.475  1.00  0.00     0.208 A 
ATOM      3  C   UNL     1      20.938  35.855  45.336  1.00  0.00     0.238 A 
ATOM      4  O   UNL     1      20.866  36.958  45.941  1.00  0.00    -0.285 OA
ATOM      5  C   UNL     1      22.051  35.006  45.505  1.00  0.00     0.111 A 
ATOM      6  C   UNL     1      23.142  35.320  46.351  1.00  0.00     0.134 A 
ATOM      7  C   UNL     1      24.218  34.427  46.459  1.00  0.00     0.093 A 
ATOM      8  C   UNL     1      24.224  33.227  45.738  1.00  0.00     0.123 A 
ATOM      9  C   UNL     1      23.150  32.913  44.904  1.00  0.00     0.094 A 
ATOM     10  C   UNL     1      22.067  33.789  44.784  1.00  0.00     0.146 A 
ATOM     11  O   UNL     1      21.056  33.462  43.987  1.00  0.00    -0.452 OA
ENDROOT
BRANCH   1  12
ATOM     12  C   UNL     1      18.919  33.746  42.907  1.00  0.00     0.021 A 
ATOM     13  C   UNL     1      18.938  34.041  41.531  1.00  0.00     0.016 A 
ATOM     14  C   UNL     1      17.908  33.594  40.698  1.00  0.00     0.047 A 
ATOM     15  C   UNL     1      16.841  32.859  41.229  1.00  0.00     0.115 A 
ATOM     16  C   UNL     1      17.833  33.026  43.435  1.00  0.00     0.016 A 
ATOM     17  C   UNL     1      16.806  32.579  42.598  1.00  0.00     0.047 A 
BRANCH  15  18
ATOM     18  O   UNL     1      15.810  32.407  40.409  1.00  0.00    -0.508 OA
ATOM     19  H   UNL     1      15.332  33.030  39.768  1.00  0.00     0.293 HD
ENDBRANCH  15  18
ENDBRANCH   1  12
BRANCH   2  20
ATOM     20  O   UNL     1      18.807  36.315  44.252  1.00  0.00    -0.502 OA
ATOM     21  H   UNL     1      18.708  36.861  43.405  1.00  0.00     0.293 HD
ENDBRANCH   2  20
BRANCH   6  22
ATOM     22  O   UNL     1      23.167  36.510  47.081  1.00  0.00    -0.507 OA
ATOM     23  H   UNL     1      23.277  37.410  46.630  1.00  0.00     0.293 HD
ENDBRANCH   6  22
BRANCH   8  24
ATOM     24  O   UNL     1      25.293  32.340  45.844  1.00  0.00    -0.508 OA
ATOM     25  H   UNL     1      25.520  31.887  46.722  1.00  0.00     0.293 HD
ENDBRANCH   8  24
TORSDOF 5
ENDMDL
MODEL 7
REMARK VINA RESULT:    -3.840      3.052      4.286
REMARK INTER + INTRA:          -4.791
REMARK INTER:                  -4.512
REMARK INTRA:                  -0.279
REMARK UNBOUND:                -0.277
REMARK SMILES O=c1c(O)c(-c2ccc(O)cc2)oc2cc(O)cc(O)c12
REMARK SMILES IDX 5 1 3 2 2 3 1 4 21 5 19 6 18 7 16 8 15 9 14 10 13 11 6 12
REMARK SMILES IDX 7 13 8 14 9 15 12 16 11 17 10 18 4 20 20 22 17 24
REMARK H PARENT 10 19 4 21 20 23 17 25
REMARK Flexibility Score: inf
ROOT
ATOM      1  C   UNL     1      21.442  34.080  42.753  1.00  0.00     0.180 A 
ATOM      2  C   UNL     1      21.005  34.878  43.828  1.00  0.00     0.208 A 
ATOM      3  C   UNL     1      21.858  35.064  44.926  1.00  0.00     0.238 A 
ATOM      4  O   UNL     1      21.471  35.767  45.899  1.00  0.00    -0.285 OA
ATOM      5  C   UNL     1      23.136  34.469  44.924  1.00  0.00     0.111 A 
ATOM      6  C   UNL     1      24.057  34.610  45.990  1.00  0.00     0.134 A 
ATOM      7  C   UNL     1      25.315  33.995  45.909  1.00  0.00     0.093 A 
ATOM      8  C   UNL     1      25.668  33.241  44.783  1.00  0.00     0.123 A 
ATOM      9  C   UNL     1      24.763  33.099  43.731  1.00  0.00     0.094 A 
ATOM     10  C   UNL     1      23.505  33.703  43.792  1.00  0.00     0.146 A 
ATOM     11  O   UNL     1      22.661  33.547  42.779  1.00  0.00    -0.452 OA
ENDROOT
BRANCH   1  12
ATOM     12  C   UNL     1      20.594  33.821  41.567  1.00  0.00     0.021 A 
ATOM     13  C   UNL     1      19.580  32.846  41.590  1.00  0.00     0.016 A 
ATOM     14  C   UNL     1      18.807  32.603  40.450  1.00  0.00     0.047 A 
ATOM     15  C   UNL     1      19.046  33.320  39.271  1.00  0.00     0.115 A 
ATOM     16  C   UNL     1      20.841  34.521  40.374  1.00  0.00     0.016 A 
ATOM     17  C   UNL     1      20.065  34.276  39.236  1.00  0.00     0.047 A 
BRANCH  15  18
ATOM     18  O   UNL     1      18.283  33.087  38.130  1.00  0.00    -0.508 OA
ATOM     19  H   UNL     1      18.696  33.104  37.204  1.00  0.00     0.293 HD
ENDBRANCH  15  18
ENDBRANCH   1  12
BRANCH   2  20
ATOM     20  O   UNL     1      19.752  35.497  43.783  1.00  0.00    -0.502 OA
ATOM     21  H   UNL     1      19.268  35.681  42.912  1.00  0.00     0.293 HD
ENDBRANCH   2  20
BRANCH   6  22
ATOM     22  O   UNL     1      23.735  35.356  47.125  1.00  0.00    -0.507 OA
ATOM     23  H   UNL     1      23.273  34.938  47.924  1.00  0.00     0.293 HD
ENDBRANCH   6  22
BRANCH   8  24
ATOM     24  O   UNL     1      26.918  32.630  44.701  1.00  0.00    -0.508 OA
ATOM     25  H   UNL     1      27.021  31.624  44.768  1.00  0.00     0.293 HD
ENDBRANCH   8  24
TORSDOF 5
ENDMDL
MODEL 8
REMARK VINA RESULT:    -3.809      2.052      6.750
REMARK INTER + INTRA:          -4.755
REMARK INTER:                  -4.474
REMARK INTRA:                  -0.280
REMARK UNBOUND:                -0.277
REMARK SMILES O=c1c(O)c(-c2ccc(O)cc2)oc2cc(O)cc(O)c12
REMARK SMILES IDX 5 1 3 2 2 3 1 4 21 5 19 6 18 7 16 8 15 9 14 10 13 11 6 12
REMARK SMILES IDX 7 13 8 14 9 15 12 16 11 17 10 18 4 20 20 22 17 24
REMARK H PARENT 10 19 4 21 20 23 17 25
REMARK Flexibility Score: inf
ROOT
ATOM      1  C   UNL     1      17.999  35.147  44.284  1.00  0.00     0.180 A 
ATOM      2  C   UNL     1      17.970  34.673  42.957  1.00  0.00     0.208 A 
ATOM      3  C   UNL     1      16.775  34.134  42.455  1.00  0.00     0.238 A 
ATOM      4  O   UNL     1      16.741  33.696  41.273  1.00  0.00    -0.285 OA
ATOM      5  C   UNL     1      15.629  34.097  43.276  1.00  0.00     0.111 A 
ATOM      6  C   UNL     1      14.386  33.574  42.846  1.00  0.00     0.134 A 
ATOM      7  C   UNL     1      13.289  33.580  43.719  1.00  0.00     0.093 A 
ATOM      8  C   UNL     1      13.411  34.100  45.013  1.00  0.00     0.123 A 
ATOM      9  C   UNL     1      14.634  34.615  45.442  1.00  0.00     0.094 A 
ATOM     10  C   UNL     1      15.740  34.617  44.587  1.00  0.00     0.146 A 
ATOM     11  O   UNL     1      16.894  35.109  45.023  1.00  0.00    -0.452 OA
ENDROOT
BRANCH   1  12
ATOM     12  C   UNL     1      19.226  35.711  44.891  1.00  0.00     0.021 A 
ATOM     13  C   UNL     1      20.240  34.881  45.403  1.00  0.00     0.016 A 
ATOM     14  C   UNL     1      21.378  35.438  45.994  1.00  0.00     0.047 A 
ATOM     15  C   UNL     1      21.511  36.829  46.093  1.00  0.00     0.115 A 
ATOM     16  C   UNL     1      19.358  37.106  45.014  1.00  0.00     0.016 A 
ATOM     17  C   UNL     1      20.498  37.659  45.604  1.00  0.00     0.047 A 
BRANCH  15  18
ATOM     18  O   UNL     1      22.641  37.395  46.678  1.00  0.00    -0.508 OA
ATOM     19  H   UNL     1      22.908  38.356  46.495  1.00  0.00     0.293 HD
ENDBRANCH  15  18
ENDBRANCH   1  12
BRANCH   2  20
ATOM     20  O   UNL     1      19.106  34.767  42.149  1.00  0.00    -0.502 OA
ATOM     21  H   UNL     1      19.051  34.941  41.153  1.00  0.00     0.293 HD
ENDBRANCH   2  20
BRANCH   6  22
ATOM     22  O   UNL     1      14.232  33.050  41.561  1.00  0.00    -0.507 OA
ATOM     23  H   UNL     1      13.318  32.868  41.165  1.00  0.00     0.293 HD
ENDBRANCH   6  22
BRANCH   8  24
ATOM     24  O   UNL     1      12.320  34.107  45.881  1.00  0.00    -0.508 OA
ATOM     25  H   UNL     1      12.403  33.785  46.839  1.00  0.00     0.293 HD
ENDBRANCH   8  24
TORSDOF 5
ENDMDL
MODEL 9
REMARK VINA RESULT:    -3.518      2.889      4.691
REMARK INTER + INTRA:          -4.412
REMARK INTER:                  -4.123
REMARK INTRA:                  -0.289
REMARK UNBOUND:                -0.277
REMARK SMILES O=c1c(O)c(-c2ccc(O)cc2)oc2cc(O)cc(O)c12
REMARK SMILES IDX 5 1 3 2 2 3 1 4 21 5 19 6 18 7 16 8 15 9 14 10 13 11 6 12
REMARK SMILES IDX 7 13 8 14 9 15 12 16 11 17 10 18 4 20 20 22 17 24
REMARK H PARENT 10 19 4 21 20 23 17 25
REMARK Flexibility Score: inf
ROOT
ATOM      1  C   UNL     1      20.453  34.185  42.439  1.00  0.00     0.180 A 
ATOM      2  C   UNL     1      19.072  34.121  42.713  1.00  0.00     0.208 A 
ATOM      3  C   UNL     1      18.580  34.739  43.873  1.00  0.00     0.238 A 
ATOM      4  O   UNL     1      17.348  34.677  44.134  1.00  0.00    -0.285 OA
ATOM      5  C   UNL     1      19.469  35.425  44.726  1.00  0.00     0.111 A 
ATOM      6  C   UNL     1      19.054  36.078  45.912  1.00  0.00     0.134 A 
ATOM      7  C   UNL     1      19.997  36.748  46.704  1.00  0.00     0.093 A 
ATOM      8  C   UNL     1      21.346  36.779  46.332  1.00  0.00     0.123 A 
ATOM      9  C   UNL     1      21.760  36.137  45.165  1.00  0.00     0.094 A 
ATOM     10  C   UNL     1      20.836  35.462  44.362  1.00  0.00     0.146 A 
ATOM     11  O   UNL     1      21.257  34.855  43.259  1.00  0.00    -0.452 OA
ENDROOT
BRANCH   1  12
ATOM     12  C   UNL     1      21.050  33.543  41.246  1.00  0.00     0.021 A 
ATOM     13  C   UNL     1      21.203  34.243  40.036  1.00  0.00     0.016 A 
ATOM     14  C   UNL     1      21.747  33.608  38.916  1.00  0.00     0.047 A 
ATOM     15  C   UNL     1      22.133  32.263  38.987  1.00  0.00     0.115 A 
ATOM     16  C   UNL     1      21.420  32.188  41.303  1.00  0.00     0.016 A 
ATOM     17  C   UNL     1      21.965  31.556  40.181  1.00  0.00     0.047 A 
BRANCH  15  18
ATOM     18  O   UNL     1      22.677  31.619  37.878  1.00  0.00    -0.508 OA
ATOM     19  H   UNL     1      23.680  31.549  37.746  1.00  0.00     0.293 HD
ENDBRANCH  15  18
ENDBRANCH   1  12
BRANCH   2  20
ATOM     20  O   UNL     1      18.206  33.476  41.825  1.00  0.00    -0.502 OA
ATOM     21  H   UNL     1      18.538  32.852  41.100  1.00  0.00     0.293 HD
ENDBRANCH   2  20
BRANCH   6  22
ATOM     22  O   UNL     1      17.715  36.066  46.309  1.00  0.00    -0.507 OA
ATOM     23  H   UNL     1      17.438  36.291  47.256  1.00  0.00     0.293 HD
ENDBRANCH   6  22
BRANCH   8  24
ATOM     24  O   UNL     1      22.284  37.446  47.118  1.00  0.00    -0.508 OA
ATOM     25  H   UNL     1      23.247  37.133  47.174  1.00  0.00     0.293 HD
ENDBRANCH   8  24
TORSDOF 5
ENDMDL
