MODEL 1
REMARK VINA RESULT:    -6.276      0.000      0.000
REMARK INTER + INTRA:          -8.200
REMARK INTER:                  -7.928
REMARK INTRA:                  -0.273
REMARK UNBOUND:                -0.273
REMARK SMILES O=C(C=Cc1ccc(O)cc1)c1ccc(O)cc1O
REMARK SMILES IDX 4 1 3 2 5 3 6 4 7 5 8 6 11 7 10 8 9 9 2 11 1 12 12 13 18 14
REMARK SMILES IDX 13 15 17 16 14 17 15 18 19 19 16 21
REMARK H PARENT 9 10 19 20 16 22
REMARK Flexibility Score: inf
ROOT
ATOM      1  C   UNL     1      69.641  50.316   9.015  1.00  0.00     0.012 C 
ATOM      2  C   UNL     1      68.587  49.487   9.020  1.00  0.00     0.053 C 
ENDROOT
BRANCH   1   3
ATOM      3  C   UNL     1      71.046  49.860   8.876  1.00  0.00    -0.025 A 
ATOM      4  C   UNL     1      71.679  49.999   7.629  1.00  0.00     0.012 A 
ATOM      5  C   UNL     1      72.998  49.574   7.449  1.00  0.00     0.047 A 
ATOM      6  C   UNL     1      73.701  48.992   8.507  1.00  0.00     0.115 A 
ATOM      7  C   UNL     1      71.757  49.258   9.935  1.00  0.00     0.012 A 
ATOM      8  C   UNL     1      73.077  48.833   9.750  1.00  0.00     0.047 A 
BRANCH   6   9
ATOM      9  O   UNL     1      75.016  48.574   8.313  1.00  0.00    -0.508 OA
ATOM     10  H   UNL     1      75.302  47.621   8.506  1.00  0.00     0.293 HD
ENDBRANCH   6   9
ENDBRANCH   1   3
BRANCH   2  11
ATOM     11  C   UNL     1      67.199  49.977   9.180  1.00  0.00     0.189 C 
ATOM     12  O   UNL     1      66.994  51.189   9.460  1.00  0.00    -0.289 OA
BRANCH  11  13
ATOM     13  C   UNL     1      66.042  49.059   9.024  1.00  0.00     0.064 A 
ATOM     14  C   UNL     1      65.769  48.441   7.784  1.00  0.00     0.130 A 
ATOM     15  C   UNL     1      65.211  48.774  10.125  1.00  0.00     0.020 A 
ATOM     16  C   UNL     1      64.680  47.564   7.662  1.00  0.00     0.093 A 
ATOM     17  C   UNL     1      64.128  47.902   9.992  1.00  0.00     0.047 A 
ATOM     18  C   UNL     1      63.860  47.295   8.761  1.00  0.00     0.119 A 
BRANCH  14  19
ATOM     19  O   UNL     1      66.566  48.709   6.670  1.00  0.00    -0.507 OA
ATOM     20  H   UNL     1      66.297  49.397   5.977  1.00  0.00     0.293 HD
ENDBRANCH  14  19
BRANCH  18  21
ATOM     21  O   UNL     1      62.784  46.422   8.618  1.00  0.00    -0.508 OA
ATOM     22  H   UNL     1      61.829  46.759   8.584  1.00  0.00     0.293 HD
ENDBRANCH  18  21
ENDBRANCH  11  13
ENDBRANCH   2  11
TORSDOF 6
ENDMDL
MODEL 2
REMARK VINA RESULT:    -6.099      3.056      7.602
REMARK INTER + INTRA:          -7.976
REMARK INTER:                  -7.370
REMARK INTRA:                  -0.606
REMARK UNBOUND:                -0.273
REMARK SMILES O=C(C=Cc1ccc(O)cc1)c1ccc(O)cc1O
REMARK SMILES IDX 4 1 3 2 5 3 6 4 7 5 8 6 11 7 10 8 9 9 2 11 1 12 12 13 18 14
REMARK SMILES IDX 13 15 17 16 14 17 15 18 19 19 16 21
REMARK H PARENT 9 10 19 20 16 22
REMARK Flexibility Score: inf
ROOT
ATOM      1  C   UNL     1      70.287  48.446   7.227  1.00  0.00     0.012 C 
ATOM      2  C   UNL     1      71.417  48.828   7.840  1.00  0.00     0.053 C 
ENDROOT
BRANCH   1   3
ATOM      3  C   UNL     1      68.929  48.783   7.721  1.00  0.00    -0.025 A 
ATOM      4  C   UNL     1      67.818  48.202   7.085  1.00  0.00     0.012 A 
ATOM      5  C   UNL     1      66.520  48.498   7.510  1.00  0.00     0.047 A 
ATOM      6  C   UNL     1      66.310  49.388   8.567  1.00  0.00     0.115 A 
ATOM      7  C   UNL     1      68.709  49.690   8.776  1.00  0.00     0.012 A 
ATOM      8  C   UNL     1      67.408  49.986   9.198  1.00  0.00     0.047 A 
BRANCH   6   9
ATOM      9  O   UNL     1      65.011  49.672   8.980  1.00  0.00    -0.508 OA
ATOM     10  H   UNL     1      64.827  50.296   9.757  1.00  0.00     0.293 HD
ENDBRANCH   6   9
ENDBRANCH   1   3
BRANCH   2  11
ATOM     11  C   UNL     1      72.755  48.457   7.328  1.00  0.00     0.189 C 
ATOM     12  O   UNL     1      73.788  48.878   7.917  1.00  0.00    -0.289 OA
BRANCH  11  13
ATOM     13  C   UNL     1      72.903  47.601   6.122  1.00  0.00     0.064 A 
ATOM     14  C   UNL     1      73.147  46.216   6.242  1.00  0.00     0.130 A 
ATOM     15  C   UNL     1      72.777  48.162   4.836  1.00  0.00     0.020 A 
ATOM     16  C   UNL     1      73.266  45.422   5.091  1.00  0.00     0.093 A 
ATOM     17  C   UNL     1      72.900  47.364   3.697  1.00  0.00     0.047 A 
ATOM     18  C   UNL     1      73.145  45.992   3.821  1.00  0.00     0.119 A 
BRANCH  14  19
ATOM     19  O   UNL     1      73.287  45.628   7.500  1.00  0.00    -0.507 OA
ATOM     20  H   UNL     1      73.350  46.187   8.343  1.00  0.00     0.293 HD
ENDBRANCH  14  19
BRANCH  18  21
ATOM     21  O   UNL     1      73.268  45.187   2.691  1.00  0.00    -0.508 OA
ATOM     22  H   UNL     1      72.990  44.212   2.702  1.00  0.00     0.293 HD
ENDBRANCH  18  21
ENDBRANCH  11  13
ENDBRANCH   2  11
TORSDOF 6
ENDMDL
MODEL 3
REMARK VINA RESULT:    -5.989      3.145      7.519
REMARK INTER + INTRA:          -7.837
REMARK INTER:                  -7.204
REMARK INTRA:                  -0.633
REMARK UNBOUND:                -0.273
REMARK SMILES O=C(C=Cc1ccc(O)cc1)c1ccc(O)cc1O
REMARK SMILES IDX 4 1 3 2 5 3 6 4 7 5 8 6 11 7 10 8 9 9 2 11 1 12 12 13 18 14
REMARK SMILES IDX 13 15 17 16 14 17 15 18 19 19 16 21
REMARK H PARENT 9 10 19 20 16 22
REMARK Flexibility Score: inf
ROOT
ATOM      1  C   UNL     1      70.163  48.739   6.975  1.00  0.00     0.012 C 
ATOM      2  C   UNL     1      71.332  48.937   7.602  1.00  0.00     0.053 C 
ENDROOT
BRANCH   1   3
ATOM      3  C   UNL     1      68.842  49.022   7.589  1.00  0.00    -0.025 A 
ATOM      4  C   UNL     1      67.704  48.389   7.060  1.00  0.00     0.012 A 
ATOM      5  C   UNL     1      66.439  48.634   7.600  1.00  0.00     0.047 A 
ATOM      6  C   UNL     1      66.288  49.523   8.668  1.00  0.00     0.115 A 
ATOM      7  C   UNL     1      68.681  49.929   8.656  1.00  0.00     0.012 A 
ATOM      8  C   UNL     1      67.412  50.173   9.193  1.00  0.00     0.047 A 
BRANCH   6   9
ATOM      9  O   UNL     1      65.021  49.757   9.196  1.00  0.00    -0.508 OA
ATOM     10  H   UNL     1      64.421  48.994   9.489  1.00  0.00     0.293 HD
ENDBRANCH   6   9
ENDBRANCH   1   3
BRANCH   2  11
ATOM     11  C   UNL     1      72.631  48.624   6.963  1.00  0.00     0.189 C 
ATOM     12  O   UNL     1      73.560  49.478   6.988  1.00  0.00    -0.289 OA
BRANCH  11  13
ATOM     13  C   UNL     1      72.856  47.323   6.285  1.00  0.00     0.064 A 
ATOM     14  C   UNL     1      73.528  47.259   5.044  1.00  0.00     0.130 A 
ATOM     15  C   UNL     1      72.418  46.126   6.884  1.00  0.00     0.020 A 
ATOM     16  C   UNL     1      73.745  46.017   4.427  1.00  0.00     0.093 A 
ATOM     17  C   UNL     1      72.637  44.896   6.261  1.00  0.00     0.047 A 
ATOM     18  C   UNL     1      73.301  44.838   5.031  1.00  0.00     0.119 A 
BRANCH  14  19
ATOM     19  O   UNL     1      73.966  48.426   4.416  1.00  0.00    -0.507 OA
ATOM     20  H   UNL     1      74.823  48.450   3.876  1.00  0.00     0.293 HD
ENDBRANCH  14  19
BRANCH  18  21
ATOM     21  O   UNL     1      73.526  43.616   4.400  1.00  0.00    -0.508 OA
ATOM     22  H   UNL     1      73.006  43.342   3.575  1.00  0.00     0.293 HD
ENDBRANCH  18  21
ENDBRANCH  11  13
ENDBRANCH   2  11
TORSDOF 6
ENDMDL
MODEL 4
REMARK VINA RESULT:    -5.921      1.489      7.459
REMARK INTER + INTRA:          -7.751
REMARK INTER:                  -7.414
REMARK INTRA:                  -0.337
REMARK UNBOUND:                -0.273
REMARK SMILES O=C(C=Cc1ccc(O)cc1)c1ccc(O)cc1O
REMARK SMILES IDX 4 1 3 2 5 3 6 4 7 5 8 6 11 7 10 8 9 9 2 11 1 12 12 13 18 14
REMARK SMILES IDX 13 15 17 16 14 17 15 18 19 19 16 21
REMARK H PARENT 9 10 19 20 16 22
REMARK Flexibility Score: inf
ROOT
ATOM      1  C   UNL     1      65.764  48.707   8.736  1.00  0.00     0.012 C 
ATOM      2  C   UNL     1      67.005  48.742   9.245  1.00  0.00     0.053 C 
ENDROOT
BRANCH   1   3
ATOM      3  C   UNL     1      64.812  47.592   8.965  1.00  0.00    -0.025 A 
ATOM      4  C   UNL     1      65.039  46.369   8.311  1.00  0.00     0.012 A 
ATOM      5  C   UNL     1      64.162  45.295   8.489  1.00  0.00     0.047 A 
ATOM      6  C   UNL     1      63.041  45.429   9.313  1.00  0.00     0.115 A 
ATOM      7  C   UNL     1      63.671  47.726   9.782  1.00  0.00     0.012 A 
ATOM      8  C   UNL     1      62.796  46.648   9.956  1.00  0.00     0.047 A 
BRANCH   6   9
ATOM      9  O   UNL     1      62.177  44.350   9.481  1.00  0.00    -0.508 OA
ATOM     10  H   UNL     1      61.869  44.057  10.401  1.00  0.00     0.293 HD
ENDBRANCH   6   9
ENDBRANCH   1   3
BRANCH   2  11
ATOM     11  C   UNL     1      67.934  49.863   8.979  1.00  0.00     0.189 C 
ATOM     12  O   UNL     1      67.572  51.046   9.225  1.00  0.00    -0.289 OA
BRANCH  11  13
ATOM     13  C   UNL     1      69.287  49.617   8.418  1.00  0.00     0.064 A 
ATOM     14  C   UNL     1      69.448  49.125   7.104  1.00  0.00     0.130 A 
ATOM     15  C   UNL     1      70.434  49.896   9.185  1.00  0.00     0.020 A 
ATOM     16  C   UNL     1      70.735  48.915   6.586  1.00  0.00     0.093 A 
ATOM     17  C   UNL     1      71.711  49.682   8.661  1.00  0.00     0.047 A 
ATOM     18  C   UNL     1      71.865  49.191   7.360  1.00  0.00     0.119 A 
BRANCH  14  19
ATOM     19  O   UNL     1      68.333  48.827   6.319  1.00  0.00    -0.507 OA
ATOM     20  H   UNL     1      67.554  49.470   6.236  1.00  0.00     0.293 HD
ENDBRANCH  14  19
BRANCH  18  21
ATOM     21  O   UNL     1      73.134  48.974   6.827  1.00  0.00    -0.508 OA
ATOM     22  H   UNL     1      73.412  48.066   6.473  1.00  0.00     0.293 HD
ENDBRANCH  18  21
ENDBRANCH  11  13
ENDBRANCH   2  11
TORSDOF 6
ENDMDL
MODEL 5
REMARK VINA RESULT:    -5.803      2.275      7.697
REMARK INTER + INTRA:          -7.602
REMARK INTER:                  -7.049
REMARK INTRA:                  -0.553
REMARK UNBOUND:                -0.273
REMARK SMILES O=C(C=Cc1ccc(O)cc1)c1ccc(O)cc1O
REMARK SMILES IDX 4 1 3 2 5 3 6 4 7 5 8 6 11 7 10 8 9 9 2 11 1 12 12 13 18 14
REMARK SMILES IDX 13 15 17 16 14 17 15 18 19 19 16 21
REMARK H PARENT 9 10 19 20 16 22
REMARK Flexibility Score: inf
ROOT
ATOM      1  C   UNL     1      70.193  49.218   7.361  1.00  0.00     0.012 C 
ATOM      2  C   UNL     1      71.157  49.757   8.122  1.00  0.00     0.053 C 
ENDROOT
BRANCH   1   3
ATOM      3  C   UNL     1      68.758  49.204   7.738  1.00  0.00    -0.025 A 
ATOM      4  C   UNL     1      68.344  49.976   8.837  1.00  0.00     0.012 A 
ATOM      5  C   UNL     1      67.003  49.986   9.234  1.00  0.00     0.047 A 
ATOM      6  C   UNL     1      66.060  49.217   8.548  1.00  0.00     0.115 A 
ATOM      7  C   UNL     1      67.804  48.420   7.060  1.00  0.00     0.012 A 
ATOM      8  C   UNL     1      66.463  48.431   7.461  1.00  0.00     0.047 A 
BRANCH   6   9
ATOM      9  O   UNL     1      64.728  49.238   8.954  1.00  0.00    -0.508 OA
ATOM     10  H   UNL     1      63.969  49.221   8.283  1.00  0.00     0.293 HD
ENDBRANCH   6   9
ENDBRANCH   1   3
BRANCH   2  11
ATOM     11  C   UNL     1      72.582  49.736   7.723  1.00  0.00     0.189 C 
ATOM     12  O   UNL     1      73.292  50.765   7.887  1.00  0.00    -0.289 OA
BRANCH  11  13
ATOM     13  C   UNL     1      73.188  48.521   7.120  1.00  0.00     0.064 A 
ATOM     14  C   UNL     1      73.463  47.381   7.908  1.00  0.00     0.130 A 
ATOM     15  C   UNL     1      73.478  48.482   5.743  1.00  0.00     0.020 A 
ATOM     16  C   UNL     1      74.021  46.238   7.317  1.00  0.00     0.093 A 
ATOM     17  C   UNL     1      74.035  47.340   5.165  1.00  0.00     0.047 A 
ATOM     18  C   UNL     1      74.308  46.215   5.950  1.00  0.00     0.119 A 
BRANCH  14  19
ATOM     19  O   UNL     1      73.199  47.389   9.279  1.00  0.00    -0.507 OA
ATOM     20  H   UNL     1      73.748  47.945   9.923  1.00  0.00     0.293 HD
ENDBRANCH  14  19
BRANCH  18  21
ATOM     21  O   UNL     1      74.863  45.069   5.383  1.00  0.00    -0.508 OA
ATOM     22  H   UNL     1      74.303  44.423   4.838  1.00  0.00     0.293 HD
ENDBRANCH  18  21
ENDBRANCH  11  13
ENDBRANCH   2  11
TORSDOF 6
ENDMDL
MODEL 6
REMARK VINA RESULT:    -5.744      1.457      2.002
REMARK INTER + INTRA:          -7.528
REMARK INTER:                  -6.932
REMARK INTRA:                  -0.596
REMARK UNBOUND:                -0.273
REMARK SMILES O=C(C=Cc1ccc(O)cc1)c1ccc(O)cc1O
REMARK SMILES IDX 4 1 3 2 5 3 6 4 7 5 8 6 11 7 10 8 9 9 2 11 1 12 12 13 18 14
REMARK SMILES IDX 13 15 17 16 14 17 15 18 19 19 16 21
REMARK H PARENT 9 10 19 20 16 22
REMARK Flexibility Score: inf
ROOT
ATOM      1  C   UNL     1      68.625  49.514   8.483  1.00  0.00     0.012 C 
ATOM      2  C   UNL     1      67.713  48.733   9.081  1.00  0.00     0.053 C 
ENDROOT
BRANCH   1   3
ATOM      3  C   UNL     1      70.086  49.395   8.710  1.00  0.00    -0.025 A 
ATOM      4  C   UNL     1      70.959  50.086   7.852  1.00  0.00     0.012 A 
ATOM      5  C   UNL     1      72.343  49.994   8.022  1.00  0.00     0.047 A 
ATOM      6  C   UNL     1      72.877  49.202   9.041  1.00  0.00     0.115 A 
ATOM      7  C   UNL     1      70.632  48.585   9.726  1.00  0.00     0.012 A 
ATOM      8  C   UNL     1      72.019  48.495   9.892  1.00  0.00     0.047 A 
BRANCH   6   9
ATOM      9  O   UNL     1      74.259  49.121   9.199  1.00  0.00    -0.508 OA
ATOM     10  H   UNL     1      74.777  49.832   9.704  1.00  0.00     0.293 HD
ENDBRANCH   6   9
ENDBRANCH   1   3
BRANCH   2  11
ATOM     11  C   UNL     1      66.261  48.894   8.844  1.00  0.00     0.189 C 
ATOM     12  O   UNL     1      65.789  50.042   8.616  1.00  0.00    -0.289 OA
BRANCH  11  13
ATOM     13  C   UNL     1      65.346  47.725   8.882  1.00  0.00     0.064 A 
ATOM     14  C   UNL     1      64.026  47.852   9.367  1.00  0.00     0.130 A 
ATOM     15  C   UNL     1      65.780  46.471   8.410  1.00  0.00     0.020 A 
ATOM     16  C   UNL     1      63.172  46.739   9.378  1.00  0.00     0.093 A 
ATOM     17  C   UNL     1      64.923  45.368   8.428  1.00  0.00     0.047 A 
ATOM     18  C   UNL     1      63.617  45.499   8.912  1.00  0.00     0.119 A 
BRANCH  14  19
ATOM     19  O   UNL     1      63.566  49.077   9.852  1.00  0.00    -0.507 OA
ATOM     20  H   UNL     1      62.852  49.131  10.569  1.00  0.00     0.293 HD
ENDBRANCH  14  19
BRANCH  18  21
ATOM     21  O   UNL     1      62.754  44.406   8.933  1.00  0.00    -0.508 OA
ATOM     22  H   UNL     1      62.320  44.090   9.793  1.00  0.00     0.293 HD
ENDBRANCH  18  21
ENDBRANCH  11  13
ENDBRANCH   2  11
TORSDOF 6
ENDMDL
MODEL 7
REMARK VINA RESULT:    -5.739      1.874      7.693
REMARK INTER + INTRA:          -7.521
REMARK INTER:                  -7.077
REMARK INTRA:                  -0.444
REMARK UNBOUND:                -0.273
REMARK SMILES O=C(C=Cc1ccc(O)cc1)c1ccc(O)cc1O
REMARK SMILES IDX 4 1 3 2 5 3 6 4 7 5 8 6 11 7 10 8 9 9 2 11 1 12 12 13 18 14
REMARK SMILES IDX 13 15 17 16 14 17 15 18 19 19 16 21
REMARK H PARENT 9 10 19 20 16 22
REMARK Flexibility Score: inf
ROOT
ATOM      1  C   UNL     1      68.955  48.101   9.216  1.00  0.00     0.012 C 
ATOM      2  C   UNL     1      69.694  49.137   8.792  1.00  0.00     0.053 C 
ENDROOT
BRANCH   1   3
ATOM      3  C   UNL     1      67.484  48.014   9.041  1.00  0.00    -0.025 A 
ATOM      4  C   UNL     1      66.943  48.249   7.766  1.00  0.00     0.012 A 
ATOM      5  C   UNL     1      65.562  48.187   7.557  1.00  0.00     0.047 A 
ATOM      6  C   UNL     1      64.701  47.902   8.620  1.00  0.00     0.115 A 
ATOM      7  C   UNL     1      66.609  47.742  10.112  1.00  0.00     0.012 A 
ATOM      8  C   UNL     1      65.227  47.682   9.899  1.00  0.00     0.047 A 
BRANCH   6   9
ATOM      9  O   UNL     1      63.327  47.843   8.396  1.00  0.00    -0.508 OA
ATOM     10  H   UNL     1      62.828  46.961   8.399  1.00  0.00     0.293 HD
ENDBRANCH   6   9
ENDBRANCH   1   3
BRANCH   2  11
ATOM     11  C   UNL     1      71.158  49.198   9.000  1.00  0.00     0.189 C 
ATOM     12  O   UNL     1      71.615  49.578  10.113  1.00  0.00    -0.289 OA
BRANCH  11  13
ATOM     13  C   UNL     1      72.101  48.828   7.914  1.00  0.00     0.064 A 
ATOM     14  C   UNL     1      73.495  48.810   8.138  1.00  0.00     0.130 A 
ATOM     15  C   UNL     1      71.612  48.467   6.644  1.00  0.00     0.020 A 
ATOM     16  C   UNL     1      74.368  48.441   7.104  1.00  0.00     0.093 A 
ATOM     17  C   UNL     1      72.489  48.104   5.620  1.00  0.00     0.047 A 
ATOM     18  C   UNL     1      73.869  48.090   5.847  1.00  0.00     0.119 A 
BRANCH  14  19
ATOM     19  O   UNL     1      74.016  49.172   9.382  1.00  0.00    -0.507 OA
ATOM     20  H   UNL     1      74.957  49.535   9.479  1.00  0.00     0.293 HD
ENDBRANCH  14  19
BRANCH  18  21
ATOM     21  O   UNL     1      74.753  47.728   4.833  1.00  0.00    -0.508 OA
ATOM     22  H   UNL     1      74.956  48.351   4.059  1.00  0.00     0.293 HD
ENDBRANCH  18  21
ENDBRANCH  11  13
ENDBRANCH   2  11
TORSDOF 6
ENDMDL
MODEL 8
REMARK VINA RESULT:    -5.681      2.144      7.472
REMARK INTER + INTRA:          -7.447
REMARK INTER:                  -6.713
REMARK INTRA:                  -0.735
REMARK UNBOUND:                -0.273
REMARK SMILES O=C(C=Cc1ccc(O)cc1)c1ccc(O)cc1O
REMARK SMILES IDX 4 1 3 2 5 3 6 4 7 5 8 6 11 7 10 8 9 9 2 11 1 12 12 13 18 14
REMARK SMILES IDX 13 15 17 16 14 17 15 18 19 19 16 21
REMARK H PARENT 9 10 19 20 16 22
REMARK Flexibility Score: inf
ROOT
ATOM      1  C   UNL     1      68.242  47.402   7.765  1.00  0.00     0.012 C 
ATOM      2  C   UNL     1      68.349  48.572   7.118  1.00  0.00     0.053 C 
ENDROOT
BRANCH   1   3
ATOM      3  C   UNL     1      66.947  46.808   8.182  1.00  0.00    -0.025 A 
ATOM      4  C   UNL     1      66.960  45.587   8.876  1.00  0.00     0.012 A 
ATOM      5  C   UNL     1      65.764  44.986   9.280  1.00  0.00     0.047 A 
ATOM      6  C   UNL     1      64.538  45.589   8.986  1.00  0.00     0.115 A 
ATOM      7  C   UNL     1      65.707  47.404   7.875  1.00  0.00     0.012 A 
ATOM      8  C   UNL     1      64.512  46.798   8.280  1.00  0.00     0.047 A 
BRANCH   6   9
ATOM      9  O   UNL     1      63.355  44.979   9.395  1.00  0.00    -0.508 OA
ATOM     10  H   UNL     1      63.306  44.441  10.253  1.00  0.00     0.293 HD
ENDBRANCH   6   9
ENDBRANCH   1   3
BRANCH   2  11
ATOM     11  C   UNL     1      69.660  49.142   6.734  1.00  0.00     0.189 C 
ATOM     12  O   UNL     1      69.772  49.773   5.648  1.00  0.00    -0.289 OA
BRANCH  11  13
ATOM     13  C   UNL     1      70.852  48.974   7.605  1.00  0.00     0.064 A 
ATOM     14  C   UNL     1      71.973  48.236   7.166  1.00  0.00     0.130 A 
ATOM     15  C   UNL     1      70.888  49.573   8.879  1.00  0.00     0.020 A 
ATOM     16  C   UNL     1      73.095  48.103   7.997  1.00  0.00     0.093 A 
ATOM     17  C   UNL     1      72.008  49.433   9.700  1.00  0.00     0.047 A 
ATOM     18  C   UNL     1      73.115  48.698   9.261  1.00  0.00     0.119 A 
BRANCH  14  19
ATOM     19  O   UNL     1      71.967  47.620   5.913  1.00  0.00    -0.507 OA
ATOM     20  H   UNL     1      72.087  48.151   5.059  1.00  0.00     0.293 HD
ENDBRANCH  14  19
BRANCH  18  21
ATOM     21  O   UNL     1      74.239  48.553  10.072  1.00  0.00    -0.508 OA
ATOM     22  H   UNL     1      75.083  49.090   9.908  1.00  0.00     0.293 HD
ENDBRANCH  18  21
ENDBRANCH  11  13
ENDBRANCH   2  11
TORSDOF 6
ENDMDL
MODEL 9
REMARK VINA RESULT:    -5.672      3.041      3.917
REMARK INTER + INTRA:          -7.436
REMARK INTER:                  -6.795
REMARK INTRA:                  -0.641
REMARK UNBOUND:                -0.273
REMARK SMILES O=C(C=Cc1ccc(O)cc1)c1ccc(O)cc1O
REMARK SMILES IDX 4 1 3 2 5 3 6 4 7 5 8 6 11 7 10 8 9 9 2 11 1 12 12 13 18 14
REMARK SMILES IDX 13 15 17 16 14 17 15 18 19 19 16 21
REMARK H PARENT 9 10 19 20 16 22
REMARK Flexibility Score: inf
ROOT
ATOM      1  C   UNL     1      71.455  48.017   7.545  1.00  0.00     0.012 C 
ATOM      2  C   UNL     1      70.409  48.850   7.447  1.00  0.00     0.053 C 
ENDROOT
BRANCH   1   3
ATOM      3  C   UNL     1      72.026  47.275   6.394  1.00  0.00    -0.025 A 
ATOM      4  C   UNL     1      72.453  48.003   5.270  1.00  0.00     0.012 A 
ATOM      5  C   UNL     1      72.989  47.345   4.159  1.00  0.00     0.047 A 
ATOM      6  C   UNL     1      73.094  45.952   4.148  1.00  0.00     0.115 A 
ATOM      7  C   UNL     1      72.122  45.869   6.370  1.00  0.00     0.012 A 
ATOM      8  C   UNL     1      72.657  45.215   5.255  1.00  0.00     0.047 A 
BRANCH   6   9
ATOM      9  O   UNL     1      73.631  45.311   3.034  1.00  0.00    -0.508 OA
ATOM     10  H   UNL     1      73.937  45.831   2.219  1.00  0.00     0.293 HD
ENDBRANCH   6   9
ENDBRANCH   1   3
BRANCH   2  11
ATOM     11  C   UNL     1      69.854  49.560   8.622  1.00  0.00     0.189 C 
ATOM     12  O   UNL     1      70.618  50.239   9.360  1.00  0.00    -0.289 OA
BRANCH  11  13
ATOM     13  C   UNL     1      68.408  49.477   8.952  1.00  0.00     0.064 A 
ATOM     14  C   UNL     1      67.686  50.626   9.344  1.00  0.00     0.130 A 
ATOM     15  C   UNL     1      67.729  48.247   8.855  1.00  0.00     0.020 A 
ATOM     16  C   UNL     1      66.317  50.529   9.635  1.00  0.00     0.093 A 
ATOM     17  C   UNL     1      66.367  48.161   9.150  1.00  0.00     0.047 A 
ATOM     18  C   UNL     1      65.657  49.302   9.541  1.00  0.00     0.119 A 
BRANCH  14  19
ATOM     19  O   UNL     1      68.330  51.859   9.460  1.00  0.00    -0.507 OA
ATOM     20  H   UNL     1      69.292  51.986   9.171  1.00  0.00     0.293 HD
ENDBRANCH  14  19
BRANCH  18  21
ATOM     21  O   UNL     1      64.298  49.227   9.835  1.00  0.00    -0.508 OA
ATOM     22  H   UNL     1      63.772  48.371   9.699  1.00  0.00     0.293 HD
ENDBRANCH  18  21
ENDBRANCH  11  13
ENDBRANCH   2  11
TORSDOF 6
ENDMDL
