MODEL 1
REMARK VINA RESULT:    -5.026      0.000      0.000
REMARK INTER + INTRA:          -5.517
REMARK INTER:                  -5.467
REMARK INTRA:                  -0.050
REMARK UNBOUND:                -0.050
REMARK SMILES CCc1cccc(O)c1
REMARK SMILES IDX 3 1 9 2 7 3 6 4 5 5 4 6 2 7 1 8 8 9
REMARK H PARENT 8 10
REMARK Flexibility Score: inf
ROOT
ATOM      1  C   UNL     1      40.805  16.874  51.617  1.00  0.00    -0.045 A 
ATOM      2  C   UNL     1      41.644  16.930  50.493  1.00  0.00     0.049 A 
ATOM      3  C   UNL     1      42.240  15.762  49.995  1.00  0.00     0.115 A 
ATOM      4  C   UNL     1      42.002  14.537  50.627  1.00  0.00     0.046 A 
ATOM      5  C   UNL     1      41.179  14.477  51.754  1.00  0.00     0.004 A 
ATOM      6  C   UNL     1      40.585  15.640  52.252  1.00  0.00     0.004 A 
ENDROOT
BRANCH   1   7
ATOM      7  C   UNL     1      40.193  18.133  52.172  1.00  0.00     0.032 C 
ATOM      8  C   UNL     1      41.229  19.249  52.247  1.00  0.00     0.009 C 
ENDBRANCH   1   7
BRANCH   3   9
ATOM      9  O   UNL     1      43.068  15.809  48.876  1.00  0.00    -0.508 OA
ATOM     10  H   UNL     1      43.493  16.675  48.566  1.00  0.00     0.293 HD
ENDBRANCH   3   9
TORSDOF 2
ENDMDL
MODEL 2
REMARK VINA RESULT:    -4.983      1.672      2.316
REMARK INTER + INTRA:          -5.470
REMARK INTER:                  -5.397
REMARK INTRA:                  -0.074
REMARK UNBOUND:                -0.050
REMARK SMILES CCc1cccc(O)c1
REMARK SMILES IDX 3 1 9 2 7 3 6 4 5 5 4 6 2 7 1 8 8 9
REMARK H PARENT 8 10
REMARK Flexibility Score: inf
ROOT
ATOM      1  C   UNL     1      40.748  16.431  51.803  1.00  0.00    -0.045 A 
ATOM      2  C   UNL     1      40.491  15.103  52.179  1.00  0.00     0.049 A 
ATOM      3  C   UNL     1      41.114  14.042  51.506  1.00  0.00     0.115 A 
ATOM      4  C   UNL     1      41.991  14.309  50.449  1.00  0.00     0.046 A 
ATOM      5  C   UNL     1      42.241  15.628  50.061  1.00  0.00     0.004 A 
ATOM      6  C   UNL     1      41.620  16.686  50.730  1.00  0.00     0.004 A 
ENDROOT
BRANCH   1   7
ATOM      7  C   UNL     1      40.053  17.568  52.503  1.00  0.00     0.032 C 
ATOM      8  C   UNL     1      40.778  18.884  52.247  1.00  0.00     0.009 C 
ENDBRANCH   1   7
BRANCH   3   9
ATOM      9  O   UNL     1      40.869  12.723  51.879  1.00  0.00    -0.508 OA
ATOM     10  H   UNL     1      40.098  12.478  52.489  1.00  0.00     0.293 HD
ENDBRANCH   3   9
TORSDOF 2
ENDMDL
MODEL 3
REMARK VINA RESULT:    -4.699     12.860     14.160
REMARK INTER + INTRA:          -5.162
REMARK INTER:                  -5.116
REMARK INTRA:                  -0.046
REMARK UNBOUND:                -0.050
REMARK SMILES CCc1cccc(O)c1
REMARK SMILES IDX 3 1 9 2 7 3 6 4 5 5 4 6 2 7 1 8 8 9
REMARK H PARENT 8 10
REMARK Flexibility Score: inf
ROOT
ATOM      1  C   UNL     1      42.524  21.867  63.391  1.00  0.00    -0.045 A 
ATOM      2  C   UNL     1      42.145  23.115  63.912  1.00  0.00     0.049 A 
ATOM      3  C   UNL     1      40.948  23.721  63.501  1.00  0.00     0.115 A 
ATOM      4  C   UNL     1      40.133  23.081  62.560  1.00  0.00     0.046 A 
ATOM      5  C   UNL     1      40.512  21.847  62.028  1.00  0.00     0.004 A 
ATOM      6  C   UNL     1      41.704  21.242  62.436  1.00  0.00     0.004 A 
ENDROOT
BRANCH   1   7
ATOM      7  C   UNL     1      43.824  21.234  63.807  1.00  0.00     0.032 C 
ATOM      8  C   UNL     1      43.795  20.862  65.285  1.00  0.00     0.009 C 
ENDBRANCH   1   7
BRANCH   3   9
ATOM      9  O   UNL     1      40.562  24.954  64.019  1.00  0.00    -0.508 OA
ATOM     10  H   UNL     1      39.586  25.210  64.109  1.00  0.00     0.293 HD
ENDBRANCH   3   9
TORSDOF 2
ENDMDL
MODEL 4
REMARK VINA RESULT:    -4.626      1.936      2.524
REMARK INTER + INTRA:          -5.082
REMARK INTER:                  -5.008
REMARK INTRA:                  -0.074
REMARK UNBOUND:                -0.050
REMARK SMILES CCc1cccc(O)c1
REMARK SMILES IDX 3 1 9 2 7 3 6 4 5 5 4 6 2 7 1 8 8 9
REMARK H PARENT 8 10
REMARK Flexibility Score: inf
ROOT
ATOM      1  C   UNL     1      40.419  16.436  51.900  1.00  0.00    -0.045 A 
ATOM      2  C   UNL     1      41.036  15.247  51.481  1.00  0.00     0.049 A 
ATOM      3  C   UNL     1      40.513  14.003  51.865  1.00  0.00     0.115 A 
ATOM      4  C   UNL     1      39.375  13.950  52.678  1.00  0.00     0.046 A 
ATOM      5  C   UNL     1      38.765  15.130  53.108  1.00  0.00     0.004 A 
ATOM      6  C   UNL     1      39.285  16.370  52.727  1.00  0.00     0.004 A 
ENDROOT
BRANCH   1   7
ATOM      7  C   UNL     1      41.000  17.770  51.515  1.00  0.00     0.032 C 
ATOM      8  C   UNL     1      40.646  18.833  52.550  1.00  0.00     0.009 C 
ENDBRANCH   1   7
BRANCH   3   9
ATOM      9  O   UNL     1      41.116  12.820  51.448  1.00  0.00    -0.508 OA
ATOM     10  H   UNL     1      41.647  12.770  50.587  1.00  0.00     0.293 HD
ENDBRANCH   3   9
TORSDOF 2
ENDMDL
MODEL 5
REMARK VINA RESULT:    -4.558     12.925     13.653
REMARK INTER + INTRA:          -5.008
REMARK INTER:                  -4.937
REMARK INTRA:                  -0.071
REMARK UNBOUND:                -0.050
REMARK SMILES CCc1cccc(O)c1
REMARK SMILES IDX 3 1 9 2 7 3 6 4 5 5 4 6 2 7 1 8 8 9
REMARK H PARENT 8 10
REMARK Flexibility Score: inf
ROOT
ATOM      1  C   UNL     1      53.146  21.269  56.890  1.00  0.00    -0.045 A 
ATOM      2  C   UNL     1      52.573  21.079  55.622  1.00  0.00     0.049 A 
ATOM      3  C   UNL     1      52.698  19.847  54.964  1.00  0.00     0.115 A 
ATOM      4  C   UNL     1      53.406  18.804  55.573  1.00  0.00     0.046 A 
ATOM      5  C   UNL     1      53.990  18.991  56.828  1.00  0.00     0.004 A 
ATOM      6  C   UNL     1      53.866  20.219  57.484  1.00  0.00     0.004 A 
ENDROOT
BRANCH   1   7
ATOM      7  C   UNL     1      53.040  22.602  57.580  1.00  0.00     0.032 C 
ATOM      8  C   UNL     1      54.353  22.962  58.265  1.00  0.00     0.009 C 
ENDBRANCH   1   7
BRANCH   3   9
ATOM      9  O   UNL     1      52.127  19.649  53.710  1.00  0.00    -0.508 OA
ATOM     10  H   UNL     1      52.692  19.607  52.870  1.00  0.00     0.293 HD
ENDBRANCH   3   9
TORSDOF 2
ENDMDL
MODEL 6
REMARK VINA RESULT:    -4.420     11.814     13.364
REMARK INTER + INTRA:          -4.858
REMARK INTER:                  -4.810
REMARK INTRA:                  -0.048
REMARK UNBOUND:                -0.050
REMARK SMILES CCc1cccc(O)c1
REMARK SMILES IDX 3 1 9 2 7 3 6 4 5 5 4 6 2 7 1 8 8 9
REMARK H PARENT 8 10
REMARK Flexibility Score: inf
ROOT
ATOM      1  C   UNL     1      40.493  21.831  61.947  1.00  0.00    -0.045 A 
ATOM      2  C   UNL     1      40.233  23.094  62.503  1.00  0.00     0.049 A 
ATOM      3  C   UNL     1      41.084  23.625  63.484  1.00  0.00     0.115 A 
ATOM      4  C   UNL     1      42.192  22.887  63.916  1.00  0.00     0.046 A 
ATOM      5  C   UNL     1      42.447  21.625  63.376  1.00  0.00     0.004 A 
ATOM      6  C   UNL     1      41.601  21.094  62.399  1.00  0.00     0.004 A 
ENDROOT
BRANCH   1   7
ATOM      7  C   UNL     1      39.561  21.247  60.919  1.00  0.00     0.032 C 
ATOM      8  C   UNL     1      38.982  22.343  60.031  1.00  0.00     0.009 C 
ENDBRANCH   1   7
BRANCH   3   9
ATOM      9  O   UNL     1      40.836  24.879  64.035  1.00  0.00    -0.508 OA
ATOM     10  H   UNL     1      40.656  24.998  65.025  1.00  0.00     0.293 HD
ENDBRANCH   3   9
TORSDOF 2
ENDMDL
MODEL 7
REMARK VINA RESULT:    -4.381      2.536      4.296
REMARK INTER + INTRA:          -4.815
REMARK INTER:                  -4.740
REMARK INTRA:                  -0.075
REMARK UNBOUND:                -0.050
REMARK SMILES CCc1cccc(O)c1
REMARK SMILES IDX 3 1 9 2 7 3 6 4 5 5 4 6 2 7 1 8 8 9
REMARK H PARENT 8 10
REMARK Flexibility Score: inf
ROOT
ATOM      1  C   UNL     1      40.868  16.241  51.772  1.00  0.00    -0.045 A 
ATOM      2  C   UNL     1      40.159  16.573  52.938  1.00  0.00     0.049 A 
ATOM      3  C   UNL     1      39.840  17.910  53.217  1.00  0.00     0.115 A 
ATOM      4  C   UNL     1      40.238  18.918  52.331  1.00  0.00     0.046 A 
ATOM      5  C   UNL     1      40.954  18.595  51.177  1.00  0.00     0.004 A 
ATOM      6  C   UNL     1      41.273  17.263  50.898  1.00  0.00     0.004 A 
ENDROOT
BRANCH   1   7
ATOM      7  C   UNL     1      41.239  14.810  51.491  1.00  0.00     0.032 C 
ATOM      8  C   UNL     1      42.318  14.733  50.416  1.00  0.00     0.009 C 
ENDBRANCH   1   7
BRANCH   3   9
ATOM      9  O   UNL     1      39.132  18.246  54.367  1.00  0.00    -0.508 OA
ATOM     10  H   UNL     1      38.122  18.175  54.409  1.00  0.00     0.293 HD
ENDBRANCH   3   9
TORSDOF 2
ENDMDL
MODEL 8
REMARK VINA RESULT:    -4.375     14.304     14.981
REMARK INTER + INTRA:          -4.809
REMARK INTER:                  -4.735
REMARK INTRA:                  -0.075
REMARK UNBOUND:                -0.050
REMARK SMILES CCc1cccc(O)c1
REMARK SMILES IDX 3 1 9 2 7 3 6 4 5 5 4 6 2 7 1 8 8 9
REMARK H PARENT 8 10
REMARK Flexibility Score: inf
ROOT
ATOM      1  C   UNL     1      50.623  18.850  62.696  1.00  0.00    -0.045 A 
ATOM      2  C   UNL     1      50.766  17.680  61.933  1.00  0.00     0.049 A 
ATOM      3  C   UNL     1      51.708  17.622  60.894  1.00  0.00     0.115 A 
ATOM      4  C   UNL     1      52.502  18.739  60.613  1.00  0.00     0.046 A 
ATOM      5  C   UNL     1      52.355  19.910  61.360  1.00  0.00     0.004 A 
ATOM      6  C   UNL     1      51.417  19.970  62.395  1.00  0.00     0.004 A 
ENDROOT
BRANCH   1   7
ATOM      7  C   UNL     1      49.589  18.924  63.787  1.00  0.00     0.032 C 
ATOM      8  C   UNL     1      49.815  20.150  64.664  1.00  0.00     0.009 C 
ENDBRANCH   1   7
BRANCH   3   9
ATOM      9  O   UNL     1      51.860  16.463  60.138  1.00  0.00    -0.508 OA
ATOM     10  H   UNL     1      51.966  15.555  60.575  1.00  0.00     0.293 HD
ENDBRANCH   3   9
TORSDOF 2
ENDMDL
MODEL 9
REMARK VINA RESULT:    -4.362     13.162     13.974
REMARK INTER + INTRA:          -4.795
REMARK INTER:                  -4.730
REMARK INTRA:                  -0.065
REMARK UNBOUND:                -0.050
REMARK SMILES CCc1cccc(O)c1
REMARK SMILES IDX 3 1 9 2 7 3 6 4 5 5 4 6 2 7 1 8 8 9
REMARK H PARENT 8 10
REMARK Flexibility Score: inf
ROOT
ATOM      1  C   UNL     1      53.523  20.895  57.260  1.00  0.00    -0.045 A 
ATOM      2  C   UNL     1      53.994  19.620  56.908  1.00  0.00     0.049 A 
ATOM      3  C   UNL     1      53.662  19.059  55.666  1.00  0.00     0.115 A 
ATOM      4  C   UNL     1      52.850  19.772  54.777  1.00  0.00     0.046 A 
ATOM      5  C   UNL     1      52.367  21.035  55.127  1.00  0.00     0.004 A 
ATOM      6  C   UNL     1      52.697  21.595  56.364  1.00  0.00     0.004 A 
ENDROOT
BRANCH   1   7
ATOM      7  C   UNL     1      53.851  21.482  58.606  1.00  0.00     0.032 C 
ATOM      8  C   UNL     1      54.405  22.895  58.459  1.00  0.00     0.009 C 
ENDBRANCH   1   7
BRANCH   3   9
ATOM      9  O   UNL     1      54.131  17.798  55.308  1.00  0.00    -0.508 OA
ATOM     10  H   UNL     1      53.507  17.005  55.220  1.00  0.00     0.293 HD
ENDBRANCH   3   9
TORSDOF 2
ENDMDL
