MODEL 1
REMARK VINA RESULT:    86.103      0.000      0.000
REMARK INTER + INTRA:          91.137
REMARK INTER:                  91.137
REMARK INTRA:                   0.000
REMARK UNBOUND:                 0.000
REMARK SMILES CC1(C)[C@H](O)CC[C@@]2(C)[C@H]1CC[C@]1(C)[C@H]2C=CC2=C(O)C(=O)C(=O)[C@@]21C
REMARK SMILES IDX 1 1 2 2 10 3 11 4 12 5 13 6 15 7 8 8 7 9 6 10 4 11 9 12
REMARK SMILES IDX 16 13 17 14 18 15 19 16 21 17 22 18 23 19 24 20 25 21 26 22
REMARK SMILES IDX 14 23 3 24 5 25 20 27
REMARK H PARENT 5 26 20 28
REMARK Flexibility Score: inf
ROOT
ATOM      1  C   UNL     1      19.517   9.087  19.244  1.00  0.00     0.014 C 
ATOM      2  C   UNL     1      18.982  10.545  19.161  1.00  0.00    -0.006 C 
ATOM      3  C   UNL     1      18.381  10.983  20.563  1.00  0.00     0.004 C 
ATOM      4  C   UNL     1      17.212  10.094  21.049  1.00  0.00     0.005 C 
ATOM      5  C   UNL     1      16.888  10.349  22.522  1.00  0.00     0.009 C 
ATOM      6  C   UNL     1      16.555  11.835  22.874  1.00  0.00    -0.009 C 
ATOM      7  C   UNL     1      17.680  12.810  22.265  1.00  0.00     0.025 C 
ATOM      8  C   UNL     1      18.053  12.517  20.728  1.00  0.00    -0.022 C 
ATOM      9  C   UNL     1      19.321  13.326  20.279  1.00  0.00     0.010 C 
ATOM     10  C   UNL     1      19.839  12.960  18.878  1.00  0.00     0.033 C 
ATOM     11  C   UNL     1      20.187  11.466  18.786  1.00  0.00     0.120 C 
ATOM     12  C   UNL     1      16.862  13.000  19.827  1.00  0.00     0.012 C 
ATOM     13  C   UNL     1      18.920  12.938  23.172  1.00  0.00    -0.022 C 
ATOM     14  C   UNL     1      19.023  12.435  24.402  1.00  0.00     0.005 C 
ATOM     15  C   UNL     1      17.882  11.768  25.009  1.00  0.00     0.012 C 
ATOM     16  C   UNL     1      17.939  10.821  25.948  1.00  0.00     0.171 C 
ATOM     17  C   UNL     1      16.627  10.248  26.125  1.00  0.00     0.264 C 
ATOM     18  O   UNL     1      16.319   9.326  26.926  1.00  0.00    -0.282 OA
ATOM     19  C   UNL     1      15.737  10.911  25.200  1.00  0.00     0.217 C 
ATOM     20  O   UNL     1      14.504  10.671  25.101  1.00  0.00    -0.289 OA
ATOM     21  C   UNL     1      16.497  11.990  24.454  1.00  0.00     0.069 C 
ATOM     22  C   UNL     1      15.988  13.372  24.930  1.00  0.00     0.026 C 
ATOM     23  C   UNL     1      15.145  12.181  22.307  1.00  0.00     0.013 C 
ATOM     24  C   UNL     1      17.939  10.560  18.011  1.00  0.00     0.014 C 
ENDROOT
BRANCH  11  25
ATOM     25  O   UNL     1      21.285  11.193  19.625  1.00  0.00    -0.393 OA
ATOM     26  H   UNL     1      22.056  10.977  19.037  1.00  0.00     0.210 HD
ENDBRANCH  11  25
BRANCH  16  27
ATOM     27  O   UNL     1      19.084  10.388  26.614  1.00  0.00    -0.504 OA
ATOM     28  H   UNL     1      19.821   9.880  26.143  1.00  0.00     0.293 HD
ENDBRANCH  16  27
TORSDOF 2
ENDMDL
MODEL 2
REMARK VINA RESULT:    87.157      2.697      6.465
REMARK INTER + INTRA:          92.252
REMARK INTER:                  92.252
REMARK INTRA:                   0.000
REMARK UNBOUND:                 0.000
REMARK SMILES CC1(C)[C@H](O)CC[C@@]2(C)[C@H]1CC[C@]1(C)[C@H]2C=CC2=C(O)C(=O)C(=O)[C@@]21C
REMARK SMILES IDX 1 1 2 2 10 3 11 4 12 5 13 6 15 7 8 8 7 9 6 10 4 11 9 12
REMARK SMILES IDX 16 13 17 14 18 15 19 16 21 17 22 18 23 19 24 20 25 21 26 22
REMARK SMILES IDX 14 23 3 24 5 25 20 27
REMARK H PARENT 5 26 20 28
REMARK Flexibility Score: inf
ROOT
ATOM      1  C   UNL     1      14.498  14.322  24.072  1.00  0.00     0.014 C 
ATOM      2  C   UNL     1      15.895  13.791  24.504  1.00  0.00    -0.006 C 
ATOM      3  C   UNL     1      16.704  13.294  23.233  1.00  0.00     0.004 C 
ATOM      4  C   UNL     1      16.004  12.157  22.451  1.00  0.00     0.005 C 
ATOM      5  C   UNL     1      16.648  11.940  21.081  1.00  0.00     0.009 C 
ATOM      6  C   UNL     1      18.182  11.642  21.116  1.00  0.00    -0.009 C 
ATOM      7  C   UNL     1      18.933  12.726  22.036  1.00  0.00     0.025 C 
ATOM      8  C   UNL     1      18.233  12.988  23.460  1.00  0.00    -0.022 C 
ATOM      9  C   UNL     1      18.863  14.225  24.192  1.00  0.00     0.010 C 
ATOM     10  C   UNL     1      18.126  14.641  25.477  1.00  0.00     0.033 C 
ATOM     11  C   UNL     1      16.653  14.972  25.191  1.00  0.00     0.120 C 
ATOM     12  C   UNL     1      18.490  11.738  24.376  1.00  0.00     0.012 C 
ATOM     13  C   UNL     1      19.266  14.029  21.281  1.00  0.00    -0.022 C 
ATOM     14  C   UNL     1      19.105  14.216  19.971  1.00  0.00     0.005 C 
ATOM     15  C   UNL     1      18.652  13.117  19.134  1.00  0.00     0.012 C 
ATOM     16  C   UNL     1      17.986  13.235  17.982  1.00  0.00     0.171 C 
ATOM     17  C   UNL     1      17.513  11.935  17.571  1.00  0.00     0.264 C 
ATOM     18  O   UNL     1      16.845  11.679  16.535  1.00  0.00    -0.282 OA
ATOM     19  C   UNL     1      17.929  10.985  18.578  1.00  0.00     0.217 C 
ATOM     20  O   UNL     1      17.702   9.747  18.526  1.00  0.00    -0.289 OA
ATOM     21  C   UNL     1      18.752  11.697  19.633  1.00  0.00     0.069 C 
ATOM     22  C   UNL     1      20.223  11.231  19.510  1.00  0.00     0.026 C 
ATOM     23  C   UNL     1      18.400  10.197  21.658  1.00  0.00     0.013 C 
ATOM     24  C   UNL     1      15.630  12.670  25.544  1.00  0.00     0.014 C 
ENDROOT
BRANCH  11  25
ATOM     25  O   UNL     1      16.585  16.126  24.385  1.00  0.00    -0.393 OA
ATOM     26  H   UNL     1      16.855  16.895  24.952  1.00  0.00     0.210 HD
ENDBRANCH  11  25
BRANCH  16  27
ATOM     27  O   UNL     1      17.717  14.421  17.303  1.00  0.00    -0.504 OA
ATOM     28  H   UNL     1      17.235  14.436  16.414  1.00  0.00     0.293 HD
ENDBRANCH  16  27
TORSDOF 2
ENDMDL
