MODEL 1
REMARK VINA RESULT:    -4.196      0.000      0.000
REMARK INTER + INTRA:          -8.005
REMARK INTER:                  -5.790
REMARK INTRA:                  -2.216
REMARK UNBOUND:                -2.216
REMARK SMILES CC[C@@H](CC[C@@H](C)[C@@H]1CC[C@@H]2[C@@H]3CC=C4C[C@@H](O)CC[C@@]4(C)[C@@H]3CC[C@@]21C)C(C)C
REMARK SMILES IDX 5 1 4 2 3 3 2 4 1 5 28 6 29 7 30 8 6 9 7 10 8 11 9 12 26 13
REMARK SMILES IDX 10 14 11 15 25 16 27 17 12 18 24 19 23 20 13 21 21 22 14 23
REMARK SMILES IDX 15 24 20 25 22 26 16 27 19 28 17 29 18 30
REMARK H PARENT 18 31
REMARK Flexibility Score: inf
ROOT
ATOM      1  C   UNL     1      33.794  11.563  20.941  1.00  0.00     0.004 C 
ENDROOT
BRANCH   1   2
ATOM      2  C   UNL     1      35.265  11.966  20.729  1.00  0.00     0.004 C 
BRANCH   2   3
ATOM      3  C   UNL     1      36.237  10.762  20.947  1.00  0.00    -0.009 C 
BRANCH   3   4
ATOM      4  C   UNL     1      37.102  10.995  22.215  1.00  0.00     0.000 C 
ATOM      5  C   UNL     1      37.141   9.797  23.167  1.00  0.00     0.004 C 
ENDBRANCH   3   4
BRANCH   3   6
ATOM      6  C   UNL     1      37.087  10.419  19.677  1.00  0.00    -0.014 C 
ATOM      7  C   UNL     1      37.424   8.921  19.600  1.00  0.00     0.007 C 
ATOM      8  C   UNL     1      36.462  10.895  18.350  1.00  0.00     0.007 C 
ENDBRANCH   3   6
ENDBRANCH   2   3
ENDBRANCH   1   2
BRANCH   1   9
ATOM      9  C   UNL     1      33.598  10.330  21.866  1.00  0.00    -0.011 C 
ATOM     10  C   UNL     1      33.218  10.779  23.295  1.00  0.00     0.008 C 
BRANCH   9  11
ATOM     11  C   UNL     1      32.565   9.334  21.214  1.00  0.00    -0.002 C 
ATOM     12  C   UNL     1      31.593   8.651  22.170  1.00  0.00     0.005 C 
ATOM     13  C   UNL     1      33.107   8.194  20.297  1.00  0.00    -0.026 C 
ATOM     14  C   UNL     1      30.883   7.635  21.297  1.00  0.00     0.005 C 
ATOM     15  C   UNL     1      31.918   7.169  20.253  1.00  0.00    -0.001 C 
ATOM     16  C   UNL     1      34.395   7.531  20.851  1.00  0.00     0.007 C 
ATOM     17  C   UNL     1      33.412   8.780  18.893  1.00  0.00     0.012 C 
ATOM     18  C   UNL     1      32.308   5.651  20.332  1.00  0.00     0.000 C 
ATOM     19  C   UNL     1      34.785   6.202  20.162  1.00  0.00     0.005 C 
ATOM     20  C   UNL     1      33.602   5.402  19.530  1.00  0.00     0.003 C 
ATOM     21  C   UNL     1      32.440   5.025  21.741  1.00  0.00     0.031 C 
ATOM     22  C   UNL     1      33.895   3.860  19.351  1.00  0.00    -0.008 C 
ATOM     23  C   UNL     1      32.920   3.598  21.676  1.00  0.00    -0.027 C 
ATOM     24  C   UNL     1      33.601   3.071  20.630  1.00  0.00    -0.065 C 
ATOM     25  C   UNL     1      32.978   3.276  18.227  1.00  0.00     0.014 C 
ATOM     26  C   UNL     1      35.377   3.650  18.922  1.00  0.00     0.016 C 
ATOM     27  C   UNL     1      33.740   1.567  20.547  1.00  0.00     0.063 C 
ATOM     28  C   UNL     1      33.020   1.735  18.116  1.00  0.00     0.033 C 
ATOM     29  C   UNL     1      32.782   1.035  19.469  1.00  0.00     0.118 C 
BRANCH  29  30
ATOM     30  O   UNL     1      31.447   1.227  19.866  1.00  0.00    -0.393 OA
ATOM     31  H   UNL     1      30.982   1.668  19.107  1.00  0.00     0.210 HD
ENDBRANCH  29  30
ENDBRANCH   9  11
ENDBRANCH   1   9
TORSDOF 7
ENDMDL
MODEL 2
REMARK VINA RESULT:    -3.853      1.589      2.808
REMARK INTER + INTRA:          -7.533
REMARK INTER:                  -5.734
REMARK INTRA:                  -1.798
REMARK UNBOUND:                -2.216
REMARK SMILES CC[C@@H](CC[C@@H](C)[C@@H]1CC[C@@H]2[C@@H]3CC=C4C[C@@H](O)CC[C@@]4(C)[C@@H]3CC[C@@]21C)C(C)C
REMARK SMILES IDX 5 1 4 2 3 3 2 4 1 5 28 6 29 7 30 8 6 9 7 10 8 11 9 12 26 13
REMARK SMILES IDX 10 14 11 15 25 16 27 17 12 18 24 19 23 20 13 21 21 22 14 23
REMARK SMILES IDX 15 24 20 25 22 26 16 27 19 28 17 29 18 30
REMARK H PARENT 18 31
REMARK Flexibility Score: inf
ROOT
ATOM      1  C   UNL     1      33.507   9.554  20.026  1.00  0.00     0.004 C 
ENDROOT
BRANCH   1   2
ATOM      2  C   UNL     1      34.983   9.884  20.315  1.00  0.00     0.004 C 
BRANCH   2   3
ATOM      3  C   UNL     1      35.395   9.486  21.770  1.00  0.00    -0.009 C 
BRANCH   3   4
ATOM      4  C   UNL     1      35.426  10.744  22.681  1.00  0.00     0.000 C 
ATOM      5  C   UNL     1      34.059  11.130  23.250  1.00  0.00     0.004 C 
ENDBRANCH   3   4
BRANCH   3   6
ATOM      6  C   UNL     1      36.718   8.651  21.828  1.00  0.00    -0.014 C 
ATOM      7  C   UNL     1      37.571   9.014  23.055  1.00  0.00     0.007 C 
ATOM      8  C   UNL     1      36.509   7.126  21.754  1.00  0.00     0.007 C 
ENDBRANCH   3   6
ENDBRANCH   2   3
ENDBRANCH   1   2
BRANCH   1   9
ATOM      9  C   UNL     1      33.003   8.246  20.695  1.00  0.00    -0.011 C 
ATOM     10  C   UNL     1      31.919   8.559  21.750  1.00  0.00     0.008 C 
BRANCH   9  11
ATOM     11  C   UNL     1      32.540   7.225  19.587  1.00  0.00    -0.002 C 
ATOM     12  C   UNL     1      31.057   6.871  19.574  1.00  0.00     0.005 C 
ATOM     13  C   UNL     1      33.289   5.860  19.472  1.00  0.00    -0.026 C 
ATOM     14  C   UNL     1      30.962   5.751  18.558  1.00  0.00     0.005 C 
ATOM     15  C   UNL     1      32.285   4.966  18.660  1.00  0.00    -0.001 C 
ATOM     16  C   UNL     1      33.611   5.227  20.851  1.00  0.00     0.007 C 
ATOM     17  C   UNL     1      34.617   6.078  18.700  1.00  0.00     0.012 C 
ATOM     18  C   UNL     1      32.142   3.477  19.136  1.00  0.00     0.000 C 
ATOM     19  C   UNL     1      34.052   3.746  20.794  1.00  0.00     0.005 C 
ATOM     20  C   UNL     1      33.519   2.934  19.571  1.00  0.00     0.003 C 
ATOM     21  C   UNL     1      31.095   3.181  20.235  1.00  0.00     0.031 C 
ATOM     22  C   UNL     1      33.487   1.371  19.804  1.00  0.00    -0.008 C 
ATOM     23  C   UNL     1      31.135   1.740  20.673  1.00  0.00    -0.027 C 
ATOM     24  C   UNL     1      32.208   0.927  20.518  1.00  0.00    -0.065 C 
ATOM     25  C   UNL     1      33.529   0.632  18.428  1.00  0.00     0.014 C 
ATOM     26  C   UNL     1      34.737   0.935  20.625  1.00  0.00     0.016 C 
ATOM     27  C   UNL     1      32.013  -0.562  20.699  1.00  0.00     0.063 C 
ATOM     28  C   UNL     1      33.281  -0.890  18.522  1.00  0.00     0.033 C 
ATOM     29  C   UNL     1      32.008  -1.238  19.319  1.00  0.00     0.118 C 
BRANCH  29  30
ATOM     30  O   UNL     1      30.876  -0.838  18.586  1.00  0.00    -0.393 OA
ATOM     31  H   UNL     1      30.864  -1.382  17.755  1.00  0.00     0.210 HD
ENDBRANCH  29  30
ENDBRANCH   9  11
ENDBRANCH   1   9
TORSDOF 7
ENDMDL
MODEL 3
REMARK VINA RESULT:    -3.794      1.660      3.768
REMARK INTER + INTRA:          -7.451
REMARK INTER:                  -5.983
REMARK INTRA:                  -1.468
REMARK UNBOUND:                -2.216
REMARK SMILES CC[C@@H](CC[C@@H](C)[C@@H]1CC[C@@H]2[C@@H]3CC=C4C[C@@H](O)CC[C@@]4(C)[C@@H]3CC[C@@]21C)C(C)C
REMARK SMILES IDX 5 1 4 2 3 3 2 4 1 5 28 6 29 7 30 8 6 9 7 10 8 11 9 12 26 13
REMARK SMILES IDX 10 14 11 15 25 16 27 17 12 18 24 19 23 20 13 21 21 22 14 23
REMARK SMILES IDX 15 24 20 25 22 26 16 27 19 28 17 29 18 30
REMARK H PARENT 18 31
REMARK Flexibility Score: inf
ROOT
ATOM      1  C   UNL     1      33.632   9.547  20.118  1.00  0.00     0.004 C 
ENDROOT
BRANCH   1   2
ATOM      2  C   UNL     1      33.182   9.454  21.588  1.00  0.00     0.004 C 
BRANCH   2   3
ATOM      3  C   UNL     1      33.937  10.478  22.495  1.00  0.00    -0.009 C 
BRANCH   3   4
ATOM      4  C   UNL     1      33.051  11.731  22.740  1.00  0.00     0.000 C 
ATOM      5  C   UNL     1      31.637  11.404  23.228  1.00  0.00     0.004 C 
ENDBRANCH   3   4
BRANCH   3   6
ATOM      6  C   UNL     1      35.368  10.830  21.968  1.00  0.00    -0.014 C 
ATOM      7  C   UNL     1      35.908  12.125  22.597  1.00  0.00     0.007 C 
ATOM      8  C   UNL     1      36.396   9.693  22.120  1.00  0.00     0.007 C 
ENDBRANCH   3   6
ENDBRANCH   2   3
ENDBRANCH   1   2
BRANCH   1   9
ATOM      9  C   UNL     1      33.748   8.175  19.398  1.00  0.00    -0.011 C 
ATOM     10  C   UNL     1      34.824   8.233  18.291  1.00  0.00     0.008 C 
BRANCH   9  11
ATOM     11  C   UNL     1      33.983   7.035  20.459  1.00  0.00    -0.002 C 
ATOM     12  C   UNL     1      35.394   6.462  20.531  1.00  0.00     0.005 C 
ATOM     13  C   UNL     1      33.037   5.793  20.440  1.00  0.00    -0.026 C 
ATOM     14  C   UNL     1      35.257   5.283  21.474  1.00  0.00     0.005 C 
ATOM     15  C   UNL     1      33.843   4.713  21.246  1.00  0.00    -0.001 C 
ATOM     16  C   UNL     1      32.717   5.297  19.006  1.00  0.00     0.007 C 
ATOM     17  C   UNL     1      31.707   6.163  21.148  1.00  0.00     0.012 C 
ATOM     18  C   UNL     1      33.798   3.250  20.680  1.00  0.00     0.000 C 
ATOM     19  C   UNL     1      32.061   3.897  18.939  1.00  0.00     0.005 C 
ATOM     20  C   UNL     1      32.388   2.945  20.132  1.00  0.00     0.003 C 
ATOM     21  C   UNL     1      34.861   2.864  19.624  1.00  0.00     0.031 C 
ATOM     22  C   UNL     1      32.207   1.412  19.797  1.00  0.00    -0.008 C 
ATOM     23  C   UNL     1      34.640   1.473  19.089  1.00  0.00    -0.027 C 
ATOM     24  C   UNL     1      33.452   0.823  19.128  1.00  0.00    -0.065 C 
ATOM     25  C   UNL     1      31.967   0.608  21.116  1.00  0.00     0.014 C 
ATOM     26  C   UNL     1      30.964   1.215  18.879  1.00  0.00     0.016 C 
ATOM     27  C   UNL     1      33.438  -0.666  18.859  1.00  0.00     0.063 C 
ATOM     28  C   UNL     1      31.995  -0.926  20.934  1.00  0.00     0.033 C 
ATOM     29  C   UNL     1      33.254  -1.414  20.189  1.00  0.00     0.118 C 
BRANCH  29  30
ATOM     30  O   UNL     1      34.382  -1.232  21.010  1.00  0.00    -0.393 OA
ATOM     31  H   UNL     1      34.490  -0.252  21.136  1.00  0.00     0.210 HD
ENDBRANCH  29  30
ENDBRANCH   9  11
ENDBRANCH   1   9
TORSDOF 7
ENDMDL
MODEL 4
REMARK VINA RESULT:    -3.698      1.537      2.181
REMARK INTER + INTRA:          -7.318
REMARK INTER:                  -5.047
REMARK INTRA:                  -2.271
REMARK UNBOUND:                -2.216
REMARK SMILES CC[C@@H](CC[C@@H](C)[C@@H]1CC[C@@H]2[C@@H]3CC=C4C[C@@H](O)CC[C@@]4(C)[C@@H]3CC[C@@]21C)C(C)C
REMARK SMILES IDX 5 1 4 2 3 3 2 4 1 5 28 6 29 7 30 8 6 9 7 10 8 11 9 12 26 13
REMARK SMILES IDX 10 14 11 15 25 16 27 17 12 18 24 19 23 20 13 21 21 22 14 23
REMARK SMILES IDX 15 24 20 25 22 26 16 27 19 28 17 29 18 30
REMARK H PARENT 18 31
REMARK Flexibility Score: inf
ROOT
ATOM      1  C   UNL     1      36.890  10.476  20.984  1.00  0.00     0.004 C 
ENDROOT
BRANCH   1   2
ATOM      2  C   UNL     1      38.343  10.238  21.432  1.00  0.00     0.004 C 
BRANCH   2   3
ATOM      3  C   UNL     1      38.613   8.734  21.762  1.00  0.00    -0.009 C 
BRANCH   3   4
ATOM      4  C   UNL     1      39.071   8.583  23.238  1.00  0.00     0.000 C 
ATOM      5  C   UNL     1      38.087   7.805  24.116  1.00  0.00     0.004 C 
ENDBRANCH   3   4
BRANCH   3   6
ATOM      6  C   UNL     1      39.582   8.045  20.744  1.00  0.00    -0.014 C 
ATOM      7  C   UNL     1      39.274   6.547  20.583  1.00  0.00     0.007 C 
ATOM      8  C   UNL     1      39.642   8.729  19.364  1.00  0.00     0.007 C 
ENDBRANCH   3   6
ENDBRANCH   2   3
ENDBRANCH   1   2
BRANCH   1   9
ATOM      9  C   UNL     1      35.830   9.703  21.818  1.00  0.00    -0.011 C 
ATOM     10  C   UNL     1      35.217  10.620  22.899  1.00  0.00     0.008 C 
BRANCH   9  11
ATOM     11  C   UNL     1      34.767   9.052  20.854  1.00  0.00    -0.002 C 
ATOM     12  C   UNL     1      33.339   8.974  21.381  1.00  0.00     0.005 C 
ATOM     13  C   UNL     1      35.064   7.637  20.265  1.00  0.00    -0.026 C 
ATOM     14  C   UNL     1      32.615   8.141  20.342  1.00  0.00     0.005 C 
ATOM     15  C   UNL     1      33.650   7.134  19.801  1.00  0.00    -0.001 C 
ATOM     16  C   UNL     1      35.689   6.667  21.302  1.00  0.00     0.007 C 
ATOM     17  C   UNL     1      36.042   7.785  19.068  1.00  0.00     0.012 C 
ATOM     18  C   UNL     1      33.324   5.626  20.085  1.00  0.00     0.000 C 
ATOM     19  C   UNL     1      35.701   5.182  20.871  1.00  0.00     0.005 C 
ATOM     20  C   UNL     1      34.586   4.767  19.860  1.00  0.00     0.003 C 
ATOM     21  C   UNL     1      32.698   5.281  21.457  1.00  0.00     0.031 C 
ATOM     22  C   UNL     1      34.255   3.222  19.868  1.00  0.00    -0.008 C 
ATOM     23  C   UNL     1      32.534   3.794  21.640  1.00  0.00    -0.027 C 
ATOM     24  C   UNL     1      33.246   2.861  20.962  1.00  0.00    -0.065 C 
ATOM     25  C   UNL     1      33.621   2.811  18.500  1.00  0.00     0.014 C 
ATOM     26  C   UNL     1      35.566   2.403  20.059  1.00  0.00     0.016 C 
ATOM     27  C   UNL     1      32.767   1.426  20.998  1.00  0.00     0.063 C 
ATOM     28  C   UNL     1      33.055   1.374  18.474  1.00  0.00     0.033 C 
ATOM     29  C   UNL     1      32.105   1.086  19.653  1.00  0.00     0.118 C 
BRANCH  29  30
ATOM     30  O   UNL     1      30.922   1.830  19.492  1.00  0.00    -0.393 OA
ATOM     31  H   UNL     1      30.997   2.621  20.087  1.00  0.00     0.210 HD
ENDBRANCH  29  30
ENDBRANCH   9  11
ENDBRANCH   1   9
TORSDOF 7
ENDMDL
MODEL 5
REMARK VINA RESULT:    -3.608      3.981      6.052
REMARK INTER + INTRA:          -7.195
REMARK INTER:                  -5.592
REMARK INTRA:                  -1.603
REMARK UNBOUND:                -2.216
REMARK SMILES CC[C@@H](CC[C@@H](C)[C@@H]1CC[C@@H]2[C@@H]3CC=C4C[C@@H](O)CC[C@@]4(C)[C@@H]3CC[C@@]21C)C(C)C
REMARK SMILES IDX 5 1 4 2 3 3 2 4 1 5 28 6 29 7 30 8 6 9 7 10 8 11 9 12 26 13
REMARK SMILES IDX 10 14 11 15 25 16 27 17 12 18 24 19 23 20 13 21 21 22 14 23
REMARK SMILES IDX 15 24 20 25 22 26 16 27 19 28 17 29 18 30
REMARK H PARENT 18 31
REMARK Flexibility Score: inf
ROOT
ATOM      1  C   UNL     1      35.823  10.980  21.648  1.00  0.00     0.004 C 
ENDROOT
BRANCH   1   2
ATOM      2  C   UNL     1      34.738  10.300  22.502  1.00  0.00     0.004 C 
BRANCH   2   3
ATOM      3  C   UNL     1      33.498   9.884  21.645  1.00  0.00    -0.009 C 
BRANCH   3   4
ATOM      4  C   UNL     1      33.636  10.437  20.200  1.00  0.00     0.000 C 
ATOM      5  C   UNL     1      33.570   9.358  19.116  1.00  0.00     0.004 C 
ENDBRANCH   3   4
BRANCH   3   6
ATOM      6  C   UNL     1      32.133  10.254  22.318  1.00  0.00    -0.014 C 
ATOM      7  C   UNL     1      31.238   9.019  22.512  1.00  0.00     0.007 C 
ATOM      8  C   UNL     1      32.270  11.029  23.643  1.00  0.00     0.007 C 
ENDBRANCH   3   6
ENDBRANCH   2   3
ENDBRANCH   1   2
BRANCH   1   9
ATOM      9  C   UNL     1      37.178  10.219  21.613  1.00  0.00    -0.011 C 
ATOM     10  C   UNL     1      38.336  11.154  22.025  1.00  0.00     0.008 C 
BRANCH   9  11
ATOM     11  C   UNL     1      37.074   8.908  22.481  1.00  0.00    -0.002 C 
ATOM     12  C   UNL     1      37.998   8.827  23.691  1.00  0.00     0.005 C 
ATOM     13  C   UNL     1      37.214   7.528  21.765  1.00  0.00    -0.026 C 
ATOM     14  C   UNL     1      37.814   7.408  24.191  1.00  0.00     0.005 C 
ATOM     15  C   UNL     1      37.550   6.544  22.941  1.00  0.00    -0.001 C 
ATOM     16  C   UNL     1      38.330   7.514  20.688  1.00  0.00     0.007 C 
ATOM     17  C   UNL     1      35.863   7.173  21.088  1.00  0.00     0.012 C 
ATOM     18  C   UNL     1      38.639   5.454  22.643  1.00  0.00     0.000 C 
ATOM     19  C   UNL     1      38.724   6.105  20.186  1.00  0.00     0.005 C 
ATOM     20  C   UNL     1      38.481   4.940  21.197  1.00  0.00     0.003 C 
ATOM     21  C   UNL     1      40.116   5.837  22.901  1.00  0.00     0.031 C 
ATOM     22  C   UNL     1      39.368   3.661  20.927  1.00  0.00    -0.008 C 
ATOM     23  C   UNL     1      41.060   4.742  22.475  1.00  0.00    -0.027 C 
ATOM     24  C   UNL     1      40.753   3.782  21.569  1.00  0.00    -0.065 C 
ATOM     25  C   UNL     1      38.681   2.401  21.546  1.00  0.00     0.014 C 
ATOM     26  C   UNL     1      39.508   3.430  19.393  1.00  0.00     0.016 C 
ATOM     27  C   UNL     1      41.655   2.572  21.471  1.00  0.00     0.063 C 
ATOM     28  C   UNL     1      39.563   1.132  21.537  1.00  0.00     0.033 C 
ATOM     29  C   UNL     1      40.961   1.374  22.140  1.00  0.00     0.118 C 
BRANCH  29  30
ATOM     30  O   UNL     1      40.840   1.593  23.524  1.00  0.00    -0.393 OA
ATOM     31  H   UNL     1      41.283   0.826  23.975  1.00  0.00     0.210 HD
ENDBRANCH  29  30
ENDBRANCH   9  11
ENDBRANCH   1   9
TORSDOF 7
ENDMDL
MODEL 6
REMARK VINA RESULT:    -3.590     11.802     15.084
REMARK INTER + INTRA:          -7.170
REMARK INTER:                  -5.166
REMARK INTRA:                  -2.003
REMARK UNBOUND:                -2.216
REMARK SMILES CC[C@@H](CC[C@@H](C)[C@@H]1CC[C@@H]2[C@@H]3CC=C4C[C@@H](O)CC[C@@]4(C)[C@@H]3CC[C@@]21C)C(C)C
REMARK SMILES IDX 5 1 4 2 3 3 2 4 1 5 28 6 29 7 30 8 6 9 7 10 8 11 9 12 26 13
REMARK SMILES IDX 10 14 11 15 25 16 27 17 12 18 24 19 23 20 13 21 21 22 14 23
REMARK SMILES IDX 15 24 20 25 22 26 16 27 19 28 17 29 18 30
REMARK H PARENT 18 31
REMARK Flexibility Score: inf
ROOT
ATOM      1  C   UNL     1      32.144   8.168   8.703  1.00  0.00     0.004 C 
ENDROOT
BRANCH   1   2
ATOM      2  C   UNL     1      31.559   6.777   8.399  1.00  0.00     0.004 C 
BRANCH   2   3
ATOM      3  C   UNL     1      32.660   5.773   7.923  1.00  0.00    -0.009 C 
BRANCH   3   4
ATOM      4  C   UNL     1      32.305   5.217   6.517  1.00  0.00     0.000 C 
ATOM      5  C   UNL     1      33.178   5.776   5.391  1.00  0.00     0.004 C 
ENDBRANCH   3   4
BRANCH   3   6
ATOM      6  C   UNL     1      32.963   4.651   8.971  1.00  0.00    -0.014 C 
ATOM      7  C   UNL     1      34.246   3.877   8.627  1.00  0.00     0.007 C 
ATOM      8  C   UNL     1      33.011   5.143  10.431  1.00  0.00     0.007 C 
ENDBRANCH   3   6
ENDBRANCH   2   3
ENDBRANCH   1   2
BRANCH   1   9
ATOM      9  C   UNL     1      33.235   8.636   7.700  1.00  0.00    -0.011 C 
ATOM     10  C   UNL     1      32.653   9.663   6.705  1.00  0.00     0.008 C 
BRANCH   9  11
ATOM     11  C   UNL     1      34.496   9.155   8.490  1.00  0.00    -0.002 C 
ATOM     12  C   UNL     1      34.768  10.653   8.414  1.00  0.00     0.005 C 
ATOM     13  C   UNL     1      35.875   8.474   8.222  1.00  0.00    -0.026 C 
ATOM     14  C   UNL     1      36.118  10.810   9.086  1.00  0.00     0.005 C 
ATOM     15  C   UNL     1      36.908   9.525   8.764  1.00  0.00    -0.001 C 
ATOM     16  C   UNL     1      36.121   8.173   6.720  1.00  0.00     0.007 C 
ATOM     17  C   UNL     1      35.941   7.142   9.015  1.00  0.00     0.012 C 
ATOM     18  C   UNL     1      38.200   9.737   7.900  1.00  0.00     0.000 C 
ATOM     19  C   UNL     1      37.581   7.805   6.367  1.00  0.00     0.005 C 
ATOM     20  C   UNL     1      38.670   8.385   7.323  1.00  0.00     0.003 C 
ATOM     21  C   UNL     1      38.133  10.790   6.768  1.00  0.00     0.031 C 
ATOM     22  C   UNL     1      40.105   8.491   6.672  1.00  0.00    -0.008 C 
ATOM     23  C   UNL     1      39.399  10.817   5.952  1.00  0.00    -0.027 C 
ATOM     24  C   UNL     1      40.275   9.785   5.872  1.00  0.00    -0.065 C 
ATOM     25  C   UNL     1      41.195   8.494   7.792  1.00  0.00     0.014 C 
ATOM     26  C   UNL     1      40.361   7.258   5.754  1.00  0.00     0.016 C 
ATOM     27  C   UNL     1      41.646  10.050   5.291  1.00  0.00     0.063 C 
ATOM     28  C   UNL     1      42.619   8.815   7.287  1.00  0.00     0.033 C 
ATOM     29  C   UNL     1      42.673  10.098   6.434  1.00  0.00     0.118 C 
BRANCH  29  30
ATOM     30  O   UNL     1      42.435  11.215   7.255  1.00  0.00    -0.393 OA
ATOM     31  H   UNL     1      42.775  12.009   6.766  1.00  0.00     0.210 HD
ENDBRANCH  29  30
ENDBRANCH   9  11
ENDBRANCH   1   9
TORSDOF 7
ENDMDL
MODEL 7
REMARK VINA RESULT:    -3.567      2.267      4.849
REMARK INTER + INTRA:          -7.138
REMARK INTER:                  -5.265
REMARK INTRA:                  -1.874
REMARK UNBOUND:                -2.216
REMARK SMILES CC[C@@H](CC[C@@H](C)[C@@H]1CC[C@@H]2[C@@H]3CC=C4C[C@@H](O)CC[C@@]4(C)[C@@H]3CC[C@@]21C)C(C)C
REMARK SMILES IDX 5 1 4 2 3 3 2 4 1 5 28 6 29 7 30 8 6 9 7 10 8 11 9 12 26 13
REMARK SMILES IDX 10 14 11 15 25 16 27 17 12 18 24 19 23 20 13 21 21 22 14 23
REMARK SMILES IDX 15 24 20 25 22 26 16 27 19 28 17 29 18 30
REMARK H PARENT 18 31
REMARK Flexibility Score: inf
ROOT
ATOM      1  C   UNL     1      31.364   7.578  20.749  1.00  0.00     0.004 C 
ENDROOT
BRANCH   1   2
ATOM      2  C   UNL     1      32.599   8.054  21.538  1.00  0.00     0.004 C 
BRANCH   2   3
ATOM      3  C   UNL     1      33.105   9.448  21.043  1.00  0.00    -0.009 C 
BRANCH   3   4
ATOM      4  C   UNL     1      34.524   9.314  20.428  1.00  0.00     0.000 C 
ATOM      5  C   UNL     1      35.470   8.426  21.239  1.00  0.00     0.004 C 
ENDBRANCH   3   4
BRANCH   3   6
ATOM      6  C   UNL     1      33.012  10.561  22.140  1.00  0.00    -0.014 C 
ATOM      7  C   UNL     1      32.835  11.959  21.524  1.00  0.00     0.007 C 
ATOM      8  C   UNL     1      31.931  10.307  23.210  1.00  0.00     0.007 C 
ENDBRANCH   3   6
ENDBRANCH   2   3
ENDBRANCH   1   2
BRANCH   1   9
ATOM      9  C   UNL     1      31.655   6.434  19.739  1.00  0.00    -0.011 C 
ATOM     10  C   UNL     1      31.455   6.928  18.289  1.00  0.00     0.008 C 
BRANCH   9  11
ATOM     11  C   UNL     1      33.083   5.829  20.016  1.00  0.00    -0.002 C 
ATOM     12  C   UNL     1      34.082   5.905  18.866  1.00  0.00     0.005 C 
ATOM     13  C   UNL     1      33.182   4.365  20.548  1.00  0.00    -0.026 C 
ATOM     14  C   UNL     1      35.260   5.087  19.356  1.00  0.00     0.005 C 
ATOM     15  C   UNL     1      34.668   3.966  20.234  1.00  0.00    -0.001 C 
ATOM     16  C   UNL     1      32.185   3.400  19.854  1.00  0.00     0.007 C 
ATOM     17  C   UNL     1      32.897   4.363  22.073  1.00  0.00     0.012 C 
ATOM     18  C   UNL     1      34.895   2.509  19.696  1.00  0.00     0.000 C 
ATOM     19  C   UNL     1      32.460   1.898  20.105  1.00  0.00     0.005 C 
ATOM     20  C   UNL     1      33.945   1.532  20.420  1.00  0.00     0.003 C 
ATOM     21  C   UNL     1      34.798   2.293  18.167  1.00  0.00     0.031 C 
ATOM     22  C   UNL     1      34.311   0.024  20.118  1.00  0.00    -0.008 C 
ATOM     23  C   UNL     1      34.931   0.838  17.798  1.00  0.00    -0.027 C 
ATOM     24  C   UNL     1      34.684  -0.188  18.648  1.00  0.00    -0.065 C 
ATOM     25  C   UNL     1      35.547  -0.400  20.974  1.00  0.00     0.014 C 
ATOM     26  C   UNL     1      33.115  -0.897  20.504  1.00  0.00     0.016 C 
ATOM     27  C   UNL     1      35.159  -1.572  18.261  1.00  0.00     0.063 C 
ATOM     28  C   UNL     1      36.129  -1.782  20.600  1.00  0.00     0.033 C 
ATOM     29  C   UNL     1      36.405  -1.922  19.090  1.00  0.00     0.118 C 
BRANCH  29  30
ATOM     30  O   UNL     1      37.479  -1.087  18.733  1.00  0.00    -0.393 OA
ATOM     31  H   UNL     1      38.185  -1.673  18.353  1.00  0.00     0.210 HD
ENDBRANCH  29  30
ENDBRANCH   9  11
ENDBRANCH   1   9
TORSDOF 7
ENDMDL
MODEL 8
REMARK VINA RESULT:    -3.554      2.468      7.769
REMARK INTER + INTRA:          -7.120
REMARK INTER:                  -4.820
REMARK INTRA:                  -2.300
REMARK UNBOUND:                -2.216
REMARK SMILES CC[C@@H](CC[C@@H](C)[C@@H]1CC[C@@H]2[C@@H]3CC=C4C[C@@H](O)CC[C@@]4(C)[C@@H]3CC[C@@]21C)C(C)C
REMARK SMILES IDX 5 1 4 2 3 3 2 4 1 5 28 6 29 7 30 8 6 9 7 10 8 11 9 12 26 13
REMARK SMILES IDX 10 14 11 15 25 16 27 17 12 18 24 19 23 20 13 21 21 22 14 23
REMARK SMILES IDX 15 24 20 25 22 26 16 27 19 28 17 29 18 30
REMARK H PARENT 18 31
REMARK Flexibility Score: inf
ROOT
ATOM      1  C   UNL     1      32.794   2.637  17.337  1.00  0.00     0.004 C 
ENDROOT
BRANCH   1   2
ATOM      2  C   UNL     1      34.139   2.165  17.920  1.00  0.00     0.004 C 
BRANCH   2   3
ATOM      3  C   UNL     1      33.948   1.044  18.993  1.00  0.00    -0.009 C 
BRANCH   3   4
ATOM      4  C   UNL     1      32.439   0.861  19.314  1.00  0.00     0.000 C 
ATOM      5  C   UNL     1      32.118   0.874  20.811  1.00  0.00     0.004 C 
ENDBRANCH   3   4
BRANCH   3   6
ATOM      6  C   UNL     1      34.827   1.259  20.271  1.00  0.00    -0.014 C 
ATOM      7  C   UNL     1      35.645   0.005  20.621  1.00  0.00     0.007 C 
ATOM      8  C   UNL     1      35.745   2.496  20.207  1.00  0.00     0.007 C 
ENDBRANCH   3   6
ENDBRANCH   2   3
ENDBRANCH   1   2
BRANCH   1   9
ATOM      9  C   UNL     1      32.426   4.105  17.689  1.00  0.00    -0.011 C 
ATOM     10  C   UNL     1      30.893   4.274  17.777  1.00  0.00     0.008 C 
BRANCH   9  11
ATOM     11  C   UNL     1      33.194   4.549  18.991  1.00  0.00    -0.002 C 
ATOM     12  C   UNL     1      32.387   4.540  20.285  1.00  0.00     0.005 C 
ATOM     13  C   UNL     1      33.942   5.919  18.985  1.00  0.00    -0.026 C 
ATOM     14  C   UNL     1      33.315   5.188  21.293  1.00  0.00     0.005 C 
ATOM     15  C   UNL     1      34.138   6.231  20.511  1.00  0.00    -0.001 C 
ATOM     16  C   UNL     1      33.139   7.045  18.282  1.00  0.00     0.007 C 
ATOM     17  C   UNL     1      35.301   5.746  18.255  1.00  0.00     0.012 C 
ATOM     18  C   UNL     1      33.912   7.721  20.948  1.00  0.00     0.000 C 
ATOM     19  C   UNL     1      33.680   8.473  18.530  1.00  0.00     0.005 C 
ATOM     20  C   UNL     1      34.464   8.672  19.865  1.00  0.00     0.003 C 
ATOM     21  C   UNL     1      32.471   8.141  21.324  1.00  0.00     0.031 C 
ATOM     22  C   UNL     1      34.509  10.170  20.366  1.00  0.00    -0.008 C 
ATOM     23  C   UNL     1      32.377   9.615  21.620  1.00  0.00    -0.027 C 
ATOM     24  C   UNL     1      33.260  10.540  21.171  1.00  0.00    -0.065 C 
ATOM     25  C   UNL     1      35.741  10.376  21.303  1.00  0.00     0.014 C 
ATOM     26  C   UNL     1      34.662  11.129  19.148  1.00  0.00     0.016 C 
ATOM     27  C   UNL     1      33.238  11.917  21.796  1.00  0.00     0.063 C 
ATOM     28  C   UNL     1      35.762  11.742  22.026  1.00  0.00     0.033 C 
ATOM     29  C   UNL     1      34.437  12.053  22.749  1.00  0.00     0.118 C 
BRANCH  29  30
ATOM     30  O   UNL     1      34.288  11.185  23.845  1.00  0.00    -0.393 OA
ATOM     31  H   UNL     1      35.152  10.707  23.953  1.00  0.00     0.210 HD
ENDBRANCH  29  30
ENDBRANCH   9  11
ENDBRANCH   1   9
TORSDOF 7
ENDMDL
MODEL 9
REMARK VINA RESULT:    -3.496      3.909      5.712
REMARK INTER + INTRA:          -7.039
REMARK INTER:                  -5.050
REMARK INTRA:                  -1.990
REMARK UNBOUND:                -2.216
REMARK SMILES CC[C@@H](CC[C@@H](C)[C@@H]1CC[C@@H]2[C@@H]3CC=C4C[C@@H](O)CC[C@@]4(C)[C@@H]3CC[C@@]21C)C(C)C
REMARK SMILES IDX 5 1 4 2 3 3 2 4 1 5 28 6 29 7 30 8 6 9 7 10 8 11 9 12 26 13
REMARK SMILES IDX 10 14 11 15 25 16 27 17 12 18 24 19 23 20 13 21 21 22 14 23
REMARK SMILES IDX 15 24 20 25 22 26 16 27 19 28 17 29 18 30
REMARK H PARENT 18 31
REMARK Flexibility Score: inf
ROOT
ATOM      1  C   UNL     1      33.653   9.647  19.797  1.00  0.00     0.004 C 
ENDROOT
BRANCH   1   2
ATOM      2  C   UNL     1      33.434  10.822  20.767  1.00  0.00     0.004 C 
BRANCH   2   3
ATOM      3  C   UNL     1      33.948  10.493  22.207  1.00  0.00    -0.009 C 
BRANCH   3   4
ATOM      4  C   UNL     1      32.791  10.633  23.233  1.00  0.00     0.000 C 
ATOM      5  C   UNL     1      31.528   9.857  22.852  1.00  0.00     0.004 C 
ENDBRANCH   3   4
BRANCH   3   6
ATOM      6  C   UNL     1      35.226  11.306  22.605  1.00  0.00    -0.014 C 
ATOM      7  C   UNL     1      36.293  10.412  23.258  1.00  0.00     0.007 C 
ATOM      8  C   UNL     1      35.844  12.119  21.451  1.00  0.00     0.007 C 
ENDBRANCH   3   6
ENDBRANCH   2   3
ENDBRANCH   1   2
BRANCH   1   9
ATOM      9  C   UNL     1      34.128   8.335  20.481  1.00  0.00    -0.011 C 
ATOM     10  C   UNL     1      32.936   7.380  20.711  1.00  0.00     0.008 C 
BRANCH   9  11
ATOM     11  C   UNL     1      35.306   7.698  19.649  1.00  0.00    -0.002 C 
ATOM     12  C   UNL     1      35.015   6.353  18.992  1.00  0.00     0.005 C 
ATOM     13  C   UNL     1      36.696   7.525  20.337  1.00  0.00    -0.026 C 
ATOM     14  C   UNL     1      36.362   5.917  18.450  1.00  0.00     0.005 C 
ATOM     15  C   UNL     1      37.417   6.461  19.434  1.00  0.00    -0.001 C 
ATOM     16  C   UNL     1      36.589   7.033  21.804  1.00  0.00     0.007 C 
ATOM     17  C   UNL     1      37.438   8.888  20.322  1.00  0.00     0.012 C 
ATOM     18  C   UNL     1      38.254   5.368  20.186  1.00  0.00     0.000 C 
ATOM     19  C   UNL     1      37.921   6.541  22.418  1.00  0.00     0.005 C 
ATOM     20  C   UNL     1      38.971   6.000  21.397  1.00  0.00     0.003 C 
ATOM     21  C   UNL     1      37.509   4.087  20.633  1.00  0.00     0.031 C 
ATOM     22  C   UNL     1      40.034   5.016  22.029  1.00  0.00    -0.008 C 
ATOM     23  C   UNL     1      38.401   3.172  21.432  1.00  0.00    -0.027 C 
ATOM     24  C   UNL     1      39.514   3.577  22.090  1.00  0.00    -0.065 C 
ATOM     25  C   UNL     1      41.328   5.003  21.154  1.00  0.00     0.014 C 
ATOM     26  C   UNL     1      40.421   5.505  23.457  1.00  0.00     0.016 C 
ATOM     27  C   UNL     1      40.485   2.524  22.577  1.00  0.00     0.063 C 
ATOM     28  C   UNL     1      42.349   3.914  21.553  1.00  0.00     0.033 C 
ATOM     29  C   UNL     1      41.714   2.513  21.655  1.00  0.00     0.118 C 
BRANCH  29  30
ATOM     30  O   UNL     1      41.354   2.069  20.370  1.00  0.00    -0.393 OA
ATOM     31  H   UNL     1      41.769   2.697  19.722  1.00  0.00     0.210 HD
ENDBRANCH  29  30
ENDBRANCH   9  11
ENDBRANCH   1   9
TORSDOF 7
ENDMDL
