MODEL 1
REMARK VINA RESULT:    -3.752      0.000      0.000
REMARK INTER + INTRA:          -3.971
REMARK INTER:                  -3.971
REMARK INTRA:                   0.000
REMARK UNBOUND:                 0.000
REMARK SMILES Cc1cc(O)c(C)c(C)c1O
REMARK SMILES IDX 1 1 2 2 3 3 4 4 6 5 8 6 10 7 9 8 7 9 11 10 5 12
REMARK H PARENT 11 11 5 13
REMARK Flexibility Score: inf
ROOT
ATOM      1  C   UNL     1     -17.969  43.116  20.393  1.00  0.00     0.048 C 
ATOM      2  C   UNL     1     -19.046  42.249  20.988  1.00  0.00    -0.005 A 
ATOM      3  C   UNL     1     -20.225  42.032  20.267  1.00  0.00     0.053 A 
ATOM      4  C   UNL     1     -21.252  41.244  20.782  1.00  0.00     0.119 A 
ATOM      5  C   UNL     1     -21.126  40.665  22.067  1.00  0.00    -0.003 A 
ATOM      6  C   UNL     1     -19.907  40.824  22.782  1.00  0.00    -0.002 A 
ATOM      7  C   UNL     1     -18.882  41.639  22.249  1.00  0.00     0.121 A 
ATOM      8  C   UNL     1     -19.703  40.154  24.123  1.00  0.00     0.049 C 
ATOM      9  C   UNL     1     -22.280  39.865  22.632  1.00  0.00     0.049 C 
ENDROOT
BRANCH   7  10
ATOM     10  O   UNL     1     -17.709  41.832  22.989  1.00  0.00    -0.507 OA
ATOM     11  H   UNL     1     -16.960  42.445  22.699  1.00  0.00     0.293 HD
ENDBRANCH   7  10
BRANCH   4  12
ATOM     12  O   UNL     1     -22.384  41.053  19.985  1.00  0.00    -0.508 OA
ATOM     13  H   UNL     1     -22.390  41.178  18.981  1.00  0.00     0.293 HD
ENDBRANCH   4  12
TORSDOF 2
ENDMDL
MODEL 2
REMARK VINA RESULT:    -3.485     10.756     11.888
REMARK INTER + INTRA:          -3.689
REMARK INTER:                  -3.689
REMARK INTRA:                   0.000
REMARK UNBOUND:                 0.000
REMARK SMILES Cc1cc(O)c(C)c(C)c1O
REMARK SMILES IDX 1 1 2 2 3 3 4 4 6 5 8 6 10 7 9 8 7 9 11 10 5 12
REMARK H PARENT 11 11 5 13
REMARK Flexibility Score: inf
ROOT
ATOM      1  C   UNL     1     -18.327  28.869  21.504  1.00  0.00     0.048 C 
ATOM      2  C   UNL     1     -19.735  29.230  21.116  1.00  0.00    -0.005 A 
ATOM      3  C   UNL     1     -20.406  28.446  20.172  1.00  0.00     0.053 A 
ATOM      4  C   UNL     1     -21.707  28.748  19.775  1.00  0.00     0.119 A 
ATOM      5  C   UNL     1     -22.368  29.879  20.310  1.00  0.00    -0.003 A 
ATOM      6  C   UNL     1     -21.722  30.647  21.318  1.00  0.00    -0.002 A 
ATOM      7  C   UNL     1     -20.396  30.333  21.697  1.00  0.00     0.121 A 
ATOM      8  C   UNL     1     -22.426  31.815  21.973  1.00  0.00     0.049 C 
ATOM      9  C   UNL     1     -23.757  30.224  19.818  1.00  0.00     0.049 C 
ENDROOT
BRANCH   7  10
ATOM     10  O   UNL     1     -19.752  31.131  22.651  1.00  0.00    -0.507 OA
ATOM     11  H   UNL     1     -20.090  32.038  22.940  1.00  0.00     0.293 HD
ENDBRANCH   7  10
BRANCH   4  12
ATOM     12  O   UNL     1     -22.317  27.896  18.849  1.00  0.00    -0.508 OA
ATOM     13  H   UNL     1     -21.909  27.658  17.955  1.00  0.00     0.293 HD
ENDBRANCH   4  12
TORSDOF 2
ENDMDL
MODEL 3
REMARK VINA RESULT:    -3.466     11.084     12.208
REMARK INTER + INTRA:          -3.668
REMARK INTER:                  -3.668
REMARK INTRA:                   0.000
REMARK UNBOUND:                 0.000
REMARK SMILES Cc1cc(O)c(C)c(C)c1O
REMARK SMILES IDX 1 1 2 2 3 3 4 4 6 5 8 6 10 7 9 8 7 9 11 10 5 12
REMARK H PARENT 11 11 5 13
REMARK Flexibility Score: inf
ROOT
ATOM      1  C   UNL     1     -22.538  31.956  21.589  1.00  0.00     0.048 C 
ATOM      2  C   UNL     1     -21.873  30.688  21.125  1.00  0.00    -0.005 A 
ATOM      3  C   UNL     1     -22.549  29.850  20.231  1.00  0.00     0.053 A 
ATOM      4  C   UNL     1     -21.977  28.662  19.783  1.00  0.00     0.119 A 
ATOM      5  C   UNL     1     -20.699  28.269  20.247  1.00  0.00    -0.003 A 
ATOM      6  C   UNL     1     -19.975  29.143  21.104  1.00  0.00    -0.002 A 
ATOM      7  C   UNL     1     -20.578  30.337  21.561  1.00  0.00     0.121 A 
ATOM      8  C   UNL     1     -18.574  28.797  21.558  1.00  0.00     0.049 C 
ATOM      9  C   UNL     1     -20.124  26.944  19.794  1.00  0.00     0.049 C 
ENDROOT
BRANCH   7  10
ATOM     10  O   UNL     1     -19.875  31.161  22.448  1.00  0.00    -0.507 OA
ATOM     11  H   UNL     1     -20.304  31.913  22.970  1.00  0.00     0.293 HD
ENDBRANCH   7  10
BRANCH   4  12
ATOM     12  O   UNL     1     -22.706  27.896  18.867  1.00  0.00    -0.508 OA
ATOM     13  H   UNL     1     -23.152  27.019  19.101  1.00  0.00     0.293 HD
ENDBRANCH   4  12
TORSDOF 2
ENDMDL
MODEL 4
REMARK VINA RESULT:    -3.456     13.320     14.609
REMARK INTER + INTRA:          -3.658
REMARK INTER:                  -3.658
REMARK INTRA:                   0.000
REMARK UNBOUND:                 0.000
REMARK SMILES Cc1cc(O)c(C)c(C)c1O
REMARK SMILES IDX 1 1 2 2 3 3 4 4 6 5 8 6 10 7 9 8 7 9 11 10 5 12
REMARK H PARENT 11 11 5 13
REMARK Flexibility Score: inf
ROOT
ATOM      1  C   UNL     1     -20.537  25.008  19.490  1.00  0.00     0.048 C 
ATOM      2  C   UNL     1     -19.849  26.088  20.281  1.00  0.00    -0.005 A 
ATOM      3  C   UNL     1     -18.848  25.736  21.192  1.00  0.00     0.053 A 
ATOM      4  C   UNL     1     -18.192  26.701  21.953  1.00  0.00     0.119 A 
ATOM      5  C   UNL     1     -18.547  28.065  21.830  1.00  0.00    -0.003 A 
ATOM      6  C   UNL     1     -19.517  28.443  20.861  1.00  0.00    -0.002 A 
ATOM      7  C   UNL     1     -20.183  27.448  20.109  1.00  0.00     0.121 A 
ATOM      8  C   UNL     1     -19.867  29.899  20.642  1.00  0.00     0.049 C 
ATOM      9  C   UNL     1     -17.864  29.088  22.711  1.00  0.00     0.049 C 
ENDROOT
BRANCH   7  10
ATOM     10  O   UNL     1     -21.175  27.830  19.198  1.00  0.00    -0.507 OA
ATOM     11  H   UNL     1     -21.858  28.551  19.386  1.00  0.00     0.293 HD
ENDBRANCH   7  10
BRANCH   4  12
ATOM     12  O   UNL     1     -17.183  26.268  22.819  1.00  0.00    -0.508 OA
ATOM     13  H   UNL     1     -16.721  25.371  22.737  1.00  0.00     0.293 HD
ENDBRANCH   4  12
TORSDOF 2
ENDMDL
MODEL 5
REMARK VINA RESULT:    -3.441     11.119     12.602
REMARK INTER + INTRA:          -3.642
REMARK INTER:                  -3.642
REMARK INTRA:                   0.000
REMARK UNBOUND:                 0.000
REMARK SMILES Cc1cc(O)c(C)c(C)c1O
REMARK SMILES IDX 1 1 2 2 3 3 4 4 6 5 8 6 10 7 9 8 7 9 11 10 5 12
REMARK H PARENT 11 11 5 13
REMARK Flexibility Score: inf
ROOT
ATOM      1  C   UNL     1     -23.893  30.470  19.978  1.00  0.00     0.048 C 
ATOM      2  C   UNL     1     -22.520  30.012  20.390  1.00  0.00    -0.005 A 
ATOM      3  C   UNL     1     -21.789  30.781  21.303  1.00  0.00     0.053 A 
ATOM      4  C   UNL     1     -20.511  30.401  21.706  1.00  0.00     0.119 A 
ATOM      5  C   UNL     1     -19.916  29.233  21.174  1.00  0.00    -0.003 A 
ATOM      6  C   UNL     1     -20.673  28.409  20.296  1.00  0.00    -0.002 A 
ATOM      7  C   UNL     1     -21.963  28.818  19.887  1.00  0.00     0.121 A 
ATOM      8  C   UNL     1     -20.103  27.110  19.769  1.00  0.00     0.049 C 
ATOM      9  C   UNL     1     -18.503  28.874  21.578  1.00  0.00     0.049 C 
ENDROOT
BRANCH   7  10
ATOM     10  O   UNL     1     -22.675  28.025  18.979  1.00  0.00    -0.507 OA
ATOM     11  H   UNL     1     -23.684  28.004  18.928  1.00  0.00     0.293 HD
ENDBRANCH   7  10
BRANCH   4  12
ATOM     12  O   UNL     1     -19.861  31.209  22.644  1.00  0.00    -0.508 OA
ATOM     13  H   UNL     1     -18.871  31.147  22.847  1.00  0.00     0.293 HD
ENDBRANCH   4  12
TORSDOF 2
ENDMDL
MODEL 6
REMARK VINA RESULT:    -3.428     13.357     14.329
REMARK INTER + INTRA:          -3.628
REMARK INTER:                  -3.628
REMARK INTRA:                   0.000
REMARK UNBOUND:                 0.000
REMARK SMILES Cc1cc(O)c(C)c(C)c1O
REMARK SMILES IDX 1 1 2 2 3 3 4 4 6 5 8 6 10 7 9 8 7 9 11 10 5 12
REMARK H PARENT 11 11 5 13
REMARK Flexibility Score: inf
ROOT
ATOM      1  C   UNL     1     -18.657  24.298  21.067  1.00  0.00     0.048 C 
ATOM      2  C   UNL     1     -18.989  25.764  21.003  1.00  0.00    -0.005 A 
ATOM      3  C   UNL     1     -19.983  26.202  20.121  1.00  0.00     0.053 A 
ATOM      4  C   UNL     1     -20.317  27.550  20.021  1.00  0.00     0.119 A 
ATOM      5  C   UNL     1     -19.633  28.511  20.803  1.00  0.00    -0.003 A 
ATOM      6  C   UNL     1     -18.667  28.073  21.750  1.00  0.00    -0.002 A 
ATOM      7  C   UNL     1     -18.330  26.702  21.826  1.00  0.00     0.121 A 
ATOM      8  C   UNL     1     -17.972  29.061  22.661  1.00  0.00     0.049 C 
ATOM      9  C   UNL     1     -19.970  29.977  20.632  1.00  0.00     0.049 C 
ENDROOT
BRANCH   7  10
ATOM     10  O   UNL     1     -17.338  26.292  22.724  1.00  0.00    -0.507 OA
ATOM     11  H   UNL     1     -17.440  25.501  23.346  1.00  0.00     0.293 HD
ENDBRANCH   7  10
BRANCH   4  12
ATOM     12  O   UNL     1     -21.342  27.900  19.137  1.00  0.00    -0.508 OA
ATOM     13  H   UNL     1     -21.774  28.815  19.114  1.00  0.00     0.293 HD
ENDBRANCH   4  12
TORSDOF 2
ENDMDL
MODEL 7
REMARK VINA RESULT:    -3.384     10.641     11.711
REMARK INTER + INTRA:          -3.581
REMARK INTER:                  -3.581
REMARK INTRA:                   0.000
REMARK UNBOUND:                 0.000
REMARK SMILES Cc1cc(O)c(C)c(C)c1O
REMARK SMILES IDX 1 1 2 2 3 3 4 4 6 5 8 6 10 7 9 8 7 9 11 10 5 12
REMARK H PARENT 11 11 5 13
REMARK Flexibility Score: inf
ROOT
ATOM      1  C   UNL     1     -20.349  28.328  19.734  1.00  0.00     0.048 C 
ATOM      2  C   UNL     1     -19.963  29.208  20.892  1.00  0.00    -0.005 A 
ATOM      3  C   UNL     1     -20.680  30.387  21.123  1.00  0.00     0.053 A 
ATOM      4  C   UNL     1     -20.352  31.237  22.177  1.00  0.00     0.119 A 
ATOM      5  C   UNL     1     -19.262  30.929  23.025  1.00  0.00    -0.003 A 
ATOM      6  C   UNL     1     -18.566  29.702  22.841  1.00  0.00    -0.002 A 
ATOM      7  C   UNL     1     -18.904  28.860  21.757  1.00  0.00     0.121 A 
ATOM      8  C   UNL     1     -17.447  29.298  23.776  1.00  0.00     0.049 C 
ATOM      9  C   UNL     1     -18.885  31.898  24.125  1.00  0.00     0.049 C 
ENDROOT
BRANCH   7  10
ATOM     10  O   UNL     1     -18.175  27.682  21.555  1.00  0.00    -0.507 OA
ATOM     11  H   UNL     1     -17.190  27.667  21.325  1.00  0.00     0.293 HD
ENDBRANCH   7  10
BRANCH   4  12
ATOM     12  O   UNL     1     -21.138  32.379  22.357  1.00  0.00    -0.508 OA
ATOM     13  H   UNL     1     -20.961  33.074  23.070  1.00  0.00     0.293 HD
ENDBRANCH   4  12
TORSDOF 2
ENDMDL
MODEL 8
REMARK VINA RESULT:    -3.355     11.302     12.812
REMARK INTER + INTRA:          -3.551
REMARK INTER:                  -3.551
REMARK INTRA:                   0.000
REMARK UNBOUND:                 0.000
REMARK SMILES Cc1cc(O)c(C)c(C)c1O
REMARK SMILES IDX 1 1 2 2 3 3 4 4 6 5 8 6 10 7 9 8 7 9 11 10 5 12
REMARK H PARENT 11 11 5 13
REMARK Flexibility Score: inf
ROOT
ATOM      1  C   UNL     1     -20.011  26.579  19.753  1.00  0.00     0.048 C 
ATOM      2  C   UNL     1     -20.590  27.899  20.186  1.00  0.00    -0.005 A 
ATOM      3  C   UNL     1     -19.841  28.732  21.025  1.00  0.00     0.053 A 
ATOM      4  C   UNL     1     -20.341  29.958  21.458  1.00  0.00     0.119 A 
ATOM      5  C   UNL     1     -21.638  30.372  21.072  1.00  0.00    -0.003 A 
ATOM      6  C   UNL     1     -22.383  29.566  20.168  1.00  0.00    -0.002 A 
ATOM      7  C   UNL     1     -21.865  28.318  19.751  1.00  0.00     0.121 A 
ATOM      8  C   UNL     1     -23.739  30.013  19.668  1.00  0.00     0.049 C 
ATOM      9  C   UNL     1     -22.184  31.679  21.606  1.00  0.00     0.049 C 
ENDROOT
BRANCH   7  10
ATOM     10  O   UNL     1     -22.632  27.509  18.905  1.00  0.00    -0.507 OA
ATOM     11  H   UNL     1     -22.928  26.573  19.145  1.00  0.00     0.293 HD
ENDBRANCH   7  10
BRANCH   4  12
ATOM     12  O   UNL     1     -19.517  30.743  22.270  1.00  0.00    -0.508 OA
ATOM     13  H   UNL     1     -19.859  31.304  23.039  1.00  0.00     0.293 HD
ENDBRANCH   4  12
TORSDOF 2
ENDMDL
MODEL 9
REMARK VINA RESULT:    -3.343     10.356     11.519
REMARK INTER + INTRA:          -3.538
REMARK INTER:                  -3.538
REMARK INTRA:                   0.000
REMARK UNBOUND:                 0.000
REMARK SMILES Cc1cc(O)c(C)c(C)c1O
REMARK SMILES IDX 1 1 2 2 3 3 4 4 6 5 8 6 10 7 9 8 7 9 11 10 5 12
REMARK H PARENT 11 11 5 13
REMARK Flexibility Score: inf
ROOT
ATOM      1  C   UNL     1     -16.907  29.234  24.125  1.00  0.00     0.048 C 
ATOM      2  C   UNL     1     -18.085  29.837  23.410  1.00  0.00    -0.005 A 
ATOM      3  C   UNL     1     -18.655  31.015  23.905  1.00  0.00     0.053 A 
ATOM      4  C   UNL     1     -19.753  31.604  23.281  1.00  0.00     0.119 A 
ATOM      5  C   UNL     1     -20.329  31.001  22.139  1.00  0.00    -0.003 A 
ATOM      6  C   UNL     1     -19.720  29.840  21.587  1.00  0.00    -0.002 A 
ATOM      7  C   UNL     1     -18.615  29.248  22.243  1.00  0.00     0.121 A 
ATOM      8  C   UNL     1     -20.257  29.211  20.320  1.00  0.00     0.049 C 
ATOM      9  C   UNL     1     -21.559  31.625  21.515  1.00  0.00     0.049 C 
ENDROOT
BRANCH   7  10
ATOM     10  O   UNL     1     -18.060  28.075  21.720  1.00  0.00    -0.507 OA
ATOM     11  H   UNL     1     -18.333  27.675  20.832  1.00  0.00     0.293 HD
ENDBRANCH   7  10
BRANCH   4  12
ATOM     12  O   UNL     1     -20.243  32.796  23.823  1.00  0.00    -0.508 OA
ATOM     13  H   UNL     1     -20.450  33.619  23.271  1.00  0.00     0.293 HD
ENDBRANCH   4  12
TORSDOF 2
ENDMDL
