MODEL 1
REMARK VINA RESULT:    -3.019      0.000      0.000
REMARK INTER + INTRA:          -4.325
REMARK INTER:                  -4.079
REMARK INTRA:                  -0.246
REMARK UNBOUND:                -0.246
REMARK SMILES CCCCCCCC(C)=O
REMARK SMILES IDX 5 1 4 2 3 3 2 4 1 5 6 6 7 7 8 8 10 9 9 10
REMARK H PARENT
REMARK Flexibility Score: inf
ROOT
ATOM      1  C   UNL     1      -6.690  22.224   9.999  1.00  0.00     0.000 C 
ENDROOT
BRANCH   1   2
ATOM      2  C   UNL     1      -6.262  22.493  11.453  1.00  0.00     0.000 C 
BRANCH   2   3
ATOM      3  C   UNL     1      -6.760  21.420  12.432  1.00  0.00    -0.000 C 
BRANCH   3   4
ATOM      4  C   UNL     1      -8.293  21.369  12.456  1.00  0.00    -0.003 C 
ATOM      5  C   UNL     1      -8.795  20.354  13.478  1.00  0.00     0.004 C 
ENDBRANCH   3   4
ENDBRANCH   2   3
ENDBRANCH   1   2
BRANCH   1   6
ATOM      6  C   UNL     1      -5.877  22.981   8.928  1.00  0.00     0.008 C 
BRANCH   6   7
ATOM      7  C   UNL     1      -4.970  24.088   9.486  1.00  0.00     0.075 C 
BRANCH   7   8
ATOM      8  C   UNL     1      -3.584  24.041   8.893  1.00  0.00     0.129 C 
ATOM      9  O   UNL     1      -2.627  24.381   9.572  1.00  0.00    -0.300 OA
ATOM     10  C   UNL     1      -3.352  23.575   7.487  1.00  0.00     0.087 C 
ENDBRANCH   7   8
ENDBRANCH   6   7
ENDBRANCH   1   6
TORSDOF 6
ENDMDL
MODEL 2
REMARK VINA RESULT:    -3.006      1.318      2.297
REMARK INTER + INTRA:          -4.306
REMARK INTER:                  -4.034
REMARK INTRA:                  -0.273
REMARK UNBOUND:                -0.246
REMARK SMILES CCCCCCCC(C)=O
REMARK SMILES IDX 5 1 4 2 3 3 2 4 1 5 6 6 7 7 8 8 10 9 9 10
REMARK H PARENT
REMARK Flexibility Score: inf
ROOT
ATOM      1  C   UNL     1      -6.721  21.490  12.398  1.00  0.00     0.000 C 
ENDROOT
BRANCH   1   2
ATOM      2  C   UNL     1      -8.194  21.601  12.832  1.00  0.00     0.000 C 
BRANCH   2   3
ATOM      3  C   UNL     1      -8.761  20.280  13.369  1.00  0.00    -0.000 C 
BRANCH   3   4
ATOM      4  C   UNL     1     -10.027  19.876  12.603  1.00  0.00    -0.003 C 
ATOM      5  C   UNL     1     -10.184  20.694  11.325  1.00  0.00     0.004 C 
ENDBRANCH   3   4
ENDBRANCH   2   3
ENDBRANCH   1   2
BRANCH   1   6
ATOM      6  C   UNL     1      -6.387  22.150  11.044  1.00  0.00     0.008 C 
BRANCH   6   7
ATOM      7  C   UNL     1      -5.757  23.547  11.159  1.00  0.00     0.075 C 
BRANCH   7   8
ATOM      8  C   UNL     1      -4.339  23.574  10.647  1.00  0.00     0.129 C 
ATOM      9  O   UNL     1      -3.425  23.247  11.389  1.00  0.00    -0.300 OA
ATOM     10  C   UNL     1      -4.023  23.987   9.240  1.00  0.00     0.087 C 
ENDBRANCH   7   8
ENDBRANCH   6   7
ENDBRANCH   1   6
TORSDOF 6
ENDMDL
MODEL 3
REMARK VINA RESULT:    -2.953      2.016      5.646
REMARK INTER + INTRA:          -4.235
REMARK INTER:                  -3.937
REMARK INTRA:                  -0.298
REMARK UNBOUND:                -0.246
REMARK SMILES CCCCCCCC(C)=O
REMARK SMILES IDX 5 1 4 2 3 3 2 4 1 5 6 6 7 7 8 8 10 9 9 10
REMARK H PARENT
REMARK Flexibility Score: inf
ROOT
ATOM      1  C   UNL     1      -6.688  22.253   8.867  1.00  0.00     0.000 C 
ENDROOT
BRANCH   1   2
ATOM      2  C   UNL     1      -5.816  23.119   7.940  1.00  0.00     0.000 C 
BRANCH   2   3
ATOM      3  C   UNL     1      -4.974  24.151   8.704  1.00  0.00    -0.000 C 
BRANCH   3   4
ATOM      4  C   UNL     1      -3.476  23.894   8.502  1.00  0.00    -0.003 C 
ATOM      5  C   UNL     1      -3.184  23.419   7.082  1.00  0.00     0.004 C 
ENDBRANCH   3   4
ENDBRANCH   2   3
ENDBRANCH   1   2
BRANCH   1   6
ATOM      6  C   UNL     1      -6.393  22.408  10.374  1.00  0.00     0.008 C 
BRANCH   6   7
ATOM      7  C   UNL     1      -7.614  22.200  11.283  1.00  0.00     0.075 C 
BRANCH   7   8
ATOM      8  C   UNL     1      -7.337  21.218  12.393  1.00  0.00     0.129 C 
ATOM      9  O   UNL     1      -6.203  20.790  12.548  1.00  0.00    -0.300 OA
ATOM     10  C   UNL     1      -8.422  20.758  13.320  1.00  0.00     0.087 C 
ENDBRANCH   7   8
ENDBRANCH   6   7
ENDBRANCH   1   6
TORSDOF 6
ENDMDL
MODEL 4
REMARK VINA RESULT:    -2.909      2.527      4.259
REMARK INTER + INTRA:          -4.176
REMARK INTER:                  -3.829
REMARK INTRA:                  -0.347
REMARK UNBOUND:                -0.246
REMARK SMILES CCCCCCCC(C)=O
REMARK SMILES IDX 5 1 4 2 3 3 2 4 1 5 6 6 7 7 8 8 10 9 9 10
REMARK H PARENT
REMARK Flexibility Score: inf
ROOT
ATOM      1  C   UNL     1      -8.777  20.549  13.770  1.00  0.00     0.000 C 
ENDROOT
BRANCH   1   2
ATOM      2  C   UNL     1      -9.079  21.447  14.983  1.00  0.00     0.000 C 
BRANCH   2   3
ATOM      3  C   UNL     1      -9.201  22.932  14.613  1.00  0.00    -0.000 C 
BRANCH   3   4
ATOM      4  C   UNL     1      -8.010  23.732  15.154  1.00  0.00    -0.003 C 
ATOM      5  C   UNL     1      -7.801  23.471  16.643  1.00  0.00     0.004 C 
ENDBRANCH   3   4
ENDBRANCH   2   3
ENDBRANCH   1   2
BRANCH   1   6
ATOM      6  C   UNL     1      -8.310  21.297  12.504  1.00  0.00     0.008 C 
BRANCH   6   7
ATOM      7  C   UNL     1      -6.784  21.363  12.333  1.00  0.00     0.075 C 
BRANCH   7   8
ATOM      8  C   UNL     1      -6.381  22.195  11.142  1.00  0.00     0.129 C 
ATOM      9  O   UNL     1      -5.304  22.772  11.148  1.00  0.00    -0.300 OA
ATOM     10  C   UNL     1      -7.270  22.323   9.941  1.00  0.00     0.087 C 
ENDBRANCH   7   8
ENDBRANCH   6   7
ENDBRANCH   1   6
TORSDOF 6
ENDMDL
MODEL 5
REMARK VINA RESULT:    -2.904      4.258      6.672
REMARK INTER + INTRA:          -4.169
REMARK INTER:                  -3.600
REMARK INTRA:                  -0.568
REMARK UNBOUND:                -0.246
REMARK SMILES CCCCCCCC(C)=O
REMARK SMILES IDX 5 1 4 2 3 3 2 4 1 5 6 6 7 7 8 8 10 9 9 10
REMARK H PARENT
REMARK Flexibility Score: inf
ROOT
ATOM      1  C   UNL     1      -9.917  22.528  14.708  1.00  0.00     0.000 C 
ENDROOT
BRANCH   1   2
ATOM      2  C   UNL     1      -9.022  21.292  14.904  1.00  0.00     0.000 C 
BRANCH   2   3
ATOM      3  C   UNL     1      -8.779  20.517  13.601  1.00  0.00    -0.000 C 
BRANCH   3   4
ATOM      4  C   UNL     1      -8.314  21.457  12.483  1.00  0.00    -0.003 C 
ATOM      5  C   UNL     1      -6.792  21.472  12.372  1.00  0.00     0.004 C 
ENDBRANCH   3   4
ENDBRANCH   2   3
ENDBRANCH   1   2
BRANCH   1   6
ATOM      6  C   UNL     1      -9.292  23.865  15.159  1.00  0.00     0.008 C 
BRANCH   6   7
ATOM      7  C   UNL     1      -7.790  23.789  15.474  1.00  0.00     0.075 C 
BRANCH   7   8
ATOM      8  C   UNL     1      -7.460  24.382  16.820  1.00  0.00     0.129 C 
ATOM      9  O   UNL     1      -6.598  25.243  16.904  1.00  0.00    -0.300 OA
ATOM     10  C   UNL     1      -8.176  23.945  18.064  1.00  0.00     0.087 C 
ENDBRANCH   7   8
ENDBRANCH   6   7
ENDBRANCH   1   6
TORSDOF 6
ENDMDL
MODEL 6
REMARK VINA RESULT:    -2.885      2.596      5.394
REMARK INTER + INTRA:          -4.143
REMARK INTER:                  -3.918
REMARK INTRA:                  -0.225
REMARK UNBOUND:                -0.246
REMARK SMILES CCCCCCCC(C)=O
REMARK SMILES IDX 5 1 4 2 3 3 2 4 1 5 6 6 7 7 8 8 10 9 9 10
REMARK H PARENT
REMARK Flexibility Score: inf
ROOT
ATOM      1  C   UNL     1      -5.728  23.285   9.826  1.00  0.00     0.000 C 
ENDROOT
BRANCH   1   2
ATOM      2  C   UNL     1      -6.542  22.313   8.954  1.00  0.00     0.000 C 
BRANCH   2   3
ATOM      3  C   UNL     1      -6.098  22.314   7.484  1.00  0.00    -0.000 C 
BRANCH   3   4
ATOM      4  C   UNL     1      -6.996  21.401   6.640  1.00  0.00    -0.003 C 
ATOM      5  C   UNL     1      -6.166  20.498   5.732  1.00  0.00     0.004 C 
ENDBRANCH   3   4
ENDBRANCH   2   3
ENDBRANCH   1   2
BRANCH   1   6
ATOM      6  C   UNL     1      -5.813  23.027  11.345  1.00  0.00     0.008 C 
BRANCH   6   7
ATOM      7  C   UNL     1      -7.206  22.609  11.841  1.00  0.00     0.075 C 
BRANCH   7   8
ATOM      8  C   UNL     1      -7.189  21.260  12.514  1.00  0.00     0.129 C 
ATOM      9  O   UNL     1      -6.169  20.586  12.487  1.00  0.00    -0.300 OA
ATOM     10  C   UNL     1      -8.395  20.726  13.227  1.00  0.00     0.087 C 
ENDBRANCH   7   8
ENDBRANCH   6   7
ENDBRANCH   1   6
TORSDOF 6
ENDMDL
MODEL 7
REMARK VINA RESULT:    -2.868      1.124      1.520
REMARK INTER + INTRA:          -4.120
REMARK INTER:                  -3.638
REMARK INTRA:                  -0.482
REMARK UNBOUND:                -0.246
REMARK SMILES CCCCCCCC(C)=O
REMARK SMILES IDX 5 1 4 2 3 3 2 4 1 5 6 6 7 7 8 8 10 9 9 10
REMARK H PARENT
REMARK Flexibility Score: inf
ROOT
ATOM      1  C   UNL     1      -7.126  23.515  10.346  1.00  0.00     0.000 C 
ENDROOT
BRANCH   1   2
ATOM      2  C   UNL     1      -6.704  22.071  10.670  1.00  0.00     0.000 C 
BRANCH   2   3
ATOM      3  C   UNL     1      -6.416  21.852  12.162  1.00  0.00    -0.000 C 
BRANCH   3   4
ATOM      4  C   UNL     1      -7.700  21.971  12.991  1.00  0.00    -0.003 C 
ATOM      5  C   UNL     1      -8.399  20.620  13.122  1.00  0.00     0.004 C 
ENDBRANCH   3   4
ENDBRANCH   2   3
ENDBRANCH   1   2
BRANCH   1   6
ATOM      6  C   UNL     1      -6.023  24.393   9.718  1.00  0.00     0.008 C 
BRANCH   6   7
ATOM      7  C   UNL     1      -4.828  23.606   9.159  1.00  0.00     0.075 C 
BRANCH   7   8
ATOM      8  C   UNL     1      -3.527  24.013   9.802  1.00  0.00     0.129 C 
ATOM      9  O   UNL     1      -2.654  24.532   9.122  1.00  0.00    -0.300 OA
ATOM     10  C   UNL     1      -3.280  23.804  11.267  1.00  0.00     0.087 C 
ENDBRANCH   7   8
ENDBRANCH   6   7
ENDBRANCH   1   6
TORSDOF 6
ENDMDL
MODEL 8
REMARK VINA RESULT:    -2.839      1.795      3.073
REMARK INTER + INTRA:          -4.081
REMARK INTER:                  -3.689
REMARK INTRA:                  -0.392
REMARK UNBOUND:                -0.246
REMARK SMILES CCCCCCCC(C)=O
REMARK SMILES IDX 5 1 4 2 3 3 2 4 1 5 6 6 7 7 8 8 10 9 9 10
REMARK H PARENT
REMARK Flexibility Score: inf
ROOT
ATOM      1  C   UNL     1      -8.208  21.451  12.293  1.00  0.00     0.000 C 
ENDROOT
BRANCH   1   2
ATOM      2  C   UNL     1      -8.570  20.530  13.473  1.00  0.00     0.000 C 
BRANCH   2   3
ATOM      3  C   UNL     1      -8.945  21.306  14.743  1.00  0.00    -0.000 C 
BRANCH   3   4
ATOM      4  C   UNL     1      -9.034  22.811  14.460  1.00  0.00    -0.003 C 
ATOM      5  C   UNL     1      -8.050  23.594  15.324  1.00  0.00     0.004 C 
ENDBRANCH   3   4
ENDBRANCH   2   3
ENDBRANCH   1   2
BRANCH   1   6
ATOM      6  C   UNL     1      -6.698  21.694  12.093  1.00  0.00     0.008 C 
BRANCH   6   7
ATOM      7  C   UNL     1      -6.320  23.162  11.843  1.00  0.00     0.075 C 
BRANCH   7   8
ATOM      8  C   UNL     1      -5.183  23.298  10.862  1.00  0.00     0.129 C 
ATOM      9  O   UNL     1      -4.031  23.203  11.259  1.00  0.00    -0.300 OA
ATOM     10  C   UNL     1      -5.434  23.537   9.403  1.00  0.00     0.087 C 
ENDBRANCH   7   8
ENDBRANCH   6   7
ENDBRANCH   1   6
TORSDOF 6
ENDMDL
MODEL 9
REMARK VINA RESULT:    -2.795      2.519      5.595
REMARK INTER + INTRA:          -4.021
REMARK INTER:                  -3.702
REMARK INTRA:                  -0.319
REMARK UNBOUND:                -0.246
REMARK SMILES CCCCCCCC(C)=O
REMARK SMILES IDX 5 1 4 2 3 3 2 4 1 5 6 6 7 7 8 8 10 9 9 10
REMARK H PARENT
REMARK Flexibility Score: inf
ROOT
ATOM      1  C   UNL     1      -4.948  23.739   9.321  1.00  0.00     0.000 C 
ENDROOT
BRANCH   1   2
ATOM      2  C   UNL     1      -3.440  24.047   9.271  1.00  0.00     0.000 C 
BRANCH   2   3
ATOM      3  C   UNL     1      -2.834  24.296  10.659  1.00  0.00    -0.000 C 
BRANCH   3   4
ATOM      4  C   UNL     1      -2.161  25.673  10.724  1.00  0.00    -0.003 C 
ATOM      5  C   UNL     1      -3.150  26.787  10.393  1.00  0.00     0.004 C 
ENDBRANCH   3   4
ENDBRANCH   2   3
ENDBRANCH   1   2
BRANCH   1   6
ATOM      6  C   UNL     1      -5.495  23.380  10.718  1.00  0.00     0.008 C 
BRANCH   6   7
ATOM      7  C   UNL     1      -6.464  22.188  10.733  1.00  0.00     0.075 C 
BRANCH   7   8
ATOM      8  C   UNL     1      -6.755  21.709  12.133  1.00  0.00     0.129 C 
ATOM      9  O   UNL     1      -6.329  20.623  12.499  1.00  0.00    -0.300 OA
ATOM     10  C   UNL     1      -7.549  22.541  13.094  1.00  0.00     0.087 C 
ENDBRANCH   7   8
ENDBRANCH   6   7
ENDBRANCH   1   6
TORSDOF 6
ENDMDL
