MODEL 1
REMARK VINA RESULT:    -5.927      0.000      0.000
REMARK INTER + INTRA:          -8.997
REMARK INTER:                  -9.219
REMARK INTRA:                   0.222
REMARK UNBOUND:                 0.222
REMARK SMILES C[C@@]12C[C@H](O)[C@H]3C[C@]1(O[C@@H]1O[C@@H](CO)[C@H](O)[C@H](O)[C@@H]1O)[C@@]3(COC(=O)c1ccccc1)C(=O)O2
REMARK SMILES IDX 1 1 2 2 3 3 4 4 6 5 7 6 8 7 21 8 32 9 33 10 34 11 9 12 10 13
REMARK SMILES IDX 19 14 11 15 17 16 12 17 15 18 20 19 18 21 13 23 14 24 16 26
REMARK SMILES IDX 5 28 22 30 23 31 24 32 25 33 26 34 27 35 31 36 28 37 30 38
REMARK SMILES IDX 29 39
REMARK H PARENT 20 20 18 22 14 25 16 27 5 29
REMARK Flexibility Score: inf
ROOT
ATOM      1  C   UNL     1       7.933  12.991  18.421  1.00  0.00     0.060 C 
ATOM      2  C   UNL     1       6.487  13.043  17.924  1.00  0.00     0.142 C 
ATOM      3  C   UNL     1       5.613  11.912  18.574  1.00  0.00     0.083 C 
ATOM      4  C   UNL     1       4.079  12.195  18.381  1.00  0.00     0.123 C 
ATOM      5  C   UNL     1       3.822  13.727  18.195  1.00  0.00     0.045 C 
ATOM      6  C   UNL     1       4.718  14.450  19.217  1.00  0.00     0.049 C 
ATOM      7  C   UNL     1       5.794  14.465  18.103  1.00  0.00     0.131 C 
ATOM      8  C   UNL     1       4.691  14.335  17.044  1.00  0.00     0.140 C 
ATOM      9  C   UNL     1       5.313  13.436  16.026  1.00  0.00     0.319 C 
ATOM     10  O   UNL     1       4.882  13.245  14.859  1.00  0.00    -0.251 OA
ATOM     11  O   UNL     1       6.432  12.811  16.527  1.00  0.00    -0.456 OA
ENDROOT
BRANCH   7  12
ATOM     12  O   UNL     1       6.715  15.539  17.882  1.00  0.00    -0.338 OA
BRANCH  12  13
ATOM     13  C   UNL     1       7.929  15.533  18.622  1.00  0.00     0.282 C 
ATOM     14  C   UNL     1       9.081  16.217  17.846  1.00  0.00     0.202 C 
ATOM     15  O   UNL     1       7.728  16.169  19.875  1.00  0.00    -0.341 OA
ATOM     16  C   UNL     1       8.845  17.731  17.708  1.00  0.00     0.179 C 
ATOM     17  C   UNL     1       7.351  17.530  19.734  1.00  0.00     0.178 C 
ATOM     18  C   UNL     1       8.496  18.337  19.078  1.00  0.00     0.177 C 
BRANCH  14  19
ATOM     19  O   UNL     1       9.242  15.642  16.576  1.00  0.00    -0.385 OA
ATOM     20  H   UNL     1       8.416  15.841  16.063  1.00  0.00     0.211 HD
ENDBRANCH  14  19
BRANCH  16  21
ATOM     21  O   UNL     1       7.806  17.991  16.798  1.00  0.00    -0.387 OA
ATOM     22  H   UNL     1       8.138  18.682  16.167  1.00  0.00     0.211 HD
ENDBRANCH  16  21
BRANCH  17  23
ATOM     23  C   UNL     1       7.018  18.069  21.136  1.00  0.00     0.191 C 
BRANCH  23  24
ATOM     24  O   UNL     1       7.766  19.217  21.432  1.00  0.00    -0.394 OA
ATOM     25  H   UNL     1       8.710  18.927  21.527  1.00  0.00     0.210 HD
ENDBRANCH  23  24
ENDBRANCH  17  23
BRANCH  18  26
ATOM     26  O   UNL     1       8.117  19.680  18.920  1.00  0.00    -0.387 OA
ATOM     27  H   UNL     1       8.631  20.204  19.589  1.00  0.00     0.211 HD
ENDBRANCH  18  26
ENDBRANCH  12  13
ENDBRANCH   7  12
BRANCH   4  28
ATOM     28  O   UNL     1       3.591  11.477  17.277  1.00  0.00    -0.393 OA
ATOM     29  H   UNL     1       3.932  10.550  17.368  1.00  0.00     0.210 HD
ENDBRANCH   4  28
BRANCH   8  30
ATOM     30  C   UNL     1       4.137  15.649  16.458  1.00  0.00     0.255 C 
BRANCH  30  31
ATOM     31  O   UNL     1       2.815  15.431  15.975  1.00  0.00    -0.461 OA
BRANCH  31  32
ATOM     32  C   UNL     1       1.961  16.473  15.603  1.00  0.00     0.338 C 
ATOM     33  O   UNL     1       2.381  17.397  14.853  1.00  0.00    -0.246 OA
BRANCH  32  34
ATOM     34  C   UNL     1       0.565  16.487  16.091  1.00  0.00     0.060 A 
ATOM     35  C   UNL     1      -0.164  15.287  16.189  1.00  0.00     0.015 A 
ATOM     36  C   UNL     1      -0.055  17.695  16.464  1.00  0.00     0.015 A 
ATOM     37  C   UNL     1      -1.484  15.297  16.651  1.00  0.00     0.001 A 
ATOM     38  C   UNL     1      -1.375  17.698  16.925  1.00  0.00     0.001 A 
ATOM     39  C   UNL     1      -2.088  16.501  17.019  1.00  0.00     0.000 A 
ENDBRANCH  32  34
ENDBRANCH  31  32
ENDBRANCH  30  31
ENDBRANCH   8  30
TORSDOF 12
ENDMDL
MODEL 2
REMARK VINA RESULT:    -5.892      0.784      1.047
REMARK INTER + INTRA:          -8.941
REMARK INTER:                  -9.810
REMARK INTRA:                   0.868
REMARK UNBOUND:                 0.222
REMARK SMILES C[C@@]12C[C@H](O)[C@H]3C[C@]1(O[C@@H]1O[C@@H](CO)[C@H](O)[C@H](O)[C@@H]1O)[C@@]3(COC(=O)c1ccccc1)C(=O)O2
REMARK SMILES IDX 1 1 2 2 3 3 4 4 6 5 7 6 8 7 21 8 32 9 33 10 34 11 9 12 10 13
REMARK SMILES IDX 19 14 11 15 17 16 12 17 15 18 20 19 18 21 13 23 14 24 16 26
REMARK SMILES IDX 5 28 22 30 23 31 24 32 25 33 26 34 27 35 31 36 28 37 30 38
REMARK SMILES IDX 29 39
REMARK H PARENT 20 20 18 22 14 25 16 27 5 29
REMARK Flexibility Score: inf
ROOT
ATOM      1  C   UNL     1       7.955  13.160  18.086  1.00  0.00     0.060 C 
ATOM      2  C   UNL     1       6.476  13.151  17.694  1.00  0.00     0.142 C 
ATOM      3  C   UNL     1       5.716  11.941  18.344  1.00  0.00     0.083 C 
ATOM      4  C   UNL     1       4.158  12.142  18.274  1.00  0.00     0.123 C 
ATOM      5  C   UNL     1       3.804  13.664  18.187  1.00  0.00     0.045 C 
ATOM      6  C   UNL     1       4.731  14.387  19.180  1.00  0.00     0.049 C 
ATOM      7  C   UNL     1       5.721  14.520  17.995  1.00  0.00     0.131 C 
ATOM      8  C   UNL     1       4.553  14.377  17.011  1.00  0.00     0.140 C 
ATOM      9  C   UNL     1       5.148  13.565  15.906  1.00  0.00     0.319 C 
ATOM     10  O   UNL     1       4.643  13.407  14.764  1.00  0.00    -0.251 OA
ATOM     11  O   UNL     1       6.333  12.985  16.294  1.00  0.00    -0.456 OA
ENDROOT
BRANCH   7  12
ATOM     12  O   UNL     1       6.563  15.655  17.767  1.00  0.00    -0.338 OA
BRANCH  12  13
ATOM     13  C   UNL     1       7.859  15.647  18.351  1.00  0.00     0.282 C 
ATOM     14  C   UNL     1       8.687  16.888  17.937  1.00  0.00     0.202 C 
ATOM     15  O   UNL     1       7.747  15.574  19.764  1.00  0.00    -0.341 OA
ATOM     16  C   UNL     1       8.112  18.176  18.550  1.00  0.00     0.179 C 
ATOM     17  C   UNL     1       7.069  16.696  20.309  1.00  0.00     0.178 C 
ATOM     18  C   UNL     1       7.885  17.986  20.059  1.00  0.00     0.177 C 
BRANCH  14  19
ATOM     19  O   UNL     1       8.745  17.009  16.540  1.00  0.00    -0.385 OA
ATOM     20  H   UNL     1       7.807  17.025  16.213  1.00  0.00     0.211 HD
ENDBRANCH  14  19
BRANCH  16  21
ATOM     21  O   UNL     1       6.900  18.525  17.929  1.00  0.00    -0.387 OA
ATOM     22  H   UNL     1       6.893  18.088  17.038  1.00  0.00     0.211 HD
ENDBRANCH  16  21
BRANCH  17  23
ATOM     23  C   UNL     1       6.876  16.438  21.814  1.00  0.00     0.191 C 
BRANCH  23  24
ATOM     24  O   UNL     1       6.988  15.073  22.115  1.00  0.00    -0.394 OA
ATOM     25  H   UNL     1       7.937  14.910  22.356  1.00  0.00     0.210 HD
ENDBRANCH  23  24
ENDBRANCH  17  23
BRANCH  18  26
ATOM     26  O   UNL     1       7.206  19.100  20.580  1.00  0.00    -0.387 OA
ATOM     27  H   UNL     1       7.012  19.702  19.815  1.00  0.00     0.211 HD
ENDBRANCH  18  26
ENDBRANCH  12  13
ENDBRANCH   7  12
BRANCH   4  28
ATOM     28  O   UNL     1       3.632  11.451  17.170  1.00  0.00    -0.393 OA
ATOM     29  H   UNL     1       3.534  10.504  17.448  1.00  0.00     0.210 HD
ENDBRANCH   4  28
BRANCH   8  30
ATOM     30  C   UNL     1       3.885  15.683  16.535  1.00  0.00     0.255 C 
BRANCH  30  31
ATOM     31  O   UNL     1       2.550  15.408  16.124  1.00  0.00    -0.461 OA
BRANCH  31  32
ATOM     32  C   UNL     1       1.644  16.412  15.769  1.00  0.00     0.338 C 
ATOM     33  O   UNL     1       2.013  17.362  15.025  1.00  0.00    -0.246 OA
BRANCH  32  34
ATOM     34  C   UNL     1       0.253  16.355  16.268  1.00  0.00     0.060 A 
ATOM     35  C   UNL     1      -0.504  15.178  16.123  1.00  0.00     0.015 A 
ATOM     36  C   UNL     1      -0.334  17.471  16.894  1.00  0.00     0.015 A 
ATOM     37  C   UNL     1      -1.820  15.119  16.595  1.00  0.00     0.001 A 
ATOM     38  C   UNL     1      -1.650  17.407  17.363  1.00  0.00     0.001 A 
ATOM     39  C   UNL     1      -2.391  16.233  17.214  1.00  0.00     0.000 A 
ENDBRANCH  32  34
ENDBRANCH  31  32
ENDBRANCH  30  31
ENDBRANCH   8  30
TORSDOF 12
ENDMDL
MODEL 3
REMARK VINA RESULT:    -5.644      1.494      2.297
REMARK INTER + INTRA:          -8.556
REMARK INTER:                  -8.965
REMARK INTRA:                   0.409
REMARK UNBOUND:                 0.222
REMARK SMILES C[C@@]12C[C@H](O)[C@H]3C[C@]1(O[C@@H]1O[C@@H](CO)[C@H](O)[C@H](O)[C@@H]1O)[C@@]3(COC(=O)c1ccccc1)C(=O)O2
REMARK SMILES IDX 1 1 2 2 3 3 4 4 6 5 7 6 8 7 21 8 32 9 33 10 34 11 9 12 10 13
REMARK SMILES IDX 19 14 11 15 17 16 12 17 15 18 20 19 18 21 13 23 14 24 16 26
REMARK SMILES IDX 5 28 22 30 23 31 24 32 25 33 26 34 27 35 31 36 28 37 30 38
REMARK SMILES IDX 29 39
REMARK H PARENT 20 20 18 22 14 25 16 27 5 29
REMARK Flexibility Score: inf
ROOT
ATOM      1  C   UNL     1       9.626  15.668  17.857  1.00  0.00     0.060 C 
ATOM      2  C   UNL     1       8.259  15.056  17.548  1.00  0.00     0.142 C 
ATOM      3  C   UNL     1       8.121  13.615  18.155  1.00  0.00     0.083 C 
ATOM      4  C   UNL     1       6.620  13.150  18.184  1.00  0.00     0.123 C 
ATOM      5  C   UNL     1       5.662  14.387  18.220  1.00  0.00     0.045 C 
ATOM      6  C   UNL     1       6.281  15.392  19.208  1.00  0.00     0.049 C 
ATOM      7  C   UNL     1       7.031  15.972  17.982  1.00  0.00     0.131 C 
ATOM      8  C   UNL     1       5.953  15.392  17.056  1.00  0.00     0.140 C 
ATOM      9  C   UNL     1       6.742  14.946  15.868  1.00  0.00     0.319 C 
ATOM     10  O   UNL     1       6.261  14.635  14.747  1.00  0.00    -0.251 OA
ATOM     11  O   UNL     1       8.087  14.899  16.150  1.00  0.00    -0.456 OA
ENDROOT
BRANCH   7  12
ATOM     12  O   UNL     1       7.306  17.363  17.784  1.00  0.00    -0.338 OA
BRANCH  12  13
ATOM     13  C   UNL     1       8.448  17.910  18.431  1.00  0.00     0.282 C 
ATOM     14  C   UNL     1       8.745  19.353  17.954  1.00  0.00     0.202 C 
ATOM     15  O   UNL     1       8.262  17.880  19.837  1.00  0.00    -0.341 OA
ATOM     16  C   UNL     1       7.659  20.335  18.426  1.00  0.00     0.179 C 
ATOM     17  C   UNL     1       7.154  18.665  20.251  1.00  0.00     0.178 C 
ATOM     18  C   UNL     1       7.407  20.157  19.932  1.00  0.00     0.177 C 
BRANCH  14  19
ATOM     19  O   UNL     1       8.860  19.406  16.556  1.00  0.00    -0.385 OA
ATOM     20  H   UNL     1       9.605  18.799  16.305  1.00  0.00     0.211 HD
ENDBRANCH  14  19
BRANCH  16  21
ATOM     21  O   UNL     1       6.462  20.131  17.719  1.00  0.00    -0.387 OA
ATOM     22  H   UNL     1       6.698  20.071  16.757  1.00  0.00     0.211 HD
ENDBRANCH  16  21
BRANCH  17  23
ATOM     23  C   UNL     1       6.961  18.439  21.761  1.00  0.00     0.191 C 
BRANCH  23  24
ATOM     24  O   UNL     1       7.284  17.124  22.125  1.00  0.00    -0.394 OA
ATOM     25  H   UNL     1       7.669  17.167  23.038  1.00  0.00     0.210 HD
ENDBRANCH  23  24
ENDBRANCH  17  23
BRANCH  18  26
ATOM     26  O   UNL     1       6.303  20.933  20.323  1.00  0.00    -0.387 OA
ATOM     27  H   UNL     1       6.051  20.634  21.236  1.00  0.00     0.211 HD
ENDBRANCH  18  26
ENDBRANCH  12  13
ENDBRANCH   7  12
BRANCH   4  28
ATOM     28  O   UNL     1       6.342  12.345  17.067  1.00  0.00    -0.393 OA
ATOM     29  H   UNL     1       5.380  12.472  16.858  1.00  0.00     0.210 HD
ENDBRANCH   4  28
BRANCH   8  30
ATOM     30  C   UNL     1       4.770  16.316  16.707  1.00  0.00     0.255 C 
BRANCH  30  31
ATOM     31  O   UNL     1       3.877  15.633  15.833  1.00  0.00    -0.461 OA
BRANCH  31  32
ATOM     32  C   UNL     1       2.652  15.110  16.256  1.00  0.00     0.338 C 
ATOM     33  O   UNL     1       2.603  13.967  16.789  1.00  0.00    -0.246 OA
BRANCH  32  34
ATOM     34  C   UNL     1       1.416  15.902  16.077  1.00  0.00     0.060 A 
ATOM     35  C   UNL     1       0.172  15.371  16.467  1.00  0.00     0.015 A 
ATOM     36  C   UNL     1       1.462  17.192  15.517  1.00  0.00     0.015 A 
ATOM     37  C   UNL     1      -1.000  16.118  16.300  1.00  0.00     0.001 A 
ATOM     38  C   UNL     1       0.287  17.933  15.352  1.00  0.00     0.001 A 
ATOM     39  C   UNL     1      -0.941  17.397  15.743  1.00  0.00     0.000 A 
ENDBRANCH  32  34
ENDBRANCH  31  32
ENDBRANCH  30  31
ENDBRANCH   8  30
TORSDOF 12
ENDMDL
MODEL 4
REMARK VINA RESULT:    -4.904     11.634     14.771
REMARK INTER + INTRA:          -7.405
REMARK INTER:                  -6.742
REMARK INTRA:                  -0.663
REMARK UNBOUND:                 0.222
REMARK SMILES C[C@@]12C[C@H](O)[C@H]3C[C@]1(O[C@@H]1O[C@@H](CO)[C@H](O)[C@H](O)[C@@H]1O)[C@@]3(COC(=O)c1ccccc1)C(=O)O2
REMARK SMILES IDX 1 1 2 2 3 3 4 4 6 5 7 6 8 7 21 8 32 9 33 10 34 11 9 12 10 13
REMARK SMILES IDX 19 14 11 15 17 16 12 17 15 18 20 19 18 21 13 23 14 24 16 26
REMARK SMILES IDX 5 28 22 30 23 31 24 32 25 33 26 34 27 35 31 36 28 37 30 38
REMARK SMILES IDX 29 39
REMARK H PARENT 20 20 18 22 14 25 16 27 5 29
REMARK Flexibility Score: inf
ROOT
ATOM      1  C   UNL     1       0.004   8.404   5.190  1.00  0.00     0.060 C 
ATOM      2  C   UNL     1      -0.160   9.844   4.702  1.00  0.00     0.142 C 
ATOM      3  C   UNL     1      -0.253   9.915   3.136  1.00  0.00     0.083 C 
ATOM      4  C   UNL     1      -0.807  11.307   2.660  1.00  0.00     0.123 C 
ATOM      5  C   UNL     1      -1.677  11.965   3.782  1.00  0.00     0.045 C 
ATOM      6  C   UNL     1      -2.544  10.842   4.380  1.00  0.00     0.049 C 
ATOM      7  C   UNL     1      -1.377  10.618   5.376  1.00  0.00     0.131 C 
ATOM      8  C   UNL     1      -0.909  12.061   5.143  1.00  0.00     0.140 C 
ATOM      9  C   UNL     1       0.579  11.934   5.169  1.00  0.00     0.319 C 
ATOM     10  O   UNL     1       1.392  12.891   5.270  1.00  0.00    -0.251 OA
ATOM     11  O   UNL     1       0.972  10.621   5.052  1.00  0.00    -0.456 OA
ENDROOT
BRANCH   7  12
ATOM     12  O   UNL     1      -1.545  10.255   6.751  1.00  0.00    -0.338 OA
BRANCH  12  13
ATOM     13  C   UNL     1      -2.871  10.076   7.231  1.00  0.00     0.282 C 
ATOM     14  C   UNL     1      -3.124   8.621   7.696  1.00  0.00     0.202 C 
ATOM     15  O   UNL     1      -3.124  10.987   8.290  1.00  0.00    -0.341 OA
ATOM     16  C   UNL     1      -2.320   8.289   8.965  1.00  0.00     0.179 C 
ATOM     17  C   UNL     1      -2.264  10.776   9.399  1.00  0.00     0.178 C 
ATOM     18  C   UNL     1      -2.529   9.385  10.023  1.00  0.00     0.177 C 
BRANCH  14  19
ATOM     19  O   UNL     1      -2.810   7.707   6.679  1.00  0.00    -0.385 OA
ATOM     20  H   UNL     1      -1.874   7.414   6.834  1.00  0.00     0.211 HD
ENDBRANCH  14  19
BRANCH  16  21
ATOM     21  O   UNL     1      -0.951   8.171   8.669  1.00  0.00    -0.387 OA
ATOM     22  H   UNL     1      -0.874   8.059   7.686  1.00  0.00     0.211 HD
ENDBRANCH  16  21
BRANCH  17  23
ATOM     23  C   UNL     1      -2.525  11.904  10.412  1.00  0.00     0.191 C 
BRANCH  23  24
ATOM     24  O   UNL     1      -2.808  11.390  11.686  1.00  0.00    -0.394 OA
ATOM     25  H   UNL     1      -3.575  10.768  11.579  1.00  0.00     0.210 HD
ENDBRANCH  23  24
ENDBRANCH  17  23
BRANCH  18  26
ATOM     26  O   UNL     1      -1.665   9.167  11.109  1.00  0.00    -0.387 OA
ATOM     27  H   UNL     1      -2.237   9.043  11.910  1.00  0.00     0.211 HD
ENDBRANCH  18  26
ENDBRANCH  12  13
ENDBRANCH   7  12
BRANCH   4  28
ATOM     28  O   UNL     1       0.257  12.153   2.303  1.00  0.00    -0.393 OA
ATOM     29  H   UNL     1       0.311  12.138   1.313  1.00  0.00     0.210 HD
ENDBRANCH   4  28
BRANCH   8  30
ATOM     30  C   UNL     1      -1.461  13.131   6.107  1.00  0.00     0.255 C 
BRANCH  30  31
ATOM     31  O   UNL     1      -1.935  14.244   5.356  1.00  0.00    -0.461 OA
BRANCH  31  32
ATOM     32  C   UNL     1      -1.432  15.538   5.518  1.00  0.00     0.338 C 
ATOM     33  O   UNL     1      -1.627  16.161   6.599  1.00  0.00    -0.246 OA
BRANCH  32  34
ATOM     34  C   UNL     1      -0.672  16.172   4.420  1.00  0.00     0.060 A 
ATOM     35  C   UNL     1      -0.707  17.569   4.248  1.00  0.00     0.015 A 
ATOM     36  C   UNL     1       0.097  15.395   3.534  1.00  0.00     0.015 A 
ATOM     37  C   UNL     1       0.012  18.172   3.210  1.00  0.00     0.001 A 
ATOM     38  C   UNL     1       0.814  16.004   2.499  1.00  0.00     0.001 A 
ATOM     39  C   UNL     1       0.771  17.390   2.338  1.00  0.00     0.000 A 
ENDBRANCH  32  34
ENDBRANCH  31  32
ENDBRANCH  30  31
ENDBRANCH   8  30
TORSDOF 12
ENDMDL
MODEL 5
REMARK VINA RESULT:    -4.616      2.225      6.626
REMARK INTER + INTRA:          -6.958
REMARK INTER:                  -6.662
REMARK INTRA:                  -0.296
REMARK UNBOUND:                 0.222
REMARK SMILES C[C@@]12C[C@H](O)[C@H]3C[C@]1(O[C@@H]1O[C@@H](CO)[C@H](O)[C@H](O)[C@@H]1O)[C@@]3(COC(=O)c1ccccc1)C(=O)O2
REMARK SMILES IDX 1 1 2 2 3 3 4 4 6 5 7 6 8 7 21 8 32 9 33 10 34 11 9 12 10 13
REMARK SMILES IDX 19 14 11 15 17 16 12 17 15 18 20 19 18 21 13 23 14 24 16 26
REMARK SMILES IDX 5 28 22 30 23 31 24 32 25 33 26 34 27 35 31 36 28 37 30 38
REMARK SMILES IDX 29 39
REMARK H PARENT 20 20 18 22 14 25 16 27 5 29
REMARK Flexibility Score: inf
ROOT
ATOM      1  C   UNL     1       5.427  13.067  19.482  1.00  0.00     0.060 C 
ATOM      2  C   UNL     1       6.613  14.026  19.353  1.00  0.00     0.142 C 
ATOM      3  C   UNL     1       7.946  13.363  19.849  1.00  0.00     0.083 C 
ATOM      4  C   UNL     1       9.202  14.174  19.364  1.00  0.00     0.123 C 
ATOM      5  C   UNL     1       8.865  14.983  18.067  1.00  0.00     0.045 C 
ATOM      6  C   UNL     1       8.033  14.048  17.171  1.00  0.00     0.049 C 
ATOM      7  C   UNL     1       6.794  14.634  17.893  1.00  0.00     0.131 C 
ATOM      8  C   UNL     1       7.602  15.889  18.249  1.00  0.00     0.140 C 
ATOM      9  C   UNL     1       7.113  16.219  19.622  1.00  0.00     0.319 C 
ATOM     10  O   UNL     1       7.306  17.308  20.224  1.00  0.00    -0.251 OA
ATOM     11  O   UNL     1       6.424  15.165  20.175  1.00  0.00    -0.456 OA
ENDROOT
BRANCH   7  12
ATOM     12  O   UNL     1       5.535  14.890  17.261  1.00  0.00    -0.338 OA
BRANCH  12  13
ATOM     13  C   UNL     1       5.441  14.674  15.859  1.00  0.00     0.282 C 
ATOM     14  C   UNL     1       4.715  13.348  15.526  1.00  0.00     0.202 C 
ATOM     15  O   UNL     1       4.778  15.771  15.249  1.00  0.00    -0.341 OA
ATOM     16  C   UNL     1       3.224  13.416  15.898  1.00  0.00     0.179 C 
ATOM     17  C   UNL     1       3.448  15.924  15.720  1.00  0.00     0.178 C 
ATOM     18  C   UNL     1       2.595  14.696  15.324  1.00  0.00     0.177 C 
BRANCH  14  19
ATOM     19  O   UNL     1       5.321  12.265  16.182  1.00  0.00    -0.385 OA
ATOM     20  H   UNL     1       5.966  12.647  16.833  1.00  0.00     0.211 HD
ENDBRANCH  14  19
BRANCH  16  21
ATOM     21  O   UNL     1       3.057  13.392  17.294  1.00  0.00    -0.387 OA
ATOM     22  H   UNL     1       2.169  12.990  17.474  1.00  0.00     0.211 HD
ENDBRANCH  16  21
BRANCH  17  23
ATOM     23  C   UNL     1       2.884  17.219  15.108  1.00  0.00     0.191 C 
BRANCH  23  24
ATOM     24  O   UNL     1       1.531  17.391  15.436  1.00  0.00    -0.394 OA
ATOM     25  H   UNL     1       1.131  17.944  14.717  1.00  0.00     0.210 HD
ENDBRANCH  23  24
ENDBRANCH  17  23
BRANCH  18  26
ATOM     26  O   UNL     1       1.283  14.838  15.806  1.00  0.00    -0.387 OA
ATOM     27  H   UNL     1       0.695  14.328  15.190  1.00  0.00     0.211 HD
ENDBRANCH  18  26
ENDBRANCH  12  13
ENDBRANCH   7  12
BRANCH   4  28
ATOM     28  O   UNL     1       9.642  15.037  20.381  1.00  0.00    -0.393 OA
ATOM     29  H   UNL     1       9.080  14.847  21.177  1.00  0.00     0.210 HD
ENDBRANCH   4  28
BRANCH   8  30
ATOM     30  C   UNL     1       7.520  17.068  17.259  1.00  0.00     0.255 C 
BRANCH  30  31
ATOM     31  O   UNL     1       8.762  17.766  17.252  1.00  0.00    -0.461 OA
BRANCH  31  32
ATOM     32  C   UNL     1       8.854  19.153  17.402  1.00  0.00     0.338 C 
ATOM     33  O   UNL     1       9.623  19.820  16.657  1.00  0.00    -0.246 OA
BRANCH  32  34
ATOM     34  C   UNL     1       8.046  19.833  18.437  1.00  0.00     0.060 A 
ATOM     35  C   UNL     1       6.691  20.131  18.196  1.00  0.00     0.015 A 
ATOM     36  C   UNL     1       8.614  20.192  19.673  1.00  0.00     0.015 A 
ATOM     37  C   UNL     1       5.923  20.774  19.173  1.00  0.00     0.001 A 
ATOM     38  C   UNL     1       7.841  20.835  20.646  1.00  0.00     0.001 A 
ATOM     39  C   UNL     1       6.498  21.125  20.396  1.00  0.00     0.000 A 
ENDBRANCH  32  34
ENDBRANCH  31  32
ENDBRANCH  30  31
ENDBRANCH   8  30
TORSDOF 12
ENDMDL
MODEL 6
REMARK VINA RESULT:    -3.941      2.710      4.171
REMARK INTER + INTRA:          -5.908
REMARK INTER:                  -6.340
REMARK INTRA:                   0.432
REMARK UNBOUND:                 0.222
REMARK SMILES C[C@@]12C[C@H](O)[C@H]3C[C@]1(O[C@@H]1O[C@@H](CO)[C@H](O)[C@H](O)[C@@H]1O)[C@@]3(COC(=O)c1ccccc1)C(=O)O2
REMARK SMILES IDX 1 1 2 2 3 3 4 4 6 5 7 6 8 7 21 8 32 9 33 10 34 11 9 12 10 13
REMARK SMILES IDX 19 14 11 15 17 16 12 17 15 18 20 19 18 21 13 23 14 24 16 26
REMARK SMILES IDX 5 28 22 30 23 31 24 32 25 33 26 34 27 35 31 36 28 37 30 38
REMARK SMILES IDX 29 39
REMARK H PARENT 20 20 18 22 14 25 16 27 5 29
REMARK Flexibility Score: inf
ROOT
ATOM      1  C   UNL     1      10.257  16.179  17.405  1.00  0.00     0.060 C 
ATOM      2  C   UNL     1       8.973  15.348  17.389  1.00  0.00     0.142 C 
ATOM      3  C   UNL     1       9.191  13.937  18.042  1.00  0.00     0.083 C 
ATOM      4  C   UNL     1       7.819  13.247  18.381  1.00  0.00     0.123 C 
ATOM      5  C   UNL     1       6.699  14.322  18.582  1.00  0.00     0.045 C 
ATOM      6  C   UNL     1       7.327  15.462  19.404  1.00  0.00     0.049 C 
ATOM      7  C   UNL     1       7.721  16.084  18.041  1.00  0.00     0.131 C 
ATOM      8  C   UNL     1       6.592  15.297  17.362  1.00  0.00     0.140 C 
ATOM      9  C   UNL     1       7.197  14.917  16.049  1.00  0.00     0.319 C 
ATOM     10  O   UNL     1       6.564  14.476  15.054  1.00  0.00    -0.251 OA
ATOM     11  O   UNL     1       8.561  15.093  16.057  1.00  0.00    -0.456 OA
ENDROOT
BRANCH   7  12
ATOM     12  O   UNL     1       7.724  17.489  17.763  1.00  0.00    -0.338 OA
BRANCH  12  13
ATOM     13  C   UNL     1       8.728  18.284  18.381  1.00  0.00     0.282 C 
ATOM     14  C   UNL     1       8.754  19.724  17.812  1.00  0.00     0.202 C 
ATOM     15  O   UNL     1       8.522  18.309  19.785  1.00  0.00    -0.341 OA
ATOM     16  C   UNL     1       7.493  20.508  18.210  1.00  0.00     0.179 C 
ATOM     17  C   UNL     1       7.277  18.892  20.137  1.00  0.00     0.178 C 
ATOM     18  C   UNL     1       7.249  20.382  19.723  1.00  0.00     0.177 C 
BRANCH  14  19
ATOM     19  O   UNL     1       8.886  19.709  16.415  1.00  0.00    -0.385 OA
ATOM     20  H   UNL     1       9.122  18.780  16.157  1.00  0.00     0.211 HD
ENDBRANCH  14  19
BRANCH  16  21
ATOM     21  O   UNL     1       6.370  20.035  17.508  1.00  0.00    -0.387 OA
ATOM     22  H   UNL     1       6.453  19.047  17.458  1.00  0.00     0.211 HD
ENDBRANCH  16  21
BRANCH  17  23
ATOM     23  C   UNL     1       7.100  18.729  21.657  1.00  0.00     0.191 C 
BRANCH  23  24
ATOM     24  O   UNL     1       7.630  17.510  22.104  1.00  0.00    -0.394 OA
ATOM     25  H   UNL     1       7.548  16.869  21.351  1.00  0.00     0.210 HD
ENDBRANCH  23  24
ENDBRANCH  17  23
BRANCH  18  26
ATOM     26  O   UNL     1       6.009  20.955  20.053  1.00  0.00    -0.387 OA
ATOM     27  H   UNL     1       5.396  20.768  19.295  1.00  0.00     0.211 HD
ENDBRANCH  18  26
ENDBRANCH  12  13
ENDBRANCH   7  12
BRANCH   4  28
ATOM     28  O   UNL     1       7.464  12.352  17.359  1.00  0.00    -0.393 OA
ATOM     29  H   UNL     1       7.998  12.604  16.562  1.00  0.00     0.210 HD
ENDBRANCH   4  28
BRANCH   8  30
ATOM     30  C   UNL     1       5.230  16.008  17.238  1.00  0.00     0.255 C 
BRANCH  30  31
ATOM     31  O   UNL     1       4.191  15.108  17.610  1.00  0.00    -0.461 OA
BRANCH  31  32
ATOM     32  C   UNL     1       3.736  14.086  16.771  1.00  0.00     0.338 C 
ATOM     33  O   UNL     1       2.963  14.355  15.810  1.00  0.00    -0.246 OA
BRANCH  32  34
ATOM     34  C   UNL     1       4.164  12.692  17.014  1.00  0.00     0.060 A 
ATOM     35  C   UNL     1       4.761  11.944  15.982  1.00  0.00     0.015 A 
ATOM     36  C   UNL     1       3.984  12.093  18.276  1.00  0.00     0.015 A 
ATOM     37  C   UNL     1       5.169  10.624  16.210  1.00  0.00     0.001 A 
ATOM     38  C   UNL     1       4.394  10.774  18.496  1.00  0.00     0.001 A 
ATOM     39  C   UNL     1       4.985  10.041  17.465  1.00  0.00     0.000 A 
ENDBRANCH  32  34
ENDBRANCH  31  32
ENDBRANCH  30  31
ENDBRANCH   8  30
TORSDOF 12
ENDMDL
MODEL 7
REMARK VINA RESULT:    -3.803      2.600      4.895
REMARK INTER + INTRA:          -5.693
REMARK INTER:                  -5.827
REMARK INTRA:                   0.134
REMARK UNBOUND:                 0.222
REMARK SMILES C[C@@]12C[C@H](O)[C@H]3C[C@]1(O[C@@H]1O[C@@H](CO)[C@H](O)[C@H](O)[C@@H]1O)[C@@]3(COC(=O)c1ccccc1)C(=O)O2
REMARK SMILES IDX 1 1 2 2 3 3 4 4 6 5 7 6 8 7 21 8 32 9 33 10 34 11 9 12 10 13
REMARK SMILES IDX 19 14 11 15 17 16 12 17 15 18 20 19 18 21 13 23 14 24 16 26
REMARK SMILES IDX 5 28 22 30 23 31 24 32 25 33 26 34 27 35 31 36 28 37 30 38
REMARK SMILES IDX 29 39
REMARK H PARENT 20 20 18 22 14 25 16 27 5 29
REMARK Flexibility Score: inf
ROOT
ATOM      1  C   UNL     1       6.077  11.759  17.408  1.00  0.00     0.060 C 
ATOM      2  C   UNL     1       5.393  12.957  16.747  1.00  0.00     0.142 C 
ATOM      3  C   UNL     1       3.958  12.588  16.229  1.00  0.00     0.083 C 
ATOM      4  C   UNL     1       3.116  13.878  15.915  1.00  0.00     0.123 C 
ATOM      5  C   UNL     1       3.636  15.092  16.755  1.00  0.00     0.045 C 
ATOM      6  C   UNL     1       3.914  14.558  18.172  1.00  0.00     0.049 C 
ATOM      7  C   UNL     1       5.346  14.258  17.662  1.00  0.00     0.131 C 
ATOM      8  C   UNL     1       5.173  15.321  16.569  1.00  0.00     0.140 C 
ATOM      9  C   UNL     1       5.881  14.714  15.402  1.00  0.00     0.319 C 
ATOM     10  O   UNL     1       6.218  15.325  14.354  1.00  0.00    -0.251 OA
ATOM     11  O   UNL     1       6.116  13.374  15.601  1.00  0.00    -0.456 OA
ENDROOT
BRANCH   7  12
ATOM     12  O   UNL     1       6.532  14.398  18.453  1.00  0.00    -0.338 OA
BRANCH  12  13
ATOM     13  C   UNL     1       6.633  13.620  19.638  1.00  0.00     0.282 C 
ATOM     14  C   UNL     1       8.103  13.448  20.093  1.00  0.00     0.202 C 
ATOM     15  O   UNL     1       5.861  14.215  20.670  1.00  0.00    -0.341 OA
ATOM     16  C   UNL     1       8.698  14.780  20.581  1.00  0.00     0.179 C 
ATOM     17  C   UNL     1       6.321  15.515  21.004  1.00  0.00     0.178 C 
ATOM     18  C   UNL     1       7.749  15.442  21.593  1.00  0.00     0.177 C 
BRANCH  14  19
ATOM     19  O   UNL     1       8.891  12.925  19.056  1.00  0.00    -0.385 OA
ATOM     20  H   UNL     1       8.568  13.338  18.213  1.00  0.00     0.211 HD
ENDBRANCH  14  19
BRANCH  16  21
ATOM     21  O   UNL     1       8.921  15.651  19.501  1.00  0.00    -0.387 OA
ATOM     22  H   UNL     1       8.315  15.368  18.769  1.00  0.00     0.211 HD
ENDBRANCH  16  21
BRANCH  17  23
ATOM     23  C   UNL     1       5.327  16.115  22.015  1.00  0.00     0.191 C 
BRANCH  23  24
ATOM     24  O   UNL     1       5.486  17.504  22.123  1.00  0.00    -0.394 OA
ATOM     25  H   UNL     1       6.312  17.737  21.624  1.00  0.00     0.210 HD
ENDBRANCH  23  24
ENDBRANCH  17  23
BRANCH  18  26
ATOM     26  O   UNL     1       8.213  16.730  21.907  1.00  0.00    -0.387 OA
ATOM     27  H   UNL     1       7.509  17.367  21.619  1.00  0.00     0.211 HD
ENDBRANCH  18  26
ENDBRANCH  12  13
ENDBRANCH   7  12
BRANCH   4  28
ATOM     28  O   UNL     1       3.174  14.170  14.542  1.00  0.00    -0.393 OA
ATOM     29  H   UNL     1       4.128  14.102  14.278  1.00  0.00     0.210 HD
ENDBRANCH   4  28
BRANCH   8  30
ATOM     30  C   UNL     1       5.646  16.749  16.911  1.00  0.00     0.255 C 
BRANCH  30  31
ATOM     31  O   UNL     1       6.903  16.684  17.578  1.00  0.00    -0.461 OA
BRANCH  31  32
ATOM     32  C   UNL     1       7.763  17.781  17.684  1.00  0.00     0.338 C 
ATOM     33  O   UNL     1       8.832  17.812  17.013  1.00  0.00    -0.246 OA
BRANCH  32  34
ATOM     34  C   UNL     1       7.415  18.902  18.582  1.00  0.00     0.060 A 
ATOM     35  C   UNL     1       6.666  19.991  18.099  1.00  0.00     0.015 A 
ATOM     36  C   UNL     1       7.824  18.899  19.929  1.00  0.00     0.015 A 
ATOM     37  C   UNL     1       6.334  21.053  18.947  1.00  0.00     0.001 A 
ATOM     38  C   UNL     1       7.489  19.964  20.772  1.00  0.00     0.001 A 
ATOM     39  C   UNL     1       6.745  21.039  20.281  1.00  0.00     0.000 A 
ENDBRANCH  32  34
ENDBRANCH  31  32
ENDBRANCH  30  31
ENDBRANCH   8  30
TORSDOF 12
ENDMDL
