MODEL 1
REMARK VINA RESULT:    -4.389      0.000      0.000
REMARK INTER + INTRA:          -5.322
REMARK INTER:                  -6.185
REMARK INTRA:                   0.862
REMARK UNBOUND:                 0.862
REMARK SMILES CC1=CCC(=C(C)C)C(=O)CC(C)=CCC1
REMARK SMILES IDX 12 1 14 2 13 3 15 4 16 5 2 6 1 7 3 8 11 10 9 11 10 12 5 13
REMARK SMILES IDX 6 14 7 15 8 16 4 17
REMARK H PARENT
REMARK Flexibility Score: 60.00
ROOT
ATOM      1  C   UNL     1       3.309  11.933  -7.576  1.00  0.00    -0.070 C 
ATOM      2  C   UNL     1       4.644  11.803  -7.398  1.00  0.00    -0.027 C 
ATOM      3  C   UNL     1       2.644  11.067  -8.616  1.00  0.00     0.039 C 
ENDROOT
BRANCH   2   4
ATOM      4  C   UNL     1       5.439  12.478  -6.310  1.00  0.00     0.032 C 
BRANCH   4   5
ATOM      5  C   UNL     1       5.883  13.870  -6.774  1.00  0.00     0.034 C 
BRANCH   5   6
ATOM      6  C   UNL     1       5.837  14.020  -8.281  1.00  0.00    -0.077 C 
ATOM      7  C   UNL     1       6.711  13.124  -9.123  1.00  0.00     0.039 C 
ATOM      8  C   UNL     1       5.107  14.969  -8.920  1.00  0.00    -0.023 CG0
ATOM      9  G   UNL     1       4.117  15.940  -8.304  1.00  0.00     0.000 G0
ENDBRANCH   5   6
ENDBRANCH   4   5
ENDBRANCH   2   4
BRANCH   1  10
ATOM     10  C   UNL     1       2.455  12.916  -6.799  1.00  0.00     0.111 C 
BRANCH  10  11
ATOM     11  C   UNL     1       2.337  14.244  -7.509  1.00  0.00     0.163 C 
ATOM     12  O   UNL     1       1.465  14.335  -8.414  1.00  0.00    -0.294 OA
BRANCH  11  13
ATOM     13  C   UNL     1       3.207  15.430  -7.209  1.00  0.00    -0.002 C 
ATOM     14  C   UNL     1       3.066  16.115  -6.033  1.00  0.00    -0.069 C 
ATOM     15  C   UNL     1       2.255  15.557  -4.885  1.00  0.00     0.039 C 
ATOM     16  C   UNL     1       3.751  17.441  -5.791  1.00  0.00     0.039 C 
BRANCH  13  17
ATOM     17  C   UNL     1       4.111  15.950  -8.322  1.00  0.00     0.066 CG0
ATOM     18  G   UNL     1       5.099  14.959  -8.909  1.00  0.00     0.000 G0
ENDBRANCH  13  17
ENDBRANCH  11  13
ENDBRANCH  10  11
ENDBRANCH   1  10
TORSDOF 0
ENDMDL
MODEL 2
REMARK VINA RESULT:    -4.358      1.685      2.252
REMARK INTER + INTRA:          -5.279
REMARK INTER:                  -5.927
REMARK INTRA:                   0.647
REMARK UNBOUND:                 0.862
REMARK SMILES CC1=CCC(=C(C)C)C(=O)CC(C)=CCC1
REMARK SMILES IDX 12 1 14 2 13 3 15 4 16 5 2 6 1 7 3 8 11 10 9 11 10 12 5 13
REMARK SMILES IDX 6 14 7 15 8 16 4 17
REMARK H PARENT
REMARK Flexibility Score: 60.00
ROOT
ATOM      1  C   UNL     1       2.760  12.755  -7.653  1.00  0.00    -0.070 C 
ATOM      2  C   UNL     1       3.181  13.365  -8.785  1.00  0.00    -0.027 C 
ATOM      3  C   UNL     1       2.960  11.266  -7.532  1.00  0.00     0.039 C 
ENDROOT
BRANCH   2   4
ATOM      4  C   UNL     1       3.194  14.855  -9.010  1.00  0.00     0.032 C 
BRANCH   4   5
ATOM      5  C   UNL     1       4.627  15.388  -8.894  1.00  0.00     0.034 C 
BRANCH   5   6
ATOM      6  C   UNL     1       5.567  14.389  -8.251  1.00  0.00    -0.077 C 
ATOM      7  C   UNL     1       6.227  13.352  -9.125  1.00  0.00     0.039 C 
ATOM      8  C   UNL     1       5.795  14.325  -6.914  1.00  0.00    -0.023 CG0
ATOM      9  G   UNL     1       5.298  15.282  -5.847  1.00  0.00     0.000 G0
ENDBRANCH   5   6
ENDBRANCH   4   5
ENDBRANCH   2   4
BRANCH   1  10
ATOM     10  C   UNL     1       2.081  13.489  -6.513  1.00  0.00     0.111 C 
BRANCH  10  11
ATOM     11  C   UNL     1       3.077  13.993  -5.496  1.00  0.00     0.163 C 
ATOM     12  O   UNL     1       3.286  13.264  -4.489  1.00  0.00    -0.294 OA
BRANCH  11  13
ATOM     13  C   UNL     1       3.797  15.305  -5.612  1.00  0.00    -0.002 C 
ATOM     14  C   UNL     1       3.096  16.479  -5.676  1.00  0.00    -0.069 C 
ATOM     15  C   UNL     1       1.621  16.537  -5.348  1.00  0.00     0.039 C 
ATOM     16  C   UNL     1       3.762  17.791  -6.025  1.00  0.00     0.039 C 
BRANCH  13  17
ATOM     17  C   UNL     1       5.304  15.272  -5.842  1.00  0.00     0.066 CG0
ATOM     18  G   UNL     1       5.803  14.329  -6.920  1.00  0.00     0.000 G0
ENDBRANCH  13  17
ENDBRANCH  11  13
ENDBRANCH  10  11
ENDBRANCH   1  10
TORSDOF 0
ENDMDL
MODEL 3
REMARK VINA RESULT:    -3.855      1.684      3.312
REMARK INTER + INTRA:          -4.570
REMARK INTER:                  -5.235
REMARK INTRA:                   0.666
REMARK UNBOUND:                 0.862
REMARK SMILES CC1=CCC(=C(C)C)C(=O)CC(C)=CCC1
REMARK SMILES IDX 12 1 14 2 13 3 15 4 16 5 2 6 1 7 3 8 11 10 9 11 10 12 5 13
REMARK SMILES IDX 6 14 7 15 8 16 4 17
REMARK H PARENT
REMARK Flexibility Score: 60.00
ROOT
ATOM      1  C   UNL     1       5.883  12.972  -6.789  1.00  0.00    -0.070 C 
ATOM      2  C   UNL     1       5.353  11.982  -7.544  1.00  0.00    -0.027 C 
ATOM      3  C   UNL     1       6.368  12.627  -5.404  1.00  0.00     0.039 C 
ENDROOT
BRANCH   2   4
ATOM      4  C   UNL     1       4.958  12.117  -8.992  1.00  0.00     0.032 C 
BRANCH   4   5
ATOM      5  C   UNL     1       3.432  12.051  -9.125  1.00  0.00     0.034 C 
BRANCH   5   6
ATOM      6  C   UNL     1       2.745  11.784  -7.801  1.00  0.00    -0.077 C 
ATOM      7  C   UNL     1       2.624  10.358  -7.326  1.00  0.00     0.039 C 
ATOM      8  C   UNL     1       2.164  12.752  -7.047  1.00  0.00    -0.023 CG0
ATOM      9  G   UNL     1       2.202  14.250  -7.283  1.00  0.00     0.000 G0
ENDBRANCH   5   6
ENDBRANCH   4   5
ENDBRANCH   2   4
BRANCH   1  10
ATOM     10  C   UNL     1       5.997  14.409  -7.259  1.00  0.00     0.111 C 
BRANCH  10  11
ATOM     11  C   UNL     1       4.661  14.973  -7.678  1.00  0.00     0.163 C 
ATOM     12  O   UNL     1       4.585  15.470  -8.834  1.00  0.00    -0.294 OA
BRANCH  11  13
ATOM     13  C   UNL     1       3.448  14.989  -6.794  1.00  0.00    -0.002 C 
ATOM     14  C   UNL     1       3.517  15.507  -5.528  1.00  0.00    -0.069 C 
ATOM     15  C   UNL     1       4.704  16.328  -5.075  1.00  0.00     0.039 C 
ATOM     16  C   UNL     1       2.396  15.335  -4.530  1.00  0.00     0.039 C 
BRANCH  13  17
ATOM     17  C   UNL     1       2.204  14.253  -7.278  1.00  0.00     0.066 CG0
ATOM     18  G   UNL     1       2.159  12.758  -7.018  1.00  0.00     0.000 G0
ENDBRANCH  13  17
ENDBRANCH  11  13
ENDBRANCH  10  11
ENDBRANCH   1  10
TORSDOF 0
ENDMDL
MODEL 4
REMARK VINA RESULT:    -3.834      1.364      3.543
REMARK INTER + INTRA:          -4.541
REMARK INTER:                  -5.024
REMARK INTRA:                   0.483
REMARK UNBOUND:                 0.862
REMARK SMILES CC1=CCC(=C(C)C)C(=O)CC(C)=CCC1
REMARK SMILES IDX 12 1 14 2 13 3 15 4 16 5 2 6 1 7 3 8 11 10 9 11 10 12 5 13
REMARK SMILES IDX 6 14 7 15 8 16 4 17
REMARK H PARENT
REMARK Flexibility Score: 60.00
ROOT
ATOM      1  C   UNL     1       2.657  13.419  -5.816  1.00  0.00    -0.070 C 
ATOM      2  C   UNL     1       3.380  13.906  -4.781  1.00  0.00    -0.027 C 
ATOM      3  C   UNL     1       2.657  11.929  -6.043  1.00  0.00     0.039 C 
ENDROOT
BRANCH   2   4
ATOM      4  C   UNL     1       3.373  15.342  -4.324  1.00  0.00     0.032 C 
BRANCH   4   5
ATOM      5  C   UNL     1       4.511  16.112  -5.005  1.00  0.00     0.034 C 
BRANCH   5   6
ATOM      6  C   UNL     1       4.016  17.015  -6.117  1.00  0.00    -0.077 C 
ATOM      7  C   UNL     1       3.310  18.295  -5.747  1.00  0.00     0.039 C 
ATOM      8  C   UNL     1       4.107  16.703  -7.435  1.00  0.00    -0.023 CG0
ATOM      9  G   UNL     1       4.817  15.513  -8.053  1.00  0.00     0.000 G0
ENDBRANCH   5   6
ENDBRANCH   4   5
ENDBRANCH   2   4
BRANCH   1  10
ATOM     10  C   UNL     1       1.865  14.296  -6.766  1.00  0.00     0.111 C 
BRANCH  10  11
ATOM     11  C   UNL     1       2.504  14.368  -8.132  1.00  0.00     0.163 C 
ATOM     12  O   UNL     1       1.731  14.484  -9.122  1.00  0.00    -0.294 OA
BRANCH  11  13
ATOM     13  C   UNL     1       3.985  14.287  -8.366  1.00  0.00    -0.002 C 
ATOM     14  C   UNL     1       4.572  13.096  -8.698  1.00  0.00    -0.069 C 
ATOM     15  C   UNL     1       3.748  11.900  -9.120  1.00  0.00     0.039 C 
ATOM     16  C   UNL     1       6.073  12.919  -8.713  1.00  0.00     0.039 C 
BRANCH  13  17
ATOM     17  C   UNL     1       4.825  15.518  -8.043  1.00  0.00     0.066 CG0
ATOM     18  G   UNL     1       4.088  16.702  -7.445  1.00  0.00     0.000 G0
ENDBRANCH  13  17
ENDBRANCH  11  13
ENDBRANCH  10  11
ENDBRANCH   1  10
TORSDOF 0
ENDMDL
MODEL 5
REMARK VINA RESULT:    -3.640      1.777      4.133
REMARK INTER + INTRA:          -4.268
REMARK INTER:                  -5.052
REMARK INTRA:                   0.784
REMARK UNBOUND:                 0.862
REMARK SMILES CC1=CCC(=C(C)C)C(=O)CC(C)=CCC1
REMARK SMILES IDX 12 1 14 2 13 3 15 4 16 5 2 6 1 7 3 8 11 10 9 11 10 12 5 13
REMARK SMILES IDX 6 14 7 15 8 16 4 17
REMARK H PARENT
REMARK Flexibility Score: 60.00
ROOT
ATOM      1  C   UNL     1       3.743  15.376  -5.599  1.00  0.00    -0.070 C 
ATOM      2  C   UNL     1       3.289  15.891  -6.764  1.00  0.00    -0.027 C 
ATOM      3  C   UNL     1       4.313  16.326  -4.577  1.00  0.00     0.039 C 
ENDROOT
BRANCH   2   4
ATOM      4  C   UNL     1       2.559  15.112  -7.827  1.00  0.00     0.032 C 
BRANCH   4   5
ATOM      5  C   UNL     1       3.381  15.099  -9.121  1.00  0.00     0.034 C 
BRANCH   5   6
ATOM      6  C   UNL     1       4.825  15.499  -8.896  1.00  0.00    -0.077 C 
ATOM      7  C   UNL     1       5.197  16.956  -9.016  1.00  0.00     0.039 C 
ATOM      8  C   UNL     1       5.823  14.610  -8.662  1.00  0.00    -0.023 CG0
ATOM      9  G   UNL     1       5.693  13.115  -8.443  1.00  0.00     0.000 G0
ENDBRANCH   5   6
ENDBRANCH   4   5
ENDBRANCH   2   4
BRANCH   1  10
ATOM     10  C   UNL     1       3.725  13.894  -5.279  1.00  0.00     0.111 C 
BRANCH  10  11
ATOM     11  C   UNL     1       4.811  13.145  -6.014  1.00  0.00     0.163 C 
ATOM     12  O   UNL     1       5.890  12.945  -5.393  1.00  0.00    -0.294 OA
BRANCH  11  13
ATOM     13  C   UNL     1       4.678  12.657  -7.427  1.00  0.00    -0.002 C 
ATOM     14  C   UNL     1       3.753  11.701  -7.748  1.00  0.00    -0.069 C 
ATOM     15  C   UNL     1       2.655  11.310  -6.785  1.00  0.00     0.039 C 
ATOM     16  C   UNL     1       3.742  11.018  -9.097  1.00  0.00     0.039 C 
BRANCH  13  17
ATOM     17  C   UNL     1       5.718  13.121  -8.441  1.00  0.00     0.066 CG0
ATOM     18  G   UNL     1       5.828  14.619  -8.661  1.00  0.00     0.000 G0
ENDBRANCH  13  17
ENDBRANCH  11  13
ENDBRANCH  10  11
ENDBRANCH   1  10
TORSDOF 0
ENDMDL
MODEL 6
REMARK VINA RESULT:    -3.618      1.712      2.511
REMARK INTER + INTRA:          -4.236
REMARK INTER:                  -4.539
REMARK INTRA:                   0.303
REMARK UNBOUND:                 0.862
REMARK SMILES CC1=CCC(=C(C)C)C(=O)CC(C)=CCC1
REMARK SMILES IDX 12 1 14 2 13 3 15 4 16 5 2 6 1 7 3 8 11 10 9 11 10 12 5 13
REMARK SMILES IDX 6 14 7 15 8 16 4 17
REMARK H PARENT
REMARK Flexibility Score: 60.00
ROOT
ATOM      1  C   UNL     1       2.735  13.350  -7.644  1.00  0.00    -0.070 C 
ATOM      2  C   UNL     1       3.464  12.284  -8.049  1.00  0.00    -0.027 C 
ATOM      3  C   UNL     1       1.833  13.181  -6.449  1.00  0.00     0.039 C 
ENDROOT
BRANCH   2   4
ATOM      4  C   UNL     1       4.519  12.318  -9.125  1.00  0.00     0.032 C 
BRANCH   4   5
ATOM      5  C   UNL     1       5.855  12.776  -8.531  1.00  0.00     0.034 C 
BRANCH   5   6
ATOM      6  C   UNL     1       5.966  12.475  -7.050  1.00  0.00    -0.077 C 
ATOM      7  C   UNL     1       6.062  11.035  -6.612  1.00  0.00     0.039 C 
ATOM      8  C   UNL     1       5.909  13.426  -6.083  1.00  0.00    -0.023 CG0
ATOM      9  G   UNL     1       5.872  14.931  -6.272  1.00  0.00     0.000 G0
ENDBRANCH   5   6
ENDBRANCH   4   5
ENDBRANCH   2   4
BRANCH   1  10
ATOM     10  C   UNL     1       2.767  14.696  -8.343  1.00  0.00     0.111 C 
BRANCH  10  11
ATOM     11  C   UNL     1       3.962  15.520  -7.925  1.00  0.00     0.163 C 
ATOM     12  O   UNL     1       4.531  16.200  -8.821  1.00  0.00    -0.294 OA
BRANCH  11  13
ATOM     13  C   UNL     1       4.507  15.550  -6.527  1.00  0.00    -0.002 C 
ATOM     14  C   UNL     1       3.872  16.267  -5.549  1.00  0.00    -0.069 C 
ATOM     15  C   UNL     1       2.475  16.810  -5.749  1.00  0.00     0.039 C 
ATOM     16  C   UNL     1       4.504  16.514  -4.198  1.00  0.00     0.039 C 
BRANCH  13  17
ATOM     17  C   UNL     1       5.872  14.916  -6.281  1.00  0.00     0.066 CG0
ATOM     18  G   UNL     1       5.894  13.411  -6.087  1.00  0.00     0.000 G0
ENDBRANCH  13  17
ENDBRANCH  11  13
ENDBRANCH  10  11
ENDBRANCH   1  10
TORSDOF 0
ENDMDL
MODEL 7
REMARK VINA RESULT:    -3.491      1.918      3.135
REMARK INTER + INTRA:          -4.058
REMARK INTER:                  -5.048
REMARK INTRA:                   0.990
REMARK UNBOUND:                 0.862
REMARK SMILES CC1=CCC(=C(C)C)C(=O)CC(C)=CCC1
REMARK SMILES IDX 12 1 14 2 13 3 15 4 16 5 2 6 1 7 3 8 11 10 9 11 10 12 5 13
REMARK SMILES IDX 6 14 7 15 8 16 4 17
REMARK H PARENT
REMARK Flexibility Score: 60.00
ROOT
ATOM      1  C   UNL     1       5.655  12.978  -6.920  1.00  0.00    -0.070 C 
ATOM      2  C   UNL     1       5.346  13.115  -8.230  1.00  0.00    -0.027 C 
ATOM      3  C   UNL     1       6.045  11.610  -6.421  1.00  0.00     0.039 C 
ENDROOT
BRANCH   2   4
ATOM      4  C   UNL     1       5.080  14.426  -8.922  1.00  0.00     0.032 C 
BRANCH   4   5
ATOM      5  C   UNL     1       3.571  14.613  -9.125  1.00  0.00     0.034 C 
BRANCH   5   6
ATOM      6  C   UNL     1       2.757  13.527  -8.450  1.00  0.00    -0.077 C 
ATOM      7  C   UNL     1       2.686  12.168  -9.101  1.00  0.00     0.039 C 
ATOM      8  C   UNL     1       2.023  13.728  -7.327  1.00  0.00    -0.023 CG0
ATOM      9  G   UNL     1       1.978  14.977  -6.466  1.00  0.00     0.000 G0
ENDBRANCH   5   6
ENDBRANCH   4   5
ENDBRANCH   2   4
BRANCH   1  10
ATOM     10  C   UNL     1       5.610  14.125  -5.928  1.00  0.00     0.111 C 
BRANCH  10  11
ATOM     11  C   UNL     1       4.225  14.327  -5.362  1.00  0.00     0.163 C 
ATOM     12  O   UNL     1       3.848  13.521  -4.469  1.00  0.00    -0.294 OA
BRANCH  11  13
ATOM     13  C   UNL     1       3.287  15.406  -5.818  1.00  0.00    -0.002 C 
ATOM     14  C   UNL     1       3.534  16.717  -5.512  1.00  0.00    -0.069 C 
ATOM     15  C   UNL     1       4.872  17.162  -4.967  1.00  0.00     0.039 C 
ATOM     16  C   UNL     1       2.507  17.801  -5.746  1.00  0.00     0.039 C 
BRANCH  13  17
ATOM     17  C   UNL     1       1.973  14.981  -6.465  1.00  0.00     0.066 CG0
ATOM     18  G   UNL     1       2.010  13.718  -7.306  1.00  0.00     0.000 G0
ENDBRANCH  13  17
ENDBRANCH  11  13
ENDBRANCH  10  11
ENDBRANCH   1  10
TORSDOF 0
ENDMDL
MODEL 8
REMARK VINA RESULT:    -3.485      1.828      3.940
REMARK INTER + INTRA:          -4.048
REMARK INTER:                  -4.723
REMARK INTRA:                   0.675
REMARK UNBOUND:                 0.862
REMARK SMILES CC1=CCC(=C(C)C)C(=O)CC(C)=CCC1
REMARK SMILES IDX 12 1 14 2 13 3 15 4 16 5 2 6 1 7 3 8 11 10 9 11 10 12 5 13
REMARK SMILES IDX 6 14 7 15 8 16 4 17
REMARK H PARENT
REMARK Flexibility Score: 60.00
ROOT
ATOM      1  C   UNL     1       2.329  13.699  -8.036  1.00  0.00    -0.070 C 
ATOM      2  C   UNL     1       1.882  13.748  -6.760  1.00  0.00    -0.027 C 
ATOM      3  C   UNL     1       1.501  14.365  -9.104  1.00  0.00     0.039 C 
ENDROOT
BRANCH   2   4
ATOM      4  C   UNL     1       2.651  13.267  -5.557  1.00  0.00     0.032 C 
BRANCH   4   5
ATOM      5  C   UNL     1       2.977  14.451  -4.639  1.00  0.00     0.034 C 
BRANCH   5   6
ATOM      6  C   UNL     1       3.281  15.718  -5.412  1.00  0.00    -0.077 C 
ATOM      7  C   UNL     1       2.203  16.767  -5.531  1.00  0.00     0.039 C 
ATOM      8  C   UNL     1       4.448  15.935  -6.070  1.00  0.00    -0.023 CG0
ATOM      9  G   UNL     1       5.691  15.065  -6.054  1.00  0.00     0.000 G0
ENDBRANCH   5   6
ENDBRANCH   4   5
ENDBRANCH   2   4
BRANCH   1  10
ATOM     10  C   UNL     1       3.607  12.994  -8.446  1.00  0.00     0.111 C 
BRANCH  10  11
ATOM     11  C   UNL     1       4.828  13.845  -8.189  1.00  0.00     0.163 C 
ATOM     12  O   UNL     1       5.190  14.621  -9.115  1.00  0.00    -0.294 OA
BRANCH  11  13
ATOM     13  C   UNL     1       5.627  13.797  -6.920  1.00  0.00    -0.002 C 
ATOM     14  C   UNL     1       6.143  12.612  -6.468  1.00  0.00    -0.069 C 
ATOM     15  C   UNL     1       6.182  11.382  -7.347  1.00  0.00     0.039 C 
ATOM     16  C   UNL     1       6.749  12.476  -5.090  1.00  0.00     0.039 C 
BRANCH  13  17
ATOM     17  C   UNL     1       5.686  15.059  -6.067  1.00  0.00     0.066 CG0
ATOM     18  G   UNL     1       4.453  15.943  -6.081  1.00  0.00     0.000 G0
ENDBRANCH  13  17
ENDBRANCH  11  13
ENDBRANCH  10  11
ENDBRANCH   1  10
TORSDOF 0
ENDMDL
MODEL 9
REMARK VINA RESULT:    -3.339      1.797      4.315
REMARK INTER + INTRA:          -3.843
REMARK INTER:                  -4.335
REMARK INTRA:                   0.492
REMARK UNBOUND:                 0.862
REMARK SMILES CC1=CCC(=C(C)C)C(=O)CC(C)=CCC1
REMARK SMILES IDX 12 1 14 2 13 3 15 4 16 5 2 6 1 7 3 8 11 10 9 11 10 12 5 13
REMARK SMILES IDX 6 14 7 15 8 16 4 17
REMARK H PARENT
REMARK Flexibility Score: 60.00
ROOT
ATOM      1  C   UNL     1       5.797  13.416  -7.352  1.00  0.00    -0.070 C 
ATOM      2  C   UNL     1       5.960  14.138  -6.220  1.00  0.00    -0.027 C 
ATOM      3  C   UNL     1       6.439  12.055  -7.425  1.00  0.00     0.039 C 
ENDROOT
BRANCH   2   4
ATOM      4  C   UNL     1       5.271  15.444  -5.921  1.00  0.00     0.032 C 
BRANCH   4   5
ATOM      5  C   UNL     1       4.081  15.204  -4.984  1.00  0.00     0.034 C 
BRANCH   5   6
ATOM      6  C   UNL     1       2.750  15.472  -5.656  1.00  0.00    -0.077 C 
ATOM      7  C   UNL     1       2.244  16.891  -5.715  1.00  0.00     0.039 C 
ATOM      8  C   UNL     1       1.946  14.495  -6.147  1.00  0.00    -0.023 CG0
ATOM      9  G   UNL     1       2.257  13.013  -6.254  1.00  0.00     0.000 G0
ENDBRANCH   5   6
ENDBRANCH   4   5
ENDBRANCH   2   4
BRANCH   1  10
ATOM     10  C   UNL     1       5.019  13.915  -8.554  1.00  0.00     0.111 C 
BRANCH  10  11
ATOM     11  C   UNL     1       3.544  13.616  -8.435  1.00  0.00     0.163 C 
ATOM     12  O   UNL     1       2.758  14.326  -9.119  1.00  0.00    -0.294 OA
BRANCH  11  13
ATOM     13  C   UNL     1       2.978  12.551  -7.541  1.00  0.00    -0.002 C 
ATOM     14  C   UNL     1       2.981  11.240  -7.935  1.00  0.00    -0.069 C 
ATOM     15  C   UNL     1       3.791  10.775  -9.124  1.00  0.00     0.039 C 
ATOM     16  C   UNL     1       2.219  10.175  -7.179  1.00  0.00     0.039 C 
BRANCH  13  17
ATOM     17  C   UNL     1       2.243  12.995  -6.281  1.00  0.00     0.066 CG0
ATOM     18  G   UNL     1       1.948  14.478  -6.157  1.00  0.00     0.000 G0
ENDBRANCH  13  17
ENDBRANCH  11  13
ENDBRANCH  10  11
ENDBRANCH   1  10
TORSDOF 0
ENDMDL
