MODEL 1
REMARK VINA RESULT:    -5.050      0.000      0.000
REMARK INTER + INTRA:          -7.994
REMARK INTER:                  -7.707
REMARK INTRA:                  -0.286
REMARK UNBOUND:                -0.286
REMARK SMILES CC1=CCC[C@@H](C)C(=O)C[C@@H](C(C)C)C(=O)C1
REMARK SMILES IDX 8 1 9 2 6 3 7 4 5 5 4 6 3 7 2 8 1 9 10 11 11 12 15 13 16 14
REMARK SMILES IDX 17 15 12 17 13 18 14 19
REMARK H PARENT
REMARK Flexibility Score: 70.00
ROOT
ATOM      1  C   UNL     1      -9.281  32.680  22.201  1.00  0.00     0.136 C 
ATOM      2  O   UNL     1     -10.125  32.377  21.370  1.00  0.00    -0.299 OA
ENDROOT
BRANCH   1   3
ATOM      3  C   UNL     1      -7.817  32.466  21.864  1.00  0.00     0.053 C 
ATOM      4  C   UNL     1      -7.460  33.135  20.531  1.00  0.00     0.016 C 
BRANCH   3   5
ATOM      5  C   UNL     1      -7.449  30.970  21.850  1.00  0.00     0.015 C 
BRANCH   5   6
ATOM      6  C   UNL     1      -7.093  30.450  23.254  1.00  0.00     0.028 C 
BRANCH   6   7
ATOM      7  C   UNL     1      -8.238  29.667  23.841  1.00  0.00    -0.028 C 
ATOM      8  C   UNL     1      -8.807  29.924  25.042  1.00  0.00    -0.070 CG0
ATOM      9  C   UNL     1      -9.988  29.084  25.459  1.00  0.00     0.039 C 
ATOM     10  G   UNL     1      -8.300  31.005  25.984  1.00  0.00     0.000 G0
ENDBRANCH   6   7
ENDBRANCH   5   6
ENDBRANCH   3   5
ENDBRANCH   1   3
BRANCH   1  11
ATOM     11  C   UNL     1      -9.739  33.226  23.535  1.00  0.00     0.087 C 
BRANCH  11  12
ATOM     12  C   UNL     1      -8.604  33.216  24.596  1.00  0.00     0.066 C 
BRANCH  12  13
ATOM     13  C   UNL     1      -8.974  32.349  25.791  1.00  0.00     0.140 C 
ATOM     14  O   UNL     1      -9.770  32.765  26.621  1.00  0.00    -0.299 OA
BRANCH  13  15
ATOM     15  C   UNL     1      -8.313  31.012  26.018  1.00  0.00     0.106 CG0
ATOM     16  G   UNL     1      -8.809  29.952  25.047  1.00  0.00     0.000 G0
ENDBRANCH  13  15
ENDBRANCH  12  13
BRANCH  12  17
ATOM     17  C   UNL     1      -8.179  34.644  25.065  1.00  0.00    -0.006 C 
ATOM     18  C   UNL     1      -9.305  35.692  24.990  1.00  0.00     0.008 C 
ATOM     19  C   UNL     1      -6.945  35.148  24.299  1.00  0.00     0.008 C 
ENDBRANCH  12  17
ENDBRANCH  11  12
ENDBRANCH   1  11
TORSDOF 1
ENDMDL
MODEL 2
REMARK VINA RESULT:    -4.459      1.957      4.143
REMARK INTER + INTRA:          -7.092
REMARK INTER:                  -7.318
REMARK INTRA:                   0.226
REMARK UNBOUND:                -0.286
REMARK SMILES CC1=CCC[C@@H](C)C(=O)C[C@@H](C(C)C)C(=O)C1
REMARK SMILES IDX 8 1 9 2 6 3 7 4 5 5 4 6 3 7 2 8 1 9 10 11 11 12 15 13 16 14
REMARK SMILES IDX 17 15 12 17 13 18 14 19
REMARK H PARENT
REMARK Flexibility Score: 70.00
ROOT
ATOM      1  C   UNL     1      -7.522  30.212  23.857  1.00  0.00     0.136 C 
ATOM      2  O   UNL     1      -6.370  30.277  23.452  1.00  0.00    -0.299 OA
ENDROOT
BRANCH   1   3
ATOM      3  C   UNL     1      -8.628  29.904  22.863  1.00  0.00     0.053 C 
ATOM      4  C   UNL     1      -8.586  28.430  22.441  1.00  0.00     0.016 C 
BRANCH   3   5
ATOM      5  C   UNL     1      -8.565  30.834  21.637  1.00  0.00     0.015 C 
BRANCH   5   6
ATOM      6  C   UNL     1      -9.418  32.101  21.829  1.00  0.00     0.028 C 
BRANCH   6   7
ATOM      7  C   UNL     1      -8.566  33.254  22.292  1.00  0.00    -0.028 C 
ATOM      8  C   UNL     1      -8.659  33.836  23.511  1.00  0.00    -0.070 CG0
ATOM      9  C   UNL     1      -7.689  34.942  23.842  1.00  0.00     0.039 C 
ATOM     10  G   UNL     1      -9.703  33.434  24.542  1.00  0.00     0.000 G0
ENDBRANCH   6   7
ENDBRANCH   5   6
ENDBRANCH   3   5
ENDBRANCH   1   3
BRANCH   1  11
ATOM     11  C   UNL     1      -7.792  30.471  25.322  1.00  0.00     0.087 C 
BRANCH  11  12
ATOM     12  C   UNL     1      -9.204  31.073  25.562  1.00  0.00     0.066 C 
BRANCH  12  13
ATOM     13  C   UNL     1      -9.148  32.591  25.652  1.00  0.00     0.140 C 
ATOM     14  O   UNL     1      -8.698  33.125  26.656  1.00  0.00    -0.299 OA
BRANCH  13  15
ATOM     15  C   UNL     1      -9.714  33.458  24.554  1.00  0.00     0.106 CG0
ATOM     16  G   UNL     1      -8.667  33.830  23.516  1.00  0.00     0.000 G0
ENDBRANCH  13  15
ENDBRANCH  12  13
BRANCH  12  17
ATOM     17  C   UNL     1      -9.930  30.477  26.811  1.00  0.00    -0.006 C 
ATOM     18  C   UNL     1      -9.332  30.924  28.158  1.00  0.00     0.008 C 
ATOM     19  C   UNL     1      -9.993  28.942  26.750  1.00  0.00     0.008 C 
ENDBRANCH  12  17
ENDBRANCH  11  12
ENDBRANCH   1  11
TORSDOF 1
ENDMDL
MODEL 3
REMARK VINA RESULT:    -4.060      1.686      3.915
REMARK INTER + INTRA:          -6.482
REMARK INTER:                  -6.645
REMARK INTRA:                   0.163
REMARK UNBOUND:                -0.286
REMARK SMILES CC1=CCC[C@@H](C)C(=O)C[C@@H](C(C)C)C(=O)C1
REMARK SMILES IDX 8 1 9 2 6 3 7 4 5 5 4 6 3 7 2 8 1 9 10 11 11 12 15 13 16 14
REMARK SMILES IDX 17 15 12 17 13 18 14 19
REMARK H PARENT
REMARK Flexibility Score: 70.00
ROOT
ATOM      1  C   UNL     1      -8.257  33.342  23.456  1.00  0.00     0.136 C 
ATOM      2  O   UNL     1      -8.472  33.516  22.265  1.00  0.00    -0.299 OA
ENDROOT
BRANCH   1   3
ATOM      3  C   UNL     1      -8.595  34.458  24.429  1.00  0.00     0.053 C 
ATOM      4  C   UNL     1      -7.332  35.225  24.838  1.00  0.00     0.016 C 
BRANCH   3   5
ATOM      5  C   UNL     1      -9.346  33.926  25.664  1.00  0.00     0.015 C 
BRANCH   5   6
ATOM      6  C   UNL     1      -8.387  33.578  26.816  1.00  0.00     0.028 C 
BRANCH   6   7
ATOM      7  C   UNL     1      -8.977  32.509  27.698  1.00  0.00    -0.028 C 
ATOM      8  C   UNL     1      -8.772  31.181  27.534  1.00  0.00    -0.070 CG0
ATOM      9  C   UNL     1      -9.385  30.241  28.542  1.00  0.00     0.039 C 
ATOM     10  G   UNL     1      -7.969  30.604  26.379  1.00  0.00     0.000 G0
ENDBRANCH   6   7
ENDBRANCH   5   6
ENDBRANCH   3   5
ENDBRANCH   1   3
BRANCH   1  11
ATOM     11  C   UNL     1      -7.639  32.035  23.899  1.00  0.00     0.087 C 
BRANCH  11  12
ATOM     12  C   UNL     1      -8.646  30.853  23.825  1.00  0.00     0.066 C 
BRANCH  12  13
ATOM     13  C   UNL     1      -8.859  30.225  25.195  1.00  0.00     0.140 C 
ATOM     14  O   UNL     1      -9.798  29.461  25.375  1.00  0.00    -0.299 OA
BRANCH  13  15
ATOM     15  C   UNL     1      -7.979  30.590  26.366  1.00  0.00     0.106 CG0
ATOM     16  G   UNL     1      -8.774  31.175  27.523  1.00  0.00     0.000 G0
ENDBRANCH  13  15
ENDBRANCH  12  13
BRANCH  12  17
ATOM     17  C   UNL     1      -8.250  29.763  22.779  1.00  0.00    -0.006 C 
ATOM     18  C   UNL     1      -6.754  29.754  22.415  1.00  0.00     0.008 C 
ATOM     19  C   UNL     1      -9.098  29.872  21.500  1.00  0.00     0.008 C 
ENDBRANCH  12  17
ENDBRANCH  11  12
ENDBRANCH   1  11
TORSDOF 1
ENDMDL
MODEL 4
REMARK VINA RESULT:    -3.922      1.863      5.162
REMARK INTER + INTRA:          -6.271
REMARK INTER:                  -7.296
REMARK INTRA:                   1.025
REMARK UNBOUND:                -0.286
REMARK SMILES CC1=CCC[C@@H](C)C(=O)C[C@@H](C(C)C)C(=O)C1
REMARK SMILES IDX 8 1 9 2 6 3 7 4 5 5 4 6 3 7 2 8 1 9 10 11 11 12 15 13 16 14
REMARK SMILES IDX 17 15 12 17 13 18 14 19
REMARK H PARENT
REMARK Flexibility Score: 70.00
ROOT
ATOM      1  C   UNL     1      -8.918  31.308  25.793  1.00  0.00     0.136 C 
ATOM      2  O   UNL     1     -10.106  31.179  25.537  1.00  0.00    -0.299 OA
ENDROOT
BRANCH   1   3
ATOM      3  C   UNL     1      -8.462  32.555  26.530  1.00  0.00     0.053 C 
ATOM      4  C   UNL     1      -8.933  32.528  27.989  1.00  0.00     0.016 C 
BRANCH   3   5
ATOM      5  C   UNL     1      -8.932  33.838  25.819  1.00  0.00     0.015 C 
BRANCH   5   6
ATOM      6  C   UNL     1      -7.759  34.611  25.189  1.00  0.00     0.028 C 
BRANCH   6   7
ATOM      7  C   UNL     1      -7.970  34.790  23.709  1.00  0.00    -0.028 C 
ATOM      8  C   UNL     1      -7.711  33.843  22.777  1.00  0.00    -0.070 CG0
ATOM      9  C   UNL     1      -8.036  34.159  21.339  1.00  0.00     0.039 C 
ATOM     10  G   UNL     1      -7.097  32.494  23.117  1.00  0.00     0.000 G0
ENDBRANCH   6   7
ENDBRANCH   5   6
ENDBRANCH   3   5
ENDBRANCH   1   3
BRANCH   1  11
ATOM     11  C   UNL     1      -7.955  30.234  25.338  1.00  0.00     0.087 C 
BRANCH  11  12
ATOM     12  C   UNL     1      -7.952  30.063  23.793  1.00  0.00     0.066 C 
BRANCH  12  13
ATOM     13  C   UNL     1      -8.181  31.394  23.091  1.00  0.00     0.140 C 
ATOM     14  O   UNL     1      -9.206  31.575  22.448  1.00  0.00    -0.299 OA
BRANCH  13  15
ATOM     15  C   UNL     1      -7.126  32.473  23.103  1.00  0.00     0.106 CG0
ATOM     16  G   UNL     1      -7.697  33.840  22.763  1.00  0.00     0.000 G0
ENDBRANCH  13  15
ENDBRANCH  12  13
BRANCH  12  17
ATOM     17  C   UNL     1      -8.971  28.993  23.284  1.00  0.00    -0.006 C 
ATOM     18  C   UNL     1      -9.481  28.039  24.380  1.00  0.00     0.008 C 
ATOM     19  C   UNL     1      -8.399  28.182  22.109  1.00  0.00     0.008 C 
ENDBRANCH  12  17
ENDBRANCH  11  12
ENDBRANCH   1  11
TORSDOF 1
ENDMDL
MODEL 5
REMARK VINA RESULT:    -3.906      1.717      3.738
REMARK INTER + INTRA:          -6.248
REMARK INTER:                  -6.941
REMARK INTRA:                   0.694
REMARK UNBOUND:                -0.286
REMARK SMILES CC1=CCC[C@@H](C)C(=O)C[C@@H](C(C)C)C(=O)C1
REMARK SMILES IDX 8 1 9 2 6 3 7 4 5 5 4 6 3 7 2 8 1 9 10 11 11 12 15 13 16 14
REMARK SMILES IDX 17 15 12 17 13 18 14 19
REMARK H PARENT
REMARK Flexibility Score: 70.00
ROOT
ATOM      1  C   UNL     1      -7.893  34.189  24.058  1.00  0.00     0.136 C 
ATOM      2  O   UNL     1      -7.608  35.163  23.377  1.00  0.00    -0.299 OA
ENDROOT
BRANCH   1   3
ATOM      3  C   UNL     1      -8.752  34.389  25.293  1.00  0.00     0.053 C 
ATOM      4  C   UNL     1      -7.880  34.507  26.550  1.00  0.00     0.016 C 
BRANCH   3   5
ATOM      5  C   UNL     1      -9.797  33.268  25.446  1.00  0.00     0.015 C 
BRANCH   5   6
ATOM      6  C   UNL     1      -9.462  32.323  26.614  1.00  0.00     0.028 C 
BRANCH   6   7
ATOM      7  C   UNL     1     -10.035  30.951  26.373  1.00  0.00    -0.028 C 
ATOM      8  C   UNL     1      -9.434  29.988  25.634  1.00  0.00    -0.070 CG0
ATOM      9  C   UNL     1     -10.111  28.644  25.540  1.00  0.00     0.039 C 
ATOM     10  G   UNL     1      -8.126  30.211  24.892  1.00  0.00     0.000 G0
ENDBRANCH   6   7
ENDBRANCH   5   6
ENDBRANCH   3   5
ENDBRANCH   1   3
BRANCH   1  11
ATOM     11  C   UNL     1      -7.353  32.836  23.652  1.00  0.00     0.087 C 
BRANCH  11  12
ATOM     12  C   UNL     1      -8.426  31.962  22.945  1.00  0.00     0.066 C 
BRANCH  12  13
ATOM     13  C   UNL     1      -8.359  30.517  23.418  1.00  0.00     0.140 C 
ATOM     14  O   UNL     1      -8.560  29.606  22.626  1.00  0.00    -0.299 OA
BRANCH  13  15
ATOM     15  C   UNL     1      -8.127  30.182  24.872  1.00  0.00     0.106 CG0
ATOM     16  G   UNL     1      -9.430  29.988  25.633  1.00  0.00     0.000 G0
ENDBRANCH  13  15
ENDBRANCH  12  13
BRANCH  12  17
ATOM     17  C   UNL     1      -8.357  32.031  21.386  1.00  0.00    -0.006 C 
ATOM     18  C   UNL     1      -7.635  33.278  20.844  1.00  0.00     0.008 C 
ATOM     19  C   UNL     1      -9.753  31.918  20.752  1.00  0.00     0.008 C 
ENDBRANCH  12  17
ENDBRANCH  11  12
ENDBRANCH   1  11
TORSDOF 1
ENDMDL
MODEL 6
REMARK VINA RESULT:    -3.906      1.464      3.470
REMARK INTER + INTRA:          -6.248
REMARK INTER:                  -8.154
REMARK INTRA:                   1.906
REMARK UNBOUND:                -0.286
REMARK SMILES CC1=CCC[C@@H](C)C(=O)C[C@@H](C(C)C)C(=O)C1
REMARK SMILES IDX 8 1 9 2 6 3 7 4 5 5 4 6 3 7 2 8 1 9 10 11 11 12 15 13 16 14
REMARK SMILES IDX 17 15 12 17 13 18 14 19
REMARK H PARENT
REMARK Flexibility Score: 70.00
ROOT
ATOM      1  C   UNL     1      -9.390  32.082  21.473  1.00  0.00     0.136 C 
ATOM      2  O   UNL     1      -9.744  31.364  20.549  1.00  0.00    -0.299 OA
ENDROOT
BRANCH   1   3
ATOM      3  C   UNL     1      -8.504  33.277  21.170  1.00  0.00     0.053 C 
ATOM      4  C   UNL     1      -7.129  32.822  20.663  1.00  0.00     0.016 C 
BRANCH   3   5
ATOM      5  C   UNL     1      -8.365  34.205  22.391  1.00  0.00     0.015 C 
BRANCH   5   6
ATOM      6  C   UNL     1      -7.479  33.588  23.487  1.00  0.00     0.028 C 
BRANCH   6   7
ATOM      7  C   UNL     1      -8.176  33.626  24.822  1.00  0.00    -0.028 C 
ATOM      8  C   UNL     1      -8.321  32.558  25.642  1.00  0.00    -0.070 CG0
ATOM      9  C   UNL     1      -8.991  32.777  26.975  1.00  0.00     0.039 C 
ATOM     10  G   UNL     1      -7.854  31.160  25.270  1.00  0.00     0.000 G0
ENDBRANCH   6   7
ENDBRANCH   5   6
ENDBRANCH   3   5
ENDBRANCH   1   3
BRANCH   1  11
ATOM     11  C   UNL     1      -9.829  31.729  22.876  1.00  0.00     0.087 C 
BRANCH  11  12
ATOM     12  C   UNL     1      -9.363  30.307  23.298  1.00  0.00     0.066 C 
BRANCH  12  13
ATOM     13  C   UNL     1      -8.961  30.272  24.765  1.00  0.00     0.140 C 
ATOM     14  O   UNL     1      -9.590  29.578  25.552  1.00  0.00    -0.299 OA
BRANCH  13  15
ATOM     15  C   UNL     1      -7.844  31.142  25.289  1.00  0.00     0.106 CG0
ATOM     16  G   UNL     1      -8.322  32.544  25.634  1.00  0.00     0.000 G0
ENDBRANCH  13  15
ENDBRANCH  12  13
BRANCH  12  17
ATOM     17  C   UNL     1      -8.217  29.737  22.402  1.00  0.00    -0.006 C 
ATOM     18  C   UNL     1      -8.250  28.206  22.238  1.00  0.00     0.008 C 
ATOM     19  C   UNL     1      -6.833  30.179  22.905  1.00  0.00     0.008 C 
ENDBRANCH  12  17
ENDBRANCH  11  12
ENDBRANCH   1  11
TORSDOF 1
ENDMDL
MODEL 7
REMARK VINA RESULT:    -3.475      1.974      4.943
REMARK INTER + INTRA:          -5.590
REMARK INTER:                  -6.832
REMARK INTRA:                   1.242
REMARK UNBOUND:                -0.286
REMARK SMILES CC1=CCC[C@@H](C)C(=O)C[C@@H](C(C)C)C(=O)C1
REMARK SMILES IDX 8 1 9 2 6 3 7 4 5 5 4 6 3 7 2 8 1 9 10 11 11 12 15 13 16 14
REMARK SMILES IDX 17 15 12 17 13 18 14 19
REMARK H PARENT
REMARK Flexibility Score: 70.00
ROOT
ATOM      1  C   UNL     1      -8.494  30.705  25.241  1.00  0.00     0.136 C 
ATOM      2  O   UNL     1      -9.619  30.397  24.877  1.00  0.00    -0.299 OA
ENDROOT
BRANCH   1   3
ATOM      3  C   UNL     1      -8.220  30.840  26.728  1.00  0.00     0.053 C 
ATOM      4  C   UNL     1      -8.705  29.598  27.486  1.00  0.00     0.016 C 
BRANCH   3   5
ATOM      5  C   UNL     1      -8.845  32.123  27.307  1.00  0.00     0.015 C 
BRANCH   5   6
ATOM      6  C   UNL     1      -7.847  33.294  27.325  1.00  0.00     0.028 C 
BRANCH   6   7
ATOM      7  C   UNL     1      -8.471  34.537  26.746  1.00  0.00    -0.028 C 
ATOM      8  C   UNL     1      -8.398  34.896  25.442  1.00  0.00    -0.070 CG0
ATOM      9  C   UNL     1      -9.132  36.141  25.010  1.00  0.00     0.039 C 
ATOM     10  G   UNL     1      -7.603  34.111  24.411  1.00  0.00     0.000 G0
ENDBRANCH   6   7
ENDBRANCH   5   6
ENDBRANCH   3   5
ENDBRANCH   1   3
BRANCH   1  11
ATOM     11  C   UNL     1      -7.437  30.966  24.191  1.00  0.00     0.087 C 
BRANCH  11  12
ATOM     12  C   UNL     1      -7.963  31.864  23.037  1.00  0.00     0.066 C 
BRANCH  12  13
ATOM     13  C   UNL     1      -8.489  33.191  23.567  1.00  0.00     0.140 C 
ATOM     14  O   UNL     1      -9.621  33.554  23.282  1.00  0.00    -0.299 OA
BRANCH  13  15
ATOM     15  C   UNL     1      -7.607  34.112  24.375  1.00  0.00     0.106 CG0
ATOM     16  G   UNL     1      -8.395  34.900  25.411  1.00  0.00     0.000 G0
ENDBRANCH  13  15
ENDBRANCH  12  13
BRANCH  12  17
ATOM     17  C   UNL     1      -9.039  31.166  22.146  1.00  0.00    -0.006 C 
ATOM     18  C   UNL     1      -8.741  29.685  21.844  1.00  0.00     0.008 C 
ATOM     19  C   UNL     1      -9.270  31.931  20.832  1.00  0.00     0.008 C 
ENDBRANCH  12  17
ENDBRANCH  11  12
ENDBRANCH   1  11
TORSDOF 1
ENDMDL
MODEL 8
REMARK VINA RESULT:    -3.369      1.940      4.339
REMARK INTER + INTRA:          -5.427
REMARK INTER:                  -7.099
REMARK INTRA:                   1.672
REMARK UNBOUND:                -0.286
REMARK SMILES CC1=CCC[C@@H](C)C(=O)C[C@@H](C(C)C)C(=O)C1
REMARK SMILES IDX 8 1 9 2 6 3 7 4 5 5 4 6 3 7 2 8 1 9 10 11 11 12 15 13 16 14
REMARK SMILES IDX 17 15 12 17 13 18 14 19
REMARK H PARENT
REMARK Flexibility Score: 70.00
ROOT
ATOM      1  C   UNL     1      -8.250  34.170  26.067  1.00  0.00     0.136 C 
ATOM      2  O   UNL     1      -8.021  34.332  27.257  1.00  0.00    -0.299 OA
ENDROOT
BRANCH   1   3
ATOM      3  C   UNL     1      -7.593  35.102  25.065  1.00  0.00     0.053 C 
ATOM      4  C   UNL     1      -8.505  36.295  24.751  1.00  0.00     0.016 C 
BRANCH   3   5
ATOM      5  C   UNL     1      -7.189  34.359  23.778  1.00  0.00     0.015 C 
BRANCH   5   6
ATOM      6  C   UNL     1      -7.863  34.957  22.530  1.00  0.00     0.028 C 
BRANCH   6   7
ATOM      7  C   UNL     1      -8.603  33.895  21.761  1.00  0.00    -0.028 C 
ATOM      8  C   UNL     1      -8.531  32.568  22.021  1.00  0.00    -0.070 CG0
ATOM      9  C   UNL     1      -9.384  31.638  21.196  1.00  0.00     0.039 C 
ATOM     10  G   UNL     1      -7.621  31.984  23.091  1.00  0.00     0.000 G0
ENDBRANCH   6   7
ENDBRANCH   5   6
ENDBRANCH   3   5
ENDBRANCH   1   3
BRANCH   1  11
ATOM     11  C   UNL     1      -9.198  33.066  25.654  1.00  0.00     0.087 C 
BRANCH  11  12
ATOM     12  C   UNL     1      -8.492  31.684  25.572  1.00  0.00     0.066 C 
BRANCH  12  13
ATOM     13  C   UNL     1      -8.409  31.192  24.134  1.00  0.00     0.140 C 
ATOM     14  O   UNL     1      -8.920  30.125  23.825  1.00  0.00    -0.299 OA
BRANCH  13  15
ATOM     15  C   UNL     1      -7.633  31.960  23.091  1.00  0.00     0.106 CG0
ATOM     16  G   UNL     1      -8.537  32.556  22.024  1.00  0.00     0.000 G0
ENDBRANCH  13  15
ENDBRANCH  12  13
BRANCH  12  17
ATOM     17  C   UNL     1      -9.144  30.597  26.486  1.00  0.00    -0.006 C 
ATOM     18  C   UNL     1     -10.023  31.170  27.613  1.00  0.00     0.008 C 
ATOM     19  C   UNL     1      -8.088  29.648  27.076  1.00  0.00     0.008 C 
ENDBRANCH  12  17
ENDBRANCH  11  12
ENDBRANCH   1  11
TORSDOF 1
ENDMDL
MODEL 9
REMARK VINA RESULT:    -3.236      2.461      4.127
REMARK INTER + INTRA:          -5.226
REMARK INTER:                  -5.665
REMARK INTRA:                   0.440
REMARK UNBOUND:                -0.286
REMARK SMILES CC1=CCC[C@@H](C)C(=O)C[C@@H](C(C)C)C(=O)C1
REMARK SMILES IDX 8 1 9 2 6 3 7 4 5 5 4 6 3 7 2 8 1 9 10 11 11 12 15 13 16 14
REMARK SMILES IDX 17 15 12 17 13 18 14 19
REMARK H PARENT
REMARK Flexibility Score: 70.00
ROOT
ATOM      1  C   UNL     1      -7.755  30.696  23.771  1.00  0.00     0.136 C 
ATOM      2  O   UNL     1      -6.682  30.503  23.217  1.00  0.00    -0.299 OA
ENDROOT
BRANCH   1   3
ATOM      3  C   UNL     1      -8.990  29.996  23.233  1.00  0.00     0.053 C 
ATOM      4  C   UNL     1      -9.091  28.568  23.785  1.00  0.00     0.016 C 
BRANCH   3   5
ATOM      5  C   UNL     1      -9.019  29.999  21.694  1.00  0.00     0.015 C 
BRANCH   5   6
ATOM      6  C   UNL     1      -9.679  31.271  21.131  1.00  0.00     0.028 C 
BRANCH   6   7
ATOM      7  C   UNL     1      -8.646  32.187  20.529  1.00  0.00    -0.028 C 
ATOM      8  C   UNL     1      -8.276  33.378  21.057  1.00  0.00    -0.070 CG0
ATOM      9  C   UNL     1      -7.180  34.148  20.364  1.00  0.00     0.039 C 
ATOM     10  G   UNL     1      -8.923  33.969  22.299  1.00  0.00     0.000 G0
ENDBRANCH   6   7
ENDBRANCH   5   6
ENDBRANCH   3   5
ENDBRANCH   1   3
BRANCH   1  11
ATOM     11  C   UNL     1      -7.804  31.646  24.947  1.00  0.00     0.087 C 
BRANCH  11  12
ATOM     12  C   UNL     1      -8.722  32.870  24.677  1.00  0.00     0.066 C 
BRANCH  12  13
ATOM     13  C   UNL     1      -8.160  33.745  23.566  1.00  0.00     0.140 C 
ATOM     14  O   UNL     1      -7.090  34.316  23.723  1.00  0.00    -0.299 OA
BRANCH  13  15
ATOM     15  C   UNL     1      -8.940  33.991  22.297  1.00  0.00     0.106 CG0
ATOM     16  G   UNL     1      -8.264  33.380  21.079  1.00  0.00     0.000 G0
ENDBRANCH  13  15
ENDBRANCH  12  13
BRANCH  12  17
ATOM     17  C   UNL     1      -9.013  33.723  25.953  1.00  0.00    -0.006 C 
ATOM     18  C   UNL     1      -8.003  34.862  26.191  1.00  0.00     0.008 C 
ATOM     19  C   UNL     1      -9.115  32.844  27.210  1.00  0.00     0.008 C 
ENDBRANCH  12  17
ENDBRANCH  11  12
ENDBRANCH   1  11
TORSDOF 1
ENDMDL
