MODEL 1
REMARK VINA RESULT:    -3.989      0.000      0.000
REMARK INTER + INTRA:          -8.303
REMARK INTER:                  -7.253
REMARK INTRA:                  -1.049
REMARK UNBOUND:                -1.049
REMARK SMILES CCCCCCCCCCCCCCCC(=O)[O-]
REMARK SMILES IDX 9 1 10 2 11 3 12 4 13 5 14 6 15 7 16 8 17 9 18 10 8 11 7 12
REMARK SMILES IDX 6 13 5 14 4 15 3 16 2 17 1 18
REMARK H PARENT
REMARK Flexibility Score: inf
ROOT
ATOM      1  C   UNL     1      -4.293   7.897  -2.325  1.00  0.00     0.000 C 
ENDROOT
BRANCH   1   2
ATOM      2  C   UNL     1      -5.096   8.967  -1.569  1.00  0.00     0.000 C 
BRANCH   2   3
ATOM      3  C   UNL     1      -4.198   9.960  -0.817  1.00  0.00     0.000 C 
BRANCH   3   4
ATOM      4  C   UNL     1      -4.036   9.550   0.654  1.00  0.00     0.000 C 
BRANCH   4   5
ATOM      5  C   UNL     1      -2.902  10.307   1.369  1.00  0.00     0.000 C 
BRANCH   5   6
ATOM      6  C   UNL     1      -1.484   9.983   0.865  1.00  0.00     0.006 C 
BRANCH   6   7
ATOM      7  C   UNL     1      -1.221   8.476   0.747  1.00  0.00     0.053 C 
BRANCH   7   8
ATOM      8  C   UNL     1      -0.975   8.099  -0.680  1.00  0.00     0.041 C 
ATOM      9  O   UNL     1      -0.875   8.991  -1.562  1.00  0.00    -0.550 OA
ATOM     10  O   UNL     1      -0.907   6.760  -1.043  1.00  0.00    -0.550 OA
ENDBRANCH   7   8
ENDBRANCH   6   7
ENDBRANCH   5   6
ENDBRANCH   4   5
ENDBRANCH   3   4
ENDBRANCH   2   3
ENDBRANCH   1   2
BRANCH   1  11
ATOM     11  C   UNL     1      -4.631   7.857  -3.826  1.00  0.00     0.000 C 
BRANCH  11  12
ATOM     12  C   UNL     1      -3.662   6.978  -4.637  1.00  0.00    -0.000 C 
BRANCH  12  13
ATOM     13  C   UNL     1      -2.197   7.451  -4.645  1.00  0.00    -0.000 C 
BRANCH  13  14
ATOM     14  C   UNL     1      -1.344   6.738  -5.709  1.00  0.00    -0.000 C 
BRANCH  14  15
ATOM     15  C   UNL     1      -1.088   5.261  -5.364  1.00  0.00    -0.000 C 
BRANCH  15  16
ATOM     16  C   UNL     1      -1.694   4.300  -6.402  1.00  0.00    -0.000 C 
BRANCH  16  17
ATOM     17  C   UNL     1      -1.172   2.863  -6.248  1.00  0.00    -0.003 C 
ATOM     18  C   UNL     1      -1.266   2.349  -4.812  1.00  0.00     0.004 C 
ENDBRANCH  16  17
ENDBRANCH  15  16
ENDBRANCH  14  15
ENDBRANCH  13  14
ENDBRANCH  12  13
ENDBRANCH  11  12
ENDBRANCH   1  11
TORSDOF 14
ENDMDL
MODEL 2
REMARK VINA RESULT:    -3.871      2.276      6.865
REMARK INTER + INTRA:          -8.089
REMARK INTER:                  -6.683
REMARK INTRA:                  -1.406
REMARK UNBOUND:                -1.049
REMARK SMILES CCCCCCCCCCCCCCCC(=O)[O-]
REMARK SMILES IDX 9 1 10 2 11 3 12 4 13 5 14 6 15 7 16 8 17 9 18 10 8 11 7 12
REMARK SMILES IDX 6 13 5 14 4 15 3 16 2 17 1 18
REMARK H PARENT
REMARK Flexibility Score: inf
ROOT
ATOM      1  C   UNL     1      -4.579   7.753  -2.872  1.00  0.00     0.000 C 
ENDROOT
BRANCH   1   2
ATOM      2  C   UNL     1      -4.101   7.686  -4.332  1.00  0.00     0.000 C 
BRANCH   2   3
ATOM      3  C   UNL     1      -3.063   8.767  -4.665  1.00  0.00     0.000 C 
BRANCH   3   4
ATOM      4  C   UNL     1      -1.768   8.138  -5.202  1.00  0.00     0.000 C 
BRANCH   4   5
ATOM      5  C   UNL     1      -0.935   7.448  -4.105  1.00  0.00     0.000 C 
BRANCH   5   6
ATOM      6  C   UNL     1      -0.880   5.912  -4.199  1.00  0.00     0.006 C 
BRANCH   6   7
ATOM      7  C   UNL     1      -1.414   5.374  -5.534  1.00  0.00     0.053 C 
BRANCH   7   8
ATOM      8  C   UNL     1      -1.313   3.882  -5.573  1.00  0.00     0.041 C 
ATOM      9  O   UNL     1      -0.880   3.250  -4.575  1.00  0.00    -0.550 OA
ATOM     10  O   UNL     1      -1.649   3.194  -6.732  1.00  0.00    -0.550 OA
ENDBRANCH   7   8
ENDBRANCH   6   7
ENDBRANCH   5   6
ENDBRANCH   4   5
ENDBRANCH   3   4
ENDBRANCH   2   3
ENDBRANCH   1   2
BRANCH   1  11
ATOM     11  C   UNL     1      -4.841   9.194  -2.403  1.00  0.00     0.000 C 
BRANCH  11  12
ATOM     12  C   UNL     1      -3.928   9.623  -1.240  1.00  0.00    -0.000 C 
BRANCH  12  13
ATOM     13  C   UNL     1      -2.838   8.607  -0.852  1.00  0.00    -0.000 C 
BRANCH  13  14
ATOM     14  C   UNL     1      -1.608   9.267  -0.205  1.00  0.00    -0.000 C 
BRANCH  14  15
ATOM     15  C   UNL     1      -1.552   9.041   1.316  1.00  0.00    -0.000 C 
BRANCH  15  16
ATOM     16  C   UNL     1      -1.290  10.342   2.094  1.00  0.00    -0.000 C 
BRANCH  16  17
ATOM     17  C   UNL     1      -2.493  10.768   2.950  1.00  0.00    -0.003 C 
ATOM     18  C   UNL     1      -3.832  10.522   2.254  1.00  0.00     0.004 C 
ENDBRANCH  16  17
ENDBRANCH  15  16
ENDBRANCH  14  15
ENDBRANCH  13  14
ENDBRANCH  12  13
ENDBRANCH  11  12
ENDBRANCH   1  11
TORSDOF 14
ENDMDL
MODEL 3
REMARK VINA RESULT:    -3.576      2.697      6.075
REMARK INTER + INTRA:          -7.552
REMARK INTER:                  -5.641
REMARK INTRA:                  -1.911
REMARK UNBOUND:                -1.049
REMARK SMILES CCCCCCCCCCCCCCCC(=O)[O-]
REMARK SMILES IDX 9 1 10 2 11 3 12 4 13 5 14 6 15 7 16 8 17 9 18 10 8 11 7 12
REMARK SMILES IDX 6 13 5 14 4 15 3 16 2 17 1 18
REMARK H PARENT
REMARK Flexibility Score: inf
ROOT
ATOM      1  C   UNL     1      -4.969   8.269  -1.541  1.00  0.00     0.000 C 
ENDROOT
BRANCH   1   2
ATOM      2  C   UNL     1      -4.578   8.662  -2.975  1.00  0.00     0.000 C 
BRANCH   2   3
ATOM      3  C   UNL     1      -4.337   7.443  -3.878  1.00  0.00     0.000 C 
BRANCH   3   4
ATOM      4  C   UNL     1      -2.839   7.252  -4.155  1.00  0.00     0.000 C 
BRANCH   4   5
ATOM      5  C   UNL     1      -2.553   6.697  -5.563  1.00  0.00     0.000 C 
BRANCH   5   6
ATOM      6  C   UNL     1      -1.278   5.842  -5.679  1.00  0.00     0.006 C 
BRANCH   6   7
ATOM      7  C   UNL     1      -1.459   4.618  -6.587  1.00  0.00     0.053 C 
BRANCH   7   8
ATOM      8  C   UNL     1      -1.179   3.359  -5.828  1.00  0.00     0.041 C 
ATOM      9  O   UNL     1      -1.263   2.242  -6.402  1.00  0.00    -0.550 OA
ATOM     10  O   UNL     1      -0.875   3.418  -4.474  1.00  0.00    -0.550 OA
ENDBRANCH   7   8
ENDBRANCH   6   7
ENDBRANCH   5   6
ENDBRANCH   4   5
ENDBRANCH   3   4
ENDBRANCH   2   3
ENDBRANCH   1   2
BRANCH   1  11
ATOM     11  C   UNL     1      -4.040   8.891  -0.485  1.00  0.00     0.000 C 
BRANCH  11  12
ATOM     12  C   UNL     1      -2.601   8.348  -0.557  1.00  0.00    -0.000 C 
BRANCH  12  13
ATOM     13  C   UNL     1      -1.495   9.419  -0.571  1.00  0.00    -0.000 C 
BRANCH  13  14
ATOM     14  C   UNL     1      -0.973   9.723  -1.986  1.00  0.00    -0.000 C 
BRANCH  14  15
ATOM     15  C   UNL     1      -1.579  11.010  -2.572  1.00  0.00    -0.000 C 
BRANCH  15  16
ATOM     16  C   UNL     1      -1.987  10.849  -4.046  1.00  0.00    -0.000 C 
BRANCH  16  17
ATOM     17  C   UNL     1      -0.896  10.168  -4.887  1.00  0.00    -0.003 C 
ATOM     18  C   UNL     1      -1.231  10.131  -6.378  1.00  0.00     0.004 C 
ENDBRANCH  16  17
ENDBRANCH  15  16
ENDBRANCH  14  15
ENDBRANCH  13  14
ENDBRANCH  12  13
ENDBRANCH  11  12
ENDBRANCH   1  11
TORSDOF 14
ENDMDL
MODEL 4
REMARK VINA RESULT:    -3.501      2.340      6.569
REMARK INTER + INTRA:          -7.416
REMARK INTER:                  -5.972
REMARK INTRA:                  -1.444
REMARK UNBOUND:                -1.049
REMARK SMILES CCCCCCCCCCCCCCCC(=O)[O-]
REMARK SMILES IDX 9 1 10 2 11 3 12 4 13 5 14 6 15 7 16 8 17 9 18 10 8 11 7 12
REMARK SMILES IDX 6 13 5 14 4 15 3 16 2 17 1 18
REMARK H PARENT
REMARK Flexibility Score: inf
ROOT
ATOM      1  C   UNL     1      -4.579   7.869  -1.778  1.00  0.00     0.000 C 
ENDROOT
BRANCH   1   2
ATOM      2  C   UNL     1      -3.915   8.253  -3.110  1.00  0.00     0.000 C 
BRANCH   2   3
ATOM      3  C   UNL     1      -4.338   7.337  -4.269  1.00  0.00     0.000 C 
BRANCH   3   4
ATOM      4  C   UNL     1      -3.136   6.985  -5.158  1.00  0.00     0.000 C 
BRANCH   4   5
ATOM      5  C   UNL     1      -1.807   6.933  -4.381  1.00  0.00     0.000 C 
BRANCH   5   6
ATOM      6  C   UNL     1      -0.876   5.768  -4.761  1.00  0.00     0.006 C 
BRANCH   6   7
ATOM      7  C   UNL     1      -1.243   5.122  -6.104  1.00  0.00     0.053 C 
BRANCH   7   8
ATOM      8  C   UNL     1      -1.521   3.663  -5.923  1.00  0.00     0.041 C 
ATOM      9  O   UNL     1      -0.997   2.818  -6.695  1.00  0.00    -0.550 OA
ATOM     10  O   UNL     1      -2.401   3.241  -4.934  1.00  0.00    -0.550 OA
ENDBRANCH   7   8
ENDBRANCH   6   7
ENDBRANCH   5   6
ENDBRANCH   4   5
ENDBRANCH   3   4
ENDBRANCH   2   3
ENDBRANCH   1   2
BRANCH   1  11
ATOM     11  C   UNL     1      -5.017   9.098  -0.963  1.00  0.00     0.000 C 
BRANCH  11  12
ATOM     12  C   UNL     1      -4.397  10.410  -1.475  1.00  0.00    -0.000 C 
BRANCH  12  13
ATOM     13  C   UNL     1      -3.197  10.931  -0.663  1.00  0.00    -0.000 C 
BRANCH  13  14
ATOM     14  C   UNL     1      -1.866  10.824  -1.426  1.00  0.00    -0.000 C 
BRANCH  14  15
ATOM     15  C   UNL     1      -0.896   9.821  -0.779  1.00  0.00    -0.000 C 
BRANCH  15  16
ATOM     16  C   UNL     1      -1.593   8.903   0.241  1.00  0.00    -0.000 C 
BRANCH  16  17
ATOM     17  C   UNL     1      -0.921   8.943   1.622  1.00  0.00    -0.003 C 
ATOM     18  C   UNL     1      -1.142  10.268   2.352  1.00  0.00     0.004 C 
ENDBRANCH  16  17
ENDBRANCH  15  16
ENDBRANCH  14  15
ENDBRANCH  13  14
ENDBRANCH  12  13
ENDBRANCH  11  12
ENDBRANCH   1  11
TORSDOF 14
ENDMDL
MODEL 5
REMARK VINA RESULT:    -3.057      2.634      7.973
REMARK INTER + INTRA:          -6.608
REMARK INTER:                  -6.209
REMARK INTRA:                  -0.399
REMARK UNBOUND:                -1.049
REMARK SMILES CCCCCCCCCCCCCCCC(=O)[O-]
REMARK SMILES IDX 9 1 10 2 11 3 12 4 13 5 14 6 15 7 16 8 17 9 18 10 8 11 7 12
REMARK SMILES IDX 6 13 5 14 4 15 3 16 2 17 1 18
REMARK H PARENT
REMARK Flexibility Score: inf
ROOT
ATOM      1  C   UNL     1      -4.581   7.689  -2.890  1.00  0.00     0.000 C 
ENDROOT
BRANCH   1   2
ATOM      2  C   UNL     1      -3.755   7.858  -4.176  1.00  0.00     0.000 C 
BRANCH   2   3
ATOM      3  C   UNL     1      -2.250   7.994  -3.900  1.00  0.00     0.000 C 
BRANCH   3   4
ATOM      4  C   UNL     1      -1.425   7.419  -5.061  1.00  0.00     0.000 C 
BRANCH   4   5
ATOM      5  C   UNL     1      -2.037   6.138  -5.658  1.00  0.00     0.000 C 
BRANCH   5   6
ATOM      6  C   UNL     1      -1.016   5.104  -6.165  1.00  0.00     0.006 C 
BRANCH   6   7
ATOM      7  C   UNL     1      -1.670   3.800  -6.642  1.00  0.00     0.053 C 
BRANCH   7   8
ATOM      8  C   UNL     1      -1.256   2.658  -5.768  1.00  0.00     0.041 C 
ATOM      9  O   UNL     1      -1.296   1.478  -6.206  1.00  0.00    -0.550 OA
ATOM     10  O   UNL     1      -0.875   2.893  -4.453  1.00  0.00    -0.550 OA
ENDBRANCH   7   8
ENDBRANCH   6   7
ENDBRANCH   5   6
ENDBRANCH   4   5
ENDBRANCH   3   4
ENDBRANCH   2   3
ENDBRANCH   1   2
BRANCH   1  11
ATOM     11  C   UNL     1      -4.919   9.035  -2.226  1.00  0.00     0.000 C 
BRANCH  11  12
ATOM     12  C   UNL     1      -3.712   9.675  -1.518  1.00  0.00    -0.000 C 
BRANCH  12  13
ATOM     13  C   UNL     1      -4.058  10.605  -0.341  1.00  0.00    -0.000 C 
BRANCH  13  14
ATOM     14  C   UNL     1      -3.884   9.928   1.030  1.00  0.00    -0.000 C 
BRANCH  14  15
ATOM     15  C   UNL     1      -3.141  10.823   2.037  1.00  0.00    -0.000 C 
BRANCH  15  16
ATOM     16  C   UNL     1      -3.943  11.043   3.331  1.00  0.00    -0.000 C 
BRANCH  16  17
ATOM     17  C   UNL     1      -5.341  10.408   3.271  1.00  0.00    -0.003 C 
ATOM     18  C   UNL     1      -6.142  10.611   4.557  1.00  0.00     0.004 C 
ENDBRANCH  16  17
ENDBRANCH  15  16
ENDBRANCH  14  15
ENDBRANCH  13  14
ENDBRANCH  12  13
ENDBRANCH  11  12
ENDBRANCH   1  11
TORSDOF 14
ENDMDL
MODEL 6
REMARK VINA RESULT:    -3.000      1.527      2.037
REMARK INTER + INTRA:          -6.505
REMARK INTER:                  -5.387
REMARK INTRA:                  -1.118
REMARK UNBOUND:                -1.049
REMARK SMILES CCCCCCCCCCCCCCCC(=O)[O-]
REMARK SMILES IDX 9 1 10 2 11 3 12 4 13 5 14 6 15 7 16 8 17 9 18 10 8 11 7 12
REMARK SMILES IDX 6 13 5 14 4 15 3 16 2 17 1 18
REMARK H PARENT
REMARK Flexibility Score: inf
ROOT
ATOM      1  C   UNL     1      -3.528   7.344  -3.783  1.00  0.00     0.000 C 
ENDROOT
BRANCH   1   2
ATOM      2  C   UNL     1      -4.610   8.292  -3.241  1.00  0.00     0.000 C 
BRANCH   2   3
ATOM      3  C   UNL     1      -4.045   9.657  -2.822  1.00  0.00     0.000 C 
BRANCH   3   4
ATOM      4  C   UNL     1      -4.545  10.053  -1.425  1.00  0.00     0.000 C 
BRANCH   4   5
ATOM      5  C   UNL     1      -3.421  10.093  -0.373  1.00  0.00     0.000 C 
BRANCH   5   6
ATOM      6  C   UNL     1      -2.204  10.956  -0.752  1.00  0.00     0.006 C 
BRANCH   6   7
ATOM      7  C   UNL     1      -0.878  10.383  -0.234  1.00  0.00     0.053 C 
BRANCH   7   8
ATOM      8  C   UNL     1      -1.067   9.769   1.118  1.00  0.00     0.041 C 
ATOM      9  O   UNL     1      -1.172  10.500   2.137  1.00  0.00    -0.550 OA
ATOM     10  O   UNL     1      -1.077   8.387   1.257  1.00  0.00    -0.550 OA
ENDBRANCH   7   8
ENDBRANCH   6   7
ENDBRANCH   5   6
ENDBRANCH   4   5
ENDBRANCH   3   4
ENDBRANCH   2   3
ENDBRANCH   1   2
BRANCH   1  11
ATOM     11  C   UNL     1      -2.137   7.641  -3.198  1.00  0.00     0.000 C 
BRANCH  11  12
ATOM     12  C   UNL     1      -1.108   8.046  -4.269  1.00  0.00    -0.000 C 
BRANCH  12  13
ATOM     13  C   UNL     1      -1.570   7.859  -5.726  1.00  0.00    -0.000 C 
BRANCH  13  14
ATOM     14  C   UNL     1      -0.879   6.677  -6.427  1.00  0.00    -0.000 C 
BRANCH  14  15
ATOM     15  C   UNL     1      -0.985   5.372  -5.619  1.00  0.00    -0.000 C 
BRANCH  15  16
ATOM     16  C   UNL     1      -1.732   4.265  -6.385  1.00  0.00    -0.000 C 
BRANCH  16  17
ATOM     17  C   UNL     1      -1.105   2.878  -6.172  1.00  0.00    -0.003 C 
ATOM     18  C   UNL     1      -1.226   2.387  -4.730  1.00  0.00     0.004 C 
ENDBRANCH  16  17
ENDBRANCH  15  16
ENDBRANCH  14  15
ENDBRANCH  13  14
ENDBRANCH  12  13
ENDBRANCH  11  12
ENDBRANCH   1  11
TORSDOF 14
ENDMDL
MODEL 7
REMARK VINA RESULT:    -2.935      2.613      7.341
REMARK INTER + INTRA:          -6.386
REMARK INTER:                  -5.096
REMARK INTRA:                  -1.290
REMARK UNBOUND:                -1.049
REMARK SMILES CCCCCCCCCCCCCCCC(=O)[O-]
REMARK SMILES IDX 9 1 10 2 11 3 12 4 13 5 14 6 15 7 16 8 17 9 18 10 8 11 7 12
REMARK SMILES IDX 6 13 5 14 4 15 3 16 2 17 1 18
REMARK H PARENT
REMARK Flexibility Score: inf
ROOT
ATOM      1  C   UNL     1      -2.843   8.152  -2.891  1.00  0.00     0.000 C 
ENDROOT
BRANCH   1   2
ATOM      2  C   UNL     1      -2.039   8.712  -4.075  1.00  0.00     0.000 C 
BRANCH   2   3
ATOM      3  C   UNL     1      -1.180   7.643  -4.766  1.00  0.00     0.000 C 
BRANCH   3   4
ATOM      4  C   UNL     1      -2.061   6.610  -5.483  1.00  0.00     0.000 C 
BRANCH   4   5
ATOM      5  C   UNL     1      -1.382   5.995  -6.721  1.00  0.00     0.000 C 
BRANCH   5   6
ATOM      6  C   UNL     1      -1.281   4.459  -6.713  1.00  0.00     0.006 C 
BRANCH   6   7
ATOM      7  C   UNL     1      -1.734   3.836  -5.386  1.00  0.00     0.053 C 
BRANCH   7   8
ATOM      8  C   UNL     1      -1.406   2.376  -5.356  1.00  0.00     0.041 C 
ATOM      9  O   UNL     1      -1.566   1.713  -4.298  1.00  0.00    -0.550 OA
ATOM     10  O   UNL     1      -0.877   1.760  -6.482  1.00  0.00    -0.550 OA
ENDBRANCH   7   8
ENDBRANCH   6   7
ENDBRANCH   5   6
ENDBRANCH   4   5
ENDBRANCH   3   4
ENDBRANCH   2   3
ENDBRANCH   1   2
BRANCH   1  11
ATOM     11  C   UNL     1      -1.941   7.673  -1.740  1.00  0.00     0.000 C 
BRANCH  11  12
ATOM     12  C   UNL     1      -0.882   8.713  -1.335  1.00  0.00    -0.000 C 
BRANCH  12  13
ATOM     13  C   UNL     1      -1.072   9.336   0.060  1.00  0.00    -0.000 C 
BRANCH  13  14
ATOM     14  C   UNL     1      -2.361   8.864   0.756  1.00  0.00    -0.000 C 
BRANCH  14  15
ATOM     15  C   UNL     1      -3.214  10.036   1.272  1.00  0.00    -0.000 C 
BRANCH  15  16
ATOM     16  C   UNL     1      -3.427  11.123   0.204  1.00  0.00    -0.000 C 
BRANCH  16  17
ATOM     17  C   UNL     1      -4.531  10.751  -0.799  1.00  0.00    -0.003 C 
ATOM     18  C   UNL     1      -4.175  11.123  -2.238  1.00  0.00     0.004 C 
ENDBRANCH  16  17
ENDBRANCH  15  16
ENDBRANCH  14  15
ENDBRANCH  13  14
ENDBRANCH  12  13
ENDBRANCH  11  12
ENDBRANCH   1  11
TORSDOF 14
ENDMDL
MODEL 8
REMARK VINA RESULT:    -2.726      2.301      6.462
REMARK INTER + INTRA:          -6.006
REMARK INTER:                  -4.637
REMARK INTRA:                  -1.369
REMARK UNBOUND:                -1.049
REMARK SMILES CCCCCCCCCCCCCCCC(=O)[O-]
REMARK SMILES IDX 9 1 10 2 11 3 12 4 13 5 14 6 15 7 16 8 17 9 18 10 8 11 7 12
REMARK SMILES IDX 6 13 5 14 4 15 3 16 2 17 1 18
REMARK H PARENT
REMARK Flexibility Score: inf
ROOT
ATOM      1  C   UNL     1      -4.544   9.643  -3.120  1.00  0.00     0.000 C 
ENDROOT
BRANCH   1   2
ATOM      2  C   UNL     1      -3.826  11.001  -3.186  1.00  0.00     0.000 C 
BRANCH   2   3
ATOM      3  C   UNL     1      -2.296  10.864  -3.164  1.00  0.00     0.000 C 
BRANCH   3   4
ATOM      4  C   UNL     1      -1.701  11.122  -4.556  1.00  0.00     0.000 C 
BRANCH   4   5
ATOM      5  C   UNL     1      -1.901   9.941  -5.524  1.00  0.00     0.000 C 
BRANCH   5   6
ATOM      6  C   UNL     1      -0.875   8.802  -5.381  1.00  0.00     0.006 C 
BRANCH   6   7
ATOM      7  C   UNL     1      -1.138   7.634  -6.341  1.00  0.00     0.053 C 
BRANCH   7   8
ATOM      8  C   UNL     1      -1.420   6.380  -5.575  1.00  0.00     0.041 C 
ATOM      9  O   UNL     1      -1.874   5.366  -6.166  1.00  0.00    -0.550 OA
ATOM     10  O   UNL     1      -1.230   6.349  -4.200  1.00  0.00    -0.550 OA
ENDBRANCH   7   8
ENDBRANCH   6   7
ENDBRANCH   5   6
ENDBRANCH   4   5
ENDBRANCH   3   4
ENDBRANCH   2   3
ENDBRANCH   1   2
BRANCH   1  11
ATOM     11  C   UNL     1      -3.616   8.508  -2.653  1.00  0.00     0.000 C 
BRANCH  11  12
ATOM     12  C   UNL     1      -3.402   8.496  -1.129  1.00  0.00    -0.000 C 
BRANCH  12  13
ATOM     13  C   UNL     1      -2.134   7.766  -0.648  1.00  0.00    -0.000 C 
BRANCH  13  14
ATOM     14  C   UNL     1      -1.454   8.465   0.541  1.00  0.00    -0.000 C 
BRANCH  14  15
ATOM     15  C   UNL     1      -1.012   9.900   0.205  1.00  0.00    -0.000 C 
BRANCH  15  16
ATOM     16  C   UNL     1      -1.625  10.942   1.157  1.00  0.00    -0.000 C 
BRANCH  16  17
ATOM     17  C   UNL     1      -2.357  10.295   2.343  1.00  0.00    -0.003 C 
ATOM     18  C   UNL     1      -3.877  10.414   2.239  1.00  0.00     0.004 C 
ENDBRANCH  16  17
ENDBRANCH  15  16
ENDBRANCH  14  15
ENDBRANCH  13  14
ENDBRANCH  12  13
ENDBRANCH  11  12
ENDBRANCH   1  11
TORSDOF 14
ENDMDL
