MODEL 1
REMARK VINA RESULT:    -2.546      0.000      0.000
REMARK INTER + INTRA:          -2.546
REMARK INTER:                  -2.546
REMARK INTRA:                   0.000
REMARK UNBOUND:                 0.000
REMARK SMILES CC(=O)[O-]
REMARK SMILES IDX 1 1 2 2 3 3 4 4
REMARK H PARENT
REMARK Flexibility Score: inf
ROOT
ATOM      1  C   UNL     1      16.953  20.096  10.772  1.00  0.00     0.063 C 
ATOM      2  C   UNL     1      17.931  20.639   9.786  1.00  0.00     0.038 C 
ATOM      3  O   UNL     1      17.698  20.551   8.552  1.00  0.00    -0.550 OA
ATOM      4  O   UNL     1      19.126  21.197  10.223  1.00  0.00    -0.550 OA
ENDROOT
TORSDOF 0
ENDMDL
MODEL 2
REMARK VINA RESULT:    -2.529      1.459      1.781
REMARK INTER + INTRA:          -2.529
REMARK INTER:                  -2.529
REMARK INTRA:                   0.000
REMARK UNBOUND:                 0.000
REMARK SMILES CC(=O)[O-]
REMARK SMILES IDX 1 1 2 2 3 3 4 4
REMARK H PARENT
REMARK Flexibility Score: inf
ROOT
ATOM      1  C   UNL     1      19.140  21.063  10.043  1.00  0.00     0.063 C 
ATOM      2  C   UNL     1      17.838  20.431   9.685  1.00  0.00     0.038 C 
ATOM      3  O   UNL     1      17.490  20.341   8.478  1.00  0.00    -0.550 OA
ATOM      4  O   UNL     1      16.980  19.988  10.684  1.00  0.00    -0.550 OA
ENDROOT
TORSDOF 0
ENDMDL
MODEL 3
REMARK VINA RESULT:    -2.483      1.387      1.692
REMARK INTER + INTRA:          -2.483
REMARK INTER:                  -2.483
REMARK INTRA:                   0.000
REMARK UNBOUND:                 0.000
REMARK SMILES CC(=O)[O-]
REMARK SMILES IDX 1 1 2 2 3 3 4 4
REMARK H PARENT
REMARK Flexibility Score: inf
ROOT
ATOM      1  C   UNL     1      17.509  20.454   8.560  1.00  0.00     0.063 C 
ATOM      2  C   UNL     1      17.844  20.574  10.009  1.00  0.00     0.038 C 
ATOM      3  O   UNL     1      17.031  20.167  10.880  1.00  0.00    -0.550 OA
ATOM      4  O   UNL     1      19.029  21.183  10.402  1.00  0.00    -0.550 OA
ENDROOT
TORSDOF 0
ENDMDL
MODEL 4
REMARK VINA RESULT:    -2.256     12.605     12.923
REMARK INTER + INTRA:          -2.256
REMARK INTER:                  -2.256
REMARK INTRA:                   0.000
REMARK UNBOUND:                 0.000
REMARK SMILES CC(=O)[O-]
REMARK SMILES IDX 1 1 2 2 3 3 4 4
REMARK H PARENT
REMARK Flexibility Score: inf
ROOT
ATOM      1  C   UNL     1      20.574  33.237   5.918  1.00  0.00     0.063 C 
ATOM      2  C   UNL     1      21.553  32.537   6.797  1.00  0.00     0.038 C 
ATOM      3  O   UNL     1      22.246  31.589   6.342  1.00  0.00    -0.550 OA
ATOM      4  O   UNL     1      21.667  32.893   8.135  1.00  0.00    -0.550 OA
ENDROOT
TORSDOF 0
ENDMDL
MODEL 5
REMARK VINA RESULT:    -2.164     12.643     12.860
REMARK INTER + INTRA:          -2.164
REMARK INTER:                  -2.164
REMARK INTRA:                   0.000
REMARK UNBOUND:                 0.000
REMARK SMILES CC(=O)[O-]
REMARK SMILES IDX 1 1 2 2 3 3 4 4
REMARK H PARENT
REMARK Flexibility Score: inf
ROOT
ATOM      1  C   UNL     1      22.128  32.563   8.231  1.00  0.00     0.063 C 
ATOM      2  C   UNL     1      21.668  32.485   6.815  1.00  0.00     0.038 C 
ATOM      3  O   UNL     1      20.670  33.155   6.437  1.00  0.00    -0.550 OA
ATOM      4  O   UNL     1      22.305  31.634   5.920  1.00  0.00    -0.550 OA
ENDROOT
TORSDOF 0
ENDMDL
MODEL 6
REMARK VINA RESULT:    -2.162     12.716     12.927
REMARK INTER + INTRA:          -2.162
REMARK INTER:                  -2.162
REMARK INTRA:                   0.000
REMARK UNBOUND:                 0.000
REMARK SMILES CC(=O)[O-]
REMARK SMILES IDX 1 1 2 2 3 3 4 4
REMARK H PARENT
REMARK Flexibility Score: inf
ROOT
ATOM      1  C   UNL     1      22.064  32.571   8.187  1.00  0.00     0.063 C 
ATOM      2  C   UNL     1      21.646  32.491   6.758  1.00  0.00     0.038 C 
ATOM      3  O   UNL     1      22.322  31.814   5.939  1.00  0.00    -0.550 OA
ATOM      4  O   UNL     1      20.540  33.205   6.314  1.00  0.00    -0.550 OA
ENDROOT
TORSDOF 0
ENDMDL
MODEL 7
REMARK VINA RESULT:    -2.121     13.215     13.384
REMARK INTER + INTRA:          -2.121
REMARK INTER:                  -2.121
REMARK INTRA:                   0.000
REMARK UNBOUND:                 0.000
REMARK SMILES CC(=O)[O-]
REMARK SMILES IDX 1 1 2 2 3 3 4 4
REMARK H PARENT
REMARK Flexibility Score: inf
ROOT
ATOM      1  C   UNL     1      25.667  31.799   8.512  1.00  0.00     0.063 C 
ATOM      2  C   UNL     1      24.368  32.043   7.821  1.00  0.00     0.038 C 
ATOM      3  O   UNL     1      24.295  31.965   6.567  1.00  0.00    -0.550 OA
ATOM      4  O   UNL     1      23.246  32.408   8.555  1.00  0.00    -0.550 OA
ENDROOT
TORSDOF 0
ENDMDL
MODEL 8
REMARK VINA RESULT:    -2.101     12.260     12.763
REMARK INTER + INTRA:          -2.101
REMARK INTER:                  -2.101
REMARK INTRA:                   0.000
REMARK UNBOUND:                 0.000
REMARK SMILES CC(=O)[O-]
REMARK SMILES IDX 1 1 2 2 3 3 4 4
REMARK H PARENT
REMARK Flexibility Score: inf
ROOT
ATOM      1  C   UNL     1      24.370  32.134   8.012  1.00  0.00     0.063 C 
ATOM      2  C   UNL     1      22.923  32.033   8.355  1.00  0.00     0.038 C 
ATOM      3  O   UNL     1      22.563  31.443   9.408  1.00  0.00    -0.550 OA
ATOM      4  O   UNL     1      21.963  32.541   7.489  1.00  0.00    -0.550 OA
ENDROOT
TORSDOF 0
ENDMDL
MODEL 9
REMARK VINA RESULT:    -2.047     13.022     13.229
REMARK INTER + INTRA:          -2.047
REMARK INTER:                  -2.047
REMARK INTRA:                   0.000
REMARK UNBOUND:                 0.000
REMARK SMILES CC(=O)[O-]
REMARK SMILES IDX 1 1 2 2 3 3 4 4
REMARK H PARENT
REMARK Flexibility Score: inf
ROOT
ATOM      1  C   UNL     1      23.013  32.068   8.544  1.00  0.00     0.063 C 
ATOM      2  C   UNL     1      24.316  32.050   7.820  1.00  0.00     0.038 C 
ATOM      3  O   UNL     1      24.339  31.975   6.564  1.00  0.00    -0.550 OA
ATOM      4  O   UNL     1      25.509  32.062   8.532  1.00  0.00    -0.550 OA
ENDROOT
TORSDOF 0
ENDMDL
