MODEL 1
REMARK VINA RESULT:    -5.180      0.000      0.000
REMARK INTER + INTRA:          -5.766
REMARK INTER:                  -5.634
REMARK INTRA:                  -0.132
REMARK UNBOUND:                -0.132
REMARK SMILES O=C([O-])c1ccccc1O
REMARK SMILES IDX 4 1 9 2 5 3 8 4 6 5 7 6 2 7 1 8 3 9 10 10
REMARK H PARENT 10 11
REMARK Flexibility Score: inf
ROOT
ATOM      1  C   UNL     1     -33.262  -3.406 -19.528  1.00  0.00     0.039 A 
ATOM      2  C   UNL     1     -32.493  -2.662 -20.453  1.00  0.00     0.124 A 
ATOM      3  C   UNL     1     -32.684  -3.759 -18.293  1.00  0.00     0.014 A 
ATOM      4  C   UNL     1     -31.179  -2.290 -20.130  1.00  0.00     0.047 A 
ATOM      5  C   UNL     1     -31.375  -3.382 -17.984  1.00  0.00     0.001 A 
ATOM      6  C   UNL     1     -30.623  -2.648 -18.901  1.00  0.00     0.004 A 
ENDROOT
BRANCH   1   7
ATOM      7  C   UNL     1     -34.656  -3.825 -19.822  1.00  0.00     0.075 C 
ATOM      8  O   UNL     1     -35.613  -3.011 -19.725  1.00  0.00    -0.545 OA
ATOM      9  O   UNL     1     -34.930  -5.132 -20.211  1.00  0.00    -0.545 OA
ENDBRANCH   1   7
BRANCH   2  10
ATOM     10  O   UNL     1     -33.023  -2.291 -21.689  1.00  0.00    -0.507 OA
ATOM     11  H   UNL     1     -32.896  -1.360 -22.066  1.00  0.00     0.293 HD
ENDBRANCH   2  10
TORSDOF 2
ENDMDL
MODEL 2
REMARK VINA RESULT:    -5.151      1.807      3.751
REMARK INTER + INTRA:          -5.734
REMARK INTER:                  -5.605
REMARK INTRA:                  -0.130
REMARK UNBOUND:                -0.132
REMARK SMILES O=C([O-])c1ccccc1O
REMARK SMILES IDX 4 1 9 2 5 3 8 4 6 5 7 6 2 7 1 8 3 9 10 10
REMARK H PARENT 10 11
REMARK Flexibility Score: inf
ROOT
ATOM      1  C   UNL     1     -30.883  -2.453 -20.359  1.00  0.00     0.039 A 
ATOM      2  C   UNL     1     -32.270  -2.572 -20.610  1.00  0.00     0.124 A 
ATOM      3  C   UNL     1     -30.387  -2.825 -19.094  1.00  0.00     0.014 A 
ATOM      4  C   UNL     1     -33.123  -3.054 -19.606  1.00  0.00     0.047 A 
ATOM      5  C   UNL     1     -31.248  -3.305 -18.103  1.00  0.00     0.001 A 
ATOM      6  C   UNL     1     -32.614  -3.420 -18.359  1.00  0.00     0.004 A 
ENDROOT
BRANCH   1   7
ATOM      7  C   UNL     1     -29.938  -1.948 -21.387  1.00  0.00     0.075 C 
ATOM      8  O   UNL     1     -30.357  -1.454 -22.467  1.00  0.00    -0.545 OA
ATOM      9  O   UNL     1     -28.566  -2.012 -21.172  1.00  0.00    -0.545 OA
ENDBRANCH   1   7
BRANCH   2  10
ATOM     10  O   UNL     1     -32.805  -2.214 -21.847  1.00  0.00    -0.507 OA
ATOM     11  H   UNL     1     -33.442  -2.821 -22.349  1.00  0.00     0.293 HD
ENDBRANCH   2  10
TORSDOF 2
ENDMDL
MODEL 3
REMARK VINA RESULT:    -5.060      1.385      2.407
REMARK INTER + INTRA:          -5.636
REMARK INTER:                  -5.393
REMARK INTRA:                  -0.243
REMARK UNBOUND:                -0.132
REMARK SMILES O=C([O-])c1ccccc1O
REMARK SMILES IDX 4 1 9 2 5 3 8 4 6 5 7 6 2 7 1 8 3 9 10 10
REMARK H PARENT 10 11
REMARK Flexibility Score: inf
ROOT
ATOM      1  C   UNL     1     -33.309  -3.425 -19.521  1.00  0.00     0.039 A 
ATOM      2  C   UNL     1     -32.424  -3.329 -18.421  1.00  0.00     0.124 A 
ATOM      3  C   UNL     1     -32.861  -3.016 -20.792  1.00  0.00     0.014 A 
ATOM      4  C   UNL     1     -31.126  -2.830 -18.611  1.00  0.00     0.047 A 
ATOM      5  C   UNL     1     -31.566  -2.522 -20.967  1.00  0.00     0.001 A 
ATOM      6  C   UNL     1     -30.699  -2.430 -19.878  1.00  0.00     0.004 A 
ENDROOT
BRANCH   1   7
ATOM      7  C   UNL     1     -34.692  -3.945 -19.373  1.00  0.00     0.075 C 
ATOM      8  O   UNL     1     -34.909  -5.088 -18.892  1.00  0.00    -0.545 OA
ATOM      9  O   UNL     1     -35.779  -3.171 -19.766  1.00  0.00    -0.545 OA
ENDBRANCH   1   7
BRANCH   2  10
ATOM     10  O   UNL     1     -32.824  -3.721 -17.145  1.00  0.00    -0.507 OA
ATOM     11  H   UNL     1     -32.208  -3.642 -16.344  1.00  0.00     0.293 HD
ENDBRANCH   2  10
TORSDOF 2
ENDMDL
MODEL 4
REMARK VINA RESULT:    -4.943      8.121      9.072
REMARK INTER + INTRA:          -5.508
REMARK INTER:                  -5.349
REMARK INTRA:                  -0.160
REMARK UNBOUND:                -0.132
REMARK SMILES O=C([O-])c1ccccc1O
REMARK SMILES IDX 4 1 9 2 5 3 8 4 6 5 7 6 2 7 1 8 3 9 10 10
REMARK H PARENT 10 11
REMARK Flexibility Score: inf
ROOT
ATOM      1  C   UNL     1     -38.560  -7.306 -14.065  1.00  0.00     0.039 A 
ATOM      2  C   UNL     1     -38.534  -8.397 -14.966  1.00  0.00     0.124 A 
ATOM      3  C   UNL     1     -37.367  -6.600 -13.819  1.00  0.00     0.014 A 
ATOM      4  C   UNL     1     -37.332  -8.756 -15.594  1.00  0.00     0.047 A 
ATOM      5  C   UNL     1     -36.176  -6.968 -14.452  1.00  0.00     0.001 A 
ATOM      6  C   UNL     1     -36.159  -8.044 -15.339  1.00  0.00     0.004 A 
ENDROOT
BRANCH   1   7
ATOM      7  C   UNL     1     -39.806  -6.886 -13.374  1.00  0.00     0.075 C 
ATOM      8  O   UNL     1     -40.933  -7.295 -13.761  1.00  0.00    -0.545 OA
ATOM      9  O   UNL     1     -39.747  -6.029 -12.281  1.00  0.00    -0.545 OA
ENDBRANCH   1   7
BRANCH   2  10
ATOM     10  O   UNL     1     -39.692  -9.125 -15.239  1.00  0.00    -0.507 OA
ATOM     11  H   UNL     1     -39.677  -9.949 -15.828  1.00  0.00     0.293 HD
ENDBRANCH   2  10
TORSDOF 2
ENDMDL
MODEL 5
REMARK VINA RESULT:    -4.924      8.290      9.512
REMARK INTER + INTRA:          -5.488
REMARK INTER:                  -5.242
REMARK INTRA:                  -0.246
REMARK UNBOUND:                -0.132
REMARK SMILES O=C([O-])c1ccccc1O
REMARK SMILES IDX 4 1 9 2 5 3 8 4 6 5 7 6 2 7 1 8 3 9 10 10
REMARK H PARENT 10 11
REMARK Flexibility Score: inf
ROOT
ATOM      1  C   UNL     1     -37.893  -8.063 -14.130  1.00  0.00     0.039 A 
ATOM      2  C   UNL     1     -38.135  -6.716 -13.769  1.00  0.00     0.124 A 
ATOM      3  C   UNL     1     -38.974  -8.966 -14.148  1.00  0.00     0.014 A 
ATOM      4  C   UNL     1     -39.435  -6.304 -13.437  1.00  0.00     0.047 A 
ATOM      5  C   UNL     1     -40.263  -8.542 -13.816  1.00  0.00     0.001 A 
ATOM      6  C   UNL     1     -40.494  -7.213 -13.462  1.00  0.00     0.004 A 
ENDROOT
BRANCH   1   7
ATOM      7  C   UNL     1     -36.537  -8.549 -14.489  1.00  0.00     0.075 C 
ATOM      8  O   UNL     1     -36.323  -9.125 -15.588  1.00  0.00    -0.545 OA
ATOM      9  O   UNL     1     -35.473  -8.374 -13.610  1.00  0.00    -0.545 OA
ENDBRANCH   1   7
BRANCH   2  10
ATOM     10  O   UNL     1     -37.095  -5.787 -13.736  1.00  0.00    -0.507 OA
ATOM     11  H   UNL     1     -36.127  -6.074 -13.652  1.00  0.00     0.293 HD
ENDBRANCH   2  10
TORSDOF 2
ENDMDL
MODEL 6
REMARK VINA RESULT:    -4.897      7.438      8.651
REMARK INTER + INTRA:          -5.458
REMARK INTER:                  -5.219
REMARK INTRA:                  -0.240
REMARK UNBOUND:                -0.132
REMARK SMILES O=C([O-])c1ccccc1O
REMARK SMILES IDX 4 1 9 2 5 3 8 4 6 5 7 6 2 7 1 8 3 9 10 10
REMARK H PARENT 10 11
REMARK Flexibility Score: inf
ROOT
ATOM      1  C   UNL     1     -38.437  -7.872 -14.537  1.00  0.00     0.039 A 
ATOM      2  C   UNL     1     -38.300  -6.859 -15.516  1.00  0.00     0.124 A 
ATOM      3  C   UNL     1     -37.358  -8.748 -14.311  1.00  0.00     0.014 A 
ATOM      4  C   UNL     1     -37.104  -6.745 -16.240  1.00  0.00     0.047 A 
ATOM      5  C   UNL     1     -36.172  -8.623 -15.039  1.00  0.00     0.001 A 
ATOM      6  C   UNL     1     -36.045  -7.622 -16.002  1.00  0.00     0.004 A 
ENDROOT
BRANCH   1   7
ATOM      7  C   UNL     1     -39.682  -8.035 -13.744  1.00  0.00     0.075 C 
ATOM      8  O   UNL     1     -40.314  -9.125 -13.744  1.00  0.00    -0.545 OA
ATOM      9  O   UNL     1     -40.173  -6.980 -12.982  1.00  0.00    -0.545 OA
ENDBRANCH   1   7
BRANCH   2  10
ATOM     10  O   UNL     1     -39.342  -5.969 -15.774  1.00  0.00    -0.507 OA
ATOM     11  H   UNL     1     -39.816  -5.948 -16.669  1.00  0.00     0.293 HD
ENDBRANCH   2  10
TORSDOF 2
ENDMDL
MODEL 7
REMARK VINA RESULT:    -4.800      1.954      3.544
REMARK INTER + INTRA:          -5.353
REMARK INTER:                  -5.113
REMARK INTRA:                  -0.240
REMARK UNBOUND:                -0.132
REMARK SMILES O=C([O-])c1ccccc1O
REMARK SMILES IDX 4 1 9 2 5 3 8 4 6 5 7 6 2 7 1 8 3 9 10 10
REMARK H PARENT 10 11
REMARK Flexibility Score: inf
ROOT
ATOM      1  C   UNL     1     -33.046  -3.523 -19.149  1.00  0.00     0.039 A 
ATOM      2  C   UNL     1     -33.566  -4.183 -20.288  1.00  0.00     0.124 A 
ATOM      3  C   UNL     1     -33.775  -3.568 -17.945  1.00  0.00     0.014 A 
ATOM      4  C   UNL     1     -34.789  -4.866 -20.201  1.00  0.00     0.047 A 
ATOM      5  C   UNL     1     -34.991  -4.253 -17.873  1.00  0.00     0.001 A 
ATOM      6  C   UNL     1     -35.497  -4.902 -18.999  1.00  0.00     0.004 A 
ENDROOT
BRANCH   1   7
ATOM      7  C   UNL     1     -31.758  -2.786 -19.189  1.00  0.00     0.075 C 
ATOM      8  O   UNL     1     -31.416  -2.128 -20.207  1.00  0.00    -0.545 OA
ATOM      9  O   UNL     1     -30.901  -2.811 -18.093  1.00  0.00    -0.545 OA
ENDBRANCH   1   7
BRANCH   2  10
ATOM     10  O   UNL     1     -32.879  -4.164 -21.501  1.00  0.00    -0.507 OA
ATOM     11  H   UNL     1     -32.901  -4.950 -22.139  1.00  0.00     0.293 HD
ENDBRANCH   2  10
TORSDOF 2
ENDMDL
MODEL 8
REMARK VINA RESULT:    -4.571      7.472      9.125
REMARK INTER + INTRA:          -5.104
REMARK INTER:                  -4.854
REMARK INTRA:                  -0.250
REMARK UNBOUND:                -0.132
REMARK SMILES O=C([O-])c1ccccc1O
REMARK SMILES IDX 4 1 9 2 5 3 8 4 6 5 7 6 2 7 1 8 3 9 10 10
REMARK H PARENT 10 11
REMARK Flexibility Score: inf
ROOT
ATOM      1  C   UNL     1     -37.821  -7.357 -14.518  1.00  0.00     0.039 A 
ATOM      2  C   UNL     1     -39.096  -7.970 -14.483  1.00  0.00     0.124 A 
ATOM      3  C   UNL     1     -37.606  -6.191 -13.758  1.00  0.00     0.014 A 
ATOM      4  C   UNL     1     -40.118  -7.412 -13.699  1.00  0.00     0.047 A 
ATOM      5  C   UNL     1     -38.632  -5.646 -12.982  1.00  0.00     0.001 A 
ATOM      6  C   UNL     1     -39.886  -6.256 -12.952  1.00  0.00     0.004 A 
ENDROOT
BRANCH   1   7
ATOM      7  C   UNL     1     -36.707  -7.907 -15.332  1.00  0.00     0.075 C 
ATOM      8  O   UNL     1     -36.384  -9.122 -15.254  1.00  0.00    -0.545 OA
ATOM      9  O   UNL     1     -35.997  -7.083 -16.199  1.00  0.00    -0.545 OA
ENDBRANCH   1   7
BRANCH   2  10
ATOM     10  O   UNL     1     -39.354  -9.125 -15.220  1.00  0.00    -0.507 OA
ATOM     11  H   UNL     1     -38.668  -9.518 -15.853  1.00  0.00     0.293 HD
ENDBRANCH   2  10
TORSDOF 2
ENDMDL
MODEL 9
REMARK VINA RESULT:    -4.504      7.353      8.977
REMARK INTER + INTRA:          -5.031
REMARK INTER:                  -4.787
REMARK INTRA:                  -0.244
REMARK UNBOUND:                -0.132
REMARK SMILES O=C([O-])c1ccccc1O
REMARK SMILES IDX 4 1 9 2 5 3 8 4 6 5 7 6 2 7 1 8 3 9 10 10
REMARK H PARENT 10 11
REMARK Flexibility Score: inf
ROOT
ATOM      1  C   UNL     1     -37.604  -7.033 -14.412  1.00  0.00     0.039 A 
ATOM      2  C   UNL     1     -37.704  -8.401 -14.762  1.00  0.00     0.124 A 
ATOM      3  C   UNL     1     -38.676  -6.426 -13.730  1.00  0.00     0.014 A 
ATOM      4  C   UNL     1     -38.858  -9.125 -14.427  1.00  0.00     0.047 A 
ATOM      5  C   UNL     1     -39.820  -7.159 -13.402  1.00  0.00     0.001 A 
ATOM      6  C   UNL     1     -39.911  -8.507 -13.750  1.00  0.00     0.004 A 
ENDROOT
BRANCH   1   7
ATOM      7  C   UNL     1     -36.405  -6.223 -14.744  1.00  0.00     0.075 C 
ATOM      8  O   UNL     1     -35.999  -6.119 -15.932  1.00  0.00    -0.545 OA
ATOM      9  O   UNL     1     -35.705  -5.561 -13.740  1.00  0.00    -0.545 OA
ENDBRANCH   1   7
BRANCH   2  10
ATOM     10  O   UNL     1     -36.667  -9.043 -15.439  1.00  0.00    -0.507 OA
ATOM     11  H   UNL     1     -35.747  -8.627 -15.523  1.00  0.00     0.293 HD
ENDBRANCH   2  10
TORSDOF 2
ENDMDL
