MODEL 1
REMARK VINA RESULT:    -4.486      0.000      0.000
REMARK INTER + INTRA:          -6.509
REMARK INTER:                  -6.060
REMARK INTRA:                  -0.449
REMARK UNBOUND:                -0.449
REMARK SMILES O=C[C@@H](O)[C@@H](O)[C@@H](O)CO
REMARK SMILES IDX 7 1 9 2 10 3 5 5 3 6 2 7 1 8 4 9 6 11 8 13
REMARK H PARENT 10 4 4 10 6 12 8 14
REMARK Flexibility Score: inf
ROOT
ATOM      1  C   UNL     1       3.528  56.563  31.304  1.00  0.00     0.171 C 
ENDROOT
BRANCH   1   2
ATOM      2  C   UNL     1       3.806  57.303  32.626  1.00  0.00     0.190 C 
BRANCH   2   3
ATOM      3  O   UNL     1       2.619  57.738  33.235  1.00  0.00    -0.394 OA
ATOM      4  H   UNL     1       2.030  56.944  33.321  1.00  0.00     0.210 HD
ENDBRANCH   2   3
ENDBRANCH   1   2
BRANCH   1   5
ATOM      5  C   UNL     1       2.042  56.117  31.149  1.00  0.00     0.181 C 
BRANCH   5   6
ATOM      6  C   UNL     1       1.562  55.837  29.700  1.00  0.00     0.209 C 
BRANCH   6   7
ATOM      7  C   UNL     1       1.429  54.369  29.385  1.00  0.00     0.258 C 
ATOM      8  O   UNL     1       2.409  53.694  29.109  1.00  0.00    -0.300 OA
ENDBRANCH   6   7
BRANCH   6   9
ATOM      9  O   UNL     1       0.329  56.477  29.492  1.00  0.00    -0.383 OA
ATOM     10  H   UNL     1      -0.244  55.843  28.984  1.00  0.00     0.211 HD
ENDBRANCH   6   9
ENDBRANCH   5   6
BRANCH   5  11
ATOM     11  O   UNL     1       1.751  55.034  32.000  1.00  0.00    -0.387 OA
ATOM     12  H   UNL     1       0.931  54.590  31.666  1.00  0.00     0.211 HD
ENDBRANCH   5  11
ENDBRANCH   1   5
BRANCH   1  13
ATOM     13  O   UNL     1       3.946  57.355  30.220  1.00  0.00    -0.388 OA
ATOM     14  H   UNL     1       4.911  57.550  30.351  1.00  0.00     0.211 HD
ENDBRANCH   1  13
TORSDOF 8
ENDMDL
MODEL 2
REMARK VINA RESULT:    -4.339      1.730      4.175
REMARK INTER + INTRA:          -6.310
REMARK INTER:                  -5.812
REMARK INTRA:                  -0.498
REMARK UNBOUND:                -0.449
REMARK SMILES O=C[C@@H](O)[C@@H](O)[C@@H](O)CO
REMARK SMILES IDX 7 1 9 2 10 3 5 5 3 6 2 7 1 8 4 9 6 11 8 13
REMARK H PARENT 10 4 4 10 6 12 8 14
REMARK Flexibility Score: inf
ROOT
ATOM      1  C   UNL     1       1.926  55.895  31.544  1.00  0.00     0.171 C 
ENDROOT
BRANCH   1   2
ATOM      2  C   UNL     1       1.754  56.175  30.039  1.00  0.00     0.190 C 
BRANCH   2   3
ATOM      3  O   UNL     1       0.401  56.250  29.677  1.00  0.00    -0.394 OA
ATOM      4  H   UNL     1      -0.128  56.093  30.503  1.00  0.00     0.210 HD
ENDBRANCH   2   3
ENDBRANCH   1   2
BRANCH   1   5
ATOM      5  C   UNL     1       3.361  55.412  31.919  1.00  0.00     0.181 C 
BRANCH   5   6
ATOM      6  C   UNL     1       4.382  56.525  32.275  1.00  0.00     0.209 C 
BRANCH   6   7
ATOM      7  C   UNL     1       4.654  56.640  33.753  1.00  0.00     0.258 C 
ATOM      8  O   UNL     1       3.741  56.783  34.551  1.00  0.00    -0.300 OA
ENDBRANCH   6   7
BRANCH   6   9
ATOM      9  O   UNL     1       5.585  56.281  31.592  1.00  0.00    -0.383 OA
ATOM     10  H   UNL     1       5.691  57.007  30.922  1.00  0.00     0.211 HD
ENDBRANCH   6   9
ENDBRANCH   5   6
BRANCH   5  11
ATOM     11  O   UNL     1       3.312  54.426  32.923  1.00  0.00    -0.387 OA
ATOM     12  H   UNL     1       4.211  54.016  32.997  1.00  0.00     0.211 HD
ENDBRANCH   5  11
ENDBRANCH   1   5
BRANCH   1  13
ATOM     13  O   UNL     1       1.551  57.029  32.284  1.00  0.00    -0.388 OA
ATOM     14  H   UNL     1       2.238  57.728  32.124  1.00  0.00     0.211 HD
ENDBRANCH   1  13
TORSDOF 8
ENDMDL
MODEL 3
REMARK VINA RESULT:    -4.337      1.467      3.824
REMARK INTER + INTRA:          -6.307
REMARK INTER:                  -5.725
REMARK INTRA:                  -0.583
REMARK UNBOUND:                -0.449
REMARK SMILES O=C[C@@H](O)[C@@H](O)[C@@H](O)CO
REMARK SMILES IDX 7 1 9 2 10 3 5 5 3 6 2 7 1 8 4 9 6 11 8 13
REMARK H PARENT 10 4 4 10 6 12 8 14
REMARK Flexibility Score: inf
ROOT
ATOM      1  C   UNL     1       2.674  55.981  30.217  1.00  0.00     0.171 C 
ENDROOT
BRANCH   1   2
ATOM      2  C   UNL     1       1.352  55.273  29.861  1.00  0.00     0.190 C 
BRANCH   2   3
ATOM      3  O   UNL     1       0.360  56.190  29.483  1.00  0.00    -0.394 OA
ATOM      4  H   UNL     1       0.751  57.097  29.583  1.00  0.00     0.210 HD
ENDBRANCH   2   3
ENDBRANCH   1   2
BRANCH   1   5
ATOM      5  C   UNL     1       2.723  56.487  31.691  1.00  0.00     0.181 C 
BRANCH   5   6
ATOM      6  C   UNL     1       3.840  57.512  32.021  1.00  0.00     0.209 C 
BRANCH   6   7
ATOM      7  C   UNL     1       4.872  56.984  32.986  1.00  0.00     0.258 C 
ATOM      8  O   UNL     1       4.809  55.841  33.410  1.00  0.00    -0.300 OA
ENDBRANCH   6   7
BRANCH   6   9
ATOM      9  O   UNL     1       4.470  57.908  30.829  1.00  0.00    -0.383 OA
ATOM     10  H   UNL     1       5.349  58.295  31.081  1.00  0.00     0.211 HD
ENDBRANCH   6   9
ENDBRANCH   5   6
BRANCH   5  11
ATOM     11  O   UNL     1       1.462  56.958  32.102  1.00  0.00    -0.387 OA
ATOM     12  H   UNL     1       1.046  56.265  32.676  1.00  0.00     0.211 HD
ENDBRANCH   5  11
ENDBRANCH   1   5
BRANCH   1  13
ATOM     13  O   UNL     1       3.758  55.136  29.923  1.00  0.00    -0.388 OA
ATOM     14  H   UNL     1       3.627  54.296  30.436  1.00  0.00     0.211 HD
ENDBRANCH   1  13
TORSDOF 8
ENDMDL
MODEL 4
REMARK VINA RESULT:    -4.327      1.352      1.948
REMARK INTER + INTRA:          -6.294
REMARK INTER:                  -5.469
REMARK INTRA:                  -0.826
REMARK UNBOUND:                -0.449
REMARK SMILES O=C[C@@H](O)[C@@H](O)[C@@H](O)CO
REMARK SMILES IDX 7 1 9 2 10 3 5 5 3 6 2 7 1 8 4 9 6 11 8 13
REMARK H PARENT 10 4 4 10 6 12 8 14
REMARK Flexibility Score: inf
ROOT
ATOM      1  C   UNL     1       3.206  57.156  32.584  1.00  0.00     0.171 C 
ENDROOT
BRANCH   1   2
ATOM      2  C   UNL     1       4.574  56.632  33.060  1.00  0.00     0.190 C 
BRANCH   2   3
ATOM      3  O   UNL     1       5.341  56.142  31.993  1.00  0.00    -0.394 OA
ATOM      4  H   UNL     1       5.136  55.175  31.909  1.00  0.00     0.210 HD
ENDBRANCH   2   3
ENDBRANCH   1   2
BRANCH   1   5
ATOM      5  C   UNL     1       2.277  56.034  32.029  1.00  0.00     0.181 C 
BRANCH   5   6
ATOM      6  C   UNL     1       2.097  55.998  30.488  1.00  0.00     0.209 C 
BRANCH   6   7
ATOM      7  C   UNL     1       2.712  54.783  29.841  1.00  0.00     0.258 C 
ATOM      8  O   UNL     1       3.918  54.594  29.877  1.00  0.00    -0.300 OA
ENDBRANCH   6   7
BRANCH   6   9
ATOM      9  O   UNL     1       0.726  56.050  30.183  1.00  0.00    -0.383 OA
ATOM     10  H   UNL     1       0.329  56.756  30.759  1.00  0.00     0.211 HD
ENDBRANCH   6   9
ENDBRANCH   5   6
BRANCH   5  11
ATOM     11  O   UNL     1       2.659  54.774  32.527  1.00  0.00    -0.387 OA
ATOM     12  H   UNL     1       3.417  54.443  31.981  1.00  0.00     0.211 HD
ENDBRANCH   5  11
ENDBRANCH   1   5
BRANCH   1  13
ATOM     13  O   UNL     1       2.587  57.876  33.620  1.00  0.00    -0.388 OA
ATOM     14  H   UNL     1       3.230  58.569  33.925  1.00  0.00     0.211 HD
ENDBRANCH   1  13
TORSDOF 8
ENDMDL
MODEL 5
REMARK VINA RESULT:    -4.274      1.777      3.782
REMARK INTER + INTRA:          -6.222
REMARK INTER:                  -5.714
REMARK INTRA:                  -0.508
REMARK UNBOUND:                -0.449
REMARK SMILES O=C[C@@H](O)[C@@H](O)[C@@H](O)CO
REMARK SMILES IDX 7 1 9 2 10 3 5 5 3 6 2 7 1 8 4 9 6 11 8 13
REMARK H PARENT 10 4 4 10 6 12 8 14
REMARK Flexibility Score: inf
ROOT
ATOM      1  C   UNL     1       2.248  55.051  30.470  1.00  0.00     0.171 C 
ENDROOT
BRANCH   1   2
ATOM      2  C   UNL     1       1.125  55.038  29.416  1.00  0.00     0.190 C 
BRANCH   2   3
ATOM      3  O   UNL     1       0.370  56.219  29.449  1.00  0.00    -0.394 OA
ATOM      4  H   UNL     1       0.282  56.480  30.403  1.00  0.00     0.210 HD
ENDBRANCH   2   3
ENDBRANCH   1   2
BRANCH   1   5
ATOM      5  C   UNL     1       3.673  55.179  29.849  1.00  0.00     0.181 C 
BRANCH   5   6
ATOM      6  C   UNL     1       4.581  56.284  30.450  1.00  0.00     0.209 C 
BRANCH   6   7
ATOM      7  C   UNL     1       6.001  56.234  29.946  1.00  0.00     0.258 C 
ATOM      8  O   UNL     1       6.250  55.880  28.804  1.00  0.00    -0.300 OA
ENDBRANCH   6   7
BRANCH   6   9
ATOM      9  O   UNL     1       4.025  57.543  30.165  1.00  0.00    -0.383 OA
ATOM     10  H   UNL     1       4.775  58.194  30.149  1.00  0.00     0.211 HD
ENDBRANCH   6   9
ENDBRANCH   5   6
BRANCH   5  11
ATOM     11  O   UNL     1       4.328  53.933  29.835  1.00  0.00    -0.387 OA
ATOM     12  H   UNL     1       4.451  53.659  28.890  1.00  0.00     0.211 HD
ENDBRANCH   5  11
ENDBRANCH   1   5
BRANCH   1  13
ATOM     13  O   UNL     1       2.002  56.065  31.413  1.00  0.00    -0.388 OA
ATOM     14  H   UNL     1       1.676  55.625  32.242  1.00  0.00     0.211 HD
ENDBRANCH   1  13
TORSDOF 8
ENDMDL
MODEL 6
REMARK VINA RESULT:    -4.211      1.276      3.717
REMARK INTER + INTRA:          -6.137
REMARK INTER:                  -5.349
REMARK INTRA:                  -0.788
REMARK UNBOUND:                -0.449
REMARK SMILES O=C[C@@H](O)[C@@H](O)[C@@H](O)CO
REMARK SMILES IDX 7 1 9 2 10 3 5 5 3 6 2 7 1 8 4 9 6 11 8 13
REMARK H PARENT 10 4 4 10 6 12 8 14
REMARK Flexibility Score: inf
ROOT
ATOM      1  C   UNL     1       1.469  55.406  30.238  1.00  0.00     0.171 C 
ENDROOT
BRANCH   1   2
ATOM      2  C   UNL     1       2.375  54.540  29.342  1.00  0.00     0.190 C 
BRANCH   2   3
ATOM      3  O   UNL     1       3.367  53.886  30.088  1.00  0.00    -0.394 OA
ATOM      4  H   UNL     1       4.026  54.577  30.361  1.00  0.00     0.210 HD
ENDBRANCH   2   3
ENDBRANCH   1   2
BRANCH   1   5
ATOM      5  C   UNL     1       2.241  56.536  30.984  1.00  0.00     0.181 C 
BRANCH   5   6
ATOM      6  C   UNL     1       2.055  56.586  32.524  1.00  0.00     0.209 C 
BRANCH   6   7
ATOM      7  C   UNL     1       2.466  55.313  33.219  1.00  0.00     0.258 C 
ATOM      8  O   UNL     1       3.528  54.769  32.958  1.00  0.00    -0.300 OA
ENDBRANCH   6   7
BRANCH   6   9
ATOM      9  O   UNL     1       2.791  57.664  33.042  1.00  0.00    -0.383 OA
ATOM     10  H   UNL     1       3.608  57.752  32.484  1.00  0.00     0.211 HD
ENDBRANCH   6   9
ENDBRANCH   5   6
BRANCH   5  11
ATOM     11  O   UNL     1       3.605  56.528  30.636  1.00  0.00    -0.387 OA
ATOM     12  H   UNL     1       3.804  57.367  30.148  1.00  0.00     0.211 HD
ENDBRANCH   5  11
ENDBRANCH   1   5
BRANCH   1  13
ATOM     13  O   UNL     1       0.404  55.921  29.477  1.00  0.00    -0.388 OA
ATOM     14  H   UNL     1      -0.343  56.109  30.103  1.00  0.00     0.211 HD
ENDBRANCH   1  13
TORSDOF 8
ENDMDL
MODEL 7
REMARK VINA RESULT:    -4.211      1.632      3.117
REMARK INTER + INTRA:          -6.137
REMARK INTER:                  -5.362
REMARK INTRA:                  -0.775
REMARK UNBOUND:                -0.449
REMARK SMILES O=C[C@@H](O)[C@@H](O)[C@@H](O)CO
REMARK SMILES IDX 7 1 9 2 10 3 5 5 3 6 2 7 1 8 4 9 6 11 8 13
REMARK H PARENT 10 4 4 10 6 12 8 14
REMARK Flexibility Score: inf
ROOT
ATOM      1  C   UNL     1       4.318  54.894  30.566  1.00  0.00     0.171 C 
ENDROOT
BRANCH   1   2
ATOM      2  C   UNL     1       5.683  55.583  30.756  1.00  0.00     0.190 C 
BRANCH   2   3
ATOM      3  O   UNL     1       5.695  56.403  31.894  1.00  0.00    -0.394 OA
ATOM      4  H   UNL     1       5.679  57.342  31.574  1.00  0.00     0.210 HD
ENDBRANCH   2   3
ENDBRANCH   1   2
BRANCH   1   5
ATOM      5  C   UNL     1       3.172  55.887  30.205  1.00  0.00     0.181 C 
BRANCH   5   6
ATOM      6  C   UNL     1       1.915  55.835  31.114  1.00  0.00     0.209 C 
BRANCH   6   7
ATOM      7  C   UNL     1       1.973  56.797  32.273  1.00  0.00     0.258 C 
ATOM      8  O   UNL     1       3.020  57.000  32.870  1.00  0.00    -0.300 OA
ENDBRANCH   6   7
BRANCH   6   9
ATOM      9  O   UNL     1       0.775  56.102  30.338  1.00  0.00    -0.383 OA
ATOM     10  H   UNL     1       1.093  56.489  29.479  1.00  0.00     0.211 HD
ENDBRANCH   6   9
ENDBRANCH   5   6
BRANCH   5  11
ATOM     11  O   UNL     1       3.664  57.201  30.090  1.00  0.00    -0.387 OA
ATOM     12  H   UNL     1       4.160  57.271  29.234  1.00  0.00     0.211 HD
ENDBRANCH   5  11
ENDBRANCH   1   5
BRANCH   1  13
ATOM     13  O   UNL     1       4.434  53.867  29.612  1.00  0.00    -0.388 OA
ATOM     14  H   UNL     1       3.534  53.463  29.501  1.00  0.00     0.211 HD
ENDBRANCH   1  13
TORSDOF 8
ENDMDL
MODEL 8
REMARK VINA RESULT:    -4.207      1.643      3.868
REMARK INTER + INTRA:          -6.131
REMARK INTER:                  -5.316
REMARK INTRA:                  -0.816
REMARK UNBOUND:                -0.449
REMARK SMILES O=C[C@@H](O)[C@@H](O)[C@@H](O)CO
REMARK SMILES IDX 7 1 9 2 10 3 5 5 3 6 2 7 1 8 4 9 6 11 8 13
REMARK H PARENT 10 4 4 10 6 12 8 14
REMARK Flexibility Score: inf
ROOT
ATOM      1  C   UNL     1       1.858  55.476  30.833  1.00  0.00     0.171 C 
ENDROOT
BRANCH   1   2
ATOM      2  C   UNL     1       3.169  55.770  30.079  1.00  0.00     0.190 C 
BRANCH   2   3
ATOM      3  O   UNL     1       3.475  57.139  30.089  1.00  0.00    -0.394 OA
ATOM      4  H   UNL     1       3.253  57.479  30.995  1.00  0.00     0.210 HD
ENDBRANCH   2   3
ENDBRANCH   1   2
BRANCH   1   5
ATOM      5  C   UNL     1       1.921  55.851  32.345  1.00  0.00     0.181 C 
BRANCH   5   6
ATOM      6  C   UNL     1       3.175  55.362  33.117  1.00  0.00     0.209 C 
BRANCH   6   7
ATOM      7  C   UNL     1       4.037  56.487  33.633  1.00  0.00     0.258 C 
ATOM      8  O   UNL     1       4.698  57.174  32.869  1.00  0.00    -0.300 OA
ENDBRANCH   6   7
BRANCH   6   9
ATOM      9  O   UNL     1       2.769  54.551  34.190  1.00  0.00    -0.383 OA
ATOM     10  H   UNL     1       3.514  54.546  34.847  1.00  0.00     0.211 HD
ENDBRANCH   6   9
ENDBRANCH   5   6
BRANCH   5  11
ATOM     11  O   UNL     1       1.715  57.231  32.529  1.00  0.00    -0.387 OA
ATOM     12  H   UNL     1       2.549  57.704  32.279  1.00  0.00     0.211 HD
ENDBRANCH   5  11
ENDBRANCH   1   5
BRANCH   1  13
ATOM     13  O   UNL     1       0.785  56.112  30.185  1.00  0.00    -0.388 OA
ATOM     14  H   UNL     1       1.064  57.047  29.998  1.00  0.00     0.211 HD
ENDBRANCH   1  13
TORSDOF 8
ENDMDL
MODEL 9
REMARK VINA RESULT:    -4.193      1.478      3.952
REMARK INTER + INTRA:          -6.113
REMARK INTER:                  -5.657
REMARK INTRA:                  -0.456
REMARK UNBOUND:                -0.449
REMARK SMILES O=C[C@@H](O)[C@@H](O)[C@@H](O)CO
REMARK SMILES IDX 7 1 9 2 10 3 5 5 3 6 2 7 1 8 4 9 6 11 8 13
REMARK H PARENT 10 4 4 10 6 12 8 14
REMARK Flexibility Score: inf
ROOT
ATOM      1  C   UNL     1       2.485  56.199  30.550  1.00  0.00     0.171 C 
ENDROOT
BRANCH   1   2
ATOM      2  C   UNL     1       1.461  55.412  29.712  1.00  0.00     0.190 C 
BRANCH   2   3
ATOM      3  O   UNL     1       0.305  56.167  29.463  1.00  0.00    -0.394 OA
ATOM      4  H   UNL     1      -0.127  55.779  28.658  1.00  0.00     0.210 HD
ENDBRANCH   2   3
ENDBRANCH   1   2
BRANCH   1   5
ATOM      5  C   UNL     1       2.319  55.985  32.085  1.00  0.00     0.181 C 
BRANCH   5   6
ATOM      6  C   UNL     1       3.540  55.376  32.824  1.00  0.00     0.209 C 
BRANCH   6   7
ATOM      7  C   UNL     1       4.454  56.411  33.428  1.00  0.00     0.258 C 
ATOM      8  O   UNL     1       4.898  57.328  32.755  1.00  0.00    -0.300 OA
ENDBRANCH   6   7
BRANCH   6   9
ATOM      9  O   UNL     1       3.083  54.507  33.829  1.00  0.00    -0.383 OA
ATOM     10  H   UNL     1       3.122  55.009  34.686  1.00  0.00     0.211 HD
ENDBRANCH   6   9
ENDBRANCH   5   6
BRANCH   5  11
ATOM     11  O   UNL     1       1.882  57.167  32.712  1.00  0.00    -0.387 OA
ATOM     12  H   UNL     1       2.223  57.167  33.643  1.00  0.00     0.211 HD
ENDBRANCH   5  11
ENDBRANCH   1   5
BRANCH   1  13
ATOM     13  O   UNL     1       3.788  55.888  30.122  1.00  0.00    -0.388 OA
ATOM     14  H   UNL     1       4.304  55.607  30.922  1.00  0.00     0.211 HD
ENDBRANCH   1  13
TORSDOF 8
ENDMDL
