MODEL 1
REMARK VINA RESULT:    -5.083      0.000      0.000
REMARK INTER + INTRA:          -9.801
REMARK INTER:                  -8.055
REMARK INTRA:                  -1.746
REMARK UNBOUND:                -1.746
REMARK SMILES CCCCCCCCCCCC(=O)[O-]
REMARK SMILES IDX 7 1 8 2 9 3 10 4 11 5 12 6 13 7 14 8 6 9 5 10 4 11 3 12 2 13
REMARK SMILES IDX 1 14
REMARK H PARENT
REMARK Flexibility Score: inf
ROOT
ATOM      1  C   UNL     1       7.889  22.720  42.235  1.00  0.00     0.000 C 
ENDROOT
BRANCH   1   2
ATOM      2  C   UNL     1       6.671  21.821  41.973  1.00  0.00     0.000 C 
BRANCH   2   3
ATOM      3  C   UNL     1       6.773  20.464  42.686  1.00  0.00     0.000 C 
BRANCH   3   4
ATOM      4  C   UNL     1       5.722  20.293  43.792  1.00  0.00     0.006 C 
BRANCH   4   5
ATOM      5  C   UNL     1       4.700  21.434  43.756  1.00  0.00     0.053 C 
BRANCH   5   6
ATOM      6  C   UNL     1       4.553  22.048  45.112  1.00  0.00     0.041 C 
ATOM      7  O   UNL     1       4.220  23.256  45.229  1.00  0.00    -0.550 OA
ATOM      8  O   UNL     1       4.735  21.272  46.250  1.00  0.00    -0.550 OA
ENDBRANCH   5   6
ENDBRANCH   4   5
ENDBRANCH   3   4
ENDBRANCH   2   3
ENDBRANCH   1   2
BRANCH   1   9
ATOM      9  C   UNL     1       7.453  24.109  42.718  1.00  0.00     0.000 C 
BRANCH   9  10
ATOM     10  C   UNL     1       7.525  24.208  44.247  1.00  0.00    -0.000 C 
BRANCH  10  11
ATOM     11  C   UNL     1       8.640  23.313  44.806  1.00  0.00    -0.000 C 
BRANCH  11  12
ATOM     12  C   UNL     1       8.146  22.417  45.962  1.00  0.00    -0.000 C 
BRANCH  12  13
ATOM     13  C   UNL     1       8.624  20.959  45.859  1.00  0.00    -0.003 C 
ATOM     14  C   UNL     1       9.947  20.814  45.109  1.00  0.00     0.004 C 
ENDBRANCH  12  13
ENDBRANCH  11  12
ENDBRANCH  10  11
ENDBRANCH   9  10
ENDBRANCH   1   9
TORSDOF 10
ENDMDL
MODEL 2
REMARK VINA RESULT:    -5.077      2.348      3.961
REMARK INTER + INTRA:          -9.792
REMARK INTER:                  -8.065
REMARK INTRA:                  -1.727
REMARK UNBOUND:                -1.746
REMARK SMILES CCCCCCCCCCCC(=O)[O-]
REMARK SMILES IDX 7 1 8 2 9 3 10 4 11 5 12 6 13 7 14 8 6 9 5 10 4 11 3 12 2 13
REMARK SMILES IDX 1 14
REMARK H PARENT
REMARK Flexibility Score: inf
ROOT
ATOM      1  C   UNL     1       5.868  21.644  46.297  1.00  0.00     0.000 C 
ENDROOT
BRANCH   1   2
ATOM      2  C   UNL     1       4.722  22.025  45.347  1.00  0.00     0.000 C 
BRANCH   2   3
ATOM      3  C   UNL     1       4.775  21.255  44.018  1.00  0.00     0.000 C 
BRANCH   3   4
ATOM      4  C   UNL     1       5.818  20.128  44.026  1.00  0.00     0.006 C 
BRANCH   4   5
ATOM      5  C   UNL     1       6.946  20.420  43.032  1.00  0.00     0.053 C 
BRANCH   5   6
ATOM      6  C   UNL     1       8.249  19.903  43.553  1.00  0.00     0.041 C 
ATOM      7  O   UNL     1       9.329  20.465  43.233  1.00  0.00    -0.550 OA
ATOM      8  O   UNL     1       8.269  18.828  44.434  1.00  0.00    -0.550 OA
ENDBRANCH   5   6
ENDBRANCH   4   5
ENDBRANCH   3   4
ENDBRANCH   2   3
ENDBRANCH   1   2
BRANCH   1   9
ATOM      9  C   UNL     1       6.740  22.863  46.623  1.00  0.00     0.000 C 
BRANCH   9  10
ATOM     10  C   UNL     1       8.062  22.818  45.848  1.00  0.00    -0.000 C 
BRANCH  10  11
ATOM     11  C   UNL     1       8.248  24.085  45.000  1.00  0.00    -0.000 C 
BRANCH  11  12
ATOM     12  C   UNL     1       8.174  23.792  43.487  1.00  0.00    -0.000 C 
BRANCH  12  13
ATOM     13  C   UNL     1       6.805  24.113  42.863  1.00  0.00    -0.003 C 
ATOM     14  C   UNL     1       5.998  25.120  43.678  1.00  0.00     0.004 C 
ENDBRANCH  12  13
ENDBRANCH  11  12
ENDBRANCH  10  11
ENDBRANCH   9  10
ENDBRANCH   1   9
TORSDOF 10
ENDMDL
MODEL 3
REMARK VINA RESULT:    -4.995      2.226      4.081
REMARK INTER + INTRA:          -9.661
REMARK INTER:                  -7.944
REMARK INTRA:                  -1.717
REMARK UNBOUND:                -1.746
REMARK SMILES CCCCCCCCCCCC(=O)[O-]
REMARK SMILES IDX 7 1 8 2 9 3 10 4 11 5 12 6 13 7 14 8 6 9 5 10 4 11 3 12 2 13
REMARK SMILES IDX 1 14
REMARK H PARENT
REMARK Flexibility Score: inf
ROOT
ATOM      1  C   UNL     1       8.345  23.099  45.134  1.00  0.00     0.000 C 
ENDROOT
BRANCH   1   2
ATOM      2  C   UNL     1       7.454  23.252  46.376  1.00  0.00     0.000 C 
BRANCH   2   3
ATOM      3  C   UNL     1       6.269  22.274  46.379  1.00  0.00     0.000 C 
BRANCH   3   4
ATOM      4  C   UNL     1       6.622  20.912  45.763  1.00  0.00     0.006 C 
BRANCH   4   5
ATOM      5  C   UNL     1       5.728  20.608  44.558  1.00  0.00     0.053 C 
BRANCH   5   6
ATOM      6  C   UNL     1       6.558  20.245  43.368  1.00  0.00     0.041 C 
ATOM      7  O   UNL     1       7.698  19.734  43.521  1.00  0.00    -0.550 OA
ATOM      8  O   UNL     1       6.052  20.426  42.086  1.00  0.00    -0.550 OA
ENDBRANCH   5   6
ENDBRANCH   4   5
ENDBRANCH   3   4
ENDBRANCH   2   3
ENDBRANCH   1   2
BRANCH   1   9
ATOM      9  C   UNL     1       8.222  24.322  44.216  1.00  0.00     0.000 C 
BRANCH   9  10
ATOM     10  C   UNL     1       7.608  23.938  42.864  1.00  0.00    -0.000 C 
BRANCH  10  11
ATOM     11  C   UNL     1       6.074  23.953  42.931  1.00  0.00    -0.000 C 
BRANCH  11  12
ATOM     12  C   UNL     1       5.536  25.164  43.722  1.00  0.00    -0.000 C 
BRANCH  12  13
ATOM     13  C   UNL     1       4.295  24.842  44.572  1.00  0.00    -0.003 C 
ATOM     14  C   UNL     1       3.536  23.611  44.082  1.00  0.00     0.004 C 
ENDBRANCH  12  13
ENDBRANCH  11  12
ENDBRANCH  10  11
ENDBRANCH   9  10
ENDBRANCH   1   9
TORSDOF 10
ENDMDL
MODEL 4
REMARK VINA RESULT:    -4.982      1.638      3.355
REMARK INTER + INTRA:          -9.640
REMARK INTER:                  -7.931
REMARK INTRA:                  -1.709
REMARK UNBOUND:                -1.746
REMARK SMILES CCCCCCCCCCCC(=O)[O-]
REMARK SMILES IDX 7 1 8 2 9 3 10 4 11 5 12 6 13 7 14 8 6 9 5 10 4 11 3 12 2 13
REMARK SMILES IDX 1 14
REMARK H PARENT
REMARK Flexibility Score: inf
ROOT
ATOM      1  C   UNL     1       7.070  20.447  42.953  1.00  0.00     0.000 C 
ENDROOT
BRANCH   1   2
ATOM      2  C   UNL     1       6.534  21.705  42.254  1.00  0.00     0.000 C 
BRANCH   2   3
ATOM      3  C   UNL     1       7.540  22.868  42.275  1.00  0.00     0.000 C 
BRANCH   3   4
ATOM      4  C   UNL     1       6.938  24.162  42.842  1.00  0.00     0.006 C 
BRANCH   4   5
ATOM      5  C   UNL     1       5.409  24.082  42.884  1.00  0.00     0.053 C 
BRANCH   5   6
ATOM      6  C   UNL     1       4.850  25.191  43.717  1.00  0.00     0.041 C 
ATOM      7  O   UNL     1       4.779  26.360  43.253  1.00  0.00    -0.550 OA
ATOM      8  O   UNL     1       4.359  24.926  44.990  1.00  0.00    -0.550 OA
ENDBRANCH   5   6
ENDBRANCH   4   5
ENDBRANCH   3   4
ENDBRANCH   2   3
ENDBRANCH   1   2
BRANCH   1   9
ATOM      9  C   UNL     1       6.071  19.931  43.996  1.00  0.00     0.000 C 
BRANCH   9  10
ATOM     10  C   UNL     1       4.853  20.856  44.099  1.00  0.00    -0.000 C 
BRANCH  10  11
ATOM     11  C   UNL     1       4.708  21.421  45.520  1.00  0.00    -0.000 C 
BRANCH  11  12
ATOM     12  C   UNL     1       6.037  21.378  46.303  1.00  0.00    -0.000 C 
BRANCH  12  13
ATOM     13  C   UNL     1       6.782  22.724  46.326  1.00  0.00    -0.003 C 
ATOM     14  C   UNL     1       8.263  22.595  45.978  1.00  0.00     0.004 C 
ENDBRANCH  12  13
ENDBRANCH  11  12
ENDBRANCH  10  11
ENDBRANCH   9  10
ENDBRANCH   1   9
TORSDOF 10
ENDMDL
MODEL 5
REMARK VINA RESULT:    -4.972      1.931      4.035
REMARK INTER + INTRA:          -9.625
REMARK INTER:                  -7.938
REMARK INTRA:                  -1.687
REMARK UNBOUND:                -1.746
REMARK SMILES CCCCCCCCCCCC(=O)[O-]
REMARK SMILES IDX 7 1 8 2 9 3 10 4 11 5 12 6 13 7 14 8 6 9 5 10 4 11 3 12 2 13
REMARK SMILES IDX 1 14
REMARK H PARENT
REMARK Flexibility Score: inf
ROOT
ATOM      1  C   UNL     1       8.448  23.203  44.991  1.00  0.00     0.000 C 
ENDROOT
BRANCH   1   2
ATOM      2  C   UNL     1       8.174  24.393  44.060  1.00  0.00     0.000 C 
BRANCH   2   3
ATOM      3  C   UNL     1       7.653  23.958  42.681  1.00  0.00     0.000 C 
BRANCH   3   4
ATOM      4  C   UNL     1       7.950  22.484  42.372  1.00  0.00     0.006 C 
BRANCH   4   5
ATOM      5  C   UNL     1       6.661  21.718  42.062  1.00  0.00     0.053 C 
BRANCH   5   6
ATOM      6  C   UNL     1       6.619  20.432  42.823  1.00  0.00     0.041 C 
ATOM      7  O   UNL     1       7.686  19.895  43.221  1.00  0.00    -0.550 OA
ATOM      8  O   UNL     1       5.397  19.849  43.138  1.00  0.00    -0.550 OA
ENDBRANCH   5   6
ENDBRANCH   4   5
ENDBRANCH   3   4
ENDBRANCH   2   3
ENDBRANCH   1   2
BRANCH   1   9
ATOM      9  C   UNL     1       7.990  23.509  46.423  1.00  0.00     0.000 C 
BRANCH   9  10
ATOM     10  C   UNL     1       6.460  23.563  46.513  1.00  0.00    -0.000 C 
BRANCH  10  11
ATOM     11  C   UNL     1       5.835  22.233  46.069  1.00  0.00    -0.000 C 
BRANCH  11  12
ATOM     12  C   UNL     1       4.551  22.440  45.237  1.00  0.00    -0.000 C 
BRANCH  12  13
ATOM     13  C   UNL     1       4.364  23.885  44.744  1.00  0.00    -0.003 C 
ATOM     14  C   UNL     1       3.853  23.965  43.307  1.00  0.00     0.004 C 
ENDBRANCH  12  13
ENDBRANCH  11  12
ENDBRANCH  10  11
ENDBRANCH   9  10
ENDBRANCH   1   9
TORSDOF 10
ENDMDL
MODEL 6
REMARK VINA RESULT:    -4.964      1.992      3.422
REMARK INTER + INTRA:          -9.611
REMARK INTER:                  -7.914
REMARK INTRA:                  -1.697
REMARK UNBOUND:                -1.746
REMARK SMILES CCCCCCCCCCCC(=O)[O-]
REMARK SMILES IDX 7 1 8 2 9 3 10 4 11 5 12 6 13 7 14 8 6 9 5 10 4 11 3 12 2 13
REMARK SMILES IDX 1 14
REMARK H PARENT
REMARK Flexibility Score: inf
ROOT
ATOM      1  C   UNL     1       5.903  21.571  46.452  1.00  0.00     0.000 C 
ENDROOT
BRANCH   1   2
ATOM      2  C   UNL     1       4.738  21.714  45.460  1.00  0.00     0.000 C 
BRANCH   2   3
ATOM      3  C   UNL     1       5.097  21.220  44.050  1.00  0.00     0.000 C 
BRANCH   3   4
ATOM      4  C   UNL     1       5.150  22.358  43.019  1.00  0.00     0.006 C 
BRANCH   4   5
ATOM      5  C   UNL     1       6.568  22.532  42.469  1.00  0.00     0.053 C 
BRANCH   5   6
ATOM      6  C   UNL     1       7.096  23.891  42.805  1.00  0.00     0.041 C 
ATOM      7  O   UNL     1       8.244  24.238  42.422  1.00  0.00    -0.550 OA
ATOM      8  O   UNL     1       6.300  24.795  43.499  1.00  0.00    -0.550 OA
ENDBRANCH   5   6
ENDBRANCH   4   5
ENDBRANCH   3   4
ENDBRANCH   2   3
ENDBRANCH   1   2
BRANCH   1   9
ATOM      9  C   UNL     1       6.643  22.903  46.625  1.00  0.00     0.000 C 
BRANCH   9  10
ATOM     10  C   UNL     1       8.063  22.824  46.051  1.00  0.00    -0.000 C 
BRANCH  10  11
ATOM     11  C   UNL     1       8.493  21.364  45.843  1.00  0.00    -0.000 C 
BRANCH  11  12
ATOM     12  C   UNL     1       9.438  21.201  44.634  1.00  0.00    -0.000 C 
BRANCH  12  13
ATOM     13  C   UNL     1       8.978  20.126  43.634  1.00  0.00    -0.003 C 
ATOM     14  C   UNL     1       8.122  19.038  44.276  1.00  0.00     0.004 C 
ENDBRANCH  12  13
ENDBRANCH  11  12
ENDBRANCH  10  11
ENDBRANCH   9  10
ENDBRANCH   1   9
TORSDOF 10
ENDMDL
MODEL 7
REMARK VINA RESULT:    -4.949      1.689      3.854
REMARK INTER + INTRA:          -9.588
REMARK INTER:                  -7.958
REMARK INTRA:                  -1.631
REMARK UNBOUND:                -1.746
REMARK SMILES CCCCCCCCCCCC(=O)[O-]
REMARK SMILES IDX 7 1 8 2 9 3 10 4 11 5 12 6 13 7 14 8 6 9 5 10 4 11 3 12 2 13
REMARK SMILES IDX 1 14
REMARK H PARENT
REMARK Flexibility Score: inf
ROOT
ATOM      1  C   UNL     1       8.078  22.993  46.184  1.00  0.00     0.000 C 
ENDROOT
BRANCH   1   2
ATOM      2  C   UNL     1       8.150  24.033  45.056  1.00  0.00     0.000 C 
BRANCH   2   3
ATOM      3  C   UNL     1       8.013  23.404  43.661  1.00  0.00     0.000 C 
BRANCH   3   4
ATOM      4  C   UNL     1       6.820  23.964  42.872  1.00  0.00     0.006 C 
BRANCH   4   5
ATOM      5  C   UNL     1       6.045  24.989  43.705  1.00  0.00     0.053 C 
BRANCH   5   6
ATOM      6  C   UNL     1       4.628  24.547  43.892  1.00  0.00     0.041 C 
ATOM      7  O   UNL     1       4.003  24.004  42.945  1.00  0.00    -0.550 OA
ATOM      8  O   UNL     1       4.013  24.691  45.130  1.00  0.00    -0.550 OA
ENDBRANCH   5   6
ENDBRANCH   4   5
ENDBRANCH   3   4
ENDBRANCH   2   3
ENDBRANCH   1   2
BRANCH   1   9
ATOM      9  C   UNL     1       6.625  22.729  46.597  1.00  0.00     0.000 C 
BRANCH   9  10
ATOM     10  C   UNL     1       6.201  21.299  46.241  1.00  0.00    -0.000 C 
BRANCH  10  11
ATOM     11  C   UNL     1       4.731  21.253  45.799  1.00  0.00    -0.000 C 
BRANCH  11  12
ATOM     12  C   UNL     1       4.578  20.818  44.327  1.00  0.00    -0.000 C 
BRANCH  12  13
ATOM     13  C   UNL     1       5.875  20.268  43.709  1.00  0.00    -0.003 C 
ATOM     14  C   UNL     1       5.950  20.471  42.197  1.00  0.00     0.004 C 
ENDBRANCH  12  13
ENDBRANCH  11  12
ENDBRANCH  10  11
ENDBRANCH   9  10
ENDBRANCH   1   9
TORSDOF 10
ENDMDL
MODEL 8
REMARK VINA RESULT:    -4.932      1.141      2.894
REMARK INTER + INTRA:          -9.561
REMARK INTER:                  -7.863
REMARK INTRA:                  -1.698
REMARK UNBOUND:                -1.746
REMARK SMILES CCCCCCCCCCCC(=O)[O-]
REMARK SMILES IDX 7 1 8 2 9 3 10 4 11 5 12 6 13 7 14 8 6 9 5 10 4 11 3 12 2 13
REMARK SMILES IDX 1 14
REMARK H PARENT
REMARK Flexibility Score: inf
ROOT
ATOM      1  C   UNL     1       7.316  24.465  44.057  1.00  0.00     0.000 C 
ENDROOT
BRANCH   1   2
ATOM      2  C   UNL     1       8.473  23.915  44.904  1.00  0.00     0.000 C 
BRANCH   2   3
ATOM      3  C   UNL     1       8.037  23.534  46.328  1.00  0.00     0.000 C 
BRANCH   3   4
ATOM      4  C   UNL     1       6.510  23.447  46.476  1.00  0.00     0.006 C 
BRANCH   4   5
ATOM      5  C   UNL     1       6.042  21.989  46.461  1.00  0.00     0.053 C 
BRANCH   5   6
ATOM      6  C   UNL     1       4.918  21.810  45.491  1.00  0.00     0.041 C 
ATOM      7  O   UNL     1       4.614  20.661  45.076  1.00  0.00    -0.550 OA
ATOM      8  O   UNL     1       4.171  22.909  45.082  1.00  0.00    -0.550 OA
ENDBRANCH   5   6
ENDBRANCH   4   5
ENDBRANCH   3   4
ENDBRANCH   2   3
ENDBRANCH   1   2
BRANCH   1   9
ATOM      9  C   UNL     1       7.265  23.780  42.686  1.00  0.00     0.000 C 
BRANCH   9  10
ATOM     10  C   UNL     1       8.151  22.528  42.661  1.00  0.00    -0.000 C 
BRANCH  10  11
ATOM     11  C   UNL     1       7.305  21.252  42.774  1.00  0.00    -0.000 C 
BRANCH  11  12
ATOM     12  C   UNL     1       7.948  20.206  43.709  1.00  0.00    -0.000 C 
BRANCH  12  13
ATOM     13  C   UNL     1       9.468  20.377  43.871  1.00  0.00    -0.003 C 
ATOM     14  C   UNL     1       9.914  20.421  45.331  1.00  0.00     0.004 C 
ENDBRANCH  12  13
ENDBRANCH  11  12
ENDBRANCH  10  11
ENDBRANCH   9  10
ENDBRANCH   1   9
TORSDOF 10
ENDMDL
MODEL 9
REMARK VINA RESULT:    -4.919      2.454      4.431
REMARK INTER + INTRA:          -9.540
REMARK INTER:                  -7.834
REMARK INTRA:                  -1.706
REMARK UNBOUND:                -1.746
REMARK SMILES CCCCCCCCCCCC(=O)[O-]
REMARK SMILES IDX 7 1 8 2 9 3 10 4 11 5 12 6 13 7 14 8 6 9 5 10 4 11 3 12 2 13
REMARK SMILES IDX 1 14
REMARK H PARENT
REMARK Flexibility Score: inf
ROOT
ATOM      1  C   UNL     1       7.306  24.204  43.795  1.00  0.00     0.000 C 
ENDROOT
BRANCH   1   2
ATOM      2  C   UNL     1       8.129  23.899  45.055  1.00  0.00     0.000 C 
BRANCH   2   3
ATOM      3  C   UNL     1       7.443  22.880  45.978  1.00  0.00     0.000 C 
BRANCH   3   4
ATOM      4  C   UNL     1       8.080  21.485  45.900  1.00  0.00     0.006 C 
BRANCH   4   5
ATOM      5  C   UNL     1       9.442  21.544  45.202  1.00  0.00     0.053 C 
BRANCH   5   6
ATOM      6  C   UNL     1       9.855  20.181  44.744  1.00  0.00     0.041 C 
ATOM      7  O   UNL     1       9.713  19.847  43.538  1.00  0.00    -0.550 OA
ATOM      8  O   UNL     1      10.444  19.295  45.638  1.00  0.00    -0.550 OA
ENDBRANCH   5   6
ENDBRANCH   4   5
ENDBRANCH   3   4
ENDBRANCH   2   3
ENDBRANCH   1   2
BRANCH   1   9
ATOM      9  C   UNL     1       8.120  23.926  42.526  1.00  0.00     0.000 C 
BRANCH   9  10
ATOM     10  C   UNL     1       7.875  22.501  42.014  1.00  0.00    -0.000 C 
BRANCH  10  11
ATOM     11  C   UNL     1       6.403  22.101  42.184  1.00  0.00    -0.000 C 
BRANCH  11  12
ATOM     12  C   UNL     1       6.244  20.620  42.590  1.00  0.00    -0.000 C 
BRANCH  12  13
ATOM     13  C   UNL     1       5.306  20.408  43.790  1.00  0.00    -0.003 C 
ATOM     14  C   UNL     1       4.451  21.633  44.106  1.00  0.00     0.004 C 
ENDBRANCH  12  13
ENDBRANCH  11  12
ENDBRANCH  10  11
ENDBRANCH   9  10
ENDBRANCH   1   9
TORSDOF 10
ENDMDL
