MODEL 1
REMARK VINA RESULT:    -3.074      0.000      0.000
REMARK INTER + INTRA:          -4.217
REMARK INTER:                  -3.703
REMARK INTRA:                  -0.514
REMARK UNBOUND:                -0.514
REMARK SMILES NC(=O)C[C@@H]([NH3+])C(=O)[O-]
REMARK SMILES IDX 4 1 5 2 6 3 7 7 8 8 9 9 2 10 3 11 1 12
REMARK H PARENT 6 4 6 5 6 6 1 13 1 14
REMARK Flexibility Score: inf
ROOT
ATOM      1  C   UNL     1     113.114 115.955 109.709  1.00  0.00     0.171 C 
ENDROOT
BRANCH   1   2
ATOM      2  C   UNL     1     114.254 115.556 110.669  1.00  0.00     0.237 C 
BRANCH   2   3
ATOM      3  N   UNL     1     115.464 116.362 110.447  1.00  0.00    -0.350 N 
ATOM      4  H   UNL     1     116.064 116.387 111.303  1.00  0.00     0.345 HD
ATOM      5  H   UNL     1     115.196 117.339 110.188  1.00  0.00     0.345 HD
ATOM      6  H   UNL     1     116.017 115.954 109.659  1.00  0.00     0.345 HD
ENDBRANCH   2   3
BRANCH   2   7
ATOM      7  C   UNL     1     113.811 115.617 112.109  1.00  0.00     0.100 C 
ATOM      8  O   UNL     1     113.746 114.570 112.809  1.00  0.00    -0.544 OA
ATOM      9  O   UNL     1     113.521 116.844 112.690  1.00  0.00    -0.544 OA
ENDBRANCH   2   7
ENDBRANCH   1   2
BRANCH   1  10
ATOM     10  C   UNL     1     113.122 117.415 109.349  1.00  0.00     0.223 C 
ATOM     11  O   UNL     1     113.788 117.813 108.357  1.00  0.00    -0.275 OA
ATOM     12  N   UNL     1     112.363 118.353 110.113  1.00  0.00    -0.369 N 
ATOM     13  H   UNL     1     111.799 118.041 110.934  1.00  0.00     0.159 HD
ATOM     14  H   UNL     1     112.363 119.365 109.854  1.00  0.00     0.159 HD
ENDBRANCH   1  10
TORSDOF 4
ENDMDL
MODEL 2
REMARK VINA RESULT:    -3.051     11.622     12.322
REMARK INTER + INTRA:          -4.188
REMARK INTER:                  -3.688
REMARK INTRA:                  -0.501
REMARK UNBOUND:                -0.514
REMARK SMILES NC(=O)C[C@@H]([NH3+])C(=O)[O-]
REMARK SMILES IDX 4 1 5 2 6 3 7 7 8 8 9 9 2 10 3 11 1 12
REMARK H PARENT 6 4 6 5 6 6 1 13 1 14
REMARK Flexibility Score: inf
ROOT
ATOM      1  C   UNL     1     126.499 115.937 109.632  1.00  0.00     0.171 C 
ENDROOT
BRANCH   1   2
ATOM      2  C   UNL     1     126.360 117.185 110.529  1.00  0.00     0.237 C 
BRANCH   2   3
ATOM      3  N   UNL     1     125.106 117.908 110.271  1.00  0.00    -0.350 N 
ATOM      4  H   UNL     1     124.418 117.304 109.766  1.00  0.00     0.345 HD
ATOM      5  H   UNL     1     125.300 118.760 109.697  1.00  0.00     0.345 HD
ATOM      6  H   UNL     1     124.685 118.214 111.178  1.00  0.00     0.345 HD
ENDBRANCH   2   3
BRANCH   2   7
ATOM      7  C   UNL     1     126.501 116.835 111.989  1.00  0.00     0.100 C 
ATOM      8  O   UNL     1     127.414 117.349 112.690  1.00  0.00    -0.544 OA
ATOM      9  O   UNL     1     125.586 115.976 112.584  1.00  0.00    -0.544 OA
ENDBRANCH   2   7
ENDBRANCH   1   2
BRANCH   1  10
ATOM     10  C   UNL     1     125.185 115.275 109.326  1.00  0.00     0.223 C 
ATOM     11  O   UNL     1     124.496 115.669 108.348  1.00  0.00    -0.275 OA
ATOM     12  N   UNL     1     124.719 114.187 110.125  1.00  0.00    -0.369 N 
ATOM     13  H   UNL     1     125.279 113.841 110.935  1.00  0.00     0.159 HD
ATOM     14  H   UNL     1     123.810 113.723 109.904  1.00  0.00     0.159 HD
ENDBRANCH   1  10
TORSDOF 4
ENDMDL
MODEL 3
REMARK VINA RESULT:    -3.046     11.544     12.229
REMARK INTER + INTRA:          -4.183
REMARK INTER:                  -3.660
REMARK INTRA:                  -0.523
REMARK UNBOUND:                -0.514
REMARK SMILES NC(=O)C[C@@H]([NH3+])C(=O)[O-]
REMARK SMILES IDX 4 1 5 2 6 3 7 7 8 8 9 9 2 10 3 11 1 12
REMARK H PARENT 6 4 6 5 6 6 1 13 1 14
REMARK Flexibility Score: inf
ROOT
ATOM      1  C   UNL     1     119.844 127.502 109.665  1.00  0.00     0.171 C 
ENDROOT
BRANCH   1   2
ATOM      2  C   UNL     1     118.836 126.748 110.558  1.00  0.00     0.237 C 
BRANCH   2   3
ATOM      3  N   UNL     1     118.893 125.294 110.341  1.00  0.00    -0.350 N 
ATOM      4  H   UNL     1     118.103 124.809 110.825  1.00  0.00     0.345 HD
ATOM      5  H   UNL     1     119.799 124.918 110.701  1.00  0.00     0.345 HD
ATOM      6  H   UNL     1     118.838 125.091 109.317  1.00  0.00     0.345 HD
ENDBRANCH   2   3
BRANCH   2   7
ATOM      7  C   UNL     1     119.020 127.093 112.014  1.00  0.00     0.100 C 
ATOM      8  O   UNL     1     118.097 127.650 112.667  1.00  0.00    -0.544 OA
ATOM      9  O   UNL     1     120.200 126.748 112.660  1.00  0.00    -0.544 OA
ENDBRANCH   2   7
ENDBRANCH   1   2
BRANCH   1  10
ATOM     10  C   UNL     1     121.077 126.702 109.354  1.00  0.00     0.223 C 
ATOM     11  O   UNL     1     121.114 125.982 108.321  1.00  0.00    -0.275 OA
ATOM     12  N   UNL     1     122.218 126.767 110.210  1.00  0.00    -0.369 N 
ATOM     13  H   UNL     1     122.210 127.364 111.066  1.00  0.00     0.159 HD
ATOM     14  H   UNL     1     123.077 126.218 109.985  1.00  0.00     0.159 HD
ENDBRANCH   1  10
TORSDOF 4
ENDMDL
MODEL 4
REMARK VINA RESULT:    -3.019      2.732      4.043
REMARK INTER + INTRA:          -4.150
REMARK INTER:                  -3.655
REMARK INTRA:                  -0.495
REMARK UNBOUND:                -0.514
REMARK SMILES NC(=O)C[C@@H]([NH3+])C(=O)[O-]
REMARK SMILES IDX 4 1 5 2 6 3 7 7 8 8 9 9 2 10 3 11 1 12
REMARK H PARENT 6 4 6 5 6 6 1 13 1 14
REMARK Flexibility Score: inf
ROOT
ATOM      1  C   UNL     1     113.957 117.345 113.250  1.00  0.00     0.171 C 
ENDROOT
BRANCH   1   2
ATOM      2  C   UNL     1     114.609 116.488 112.145  1.00  0.00     0.237 C 
BRANCH   2   3
ATOM      3  N   UNL     1     116.026 116.215 112.428  1.00  0.00    -0.350 N 
ATOM      4  H   UNL     1     116.591 117.095 112.412  1.00  0.00     0.345 HD
ATOM      5  H   UNL     1     116.408 115.550 111.718  1.00  0.00     0.345 HD
ATOM      6  H   UNL     1     116.116 115.773 113.372  1.00  0.00     0.345 HD
ENDBRANCH   2   3
BRANCH   2   7
ATOM      7  C   UNL     1     113.841 115.212 111.910  1.00  0.00     0.100 C 
ATOM      8  O   UNL     1     113.503 114.868 110.745  1.00  0.00    -0.544 OA
ATOM      9  O   UNL     1     113.546 114.377 112.980  1.00  0.00    -0.544 OA
ENDBRANCH   2   7
ENDBRANCH   1   2
BRANCH   1  10
ATOM     10  C   UNL     1     114.611 117.182 114.594  1.00  0.00     0.223 C 
ATOM     11  O   UNL     1     115.446 118.037 114.992  1.00  0.00    -0.275 OA
ATOM     12  N   UNL     1     114.278 116.075 115.431  1.00  0.00    -0.369 N 
ATOM     13  H   UNL     1     113.583 115.361 115.121  1.00  0.00     0.159 HD
ATOM     14  H   UNL     1     114.727 115.971 116.369  1.00  0.00     0.159 HD
ENDBRANCH   1  10
TORSDOF 4
ENDMDL
MODEL 5
REMARK VINA RESULT:    -3.018     11.846     12.738
REMARK INTER + INTRA:          -4.149
REMARK INTER:                  -3.647
REMARK INTRA:                  -0.503
REMARK UNBOUND:                -0.514
REMARK SMILES NC(=O)C[C@@H]([NH3+])C(=O)[O-]
REMARK SMILES IDX 4 1 5 2 6 3 7 7 8 8 9 9 2 10 3 11 1 12
REMARK H PARENT 6 4 6 5 6 6 1 13 1 14
REMARK Flexibility Score: inf
ROOT
ATOM      1  C   UNL     1     124.976 115.992 113.307  1.00  0.00     0.171 C 
ENDROOT
BRANCH   1   2
ATOM      2  C   UNL     1     125.329 116.969 112.165  1.00  0.00     0.237 C 
BRANCH   2   3
ATOM      3  N   UNL     1     124.763 118.307 112.395  1.00  0.00    -0.350 N 
ATOM      4  H   UNL     1     125.499 119.045 112.327  1.00  0.00     0.345 HD
ATOM      5  H   UNL     1     124.323 118.347 113.342  1.00  0.00     0.345 HD
ATOM      6  H   UNL     1     124.022 118.501 111.682  1.00  0.00     0.345 HD
ENDBRANCH   2   3
BRANCH   2   7
ATOM      7  C   UNL     1     126.817 117.035 111.933  1.00  0.00     0.100 C 
ATOM      8  O   UNL     1     127.606 117.299 112.880  1.00  0.00    -0.544 OA
ATOM      9  O   UNL     1     127.332 116.751 110.675  1.00  0.00    -0.544 OA
ENDBRANCH   2   7
ENDBRANCH   1   2
BRANCH   1  10
ATOM     10  C   UNL     1     124.782 116.672 114.633  1.00  0.00     0.223 C 
ATOM     11  O   UNL     1     123.622 116.972 115.020  1.00  0.00    -0.275 OA
ATOM     12  N   UNL     1     125.903 116.963 115.468  1.00  0.00    -0.369 N 
ATOM     13  H   UNL     1     126.872 116.715 115.168  1.00  0.00     0.159 HD
ATOM     14  H   UNL     1     125.764 117.427 116.394  1.00  0.00     0.159 HD
ENDBRANCH   1  10
TORSDOF 4
ENDMDL
MODEL 6
REMARK VINA RESULT:    -3.013     11.307     12.085
REMARK INTER + INTRA:          -4.143
REMARK INTER:                  -3.638
REMARK INTRA:                  -0.505
REMARK UNBOUND:                -0.514
REMARK SMILES NC(=O)C[C@@H]([NH3+])C(=O)[O-]
REMARK SMILES IDX 4 1 5 2 6 3 7 7 8 8 9 9 2 10 3 11 1 12
REMARK H PARENT 6 4 6 5 6 6 1 13 1 14
REMARK Flexibility Score: inf
ROOT
ATOM      1  C   UNL     1     120.562 126.159 113.242  1.00  0.00     0.171 C 
ENDROOT
BRANCH   1   2
ATOM      2  C   UNL     1     119.537 125.986 112.100  1.00  0.00     0.237 C 
BRANCH   2   3
ATOM      3  N   UNL     1     118.659 124.828 112.324  1.00  0.00    -0.350 N 
ATOM      4  H   UNL     1     119.083 123.952 111.943  1.00  0.00     0.345 HD
ATOM      5  H   UNL     1     117.735 124.991 111.861  1.00  0.00     0.345 HD
ATOM      6  H   UNL     1     118.494 124.707 113.349  1.00  0.00     0.345 HD
ENDBRANCH   2   3
BRANCH   2   7
ATOM      7  C   UNL     1     118.739 127.246 111.878  1.00  0.00     0.100 C 
ATOM      8  O   UNL     1     118.629 127.745 110.726  1.00  0.00    -0.544 OA
ATOM      9  O   UNL     1     118.075 127.838 112.945  1.00  0.00    -0.544 OA
ENDBRANCH   2   7
ENDBRANCH   1   2
BRANCH   1  10
ATOM     10  C   UNL     1     120.079 125.625 114.561  1.00  0.00     0.223 C 
ATOM     11  O   UNL     1     120.423 124.473 114.935  1.00  0.00    -0.275 OA
ATOM     12  N   UNL     1     119.247 126.422 115.404  1.00  0.00    -0.369 N 
ATOM     13  H   UNL     1     118.957 127.382 115.114  1.00  0.00     0.159 HD
ATOM     14  H   UNL     1     118.921 126.052 116.324  1.00  0.00     0.159 HD
ENDBRANCH   1  10
TORSDOF 4
ENDMDL
MODEL 7
REMARK VINA RESULT:    -2.997      2.265      3.872
REMARK INTER + INTRA:          -4.123
REMARK INTER:                  -3.752
REMARK INTRA:                  -0.371
REMARK UNBOUND:                -0.514
REMARK SMILES NC(=O)C[C@@H]([NH3+])C(=O)[O-]
REMARK SMILES IDX 4 1 5 2 6 3 7 7 8 8 9 9 2 10 3 11 1 12
REMARK H PARENT 6 4 6 5 6 6 1 13 1 14
REMARK Flexibility Score: inf
ROOT
ATOM      1  C   UNL     1     113.606 116.940 113.009  1.00  0.00     0.171 C 
ENDROOT
BRANCH   1   2
ATOM      2  C   UNL     1     114.422 116.722 111.716  1.00  0.00     0.237 C 
BRANCH   2   3
ATOM      3  N   UNL     1     115.559 115.815 111.934  1.00  0.00    -0.350 N 
ATOM      4  H   UNL     1     115.234 114.840 112.123  1.00  0.00     0.345 HD
ATOM      5  H   UNL     1     116.129 116.149 112.744  1.00  0.00     0.345 HD
ATOM      6  H   UNL     1     116.170 115.809 111.084  1.00  0.00     0.345 HD
ENDBRANCH   2   3
BRANCH   2   7
ATOM      7  C   UNL     1     113.548 116.245 110.584  1.00  0.00     0.100 C 
ATOM      8  O   UNL     1     113.260 115.024 110.462  1.00  0.00    -0.544 OA
ATOM      9  O   UNL     1     113.009 117.165 109.695  1.00  0.00    -0.544 OA
ENDBRANCH   2   7
ENDBRANCH   1   2
BRANCH   1  10
ATOM     10  C   UNL     1     113.811 115.858 114.031  1.00  0.00     0.223 C 
ATOM     11  O   UNL     1     113.499 114.669 113.756  1.00  0.00    -0.275 OA
ATOM     12  N   UNL     1     114.375 116.163 115.306  1.00  0.00    -0.369 N 
ATOM     13  H   UNL     1     114.646 117.142 115.550  1.00  0.00     0.159 HD
ATOM     14  H   UNL     1     114.525 115.407 116.011  1.00  0.00     0.159 HD
ENDBRANCH   1  10
TORSDOF 4
ENDMDL
MODEL 8
REMARK VINA RESULT:    -2.984     11.630     12.446
REMARK INTER + INTRA:          -4.108
REMARK INTER:                  -3.732
REMARK INTRA:                  -0.375
REMARK UNBOUND:                -0.514
REMARK SMILES NC(=O)C[C@@H]([NH3+])C(=O)[O-]
REMARK SMILES IDX 4 1 5 2 6 3 7 7 8 8 9 9 2 10 3 11 1 12
REMARK H PARENT 6 4 6 5 6 6 1 13 1 14
REMARK Flexibility Score: inf
ROOT
ATOM      1  C   UNL     1     120.289 126.708 112.994  1.00  0.00     0.171 C 
ENDROOT
BRANCH   1   2
ATOM      2  C   UNL     1     119.702 126.057 111.723  1.00  0.00     0.237 C 
BRANCH   2   3
ATOM      3  N   UNL     1     118.371 125.482 111.967  1.00  0.00    -0.350 N 
ATOM      4  H   UNL     1     118.060 125.654 112.950  1.00  0.00     0.345 HD
ATOM      5  H   UNL     1     118.393 124.452 111.791  1.00  0.00     0.345 HD
ATOM      6  H   UNL     1     117.678 125.912 111.313  1.00  0.00     0.345 HD
ENDBRANCH   2   3
BRANCH   2   7
ATOM      7  C   UNL     1     119.678 127.025 110.567  1.00  0.00     0.100 C 
ATOM      8  O   UNL     1     118.762 127.885 110.464  1.00  0.00    -0.544 OA
ATOM      9  O   UNL     1     120.704 127.006 109.630  1.00  0.00    -0.544 OA
ENDBRANCH   2   7
ENDBRANCH   1   2
BRANCH   1  10
ATOM     10  C   UNL     1     119.251 127.027 114.032  1.00  0.00     0.223 C 
ATOM     11  O   UNL     1     118.340 127.858 113.774  1.00  0.00    -0.275 OA
ATOM     12  N   UNL     1     119.277 126.380 115.305  1.00  0.00    -0.369 N 
ATOM     13  H   UNL     1     120.020 125.684 115.535  1.00  0.00     0.159 HD
ATOM     14  H   UNL     1     118.548 126.597 116.021  1.00  0.00     0.159 HD
ENDBRANCH   1  10
TORSDOF 4
ENDMDL
MODEL 9
REMARK VINA RESULT:    -2.964     12.068     12.950
REMARK INTER + INTRA:          -4.085
REMARK INTER:                  -3.710
REMARK INTRA:                  -0.374
REMARK UNBOUND:                -0.514
REMARK SMILES NC(=O)C[C@@H]([NH3+])C(=O)[O-]
REMARK SMILES IDX 4 1 5 2 6 3 7 7 8 8 9 9 2 10 3 11 1 12
REMARK H PARENT 6 4 6 5 6 6 1 13 1 14
REMARK Flexibility Score: inf
ROOT
ATOM      1  C   UNL     1     125.450 115.939 113.056  1.00  0.00     0.171 C 
ENDROOT
BRANCH   1   2
ATOM      2  C   UNL     1     125.184 116.767 111.780  1.00  0.00     0.237 C 
BRANCH   2   3
ATOM      3  N   UNL     1     125.317 118.210 112.027  1.00  0.00    -0.350 N 
ATOM      4  H   UNL     1     125.391 118.742 111.130  1.00  0.00     0.345 HD
ATOM      5  H   UNL     1     126.169 118.394 112.605  1.00  0.00     0.345 HD
ATOM      6  H   UNL     1     124.483 118.554 112.556  1.00  0.00     0.345 HD
ENDBRANCH   2   3
BRANCH   2   7
ATOM      7  C   UNL     1     126.062 116.322 110.638  1.00  0.00     0.100 C 
ATOM      8  O   UNL     1     127.221 116.794 110.494  1.00  0.00    -0.544 OA
ATOM      9  O   UNL     1     125.611 115.341 109.764  1.00  0.00    -0.544 OA
ENDBRANCH   2   7
ENDBRANCH   1   2
BRANCH   1  10
ATOM     10  C   UNL     1     126.256 116.678 114.087  1.00  0.00     0.223 C 
ATOM     11  O   UNL     1     127.435 117.035 113.823  1.00  0.00    -0.275 OA
ATOM     12  N   UNL     1     125.689 116.996 115.358  1.00  0.00    -0.369 N 
ATOM     13  H   UNL     1     124.711 116.715 115.592  1.00  0.00     0.159 HD
ATOM     14  H   UNL     1     126.249 117.519 116.068  1.00  0.00     0.159 HD
ENDBRANCH   1  10
TORSDOF 4
ENDMDL
