MODEL 1
REMARK VINA RESULT:    -3.444      0.000      0.000
REMARK INTER + INTRA:          -4.250
REMARK INTER:                  -4.652
REMARK INTRA:                   0.402
REMARK UNBOUND:                 0.402
REMARK SMILES C=C1C(=O)O[C@@H]2[C@@H]1CCC(C)=CCC[C@@]1(C)O[C@@H]21
REMARK SMILES IDX 6 1 7 2 2 3 1 4 3 5 4 6 5 7 8 8 9 9 10 10 11 11 12 12 18 14
REMARK SMILES IDX 15 15 17 16 16 17 14 18 13 19
REMARK H PARENT
REMARK Flexibility Score: 70.00
ROOT
ATOM      1  C   UNL     1    -117.152  11.319  22.957  1.00  0.00     0.216 C 
ATOM      2  C   UNL     1    -116.299  12.510  23.516  1.00  0.00     0.070 C 
ATOM      3  C   UNL     1    -117.351  13.519  23.868  1.00  0.00     0.037 C 
ATOM      4  C   UNL     1    -117.151  14.812  24.121  1.00  0.00     0.021 C 
ATOM      5  C   UNL     1    -118.610  12.823  23.933  1.00  0.00     0.334 C 
ATOM      6  O   UNL     1    -119.702  13.306  24.334  1.00  0.00    -0.247 OA
ATOM      7  O   UNL     1    -118.455  11.524  23.506  1.00  0.00    -0.455 OA
ENDROOT
BRANCH   2   8
ATOM      8  C   UNL     1    -115.537  12.143  24.817  1.00  0.00     0.017 C 
BRANCH   8   9
ATOM      9  C   UNL     1    -114.901  10.744  24.863  1.00  0.00     0.031 C 
BRANCH   9  10
ATOM     10  C   UNL     1    -113.693  10.602  23.956  1.00  0.00    -0.077 C 
ATOM     11  C   UNL     1    -112.396  11.236  24.389  1.00  0.00     0.039 C 
ATOM     12  C   UNL     1    -113.707   9.918  22.789  1.00  0.00    -0.028 CG0
ATOM     13  G   UNL     1    -114.930   9.346  22.116  1.00  0.00     0.000 G0
ENDBRANCH   9  10
ENDBRANCH   8   9
ENDBRANCH   2   8
BRANCH   1  14
ATOM     14  C   UNL     1    -117.319  11.338  21.413  1.00  0.00     0.192 C 
ATOM     15  C   UNL     1    -116.468  10.643  20.389  1.00  0.00     0.096 C 
ATOM     16  O   UNL     1    -117.594  10.022  20.953  1.00  0.00    -0.362 OA
ATOM     17  C   UNL     1    -116.712  11.056  18.934  1.00  0.00     0.045 C 
BRANCH  15  18
ATOM     18  C   UNL     1    -115.107   9.980  20.703  1.00  0.00     0.042 C 
BRANCH  18  19
ATOM     19  C   UNL     1    -114.936   9.337  22.092  1.00  0.00     0.030 CG0
ATOM     20  G   UNL     1    -113.721   9.913  22.774  1.00  0.00     0.000 G0
ENDBRANCH  18  19
ENDBRANCH  15  18
ENDBRANCH   1  14
TORSDOF 0
ENDMDL
MODEL 2
REMARK VINA RESULT:    -3.389      2.525      4.134
REMARK INTER + INTRA:          -4.176
REMARK INTER:                  -4.413
REMARK INTRA:                   0.237
REMARK UNBOUND:                 0.402
REMARK SMILES C=C1C(=O)O[C@@H]2[C@@H]1CCC(C)=CCC[C@@]1(C)O[C@@H]21
REMARK SMILES IDX 6 1 7 2 2 3 1 4 3 5 4 6 5 7 8 8 9 9 10 10 11 11 12 12 18 14
REMARK SMILES IDX 15 15 17 16 16 17 14 18 13 19
REMARK H PARENT
REMARK Flexibility Score: 70.00
ROOT
ATOM      1  C   UNL     1    -116.935  12.275  23.470  1.00  0.00     0.216 C 
ATOM      2  C   UNL     1    -118.068  12.773  22.508  1.00  0.00     0.070 C 
ATOM      3  C   UNL     1    -118.421  14.109  23.092  1.00  0.00     0.037 C 
ATOM      4  C   UNL     1    -119.511  14.825  22.823  1.00  0.00     0.021 C 
ATOM      5  C   UNL     1    -117.338  14.498  23.959  1.00  0.00     0.334 C 
ATOM      6  O   UNL     1    -117.207  15.617  24.520  1.00  0.00    -0.247 OA
ATOM      7  O   UNL     1    -116.434  13.467  24.079  1.00  0.00    -0.455 OA
ENDROOT
BRANCH   2   8
ATOM      8  C   UNL     1    -117.565  13.006  21.058  1.00  0.00     0.017 C 
BRANCH   8   9
ATOM      9  C   UNL     1    -116.752  11.864  20.427  1.00  0.00     0.031 C 
BRANCH   9  10
ATOM     10  C   UNL     1    -117.590  10.648  20.082  1.00  0.00    -0.077 C 
ATOM     11  C   UNL     1    -118.449  10.699  18.845  1.00  0.00     0.039 C 
ATOM     12  C   UNL     1    -117.594   9.507  20.811  1.00  0.00    -0.028 CG0
ATOM     13  G   UNL     1    -116.925   9.314  22.149  1.00  0.00     0.000 G0
ENDBRANCH   9  10
ENDBRANCH   8   9
ENDBRANCH   2   8
BRANCH   1  14
ATOM     14  C   UNL     1    -117.446  11.373  24.625  1.00  0.00     0.192 C 
ATOM     15  C   UNL     1    -117.833   9.923  24.557  1.00  0.00     0.096 C 
ATOM     16  O   UNL     1    -116.517  10.319  24.847  1.00  0.00    -0.362 OA
ATOM     17  C   UNL     1    -118.549   9.368  25.793  1.00  0.00     0.045 C 
BRANCH  15  18
ATOM     18  C   UNL     1    -118.024   9.142  23.236  1.00  0.00     0.042 C 
BRANCH  18  19
ATOM     19  C   UNL     1    -116.939   9.305  22.154  1.00  0.00     0.030 CG0
ATOM     20  G   UNL     1    -117.590   9.497  20.806  1.00  0.00     0.000 G0
ENDBRANCH  18  19
ENDBRANCH  15  18
ENDBRANCH   1  14
TORSDOF 0
ENDMDL
MODEL 3
REMARK VINA RESULT:    -3.140     18.853     20.186
REMARK INTER + INTRA:          -3.838
REMARK INTER:                  -4.216
REMARK INTRA:                   0.378
REMARK UNBOUND:                 0.402
REMARK SMILES C=C1C(=O)O[C@@H]2[C@@H]1CCC(C)=CCC[C@@]1(C)O[C@@H]21
REMARK SMILES IDX 6 1 7 2 2 3 1 4 3 5 4 6 5 7 8 8 9 9 10 10 11 11 12 12 18 14
REMARK SMILES IDX 15 15 17 16 16 17 14 18 13 19
REMARK H PARENT
REMARK Flexibility Score: 70.00
ROOT
ATOM      1  C   UNL     1    -103.071  26.095  17.692  1.00  0.00     0.216 C 
ATOM      2  C   UNL     1    -102.984  25.849  19.238  1.00  0.00     0.070 C 
ATOM      3  C   UNL     1    -101.979  24.739  19.330  1.00  0.00     0.037 C 
ATOM      4  C   UNL     1    -101.749  23.969  20.392  1.00  0.00     0.021 C 
ATOM      5  C   UNL     1    -101.273  24.693  18.075  1.00  0.00     0.334 C 
ATOM      6  O   UNL     1    -100.264  23.985  17.821  1.00  0.00    -0.247 OA
ATOM      7  O   UNL     1    -101.849  25.562  17.176  1.00  0.00    -0.455 OA
ENDROOT
BRANCH   2   8
ATOM      8  C   UNL     1    -102.414  27.070  20.009  1.00  0.00     0.017 C 
BRANCH   8   9
ATOM      9  C   UNL     1    -103.278  28.343  20.003  1.00  0.00     0.031 C 
BRANCH   9  10
ATOM     10  C   UNL     1    -104.595  28.180  20.738  1.00  0.00    -0.077 C 
ATOM     11  C   UNL     1    -104.595  28.307  22.240  1.00  0.00     0.039 C 
ATOM     12  C   UNL     1    -105.776  27.949  20.121  1.00  0.00    -0.028 CG0
ATOM     13  G   UNL     1    -105.960  27.645  18.655  1.00  0.00     0.000 G0
ENDBRANCH   9  10
ENDBRANCH   8   9
ENDBRANCH   2   8
BRANCH   1  14
ATOM     14  C   UNL     1    -104.219  25.314  16.998  1.00  0.00     0.192 C 
ATOM     15  C   UNL     1    -105.692  25.410  17.271  1.00  0.00     0.096 C 
ATOM     16  O   UNL     1    -105.067  26.229  16.317  1.00  0.00    -0.362 OA
ATOM     17  C   UNL     1    -106.561  24.331  16.617  1.00  0.00     0.045 C 
BRANCH  15  18
ATOM     18  C   UNL     1    -106.298  26.142  18.492  1.00  0.00     0.042 C 
BRANCH  18  19
ATOM     19  C   UNL     1    -105.955  27.634  18.664  1.00  0.00     0.030 CG0
ATOM     20  G   UNL     1    -105.762  27.945  20.128  1.00  0.00     0.000 G0
ENDBRANCH  18  19
ENDBRANCH  15  18
ENDBRANCH   1  14
TORSDOF 0
ENDMDL
MODEL 4
REMARK VINA RESULT:    -3.123      2.465      4.357
REMARK INTER + INTRA:          -3.816
REMARK INTER:                  -4.206
REMARK INTRA:                   0.390
REMARK UNBOUND:                 0.402
REMARK SMILES C=C1C(=O)O[C@@H]2[C@@H]1CCC(C)=CCC[C@@]1(C)O[C@@H]21
REMARK SMILES IDX 6 1 7 2 2 3 1 4 3 5 4 6 5 7 8 8 9 9 10 10 11 11 12 12 18 14
REMARK SMILES IDX 15 15 17 16 16 17 14 18 13 19
REMARK H PARENT
REMARK Flexibility Score: 70.00
ROOT
ATOM      1  C   UNL     1    -118.271  11.929  20.579  1.00  0.00     0.216 C 
ATOM      2  C   UNL     1    -117.905  13.452  20.512  1.00  0.00     0.070 C 
ATOM      3  C   UNL     1    -118.221  13.796  19.087  1.00  0.00     0.037 C 
ATOM      4  C   UNL     1    -117.831  14.889  18.433  1.00  0.00     0.021 C 
ATOM      5  C   UNL     1    -119.067  12.751  18.570  1.00  0.00     0.334 C 
ATOM      6  O   UNL     1    -119.651  12.756  17.454  1.00  0.00    -0.247 OA
ATOM      7  O   UNL     1    -119.173  11.731  19.488  1.00  0.00    -0.455 OA
ENDROOT
BRANCH   2   8
ATOM      8  C   UNL     1    -118.807  14.327  21.423  1.00  0.00     0.017 C 
BRANCH   8   9
ATOM      9  C   UNL     1    -119.080  13.784  22.836  1.00  0.00     0.031 C 
BRANCH   9  10
ATOM     10  C   UNL     1    -117.864  13.830  23.743  1.00  0.00    -0.077 C 
ATOM     11  C   UNL     1    -117.455  15.160  24.322  1.00  0.00     0.039 C 
ATOM     12  C   UNL     1    -117.138  12.740  24.082  1.00  0.00    -0.028 CG0
ATOM     13  G   UNL     1    -117.294  11.359  23.495  1.00  0.00     0.000 G0
ENDBRANCH   9  10
ENDBRANCH   8   9
ENDBRANCH   2   8
BRANCH   1  14
ATOM     14  C   UNL     1    -117.066  10.984  20.329  1.00  0.00     0.192 C 
ATOM     15  C   UNL     1    -116.095  10.445  21.340  1.00  0.00     0.096 C 
ATOM     16  O   UNL     1    -117.277   9.758  21.017  1.00  0.00    -0.362 OA
ATOM     17  C   UNL     1    -114.856   9.751  20.767  1.00  0.00     0.045 C 
BRANCH  15  18
ATOM     18  C   UNL     1    -115.992  10.958  22.796  1.00  0.00     0.042 C 
BRANCH  18  19
ATOM     19  C   UNL     1    -117.302  11.361  23.499  1.00  0.00     0.030 CG0
ATOM     20  G   UNL     1    -117.157  12.741  24.092  1.00  0.00     0.000 G0
ENDBRANCH  18  19
ENDBRANCH  15  18
ENDBRANCH   1  14
TORSDOF 0
ENDMDL
MODEL 5
REMARK VINA RESULT:    -2.927     18.533     19.749
REMARK INTER + INTRA:          -3.551
REMARK INTER:                  -4.035
REMARK INTRA:                   0.484
REMARK UNBOUND:                 0.402
REMARK SMILES C=C1C(=O)O[C@@H]2[C@@H]1CCC(C)=CCC[C@@]1(C)O[C@@H]21
REMARK SMILES IDX 6 1 7 2 2 3 1 4 3 5 4 6 5 7 8 8 9 9 10 10 11 11 12 12 18 14
REMARK SMILES IDX 15 15 17 16 16 17 14 18 13 19
REMARK H PARENT
REMARK Flexibility Score: 70.00
ROOT
ATOM      1  C   UNL     1    -103.404  26.396  18.508  1.00  0.00     0.216 C 
ATOM      2  C   UNL     1    -104.455  26.906  19.554  1.00  0.00     0.070 C 
ATOM      3  C   UNL     1    -103.590  27.599  20.565  1.00  0.00     0.037 C 
ATOM      4  C   UNL     1    -103.951  27.965  21.794  1.00  0.00     0.021 C 
ATOM      5  C   UNL     1    -102.314  27.842  19.944  1.00  0.00     0.334 C 
ATOM      6  O   UNL     1    -101.373  28.525  20.430  1.00  0.00    -0.247 OA
ATOM      7  O   UNL     1    -102.263  27.232  18.711  1.00  0.00    -0.455 OA
ENDROOT
BRANCH   2   8
ATOM      8  C   UNL     1    -105.430  27.959  18.961  1.00  0.00     0.017 C 
BRANCH   8   9
ATOM      9  C   UNL     1    -105.952  27.680  17.542  1.00  0.00     0.031 C 
BRANCH   9  10
ATOM     10  C   UNL     1    -106.926  26.518  17.477  1.00  0.00    -0.077 C 
ATOM     11  C   UNL     1    -108.329  26.733  17.983  1.00  0.00     0.039 C 
ATOM     12  C   UNL     1    -106.614  25.305  16.968  1.00  0.00    -0.028 CG0
ATOM     13  G   UNL     1    -105.236  24.850  16.553  1.00  0.00     0.000 G0
ENDBRANCH   9  10
ENDBRANCH   8   9
ENDBRANCH   2   8
BRANCH   1  14
ATOM     14  C   UNL     1    -102.930  24.939  18.756  1.00  0.00     0.192 C 
ATOM     15  C   UNL     1    -103.485  23.678  18.157  1.00  0.00     0.096 C 
ATOM     16  O   UNL     1    -102.443  24.389  17.539  1.00  0.00    -0.362 OA
ATOM     17  C   UNL     1    -102.991  22.371  18.787  1.00  0.00     0.045 C 
BRANCH  15  18
ATOM     18  C   UNL     1    -104.812  23.609  17.367  1.00  0.00     0.042 C 
BRANCH  18  19
ATOM     19  C   UNL     1    -105.222  24.856  16.561  1.00  0.00     0.030 CG0
ATOM     20  G   UNL     1    -106.607  25.293  16.971  1.00  0.00     0.000 G0
ENDBRANCH  18  19
ENDBRANCH  15  18
ENDBRANCH   1  14
TORSDOF 0
ENDMDL
MODEL 6
REMARK VINA RESULT:    -2.881     15.578     17.426
REMARK INTER + INTRA:          -3.490
REMARK INTER:                  -3.716
REMARK INTRA:                   0.227
REMARK UNBOUND:                 0.402
REMARK SMILES C=C1C(=O)O[C@@H]2[C@@H]1CCC(C)=CCC[C@@]1(C)O[C@@H]21
REMARK SMILES IDX 6 1 7 2 2 3 1 4 3 5 4 6 5 7 8 8 9 9 10 10 11 11 12 12 18 14
REMARK SMILES IDX 15 15 17 16 16 17 14 18 13 19
REMARK H PARENT
REMARK Flexibility Score: 70.00
ROOT
ATOM      1  C   UNL     1    -110.501  28.094  20.595  1.00  0.00     0.216 C 
ATOM      2  C   UNL     1    -110.847  26.624  21.016  1.00  0.00     0.070 C 
ATOM      3  C   UNL     1    -110.706  26.677  22.508  1.00  0.00     0.037 C 
ATOM      4  C   UNL     1    -110.617  25.633  23.330  1.00  0.00     0.021 C 
ATOM      5  C   UNL     1    -110.735  28.065  22.894  1.00  0.00     0.334 C 
ATOM      6  O   UNL     1    -110.781  28.503  24.074  1.00  0.00    -0.247 OA
ATOM      7  O   UNL     1    -110.726  28.867  21.775  1.00  0.00    -0.455 OA
ENDROOT
BRANCH   2   8
ATOM      8  C   UNL     1    -112.314  26.237  20.691  1.00  0.00     0.017 C 
BRANCH   8   9
ATOM      9  C   UNL     1    -112.783  26.492  19.249  1.00  0.00     0.031 C 
BRANCH   9  10
ATOM     10  C   UNL     1    -112.165  25.543  18.239  1.00  0.00    -0.077 C 
ATOM     11  C   UNL     1    -112.725  24.147  18.135  1.00  0.00     0.039 C 
ATOM     12  C   UNL     1    -111.155  25.885  17.407  1.00  0.00    -0.028 CG0
ATOM     13  G   UNL     1    -110.368  27.171  17.457  1.00  0.00     0.000 G0
ENDBRANCH   9  10
ENDBRANCH   8   9
ENDBRANCH   2   8
BRANCH   1  14
ATOM     14  C   UNL     1    -109.010  28.302  20.212  1.00  0.00     0.192 C 
ATOM     15  C   UNL     1    -108.313  27.856  18.959  1.00  0.00     0.096 C 
ATOM     16  O   UNL     1    -108.931  29.114  19.048  1.00  0.00    -0.362 OA
ATOM     17  C   UNL     1    -106.785  27.968  18.974  1.00  0.00     0.045 C 
BRANCH  15  18
ATOM     18  C   UNL     1    -108.926  26.876  17.931  1.00  0.00     0.042 C 
BRANCH  18  19
ATOM     19  C   UNL     1    -110.359  27.165  17.446  1.00  0.00     0.030 CG0
ATOM     20  G   UNL     1    -111.150  25.882  17.403  1.00  0.00     0.000 G0
ENDBRANCH  18  19
ENDBRANCH  15  18
ENDBRANCH   1  14
TORSDOF 0
ENDMDL
MODEL 7
REMARK VINA RESULT:    -2.856      2.767      4.094
REMARK INTER + INTRA:          -3.456
REMARK INTER:                  -4.024
REMARK INTRA:                   0.569
REMARK UNBOUND:                 0.402
REMARK SMILES C=C1C(=O)O[C@@H]2[C@@H]1CCC(C)=CCC[C@@]1(C)O[C@@H]21
REMARK SMILES IDX 6 1 7 2 2 3 1 4 3 5 4 6 5 7 8 8 9 9 10 10 11 11 12 12 18 14
REMARK SMILES IDX 15 15 17 16 16 17 14 18 13 19
REMARK H PARENT
REMARK Flexibility Score: 70.00
ROOT
ATOM      1  C   UNL     1    -118.464  13.025  20.706  1.00  0.00     0.216 C 
ATOM      2  C   UNL     1    -117.236  12.708  21.628  1.00  0.00     0.070 C 
ATOM      3  C   UNL     1    -117.587  13.437  22.891  1.00  0.00     0.037 C 
ATOM      4  C   UNL     1    -116.758  13.724  23.893  1.00  0.00     0.021 C 
ATOM      5  C   UNL     1    -118.997  13.724  22.843  1.00  0.00     0.334 C 
ATOM      6  O   UNL     1    -119.686  14.203  23.782  1.00  0.00    -0.247 OA
ATOM      7  O   UNL     1    -119.510  13.379  21.612  1.00  0.00    -0.455 OA
ENDROOT
BRANCH   2   8
ATOM      8  C   UNL     1    -117.115  11.199  21.968  1.00  0.00     0.017 C 
BRANCH   8   9
ATOM      9  C   UNL     1    -117.407  10.216  20.822  1.00  0.00     0.031 C 
BRANCH   9  10
ATOM     10  C   UNL     1    -116.380  10.272  19.706  1.00  0.00    -0.077 C 
ATOM     11  C   UNL     1    -115.028   9.651  19.947  1.00  0.00     0.039 C 
ATOM     12  C   UNL     1    -116.617  10.826  18.495  1.00  0.00    -0.028 CG0
ATOM     13  G   UNL     1    -117.841  11.621  18.113  1.00  0.00     0.000 G0
ENDBRANCH   9  10
ENDBRANCH   8   9
ENDBRANCH   2   8
BRANCH   1  14
ATOM     14  C   UNL     1    -118.251  14.253  19.779  1.00  0.00     0.192 C 
ATOM     15  C   UNL     1    -117.877  14.253  18.325  1.00  0.00     0.096 C 
ATOM     16  O   UNL     1    -119.219  14.231  18.738  1.00  0.00    -0.362 OA
ATOM     17  C   UNL     1    -117.480  15.612  17.741  1.00  0.00     0.045 C 
BRANCH  15  18
ATOM     18  C   UNL     1    -117.389  13.000  17.559  1.00  0.00     0.042 C 
BRANCH  18  19
ATOM     19  C   UNL     1    -117.840  11.626  18.089  1.00  0.00     0.030 CG0
ATOM     20  G   UNL     1    -116.634  10.820  18.505  1.00  0.00     0.000 G0
ENDBRANCH  18  19
ENDBRANCH  15  18
ENDBRANCH   1  14
TORSDOF 0
ENDMDL
MODEL 8
REMARK VINA RESULT:    -2.814      3.079      4.945
REMARK INTER + INTRA:          -3.399
REMARK INTER:                  -3.712
REMARK INTRA:                   0.312
REMARK UNBOUND:                 0.402
REMARK SMILES C=C1C(=O)O[C@@H]2[C@@H]1CCC(C)=CCC[C@@]1(C)O[C@@H]21
REMARK SMILES IDX 6 1 7 2 2 3 1 4 3 5 4 6 5 7 8 8 9 9 10 10 11 11 12 12 18 14
REMARK SMILES IDX 15 15 17 16 16 17 14 18 13 19
REMARK H PARENT
REMARK Flexibility Score: 70.00
ROOT
ATOM      1  C   UNL     1    -116.813  11.855  21.403  1.00  0.00     0.216 C 
ATOM      2  C   UNL     1    -117.375  11.359  22.780  1.00  0.00     0.070 C 
ATOM      3  C   UNL     1    -116.735  10.010  22.920  1.00  0.00     0.037 C 
ATOM      4  C   UNL     1    -117.093   9.052  23.773  1.00  0.00     0.021 C 
ATOM      5  C   UNL     1    -115.631   9.960  21.997  1.00  0.00     0.334 C 
ATOM      6  O   UNL     1    -114.771   9.043  21.922  1.00  0.00    -0.247 OA
ATOM      7  O   UNL     1    -115.626  11.084  21.203  1.00  0.00    -0.455 OA
ENDROOT
BRANCH   2   8
ATOM      8  C   UNL     1    -116.902  12.235  23.971  1.00  0.00     0.017 C 
BRANCH   8   9
ATOM      9  C   UNL     1    -116.948  13.757  23.758  1.00  0.00     0.031 C 
BRANCH   9  10
ATOM     10  C   UNL     1    -118.356  14.321  23.747  1.00  0.00    -0.077 C 
ATOM     11  C   UNL     1    -119.071  14.485  25.064  1.00  0.00     0.039 C 
ATOM     12  C   UNL     1    -119.000  14.710  22.622  1.00  0.00    -0.028 CG0
ATOM     13  G   UNL     1    -118.518  14.491  21.210  1.00  0.00     0.000 G0
ENDBRANCH   9  10
ENDBRANCH   8   9
ENDBRANCH   2   8
BRANCH   1  14
ATOM     14  C   UNL     1    -117.744  11.548  20.199  1.00  0.00     0.192 C 
ATOM     15  C   UNL     1    -118.890  12.375  19.690  1.00  0.00     0.096 C 
ATOM     16  O   UNL     1    -117.582  12.556  19.209  1.00  0.00    -0.362 OA
ATOM     17  C   UNL     1    -119.790  11.694  18.654  1.00  0.00     0.045 C 
BRANCH  15  18
ATOM     18  C   UNL     1    -119.496  13.574  20.455  1.00  0.00     0.042 C 
BRANCH  18  19
ATOM     19  C   UNL     1    -118.521  14.508  21.195  1.00  0.00     0.030 CG0
ATOM     20  G   UNL     1    -119.000  14.728  22.609  1.00  0.00     0.000 G0
ENDBRANCH  18  19
ENDBRANCH  15  18
ENDBRANCH   1  14
TORSDOF 0
ENDMDL
MODEL 9
REMARK VINA RESULT:    -2.784     15.571     17.563
REMARK INTER + INTRA:          -3.359
REMARK INTER:                  -3.586
REMARK INTRA:                   0.227
REMARK UNBOUND:                 0.402
REMARK SMILES C=C1C(=O)O[C@@H]2[C@@H]1CCC(C)=CCC[C@@]1(C)O[C@@H]21
REMARK SMILES IDX 6 1 7 2 2 3 1 4 3 5 4 6 5 7 8 8 9 9 10 10 11 11 12 12 18 14
REMARK SMILES IDX 15 15 17 16 16 17 14 18 13 19
REMARK H PARENT
REMARK Flexibility Score: 70.00
ROOT
ATOM      1  C   UNL     1    -111.745  27.495  20.229  1.00  0.00     0.216 C 
ATOM      2  C   UNL     1    -111.285  26.505  19.103  1.00  0.00     0.070 C 
ATOM      3  C   UNL     1    -112.550  25.764  18.791  1.00  0.00     0.037 C 
ATOM      4  C   UNL     1    -112.649  24.625  18.106  1.00  0.00     0.021 C 
ATOM      5  C   UNL     1    -113.643  26.535  19.324  1.00  0.00     0.334 C 
ATOM      6  O   UNL     1    -114.868  26.307  19.141  1.00  0.00    -0.247 OA
ATOM      7  O   UNL     1    -113.161  27.593  20.061  1.00  0.00    -0.455 OA
ENDROOT
BRANCH   2   8
ATOM      8  C   UNL     1    -110.831  27.236  17.811  1.00  0.00     0.017 C 
BRANCH   8   9
ATOM      9  C   UNL     1    -109.869  28.421  18.000  1.00  0.00     0.031 C 
BRANCH   9  10
ATOM     10  C   UNL     1    -108.464  27.999  18.388  1.00  0.00    -0.077 C 
ATOM     11  C   UNL     1    -107.557  27.461  17.311  1.00  0.00     0.039 C 
ATOM     12  C   UNL     1    -107.969  28.100  19.643  1.00  0.00    -0.028 CG0
ATOM     13  G   UNL     1    -108.757  28.470  20.875  1.00  0.00     0.000 G0
ENDBRANCH   9  10
ENDBRANCH   8   9
ENDBRANCH   2   8
BRANCH   1  14
ATOM     14  C   UNL     1    -111.510  26.960  21.667  1.00  0.00     0.192 C 
ATOM     15  C   UNL     1    -110.227  26.953  22.447  1.00  0.00     0.096 C 
ATOM     16  O   UNL     1    -111.121  28.035  22.512  1.00  0.00    -0.362 OA
ATOM     17  C   UNL     1    -110.237  26.125  23.736  1.00  0.00     0.045 C 
BRANCH  15  18
ATOM     18  C   UNL     1    -108.841  27.263  21.832  1.00  0.00     0.042 C 
BRANCH  18  19
ATOM     19  C   UNL     1    -108.740  28.479  20.892  1.00  0.00     0.030 CG0
ATOM     20  G   UNL     1    -107.972  28.099  19.651  1.00  0.00     0.000 G0
ENDBRANCH  18  19
ENDBRANCH  15  18
ENDBRANCH   1  14
TORSDOF 0
ENDMDL
