MODEL 1
REMARK VINA RESULT:    -6.305      0.000      0.000
REMARK INTER + INTRA:         -10.910
REMARK INTER:                  -9.253
REMARK INTRA:                  -1.657
REMARK UNBOUND:                -1.657
REMARK SMILES O=c1c(O[C@H]2O[C@H](CO)[C@@H](O)[C@@H](O)[C@@H]2O)c(-c2ccc(O)c(O)c2)oc2cc(O)cc(O)c12
REMARK SMILES IDX 4 1 3 2 16 3 25 4 2 5 26 6 1 7 33 8 27 9 31 10 28 11 30 12
REMARK SMILES IDX 17 13 18 14 19 15 20 16 24 17 22 18 21 19 23 21 32 23 29 25
REMARK SMILES IDX 5 27 14 28 6 29 12 30 7 31 10 32 15 33 13 35 8 37 9 38 11 40
REMARK H PARENT 21 20 23 22 32 24 29 26 15 34 13 36 9 39 11 41
REMARK Flexibility Score: inf
ROOT
ATOM      1  O   UNL     1       7.918  10.217 -18.615  1.00  0.00    -0.454 OA
ENDROOT
BRANCH   1   2
ATOM      2  C   UNL     1       7.776   9.042 -17.839  1.00  0.00     0.214 A 
ATOM      3  C   UNL     1       8.117   9.107 -16.476  1.00  0.00     0.180 A 
ATOM      4  O   UNL     1       8.103   8.013 -15.727  1.00  0.00    -0.452 OA
ATOM      5  C   UNL     1       7.350   7.795 -18.359  1.00  0.00     0.239 A 
ATOM      6  C   UNL     1       7.719   6.827 -16.174  1.00  0.00     0.146 A 
ATOM      7  O   UNL     1       7.086   7.684 -19.583  1.00  0.00    -0.285 OA
ATOM      8  C   UNL     1       7.267   6.666 -17.507  1.00  0.00     0.111 A 
ATOM      9  C   UNL     1       7.771   5.735 -15.302  1.00  0.00     0.094 A 
ATOM     10  C   UNL     1       6.803   5.378 -17.915  1.00  0.00     0.134 A 
ATOM     11  C   UNL     1       7.381   4.467 -15.735  1.00  0.00     0.123 A 
ATOM     12  C   UNL     1       6.904   4.295 -17.034  1.00  0.00     0.093 A 
BRANCH   3  13
ATOM     13  C   UNL     1       8.520  10.374 -15.841  1.00  0.00     0.025 A 
ATOM     14  C   UNL     1       7.640  11.031 -14.971  1.00  0.00     0.016 A 
ATOM     15  C   UNL     1       8.008  12.243 -14.380  1.00  0.00     0.051 A 
ATOM     16  C   UNL     1       9.251  12.817 -14.662  1.00  0.00     0.157 A 
ATOM     17  C   UNL     1       9.754  10.964 -16.147  1.00  0.00     0.062 A 
ATOM     18  C   UNL     1      10.130  12.178 -15.554  1.00  0.00     0.158 A 
BRANCH  16  19
ATOM     19  O   UNL     1       9.595  14.024 -14.053  1.00  0.00    -0.504 OA
ATOM     20  H   UNL     1       8.920  14.766 -13.911  1.00  0.00     0.293 HD
ENDBRANCH  16  19
BRANCH  18  21
ATOM     21  O   UNL     1      11.367  12.749 -15.849  1.00  0.00    -0.504 OA
ATOM     22  H   UNL     1      12.167  12.621 -15.241  1.00  0.00     0.293 HD
ENDBRANCH  18  21
ENDBRANCH   3  13
BRANCH  10  23
ATOM     23  O   UNL     1       6.213   5.119 -19.156  1.00  0.00    -0.507 OA
ATOM     24  H   UNL     1       5.352   5.537 -19.477  1.00  0.00     0.293 HD
ENDBRANCH  10  23
BRANCH  11  25
ATOM     25  O   UNL     1       7.452   3.371 -14.878  1.00  0.00    -0.508 OA
ATOM     26  H   UNL     1       8.327   3.090 -14.450  1.00  0.00     0.293 HD
ENDBRANCH  11  25
ENDBRANCH   1   2
BRANCH   1  27
ATOM     27  C   UNL     1       6.865  11.008 -19.179  1.00  0.00     0.339 C 
ATOM     28  C   UNL     1       7.091  11.254 -20.691  1.00  0.00     0.214 C 
ATOM     29  O   UNL     1       6.693  12.224 -18.471  1.00  0.00    -0.332 OA
ATOM     30  C   UNL     1       8.163  12.336 -20.974  1.00  0.00     0.180 C 
ATOM     31  C   UNL     1       7.851  13.037 -18.547  1.00  0.00     0.179 C 
ATOM     32  C   UNL     1       8.063  13.529 -19.996  1.00  0.00     0.177 C 
BRANCH  28  33
ATOM     33  O   UNL     1       5.878  11.598 -21.314  1.00  0.00    -0.384 OA
ATOM     34  H   UNL     1       6.070  11.791 -22.269  1.00  0.00     0.211 HD
ENDBRANCH  28  33
BRANCH  30  35
ATOM     35  O   UNL     1       9.454  11.778 -20.985  1.00  0.00    -0.387 OA
ATOM     36  H   UNL     1       9.618  11.379 -20.097  1.00  0.00     0.211 HD
ENDBRANCH  30  35
BRANCH  31  37
ATOM     37  C   UNL     1       7.668  14.225 -17.590  1.00  0.00     0.191 C 
BRANCH  37  38
ATOM     38  O   UNL     1       8.882  14.908 -17.420  1.00  0.00    -0.394 OA
ATOM     39  H   UNL     1       9.363  14.852 -18.287  1.00  0.00     0.210 HD
ENDBRANCH  37  38
ENDBRANCH  31  37
BRANCH  32  40
ATOM     40  O   UNL     1       9.226  14.315 -20.071  1.00  0.00    -0.387 OA
ATOM     41  H   UNL     1       9.093  15.080 -19.453  1.00  0.00     0.211 HD
ENDBRANCH  32  40
ENDBRANCH   1  27
TORSDOF 12
ENDMDL
MODEL 2
REMARK VINA RESULT:    -6.044      2.200      5.502
REMARK INTER + INTRA:         -10.527
REMARK INTER:                  -9.133
REMARK INTRA:                  -1.394
REMARK UNBOUND:                -1.657
REMARK SMILES O=c1c(O[C@H]2O[C@H](CO)[C@@H](O)[C@@H](O)[C@@H]2O)c(-c2ccc(O)c(O)c2)oc2cc(O)cc(O)c12
REMARK SMILES IDX 4 1 3 2 16 3 25 4 2 5 26 6 1 7 33 8 27 9 31 10 28 11 30 12
REMARK SMILES IDX 17 13 18 14 19 15 20 16 24 17 22 18 21 19 23 21 32 23 29 25
REMARK SMILES IDX 5 27 14 28 6 29 12 30 7 31 10 32 15 33 13 35 8 37 9 38 11 40
REMARK H PARENT 21 20 23 22 32 24 29 26 15 34 13 36 9 39 11 41
REMARK Flexibility Score: inf
ROOT
ATOM      1  O   UNL     1       7.224   8.238 -15.720  1.00  0.00    -0.454 OA
ENDROOT
BRANCH   1   2
ATOM      2  C   UNL     1       7.241   7.233 -16.716  1.00  0.00     0.214 A 
ATOM      3  C   UNL     1       7.324   7.639 -18.061  1.00  0.00     0.180 A 
ATOM      4  O   UNL     1       7.239   6.747 -19.039  1.00  0.00    -0.452 OA
ATOM      5  C   UNL     1       7.140   5.846 -16.446  1.00  0.00     0.239 A 
ATOM      6  C   UNL     1       7.136   5.443 -18.829  1.00  0.00     0.146 A 
ATOM      7  O   UNL     1       7.012   5.447 -15.260  1.00  0.00    -0.285 OA
ATOM      8  C   UNL     1       7.137   4.917 -17.515  1.00  0.00     0.111 A 
ATOM      9  C   UNL     1       7.025   4.597 -19.937  1.00  0.00     0.094 A 
ATOM     10  C   UNL     1       7.090   3.499 -17.352  1.00  0.00     0.134 A 
ATOM     11  C   UNL     1       6.910   3.217 -19.761  1.00  0.00     0.123 A 
ATOM     12  C   UNL     1       6.940   2.678 -18.476  1.00  0.00     0.093 A 
BRANCH   3  13
ATOM     13  C   UNL     1       7.484   9.056 -18.431  1.00  0.00     0.025 A 
ATOM     14  C   UNL     1       6.404   9.763 -18.978  1.00  0.00     0.016 A 
ATOM     15  C   UNL     1       6.554  11.101 -19.349  1.00  0.00     0.051 A 
ATOM     16  C   UNL     1       7.787  11.744 -19.192  1.00  0.00     0.157 A 
ATOM     17  C   UNL     1       8.727   9.691 -18.301  1.00  0.00     0.062 A 
ATOM     18  C   UNL     1       8.882  11.035 -18.668  1.00  0.00     0.158 A 
BRANCH  16  19
ATOM     19  O   UNL     1       7.906  13.083 -19.565  1.00  0.00    -0.504 OA
ATOM     20  H   UNL     1       7.301  13.802 -19.187  1.00  0.00     0.293 HD
ENDBRANCH  16  19
BRANCH  18  21
ATOM     21  O   UNL     1      10.116  11.665 -18.517  1.00  0.00    -0.504 OA
ATOM     22  H   UNL     1      10.253  12.406 -17.839  1.00  0.00     0.293 HD
ENDBRANCH  18  21
ENDBRANCH   3  13
BRANCH  10  23
ATOM     23  O   UNL     1       7.217   2.851 -16.119  1.00  0.00    -0.507 OA
ATOM     24  H   UNL     1       6.442   2.490 -15.581  1.00  0.00     0.293 HD
ENDBRANCH  10  23
BRANCH  11  25
ATOM     25  O   UNL     1       6.775   2.370 -20.859  1.00  0.00    -0.508 OA
ATOM     26  H   UNL     1       5.896   1.912 -21.070  1.00  0.00     0.293 HD
ENDBRANCH  11  25
ENDBRANCH   1   2
BRANCH   1  27
ATOM     27  C   UNL     1       8.340   8.711 -14.956  1.00  0.00     0.339 C 
ATOM     28  C   UNL     1       8.681   7.744 -13.796  1.00  0.00     0.214 C 
ATOM     29  O   UNL     1       8.125  10.033 -14.489  1.00  0.00    -0.332 OA
ATOM     30  C   UNL     1       7.707   7.867 -12.598  1.00  0.00     0.180 C 
ATOM     31  C   UNL     1       7.017  10.099 -13.609  1.00  0.00     0.179 C 
ATOM     32  C   UNL     1       7.327   9.337 -12.302  1.00  0.00     0.177 C 
BRANCH  28  33
ATOM     33  O   UNL     1      10.006   7.947 -13.368  1.00  0.00    -0.384 OA
ATOM     34  H   UNL     1      10.215   7.256 -12.687  1.00  0.00     0.211 HD
ENDBRANCH  28  33
BRANCH  30  35
ATOM     35  O   UNL     1       6.570   7.062 -12.786  1.00  0.00    -0.387 OA
ATOM     36  H   UNL     1       6.369   6.617 -11.927  1.00  0.00     0.211 HD
ENDBRANCH  30  35
BRANCH  31  37
ATOM     37  C   UNL     1       6.721  11.578 -13.319  1.00  0.00     0.191 C 
BRANCH  37  38
ATOM     38  O   UNL     1       7.629  12.083 -12.376  1.00  0.00    -0.394 OA
ATOM     39  H   UNL     1       8.526  11.745 -12.636  1.00  0.00     0.210 HD
ENDBRANCH  37  38
ENDBRANCH  31  37
BRANCH  32  40
ATOM     40  O   UNL     1       6.216   9.385 -11.443  1.00  0.00    -0.387 OA
ATOM     41  H   UNL     1       5.548   9.978 -11.875  1.00  0.00     0.211 HD
ENDBRANCH  32  40
ENDBRANCH   1  27
TORSDOF 12
ENDMDL
MODEL 3
REMARK VINA RESULT:    -6.019      2.605      7.371
REMARK INTER + INTRA:         -10.491
REMARK INTER:                  -9.015
REMARK INTRA:                  -1.475
REMARK UNBOUND:                -1.657
REMARK SMILES O=c1c(O[C@H]2O[C@H](CO)[C@@H](O)[C@@H](O)[C@@H]2O)c(-c2ccc(O)c(O)c2)oc2cc(O)cc(O)c12
REMARK SMILES IDX 4 1 3 2 16 3 25 4 2 5 26 6 1 7 33 8 27 9 31 10 28 11 30 12
REMARK SMILES IDX 17 13 18 14 19 15 20 16 24 17 22 18 21 19 23 21 32 23 29 25
REMARK SMILES IDX 5 27 14 28 6 29 12 30 7 31 10 32 15 33 13 35 8 37 9 38 11 40
REMARK H PARENT 21 20 23 22 32 24 29 26 15 34 13 36 9 39 11 41
REMARK Flexibility Score: inf
ROOT
ATOM      1  O   UNL     1       8.789  11.458 -17.628  1.00  0.00    -0.454 OA
ENDROOT
BRANCH   1   2
ATOM      2  C   UNL     1       8.507  12.840 -17.726  1.00  0.00     0.214 A 
ATOM      3  C   UNL     1       7.747  13.432 -16.701  1.00  0.00     0.180 A 
ATOM      4  O   UNL     1       7.365  14.699 -16.792  1.00  0.00    -0.452 OA
ATOM      5  C   UNL     1       8.908  13.657 -18.811  1.00  0.00     0.239 A 
ATOM      6  C   UNL     1       7.712  15.495 -17.792  1.00  0.00     0.146 A 
ATOM      7  O   UNL     1       9.544  13.154 -19.772  1.00  0.00    -0.285 OA
ATOM      8  C   UNL     1       8.553  15.029 -18.832  1.00  0.00     0.111 A 
ATOM      9  C   UNL     1       7.228  16.807 -17.800  1.00  0.00     0.094 A 
ATOM     10  C   UNL     1       8.947  15.950 -19.850  1.00  0.00     0.134 A 
ATOM     11  C   UNL     1       7.565  17.677 -18.838  1.00  0.00     0.123 A 
ATOM     12  C   UNL     1       8.416  17.245 -19.854  1.00  0.00     0.093 A 
BRANCH   3  13
ATOM     13  C   UNL     1       7.331  12.670 -15.509  1.00  0.00     0.025 A 
ATOM     14  C   UNL     1       6.287  11.740 -15.603  1.00  0.00     0.016 A 
ATOM     15  C   UNL     1       5.875  11.028 -14.474  1.00  0.00     0.051 A 
ATOM     16  C   UNL     1       6.491  11.248 -13.237  1.00  0.00     0.157 A 
ATOM     17  C   UNL     1       7.928  12.913 -14.264  1.00  0.00     0.062 A 
ATOM     18  C   UNL     1       7.521  12.198 -13.129  1.00  0.00     0.158 A 
BRANCH  16  19
ATOM     19  O   UNL     1       6.063  10.518 -12.127  1.00  0.00    -0.504 OA
ATOM     20  H   UNL     1       5.410  10.898 -11.453  1.00  0.00     0.293 HD
ENDBRANCH  16  19
BRANCH  18  21
ATOM     21  O   UNL     1       8.133  12.430 -11.898  1.00  0.00    -0.504 OA
ATOM     22  H   UNL     1       8.659  11.705 -11.423  1.00  0.00     0.293 HD
ENDBRANCH  18  21
ENDBRANCH   3  13
BRANCH  10  23
ATOM     23  O   UNL     1       9.873  15.652 -20.854  1.00  0.00    -0.507 OA
ATOM     24  H   UNL     1      10.055  16.238 -21.656  1.00  0.00     0.293 HD
ENDBRANCH  10  23
BRANCH  11  25
ATOM     25  O   UNL     1       7.068  18.978 -18.864  1.00  0.00    -0.508 OA
ATOM     26  H   UNL     1       7.684  19.779 -18.926  1.00  0.00     0.293 HD
ENDBRANCH  11  25
ENDBRANCH   1   2
BRANCH   1  27
ATOM     27  C   UNL     1      10.042  10.857 -17.281  1.00  0.00     0.339 C 
ATOM     28  C   UNL     1      10.401   9.701 -18.246  1.00  0.00     0.214 C 
ATOM     29  O   UNL     1      10.058  10.433 -15.928  1.00  0.00    -0.332 OA
ATOM     30  C   UNL     1       9.609   8.402 -17.956  1.00  0.00     0.180 C 
ATOM     31  C   UNL     1       9.086   9.430 -15.687  1.00  0.00     0.179 C 
ATOM     32  C   UNL     1       9.458   8.135 -16.440  1.00  0.00     0.177 C 
BRANCH  28  33
ATOM     33  O   UNL     1      11.784   9.446 -18.205  1.00  0.00    -0.384 OA
ATOM     34  H   UNL     1      11.932   8.517 -18.526  1.00  0.00     0.211 HD
ENDBRANCH  28  33
BRANCH  30  35
ATOM     35  O   UNL     1       8.364   8.412 -18.610  1.00  0.00    -0.387 OA
ATOM     36  H   UNL     1       8.104   9.355 -18.750  1.00  0.00     0.211 HD
ENDBRANCH  30  35
BRANCH  31  37
ATOM     37  C   UNL     1       9.019   9.180 -14.173  1.00  0.00     0.191 C 
BRANCH  37  38
ATOM     38  O   UNL     1       9.657   7.973 -13.848  1.00  0.00    -0.394 OA
ATOM     39  H   UNL     1       9.180   7.604 -13.059  1.00  0.00     0.210 HD
ENDBRANCH  37  38
ENDBRANCH  31  37
BRANCH  32  40
ATOM     40  O   UNL     1       8.479   7.152 -16.218  1.00  0.00    -0.387 OA
ATOM     41  H   UNL     1       8.244   6.778 -17.106  1.00  0.00     0.211 HD
ENDBRANCH  32  40
ENDBRANCH   1  27
TORSDOF 12
ENDMDL
MODEL 4
REMARK VINA RESULT:    -5.947      1.670      4.626
REMARK INTER + INTRA:         -10.386
REMARK INTER:                  -8.927
REMARK INTRA:                  -1.459
REMARK UNBOUND:                -1.657
REMARK SMILES O=c1c(O[C@H]2O[C@H](CO)[C@@H](O)[C@@H](O)[C@@H]2O)c(-c2ccc(O)c(O)c2)oc2cc(O)cc(O)c12
REMARK SMILES IDX 4 1 3 2 16 3 25 4 2 5 26 6 1 7 33 8 27 9 31 10 28 11 30 12
REMARK SMILES IDX 17 13 18 14 19 15 20 16 24 17 22 18 21 19 23 21 32 23 29 25
REMARK SMILES IDX 5 27 14 28 6 29 12 30 7 31 10 32 15 33 13 35 8 37 9 38 11 40
REMARK H PARENT 21 20 23 22 32 24 29 26 15 34 13 36 9 39 11 41
REMARK Flexibility Score: inf
ROOT
ATOM      1  O   UNL     1       6.957   9.079 -15.507  1.00  0.00    -0.454 OA
ENDROOT
BRANCH   1   2
ATOM      2  C   UNL     1       7.069   7.903 -16.285  1.00  0.00     0.214 A 
ATOM      3  C   UNL     1       7.102   8.039 -17.685  1.00  0.00     0.180 A 
ATOM      4  O   UNL     1       7.101   6.967 -18.466  1.00  0.00    -0.452 OA
ATOM      5  C   UNL     1       7.109   6.594 -15.744  1.00  0.00     0.239 A 
ATOM      6  C   UNL     1       7.132   5.727 -18.001  1.00  0.00     0.146 A 
ATOM      7  O   UNL     1       7.030   6.428 -14.501  1.00  0.00    -0.285 OA
ATOM      8  C   UNL     1       7.194   5.475 -16.609  1.00  0.00     0.111 A 
ATOM      9  C   UNL     1       7.099   4.670 -18.916  1.00  0.00     0.094 A 
ATOM     10  C   UNL     1       7.291   4.120 -16.168  1.00  0.00     0.134 A 
ATOM     11  C   UNL     1       7.124   3.349 -18.469  1.00  0.00     0.123 A 
ATOM     12  C   UNL     1       7.216   3.081 -17.104  1.00  0.00     0.093 A 
BRANCH   3  13
ATOM     13  C   UNL     1       7.116   9.363 -18.332  1.00  0.00     0.025 A 
ATOM     14  C   UNL     1       5.961   9.847 -18.961  1.00  0.00     0.016 A 
ATOM     15  C   UNL     1       5.973  11.094 -19.592  1.00  0.00     0.051 A 
ATOM     16  C   UNL     1       7.142  11.863 -19.615  1.00  0.00     0.157 A 
ATOM     17  C   UNL     1       8.295  10.120 -18.380  1.00  0.00     0.062 A 
ATOM     18  C   UNL     1       8.312  11.373 -19.009  1.00  0.00     0.158 A 
BRANCH  16  19
ATOM     19  O   UNL     1       7.123  13.106 -20.247  1.00  0.00    -0.504 OA
ATOM     20  H   UNL     1       6.270  13.640 -20.357  1.00  0.00     0.293 HD
ENDBRANCH  16  19
BRANCH  18  21
ATOM     21  O   UNL     1       9.483  12.129 -19.036  1.00  0.00    -0.504 OA
ATOM     22  H   UNL     1      10.378  11.711 -19.263  1.00  0.00     0.293 HD
ENDBRANCH  18  21
ENDBRANCH   3  13
BRANCH  10  23
ATOM     23  O   UNL     1       7.489   3.745 -14.836  1.00  0.00    -0.507 OA
ATOM     24  H   UNL     1       6.801   3.275 -14.266  1.00  0.00     0.293 HD
ENDBRANCH  10  23
BRANCH  11  25
ATOM     25  O   UNL     1       7.069   2.291 -19.375  1.00  0.00    -0.508 OA
ATOM     26  H   UNL     1       7.217   1.333 -19.080  1.00  0.00     0.293 HD
ENDBRANCH  11  25
ENDBRANCH   1   2
BRANCH   1  27
ATOM     27  C   UNL     1       7.715   9.413 -14.338  1.00  0.00     0.339 C 
ATOM     28  C   UNL     1       7.300  10.793 -13.771  1.00  0.00     0.214 C 
ATOM     29  O   UNL     1       9.109   9.346 -14.586  1.00  0.00    -0.332 OA
ATOM     30  C   UNL     1       7.880  11.979 -14.582  1.00  0.00     0.180 C 
ATOM     31  C   UNL     1       9.507  10.287 -15.567  1.00  0.00     0.179 C 
ATOM     32  C   UNL     1       9.339  11.724 -15.028  1.00  0.00     0.177 C 
BRANCH  28  33
ATOM     33  O   UNL     1       7.678  10.897 -12.420  1.00  0.00    -0.384 OA
ATOM     34  H   UNL     1       7.133  11.616 -12.006  1.00  0.00     0.211 HD
ENDBRANCH  28  33
BRANCH  30  35
ATOM     35  O   UNL     1       7.051  12.301 -15.670  1.00  0.00    -0.387 OA
ATOM     36  H   UNL     1       6.184  11.846 -15.535  1.00  0.00     0.211 HD
ENDBRANCH  30  35
BRANCH  31  37
ATOM     37  C   UNL     1      10.973  10.011 -15.932  1.00  0.00     0.191 C 
BRANCH  37  38
ATOM     38  O   UNL     1      11.350  10.765 -17.053  1.00  0.00    -0.394 OA
ATOM     39  H   UNL     1      11.512  11.690 -16.732  1.00  0.00     0.210 HD
ENDBRANCH  37  38
ENDBRANCH  31  37
BRANCH  32  40
ATOM     40  O   UNL     1       9.712  12.654 -16.014  1.00  0.00    -0.387 OA
ATOM     41  H   UNL     1      10.403  13.238 -15.608  1.00  0.00     0.211 HD
ENDBRANCH  32  40
ENDBRANCH   1  27
TORSDOF 12
ENDMDL
MODEL 5
REMARK VINA RESULT:    -5.780      1.530      4.428
REMARK INTER + INTRA:         -10.139
REMARK INTER:                  -8.812
REMARK INTRA:                  -1.327
REMARK UNBOUND:                -1.657
REMARK SMILES O=c1c(O[C@H]2O[C@H](CO)[C@@H](O)[C@@H](O)[C@@H]2O)c(-c2ccc(O)c(O)c2)oc2cc(O)cc(O)c12
REMARK SMILES IDX 4 1 3 2 16 3 25 4 2 5 26 6 1 7 33 8 27 9 31 10 28 11 30 12
REMARK SMILES IDX 17 13 18 14 19 15 20 16 24 17 22 18 21 19 23 21 32 23 29 25
REMARK SMILES IDX 5 27 14 28 6 29 12 30 7 31 10 32 15 33 13 35 8 37 9 38 11 40
REMARK H PARENT 21 20 23 22 32 24 29 26 15 34 13 36 9 39 11 41
REMARK Flexibility Score: inf
ROOT
ATOM      1  O   UNL     1       7.237  10.654 -15.618  1.00  0.00    -0.454 OA
ENDROOT
BRANCH   1   2
ATOM      2  C   UNL     1       7.203   9.459 -16.374  1.00  0.00     0.214 A 
ATOM      3  C   UNL     1       7.083   9.565 -17.771  1.00  0.00     0.180 A 
ATOM      4  O   UNL     1       6.942   8.479 -18.519  1.00  0.00    -0.452 OA
ATOM      5  C   UNL     1       7.241   8.161 -15.807  1.00  0.00     0.239 A 
ATOM      6  C   UNL     1       6.965   7.248 -18.029  1.00  0.00     0.146 A 
ATOM      7  O   UNL     1       7.295   8.024 -14.558  1.00  0.00    -0.285 OA
ATOM      8  C   UNL     1       7.172   7.022 -16.646  1.00  0.00     0.111 A 
ATOM      9  C   UNL     1       6.778   6.177 -18.907  1.00  0.00     0.094 A 
ATOM     10  C   UNL     1       7.253   5.672 -16.185  1.00  0.00     0.134 A 
ATOM     11  C   UNL     1       6.790   4.865 -18.432  1.00  0.00     0.123 A 
ATOM     12  C   UNL     1       7.023   4.620 -17.079  1.00  0.00     0.093 A 
BRANCH   3  13
ATOM     13  C   UNL     1       7.089  10.873 -18.449  1.00  0.00     0.025 A 
ATOM     14  C   UNL     1       5.885  11.433 -18.899  1.00  0.00     0.016 A 
ATOM     15  C   UNL     1       5.885  12.664 -19.560  1.00  0.00     0.051 A 
ATOM     16  C   UNL     1       7.087  13.342 -19.790  1.00  0.00     0.157 A 
ATOM     17  C   UNL     1       8.296  11.538 -18.707  1.00  0.00     0.062 A 
ATOM     18  C   UNL     1       8.301  12.775 -19.366  1.00  0.00     0.158 A 
BRANCH  16  19
ATOM     19  O   UNL     1       7.056  14.573 -20.447  1.00  0.00    -0.504 OA
ATOM     20  H   UNL     1       7.258  15.442 -19.969  1.00  0.00     0.293 HD
ENDBRANCH  16  19
BRANCH  18  21
ATOM     21  O   UNL     1       9.503  13.440 -19.601  1.00  0.00    -0.504 OA
ATOM     22  H   UNL     1       9.720  14.319 -19.146  1.00  0.00     0.293 HD
ENDBRANCH  18  21
ENDBRANCH   3  13
BRANCH  10  23
ATOM     23  O   UNL     1       7.583   5.315 -14.874  1.00  0.00    -0.507 OA
ATOM     24  H   UNL     1       8.034   4.451 -14.613  1.00  0.00     0.293 HD
ENDBRANCH  10  23
BRANCH  11  25
ATOM     25  O   UNL     1       6.581   3.794 -19.298  1.00  0.00    -0.508 OA
ATOM     26  H   UNL     1       5.776   3.185 -19.204  1.00  0.00     0.293 HD
ENDBRANCH  11  25
ENDBRANCH   1   2
BRANCH   1  27
ATOM     27  C   UNL     1       8.142  10.975 -14.555  1.00  0.00     0.339 C 
ATOM     28  C   UNL     1       7.936  12.427 -14.057  1.00  0.00     0.214 C 
ATOM     29  O   UNL     1       9.489  10.737 -14.929  1.00  0.00    -0.332 OA
ATOM     30  C   UNL     1       8.551  13.486 -15.006  1.00  0.00     0.180 C 
ATOM     31  C   UNL     1       9.880  11.562 -16.012  1.00  0.00     0.179 C 
ATOM     32  C   UNL     1       9.921  13.041 -15.569  1.00  0.00     0.177 C 
BRANCH  28  33
ATOM     33  O   UNL     1       8.460  12.574 -12.759  1.00  0.00    -0.384 OA
ATOM     34  H   UNL     1       9.438  12.411 -12.806  1.00  0.00     0.211 HD
ENDBRANCH  28  33
BRANCH  30  35
ATOM     35  O   UNL     1       7.653  13.829 -16.031  1.00  0.00    -0.387 OA
ATOM     36  H   UNL     1       8.134  13.755 -16.891  1.00  0.00     0.211 HD
ENDBRANCH  30  35
BRANCH  31  37
ATOM     37  C   UNL     1      11.264  11.100 -16.493  1.00  0.00     0.191 C 
BRANCH  37  38
ATOM     38  O   UNL     1      12.248  12.025 -16.114  1.00  0.00    -0.394 OA
ATOM     39  H   UNL     1      11.932  12.916 -16.417  1.00  0.00     0.210 HD
ENDBRANCH  37  38
ENDBRANCH  31  37
BRANCH  32  40
ATOM     40  O   UNL     1      10.286  13.857 -16.653  1.00  0.00    -0.387 OA
ATOM     41  H   UNL     1      10.033  14.785 -16.408  1.00  0.00     0.211 HD
ENDBRANCH  32  40
ENDBRANCH   1  27
TORSDOF 12
ENDMDL
MODEL 6
REMARK VINA RESULT:    -5.734      1.683      4.651
REMARK INTER + INTRA:         -10.073
REMARK INTER:                  -8.690
REMARK INTRA:                  -1.382
REMARK UNBOUND:                -1.657
REMARK SMILES O=c1c(O[C@H]2O[C@H](CO)[C@@H](O)[C@@H](O)[C@@H]2O)c(-c2ccc(O)c(O)c2)oc2cc(O)cc(O)c12
REMARK SMILES IDX 4 1 3 2 16 3 25 4 2 5 26 6 1 7 33 8 27 9 31 10 28 11 30 12
REMARK SMILES IDX 17 13 18 14 19 15 20 16 24 17 22 18 21 19 23 21 32 23 29 25
REMARK SMILES IDX 5 27 14 28 6 29 12 30 7 31 10 32 15 33 13 35 8 37 9 38 11 40
REMARK H PARENT 21 20 23 22 32 24 29 26 15 34 13 36 9 39 11 41
REMARK Flexibility Score: inf
ROOT
ATOM      1  O   UNL     1       8.053  12.038 -16.078  1.00  0.00    -0.454 OA
ENDROOT
BRANCH   1   2
ATOM      2  C   UNL     1       7.953  10.637 -16.247  1.00  0.00     0.214 A 
ATOM      3  C   UNL     1       7.586  10.150 -17.514  1.00  0.00     0.180 A 
ATOM      4  O   UNL     1       7.376   8.854 -17.702  1.00  0.00    -0.452 OA
ATOM      5  C   UNL     1       8.162   9.696 -15.209  1.00  0.00     0.239 A 
ATOM      6  C   UNL     1       7.553   7.943 -16.758  1.00  0.00     0.146 A 
ATOM      7  O   UNL     1       8.441  10.094 -14.049  1.00  0.00    -0.285 OA
ATOM      8  C   UNL     1       8.011   8.312 -15.470  1.00  0.00     0.111 A 
ATOM      9  C   UNL     1       7.274   6.606 -17.060  1.00  0.00     0.094 A 
ATOM     10  C   UNL     1       8.245   7.279 -14.511  1.00  0.00     0.134 A 
ATOM     11  C   UNL     1       7.441   5.614 -16.093  1.00  0.00     0.123 A 
ATOM     12  C   UNL     1       7.921   5.954 -14.828  1.00  0.00     0.093 A 
BRANCH   3  13
ATOM     13  C   UNL     1       7.400  11.053 -18.664  1.00  0.00     0.025 A 
ATOM     14  C   UNL     1       6.142  11.620 -18.912  1.00  0.00     0.016 A 
ATOM     15  C   UNL     1       5.954  12.462 -20.011  1.00  0.00     0.051 A 
ATOM     16  C   UNL     1       7.015  12.735 -20.881  1.00  0.00     0.157 A 
ATOM     17  C   UNL     1       8.455  11.303 -19.553  1.00  0.00     0.062 A 
ATOM     18  C   UNL     1       8.272  12.150 -20.655  1.00  0.00     0.158 A 
BRANCH  16  19
ATOM     19  O   UNL     1       6.800  13.584 -21.967  1.00  0.00    -0.504 OA
ATOM     20  H   UNL     1       7.455  14.316 -22.216  1.00  0.00     0.293 HD
ENDBRANCH  16  19
BRANCH  18  21
ATOM     21  O   UNL     1       9.332  12.409 -21.523  1.00  0.00    -0.504 OA
ATOM     22  H   UNL     1       9.955  11.672 -21.833  1.00  0.00     0.293 HD
ENDBRANCH  18  21
ENDBRANCH   3  13
BRANCH  10  23
ATOM     23  O   UNL     1       8.819   7.497 -13.255  1.00  0.00    -0.507 OA
ATOM     24  H   UNL     1       9.348   8.318 -13.003  1.00  0.00     0.293 HD
ENDBRANCH  10  23
BRANCH  11  25
ATOM     25  O   UNL     1       7.144   4.284 -16.380  1.00  0.00    -0.508 OA
ATOM     26  H   UNL     1       7.010   3.601 -15.644  1.00  0.00     0.293 HD
ENDBRANCH  11  25
ENDBRANCH   1   2
BRANCH   1  27
ATOM     27  C   UNL     1       9.231  12.784 -15.747  1.00  0.00     0.339 C 
ATOM     28  C   UNL     1       8.929  13.877 -14.692  1.00  0.00     0.214 C 
ATOM     29  O   UNL     1       9.843  13.328 -16.904  1.00  0.00    -0.332 OA
ATOM     30  C   UNL     1       8.218  15.116 -15.291  1.00  0.00     0.180 C 
ATOM     31  C   UNL     1       8.991  14.251 -17.557  1.00  0.00     0.179 C 
ATOM     32  C   UNL     1       8.785  15.503 -16.677  1.00  0.00     0.177 C 
BRANCH  28  33
ATOM     33  O   UNL     1      10.115  14.264 -14.042  1.00  0.00    -0.384 OA
ATOM     34  H   UNL     1       9.968  15.166 -13.652  1.00  0.00     0.211 HD
ENDBRANCH  28  33
BRANCH  30  35
ATOM     35  O   UNL     1       6.825  14.928 -15.332  1.00  0.00    -0.387 OA
ATOM     36  H   UNL     1       6.630  14.033 -14.964  1.00  0.00     0.211 HD
ENDBRANCH  30  35
BRANCH  31  37
ATOM     37  C   UNL     1       9.631  14.630 -18.901  1.00  0.00     0.191 C 
BRANCH  37  38
ATOM     38  O   UNL     1      10.423  15.779 -18.759  1.00  0.00    -0.394 OA
ATOM     39  H   UNL     1       9.977  16.498 -19.279  1.00  0.00     0.210 HD
ENDBRANCH  37  38
ENDBRANCH  31  37
BRANCH  32  40
ATOM     40  O   UNL     1       7.919  16.405 -17.318  1.00  0.00    -0.387 OA
ATOM     41  H   UNL     1       8.486  16.991 -17.883  1.00  0.00     0.211 HD
ENDBRANCH  32  40
ENDBRANCH   1  27
TORSDOF 12
ENDMDL
MODEL 7
REMARK VINA RESULT:    -5.706      1.894      4.716
REMARK INTER + INTRA:         -10.031
REMARK INTER:                  -8.903
REMARK INTRA:                  -1.128
REMARK UNBOUND:                -1.657
REMARK SMILES O=c1c(O[C@H]2O[C@H](CO)[C@@H](O)[C@@H](O)[C@@H]2O)c(-c2ccc(O)c(O)c2)oc2cc(O)cc(O)c12
REMARK SMILES IDX 4 1 3 2 16 3 25 4 2 5 26 6 1 7 33 8 27 9 31 10 28 11 30 12
REMARK SMILES IDX 17 13 18 14 19 15 20 16 24 17 22 18 21 19 23 21 32 23 29 25
REMARK SMILES IDX 5 27 14 28 6 29 12 30 7 31 10 32 15 33 13 35 8 37 9 38 11 40
REMARK H PARENT 21 20 23 22 32 24 29 26 15 34 13 36 9 39 11 41
REMARK Flexibility Score: inf
ROOT
ATOM      1  O   UNL     1       6.421  12.582 -16.147  1.00  0.00    -0.454 OA
ENDROOT
BRANCH   1   2
ATOM      2  C   UNL     1       6.776  11.212 -16.136  1.00  0.00     0.214 A 
ATOM      3  C   UNL     1       7.336  10.666 -17.305  1.00  0.00     0.180 A 
ATOM      4  O   UNL     1       7.591   9.367 -17.385  1.00  0.00    -0.452 OA
ATOM      5  C   UNL     1       6.564  10.347 -15.034  1.00  0.00     0.239 A 
ATOM      6  C   UNL     1       7.401   8.523 -16.382  1.00  0.00     0.146 A 
ATOM      7  O   UNL     1       6.017  10.785 -13.990  1.00  0.00    -0.285 OA
ATOM      8  C   UNL     1       6.927   8.981 -15.129  1.00  0.00     0.111 A 
ATOM      9  C   UNL     1       7.678   7.168 -16.589  1.00  0.00     0.094 A 
ATOM     10  C   UNL     1       6.804   8.037 -14.064  1.00  0.00     0.134 A 
ATOM     11  C   UNL     1       7.487   6.244 -15.561  1.00  0.00     0.123 A 
ATOM     12  C   UNL     1       7.050   6.681 -14.310  1.00  0.00     0.093 A 
BRANCH   3  13
ATOM     13  C   UNL     1       7.639  11.503 -18.479  1.00  0.00     0.025 A 
ATOM     14  C   UNL     1       8.950  11.944 -18.706  1.00  0.00     0.016 A 
ATOM     15  C   UNL     1       9.241  12.753 -19.807  1.00  0.00     0.051 A 
ATOM     16  C   UNL     1       8.223  13.144 -20.684  1.00  0.00     0.157 A 
ATOM     17  C   UNL     1       6.614  11.919 -19.341  1.00  0.00     0.062 A 
ATOM     18  C   UNL     1       6.901  12.728 -20.449  1.00  0.00     0.158 A 
BRANCH  16  19
ATOM     19  O   UNL     1       8.544  13.947 -21.778  1.00  0.00    -0.504 OA
ATOM     20  H   UNL     1       8.311  13.681 -22.727  1.00  0.00     0.293 HD
ENDBRANCH  16  19
BRANCH  18  21
ATOM     21  O   UNL     1       5.880  13.121 -21.313  1.00  0.00    -0.504 OA
ATOM     22  H   UNL     1       5.421  12.458 -21.926  1.00  0.00     0.293 HD
ENDBRANCH  18  21
ENDBRANCH   3  13
BRANCH  10  23
ATOM     23  O   UNL     1       6.474   8.382 -12.750  1.00  0.00    -0.507 OA
ATOM     24  H   UNL     1       5.550   8.303 -12.353  1.00  0.00     0.293 HD
ENDBRANCH  10  23
BRANCH  11  25
ATOM     25  O   UNL     1       7.738   4.890 -15.767  1.00  0.00    -0.508 OA
ATOM     26  H   UNL     1       7.404   4.185 -15.120  1.00  0.00     0.293 HD
ENDBRANCH  11  25
ENDBRANCH   1   2
BRANCH   1  27
ATOM     27  C   UNL     1       6.766  13.568 -15.167  1.00  0.00     0.339 C 
ATOM     28  C   UNL     1       6.367  14.990 -15.633  1.00  0.00     0.214 C 
ATOM     29  O   UNL     1       8.139  13.497 -14.819  1.00  0.00    -0.332 OA
ATOM     30  C   UNL     1       7.341  15.579 -16.683  1.00  0.00     0.180 C 
ATOM     31  C   UNL     1       8.971  13.773 -15.932  1.00  0.00     0.179 C 
ATOM     32  C   UNL     1       8.818  15.249 -16.360  1.00  0.00     0.177 C 
BRANCH  28  33
ATOM     33  O   UNL     1       6.265  15.853 -14.526  1.00  0.00    -0.384 OA
ATOM     34  H   UNL     1       7.163  15.914 -14.104  1.00  0.00     0.211 HD
ENDBRANCH  28  33
BRANCH  30  35
ATOM     35  O   UNL     1       6.989  15.175 -17.983  1.00  0.00    -0.387 OA
ATOM     36  H   UNL     1       6.811  15.989 -18.514  1.00  0.00     0.211 HD
ENDBRANCH  30  35
BRANCH  31  37
ATOM     37  C   UNL     1      10.423  13.470 -15.533  1.00  0.00     0.191 C 
BRANCH  37  38
ATOM     38  O   UNL     1      10.680  12.095 -15.629  1.00  0.00    -0.394 OA
ATOM     39  H   UNL     1      11.643  11.971 -15.422  1.00  0.00     0.210 HD
ENDBRANCH  37  38
ENDBRANCH  31  37
BRANCH  32  40
ATOM     40  O   UNL     1       9.627  15.510 -17.480  1.00  0.00    -0.387 OA
ATOM     41  H   UNL     1       9.753  14.644 -17.948  1.00  0.00     0.211 HD
ENDBRANCH  32  40
ENDBRANCH   1  27
TORSDOF 12
ENDMDL
MODEL 8
REMARK VINA RESULT:    -5.650      2.410      7.928
REMARK INTER + INTRA:          -9.948
REMARK INTER:                  -8.362
REMARK INTRA:                  -1.586
REMARK UNBOUND:                -1.657
REMARK SMILES O=c1c(O[C@H]2O[C@H](CO)[C@@H](O)[C@@H](O)[C@@H]2O)c(-c2ccc(O)c(O)c2)oc2cc(O)cc(O)c12
REMARK SMILES IDX 4 1 3 2 16 3 25 4 2 5 26 6 1 7 33 8 27 9 31 10 28 11 30 12
REMARK SMILES IDX 17 13 18 14 19 15 20 16 24 17 22 18 21 19 23 21 32 23 29 25
REMARK SMILES IDX 5 27 14 28 6 29 12 30 7 31 10 32 15 33 13 35 8 37 9 38 11 40
REMARK H PARENT 21 20 23 22 32 24 29 26 15 34 13 36 9 39 11 41
REMARK Flexibility Score: inf
ROOT
ATOM      1  O   UNL     1       7.720  12.792 -16.720  1.00  0.00    -0.454 OA
ENDROOT
BRANCH   1   2
ATOM      2  C   UNL     1       7.876  13.330 -18.019  1.00  0.00     0.214 A 
ATOM      3  C   UNL     1       7.793  12.449 -19.113  1.00  0.00     0.180 A 
ATOM      4  O   UNL     1       8.034  12.879 -20.343  1.00  0.00    -0.452 OA
ATOM      5  C   UNL     1       8.151  14.694 -18.285  1.00  0.00     0.239 A 
ATOM      6  C   UNL     1       8.300  14.143 -20.635  1.00  0.00     0.146 A 
ATOM      7  O   UNL     1       8.284  15.504 -17.333  1.00  0.00    -0.285 OA
ATOM      8  C   UNL     1       8.318  15.133 -19.622  1.00  0.00     0.111 A 
ATOM      9  C   UNL     1       8.566  14.479 -21.966  1.00  0.00     0.094 A 
ATOM     10  C   UNL     1       8.547  16.490 -20.004  1.00  0.00     0.134 A 
ATOM     11  C   UNL     1       8.857  15.799 -22.315  1.00  0.00     0.123 A 
ATOM     12  C   UNL     1       8.849  16.792 -21.337  1.00  0.00     0.093 A 
BRANCH   3  13
ATOM     13  C   UNL     1       7.460  11.024 -18.932  1.00  0.00     0.025 A 
ATOM     14  C   UNL     1       6.250  10.520 -19.428  1.00  0.00     0.016 A 
ATOM     15  C   UNL     1       5.920   9.175 -19.243  1.00  0.00     0.051 A 
ATOM     16  C   UNL     1       6.786   8.324 -18.549  1.00  0.00     0.157 A 
ATOM     17  C   UNL     1       8.315  10.179 -18.210  1.00  0.00     0.062 A 
ATOM     18  C   UNL     1       7.989   8.828 -18.026  1.00  0.00     0.158 A 
BRANCH  16  19
ATOM     19  O   UNL     1       6.433   6.984 -18.385  1.00  0.00    -0.504 OA
ATOM     20  H   UNL     1       7.112   6.236 -18.460  1.00  0.00     0.293 HD
ENDBRANCH  16  19
BRANCH  18  21
ATOM     21  O   UNL     1       8.853   7.988 -17.325  1.00  0.00    -0.504 OA
ATOM     22  H   UNL     1       8.508   7.200 -16.789  1.00  0.00     0.293 HD
ENDBRANCH  18  21
ENDBRANCH   3  13
BRANCH  10  23
ATOM     23  O   UNL     1       8.461  17.573 -19.124  1.00  0.00    -0.507 OA
ATOM     24  H   UNL     1       7.623  18.113 -18.963  1.00  0.00     0.293 HD
ENDBRANCH  10  23
BRANCH  11  25
ATOM     25  O   UNL     1       9.146  16.136 -23.636  1.00  0.00    -0.508 OA
ATOM     26  H   UNL     1       8.424  16.459 -24.270  1.00  0.00     0.293 HD
ENDBRANCH  11  25
ENDBRANCH   1   2
BRANCH   1  27
ATOM     27  C   UNL     1       6.585  12.938 -15.858  1.00  0.00     0.339 C 
ATOM     28  C   UNL     1       6.993  13.516 -14.481  1.00  0.00     0.214 C 
ATOM     29  O   UNL     1       5.875  11.718 -15.725  1.00  0.00    -0.332 OA
ATOM     30  C   UNL     1       7.659  12.467 -13.557  1.00  0.00     0.180 C 
ATOM     31  C   UNL     1       6.674  10.716 -15.120  1.00  0.00     0.179 C 
ATOM     32  C   UNL     1       6.971  11.084 -13.651  1.00  0.00     0.177 C 
BRANCH  28  33
ATOM     33  O   UNL     1       5.875  14.085 -13.843  1.00  0.00    -0.384 OA
ATOM     34  H   UNL     1       5.168  13.390 -13.790  1.00  0.00     0.211 HD
ENDBRANCH  28  33
BRANCH  30  35
ATOM     35  O   UNL     1       9.040  12.379 -13.804  1.00  0.00    -0.387 OA
ATOM     36  H   UNL     1       9.242  12.938 -14.593  1.00  0.00     0.211 HD
ENDBRANCH  30  35
BRANCH  31  37
ATOM     37  C   UNL     1       5.916   9.382 -15.205  1.00  0.00     0.191 C 
BRANCH  37  38
ATOM     38  O   UNL     1       6.789   8.308 -14.976  1.00  0.00    -0.394 OA
ATOM     39  H   UNL     1       6.258   7.602 -14.524  1.00  0.00     0.210 HD
ENDBRANCH  37  38
ENDBRANCH  31  37
BRANCH  32  40
ATOM     40  O   UNL     1       7.784  10.099 -13.064  1.00  0.00    -0.387 OA
ATOM     41  H   UNL     1       8.362   9.740 -13.786  1.00  0.00     0.211 HD
ENDBRANCH  32  40
ENDBRANCH   1  27
TORSDOF 12
ENDMDL
MODEL 9
REMARK VINA RESULT:    -3.403      1.942      6.926
REMARK INTER + INTRA:          -6.651
REMARK INTER:                  -5.927
REMARK INTRA:                  -0.724
REMARK UNBOUND:                -1.657
REMARK SMILES O=c1c(O[C@H]2O[C@H](CO)[C@@H](O)[C@@H](O)[C@@H]2O)c(-c2ccc(O)c(O)c2)oc2cc(O)cc(O)c12
REMARK SMILES IDX 4 1 3 2 16 3 25 4 2 5 26 6 1 7 33 8 27 9 31 10 28 11 30 12
REMARK SMILES IDX 17 13 18 14 19 15 20 16 24 17 22 18 21 19 23 21 32 23 29 25
REMARK SMILES IDX 5 27 14 28 6 29 12 30 7 31 10 32 15 33 13 35 8 37 9 38 11 40
REMARK H PARENT 21 20 23 22 32 24 29 26 15 34 13 36 9 39 11 41
REMARK Flexibility Score: inf
ROOT
ATOM      1  O   UNL     1       7.571  10.176 -17.491  1.00  0.00    -0.454 OA
ENDROOT
BRANCH   1   2
ATOM      2  C   UNL     1       7.933  11.537 -17.627  1.00  0.00     0.214 A 
ATOM      3  C   UNL     1       7.981  12.326 -16.463  1.00  0.00     0.180 A 
ATOM      4  O   UNL     1       8.213  13.629 -16.542  1.00  0.00    -0.452 OA
ATOM      5  C   UNL     1       8.212  12.165 -18.866  1.00  0.00     0.239 A 
ATOM      6  C   UNL     1       8.471  14.256 -17.680  1.00  0.00     0.146 A 
ATOM      7  O   UNL     1       8.129  11.506 -19.934  1.00  0.00    -0.285 OA
ATOM      8  C   UNL     1       8.539  13.543 -18.902  1.00  0.00     0.111 A 
ATOM      9  C   UNL     1       8.672  15.639 -17.650  1.00  0.00     0.094 A 
ATOM     10  C   UNL     1       8.885  14.260 -20.088  1.00  0.00     0.134 A 
ATOM     11  C   UNL     1       8.941  16.339 -18.826  1.00  0.00     0.123 A 
ATOM     12  C   UNL     1       9.042  15.650 -20.034  1.00  0.00     0.093 A 
BRANCH   3  13
ATOM     13  C   UNL     1       7.757  11.745 -15.127  1.00  0.00     0.025 A 
ATOM     14  C   UNL     1       8.257  12.392 -13.989  1.00  0.00     0.016 A 
ATOM     15  C   UNL     1       8.065  11.837 -12.722  1.00  0.00     0.051 A 
ATOM     16  C   UNL     1       7.384  10.623 -12.578  1.00  0.00     0.157 A 
ATOM     17  C   UNL     1       7.101  10.514 -14.986  1.00  0.00     0.062 A 
ATOM     18  C   UNL     1       6.902   9.954 -13.716  1.00  0.00     0.158 A 
BRANCH  16  19
ATOM     19  O   UNL     1       7.201  10.096 -11.300  1.00  0.00    -0.504 OA
ATOM     20  H   UNL     1       7.858   9.445 -10.887  1.00  0.00     0.293 HD
ENDBRANCH  16  19
BRANCH  18  21
ATOM     21  O   UNL     1       6.231   8.740 -13.583  1.00  0.00    -0.504 OA
ATOM     22  H   UNL     1       5.568   8.421 -14.279  1.00  0.00     0.293 HD
ENDBRANCH  18  21
ENDBRANCH   3  13
BRANCH  10  23
ATOM     23  O   UNL     1       9.112  13.654 -21.327  1.00  0.00    -0.507 OA
ATOM     24  H   UNL     1       8.385  13.302 -21.933  1.00  0.00     0.293 HD
ENDBRANCH  10  23
BRANCH  11  25
ATOM     25  O   UNL     1       9.120  17.720 -18.806  1.00  0.00    -0.508 OA
ATOM     26  H   UNL     1       8.939  18.266 -17.971  1.00  0.00     0.293 HD
ENDBRANCH  11  25
ENDBRANCH   1   2
BRANCH   1  27
ATOM     27  C   UNL     1       8.231   9.047 -18.077  1.00  0.00     0.339 C 
ATOM     28  C   UNL     1       7.251   7.867 -18.288  1.00  0.00     0.214 C 
ATOM     29  O   UNL     1       9.364   8.658 -17.319  1.00  0.00    -0.332 OA
ATOM     30  C   UNL     1       6.933   7.103 -16.979  1.00  0.00     0.180 C 
ATOM     31  C   UNL     1       8.998   8.239 -16.016  1.00  0.00     0.179 C 
ATOM     32  C   UNL     1       8.184   6.928 -16.086  1.00  0.00     0.177 C 
BRANCH  28  33
ATOM     33  O   UNL     1       7.758   6.983 -19.257  1.00  0.00    -0.384 OA
ATOM     34  H   UNL     1       8.745   6.949 -19.152  1.00  0.00     0.211 HD
ENDBRANCH  28  33
BRANCH  30  35
ATOM     35  O   UNL     1       5.875   7.711 -16.282  1.00  0.00    -0.387 OA
ATOM     36  H   UNL     1       6.193   8.588 -15.956  1.00  0.00     0.211 HD
ENDBRANCH  30  35
BRANCH  31  37
ATOM     37  C   UNL     1      10.281   8.039 -15.196  1.00  0.00     0.191 C 
BRANCH  37  38
ATOM     38  O   UNL     1       9.977   7.916 -13.833  1.00  0.00    -0.394 OA
ATOM     39  H   UNL     1      10.312   7.026 -13.546  1.00  0.00     0.210 HD
ENDBRANCH  37  38
ENDBRANCH  31  37
BRANCH  32  40
ATOM     40  O   UNL     1       7.802   6.531 -14.793  1.00  0.00    -0.387 OA
ATOM     41  H   UNL     1       8.402   7.006 -14.161  1.00  0.00     0.211 HD
ENDBRANCH  32  40
ENDBRANCH   1  27
TORSDOF 12
ENDMDL
