MODEL 1
REMARK VINA RESULT:    -3.399      0.000      0.000
REMARK INTER + INTRA:          -8.413
REMARK INTER:                  -6.380
REMARK INTRA:                  -2.033
REMARK UNBOUND:                -2.033
REMARK SMILES CCCCCCCCC=CCCCCCCCC(=O)[O-]
REMARK SMILES IDX 10 1 9 2 11 3 12 4 13 5 14 6 15 7 16 8 17 9 18 10 19 11
REMARK SMILES IDX 20 12 8 13 7 14 6 15 5 16 4 17 3 18 2 19 1 20
REMARK H PARENT
REMARK Flexibility Score: inf
ROOT
ATOM      1  C   UNL     1       4.465  67.270  20.246  1.00  0.00    -0.031 C 
ATOM      2  C   UNL     1       3.889  68.473  20.392  1.00  0.00    -0.031 C 
ENDROOT
BRANCH   1   3
ATOM      3  C   UNL     1       3.874  66.218  19.350  1.00  0.00     0.027 C 
BRANCH   3   4
ATOM      4  C   UNL     1       3.138  66.858  18.164  1.00  0.00     0.004 C 
BRANCH   4   5
ATOM      5  C   UNL     1       4.066  67.123  16.968  1.00  0.00     0.000 C 
BRANCH   5   6
ATOM      6  C   UNL     1       3.654  68.371  16.168  1.00  0.00     0.000 C 
BRANCH   6   7
ATOM      7  C   UNL     1       2.421  69.072  16.762  1.00  0.00     0.000 C 
BRANCH   7   8
ATOM      8  C   UNL     1       2.746  70.468  17.316  1.00  0.00     0.006 C 
BRANCH   8   9
ATOM      9  C   UNL     1       1.763  70.860  18.424  1.00  0.00     0.053 C 
BRANCH   9  10
ATOM     10  C   UNL     1       2.012  72.265  18.871  1.00  0.00     0.041 C 
ATOM     11  O   UNL     1       3.058  72.868  18.512  1.00  0.00    -0.550 OA
ATOM     12  O   UNL     1       1.066  72.928  19.641  1.00  0.00    -0.550 OA
ENDBRANCH   9  10
ENDBRANCH   8   9
ENDBRANCH   7   8
ENDBRANCH   6   7
ENDBRANCH   5   6
ENDBRANCH   4   5
ENDBRANCH   3   4
ENDBRANCH   1   3
BRANCH   2  13
ATOM     13  C   UNL     1       4.477  69.526  21.292  1.00  0.00     0.027 C 
BRANCH  13  14
ATOM     14  C   UNL     1       4.904  68.960  22.655  1.00  0.00     0.004 C 
BRANCH  14  15
ATOM     15  C   UNL     1       6.143  69.677  23.218  1.00  0.00     0.000 C 
BRANCH  15  16
ATOM     16  C   UNL     1       7.338  68.730  23.433  1.00  0.00     0.000 C 
BRANCH  16  17
ATOM     17  C   UNL     1       7.480  67.611  22.387  1.00  0.00    -0.000 C 
BRANCH  17  18
ATOM     18  C   UNL     1       8.255  66.394  22.911  1.00  0.00    -0.000 C 
BRANCH  18  19
ATOM     19  C   UNL     1       7.502  65.091  22.612  1.00  0.00    -0.003 C 
ATOM     20  C   UNL     1       6.023  65.217  22.965  1.00  0.00     0.004 C 
ENDBRANCH  18  19
ENDBRANCH  17  18
ENDBRANCH  16  17
ENDBRANCH  15  16
ENDBRANCH  14  15
ENDBRANCH  13  14
ENDBRANCH   2  13
TORSDOF 15
ENDMDL
MODEL 2
REMARK VINA RESULT:    -3.337      4.323      6.821
REMARK INTER + INTRA:          -8.297
REMARK INTER:                  -6.033
REMARK INTRA:                  -2.264
REMARK UNBOUND:                -2.033
REMARK SMILES CCCCCCCCC=CCCCCCCCC(=O)[O-]
REMARK SMILES IDX 10 1 9 2 11 3 12 4 13 5 14 6 15 7 16 8 17 9 18 10 19 11
REMARK SMILES IDX 20 12 8 13 7 14 6 15 5 16 4 17 3 18 2 19 1 20
REMARK H PARENT
REMARK Flexibility Score: inf
ROOT
ATOM      1  C   UNL     1       3.520  68.071  17.036  1.00  0.00    -0.031 C 
ATOM      2  C   UNL     1       2.190  68.237  16.965  1.00  0.00    -0.031 C 
ENDROOT
BRANCH   1   3
ATOM      3  C   UNL     1       4.128  66.761  17.452  1.00  0.00     0.027 C 
BRANCH   3   4
ATOM      4  C   UNL     1       4.122  66.613  18.981  1.00  0.00     0.004 C 
BRANCH   4   5
ATOM      5  C   UNL     1       3.224  65.461  19.458  1.00  0.00     0.000 C 
BRANCH   5   6
ATOM      6  C   UNL     1       2.540  64.725  18.292  1.00  0.00     0.000 C 
BRANCH   6   7
ATOM      7  C   UNL     1       1.826  63.441  18.743  1.00  0.00     0.000 C 
BRANCH   7   8
ATOM      8  C   UNL     1       2.442  62.175  18.127  1.00  0.00     0.006 C 
BRANCH   8   9
ATOM      9  C   UNL     1       3.680  62.519  17.291  1.00  0.00     0.053 C 
BRANCH   9  10
ATOM     10  C   UNL     1       3.471  62.128  15.863  1.00  0.00     0.041 C 
ATOM     11  O   UNL     1       4.274  61.339  15.298  1.00  0.00    -0.550 OA
ATOM     12  O   UNL     1       2.361  62.594  15.170  1.00  0.00    -0.550 OA
ENDBRANCH   9  10
ENDBRANCH   8   9
ENDBRANCH   7   8
ENDBRANCH   6   7
ENDBRANCH   5   6
ENDBRANCH   4   5
ENDBRANCH   3   4
ENDBRANCH   1   3
BRANCH   2  13
ATOM     13  C   UNL     1       1.579  69.548  16.551  1.00  0.00     0.027 C 
BRANCH  13  14
ATOM     14  C   UNL     1       2.532  70.733  16.772  1.00  0.00     0.004 C 
BRANCH  14  15
ATOM     15  C   UNL     1       2.246  71.469  18.092  1.00  0.00     0.000 C 
BRANCH  15  16
ATOM     16  C   UNL     1       3.455  71.485  19.044  1.00  0.00     0.000 C 
BRANCH  16  17
ATOM     17  C   UNL     1       3.578  70.256  19.962  1.00  0.00    -0.000 C 
BRANCH  17  18
ATOM     18  C   UNL     1       2.217  69.662  20.355  1.00  0.00    -0.000 C 
BRANCH  18  19
ATOM     19  C   UNL     1       2.365  68.672  21.517  1.00  0.00    -0.003 C 
ATOM     20  C   UNL     1       3.678  68.888  22.262  1.00  0.00     0.004 C 
ENDBRANCH  18  19
ENDBRANCH  17  18
ENDBRANCH  16  17
ENDBRANCH  15  16
ENDBRANCH  14  15
ENDBRANCH  13  14
ENDBRANCH   2  13
TORSDOF 15
ENDMDL
MODEL 3
REMARK VINA RESULT:    -3.324     11.863     14.145
REMARK INTER + INTRA:          -8.272
REMARK INTER:                  -6.175
REMARK INTRA:                  -2.097
REMARK UNBOUND:                -2.033
REMARK SMILES CCCCCCCCC=CCCCCCCCC(=O)[O-]
REMARK SMILES IDX 10 1 9 2 11 3 12 4 13 5 14 6 15 7 16 8 17 9 18 10 19 11
REMARK SMILES IDX 20 12 8 13 7 14 6 15 5 16 4 17 3 18 2 19 1 20
REMARK H PARENT
REMARK Flexibility Score: inf
ROOT
ATOM      1  C   UNL     1       7.238  69.528   5.584  1.00  0.00    -0.031 C 
ATOM      2  C   UNL     1       7.989  69.820   6.657  1.00  0.00    -0.031 C 
ENDROOT
BRANCH   1   3
ATOM      3  C   UNL     1       6.931  68.108   5.202  1.00  0.00     0.027 C 
BRANCH   3   4
ATOM      4  C   UNL     1       5.497  67.979   4.669  1.00  0.00     0.004 C 
BRANCH   4   5
ATOM      5  C   UNL     1       4.923  66.565   4.857  1.00  0.00     0.000 C 
BRANCH   5   6
ATOM      6  C   UNL     1       3.523  66.578   5.495  1.00  0.00     0.000 C 
BRANCH   6   7
ATOM      7  C   UNL     1       3.540  66.124   6.964  1.00  0.00     0.000 C 
BRANCH   7   8
ATOM      8  C   UNL     1       2.568  64.965   7.234  1.00  0.00     0.006 C 
BRANCH   8   9
ATOM      9  C   UNL     1       3.125  64.020   8.304  1.00  0.00     0.053 C 
BRANCH   9  10
ATOM     10  C   UNL     1       2.271  62.799   8.419  1.00  0.00     0.041 C 
ATOM     11  O   UNL     1       1.198  62.712   7.766  1.00  0.00    -0.550 OA
ATOM     12  O   UNL     1       2.684  61.733   9.208  1.00  0.00    -0.550 OA
ENDBRANCH   9  10
ENDBRANCH   8   9
ENDBRANCH   7   8
ENDBRANCH   6   7
ENDBRANCH   5   6
ENDBRANCH   4   5
ENDBRANCH   3   4
ENDBRANCH   1   3
BRANCH   2  13
ATOM     13  C   UNL     1       8.300  71.242   7.041  1.00  0.00     0.027 C 
BRANCH  13  14
ATOM     14  C   UNL     1       8.266  71.458   8.562  1.00  0.00     0.004 C 
BRANCH  14  15
ATOM     15  C   UNL     1       7.381  70.421   9.274  1.00  0.00     0.000 C 
BRANCH  15  16
ATOM     16  C   UNL     1       5.930  70.899   9.462  1.00  0.00     0.000 C 
BRANCH  16  17
ATOM     17  C   UNL     1       4.872  69.781   9.477  1.00  0.00    -0.000 C 
BRANCH  17  18
ATOM     18  C   UNL     1       4.385  69.396   8.073  1.00  0.00    -0.000 C 
BRANCH  18  19
ATOM     19  C   UNL     1       4.216  70.639   7.190  1.00  0.00    -0.003 C 
ATOM     20  C   UNL     1       3.027  70.488   6.247  1.00  0.00     0.004 C 
ENDBRANCH  18  19
ENDBRANCH  17  18
ENDBRANCH  16  17
ENDBRANCH  15  16
ENDBRANCH  14  15
ENDBRANCH  13  14
ENDBRANCH   2  13
TORSDOF 15
ENDMDL
MODEL 4
REMARK VINA RESULT:    -3.303      2.450      4.985
REMARK INTER + INTRA:          -8.233
REMARK INTER:                  -6.057
REMARK INTRA:                  -2.176
REMARK UNBOUND:                -2.033
REMARK SMILES CCCCCCCCC=CCCCCCCCC(=O)[O-]
REMARK SMILES IDX 10 1 9 2 11 3 12 4 13 5 14 6 15 7 16 8 17 9 18 10 19 11
REMARK SMILES IDX 20 12 8 13 7 14 6 15 5 16 4 17 3 18 2 19 1 20
REMARK H PARENT
REMARK Flexibility Score: inf
ROOT
ATOM      1  C   UNL     1       5.201  66.173  20.751  1.00  0.00    -0.031 C 
ATOM      2  C   UNL     1       4.739  66.303  19.498  1.00  0.00    -0.031 C 
ENDROOT
BRANCH   1   3
ATOM      3  C   UNL     1       6.399  66.944  21.231  1.00  0.00     0.027 C 
BRANCH   3   4
ATOM      4  C   UNL     1       6.028  67.861  22.406  1.00  0.00     0.004 C 
BRANCH   4   5
ATOM      5  C   UNL     1       5.173  69.061  21.969  1.00  0.00     0.000 C 
BRANCH   5   6
ATOM      6  C   UNL     1       3.711  68.943  22.433  1.00  0.00     0.000 C 
BRANCH   6   7
ATOM      7  C   UNL     1       2.710  69.109  21.278  1.00  0.00     0.000 C 
BRANCH   7   8
ATOM      8  C   UNL     1       3.318  69.838  20.070  1.00  0.00     0.006 C 
BRANCH   8   9
ATOM      9  C   UNL     1       2.283  70.747  19.400  1.00  0.00     0.053 C 
BRANCH   9  10
ATOM     10  C   UNL     1       2.858  71.381  18.174  1.00  0.00     0.041 C 
ATOM     11  O   UNL     1       2.793  70.789  17.064  1.00  0.00    -0.550 OA
ATOM     12  O   UNL     1       3.422  72.648  18.246  1.00  0.00    -0.550 OA
ENDBRANCH   9  10
ENDBRANCH   8   9
ENDBRANCH   7   8
ENDBRANCH   6   7
ENDBRANCH   5   6
ENDBRANCH   4   5
ENDBRANCH   3   4
ENDBRANCH   1   3
BRANCH   2  13
ATOM     13  C   UNL     1       3.542  65.530  19.014  1.00  0.00     0.027 C 
BRANCH  13  14
ATOM     14  C   UNL     1       3.749  64.953  17.605  1.00  0.00     0.004 C 
BRANCH  14  15
ATOM     15  C   UNL     1       4.249  63.499  17.643  1.00  0.00     0.000 C 
BRANCH  15  16
ATOM     16  C   UNL     1       5.626  63.320  16.978  1.00  0.00     0.000 C 
BRANCH  16  17
ATOM     17  C   UNL     1       6.323  64.628  16.561  1.00  0.00    -0.000 C 
BRANCH  17  18
ATOM     18  C   UNL     1       7.813  64.657  16.927  1.00  0.00    -0.000 C 
BRANCH  18  19
ATOM     19  C   UNL     1       8.050  65.475  18.203  1.00  0.00    -0.003 C 
ATOM     20  C   UNL     1       8.639  64.609  19.312  1.00  0.00     0.004 C 
ENDBRANCH  18  19
ENDBRANCH  17  18
ENDBRANCH  16  17
ENDBRANCH  15  16
ENDBRANCH  14  15
ENDBRANCH  13  14
ENDBRANCH   2  13
TORSDOF 15
ENDMDL
MODEL 5
REMARK VINA RESULT:    -3.298      7.856      9.680
REMARK INTER + INTRA:          -8.223
REMARK INTER:                  -6.225
REMARK INTRA:                  -1.998
REMARK UNBOUND:                -2.033
REMARK SMILES CCCCCCCCC=CCCCCCCCC(=O)[O-]
REMARK SMILES IDX 10 1 9 2 11 3 12 4 13 5 14 6 15 7 16 8 17 9 18 10 19 11
REMARK SMILES IDX 20 12 8 13 7 14 6 15 5 16 4 17 3 18 2 19 1 20
REMARK H PARENT
REMARK Flexibility Score: inf
ROOT
ATOM      1  C   UNL     1       1.543  66.311  15.502  1.00  0.00    -0.031 C 
ATOM      2  C   UNL     1       0.256  65.985  15.307  1.00  0.00    -0.031 C 
ENDROOT
BRANCH   1   3
ATOM      3  C   UNL     1       2.416  66.774  14.370  1.00  0.00     0.027 C 
BRANCH   3   4
ATOM      4  C   UNL     1       3.328  65.640  13.880  1.00  0.00     0.004 C 
BRANCH   4   5
ATOM      5  C   UNL     1       2.672  64.790  12.780  1.00  0.00     0.000 C 
BRANCH   5   6
ATOM      6  C   UNL     1       1.880  65.640  11.772  1.00  0.00     0.000 C 
BRANCH   6   7
ATOM      7  C   UNL     1       2.465  65.570  10.352  1.00  0.00     0.000 C 
BRANCH   7   8
ATOM      8  C   UNL     1       1.389  65.332   9.282  1.00  0.00     0.006 C 
BRANCH   8   9
ATOM      9  C   UNL     1       1.995  64.691   8.028  1.00  0.00     0.053 C 
BRANCH   9  10
ATOM     10  C   UNL     1       1.840  63.205   8.074  1.00  0.00     0.041 C 
ATOM     11  O   UNL     1       0.877  62.649   7.483  1.00  0.00    -0.550 OA
ATOM     12  O   UNL     1       2.789  62.427   8.725  1.00  0.00    -0.550 OA
ENDBRANCH   9  10
ENDBRANCH   8   9
ENDBRANCH   7   8
ENDBRANCH   6   7
ENDBRANCH   5   6
ENDBRANCH   4   5
ENDBRANCH   3   4
ENDBRANCH   1   3
BRANCH   2  13
ATOM     13  C   UNL     1      -0.621  65.518  16.438  1.00  0.00     0.027 C 
BRANCH  13  14
ATOM     14  C   UNL     1      -1.453  64.282  16.061  1.00  0.00     0.004 C 
BRANCH  14  15
ATOM     15  C   UNL     1      -1.271  63.132  17.067  1.00  0.00     0.000 C 
BRANCH  15  16
ATOM     16  C   UNL     1      -0.141  63.394  18.079  1.00  0.00     0.000 C 
BRANCH  16  17
ATOM     17  C   UNL     1       1.082  62.469  17.943  1.00  0.00    -0.000 C 
BRANCH  17  18
ATOM     18  C   UNL     1       2.238  63.114  17.164  1.00  0.00    -0.000 C 
BRANCH  18  19
ATOM     19  C   UNL     1       2.291  62.587  15.724  1.00  0.00    -0.003 C 
ATOM     20  C   UNL     1       3.711  62.187  15.336  1.00  0.00     0.004 C 
ENDBRANCH  18  19
ENDBRANCH  17  18
ENDBRANCH  16  17
ENDBRANCH  15  16
ENDBRANCH  14  15
ENDBRANCH  13  14
ENDBRANCH   2  13
TORSDOF 15
ENDMDL
MODEL 6
REMARK VINA RESULT:    -3.276      4.544      9.051
REMARK INTER + INTRA:          -8.181
REMARK INTER:                  -6.109
REMARK INTRA:                  -2.072
REMARK UNBOUND:                -2.033
REMARK SMILES CCCCCCCCC=CCCCCCCCC(=O)[O-]
REMARK SMILES IDX 10 1 9 2 11 3 12 4 13 5 14 6 15 7 16 8 17 9 18 10 19 11
REMARK SMILES IDX 20 12 8 13 7 14 6 15 5 16 4 17 3 18 2 19 1 20
REMARK H PARENT
REMARK Flexibility Score: inf
ROOT
ATOM      1  C   UNL     1       3.356  70.419  13.896  1.00  0.00    -0.031 C 
ATOM      2  C   UNL     1       3.378  71.706  13.514  1.00  0.00    -0.031 C 
ENDROOT
BRANCH   1   3
ATOM      3  C   UNL     1       3.023  70.023  15.307  1.00  0.00     0.027 C 
BRANCH   3   4
ATOM      4  C   UNL     1       1.522  69.735  15.457  1.00  0.00     0.004 C 
BRANCH   4   5
ATOM      5  C   UNL     1       1.247  68.407  16.180  1.00  0.00     0.000 C 
BRANCH   5   6
ATOM      6  C   UNL     1       0.984  68.598  17.684  1.00  0.00     0.000 C 
BRANCH   6   7
ATOM      7  C   UNL     1       0.966  70.079  18.096  1.00  0.00     0.000 C 
BRANCH   7   8
ATOM      8  C   UNL     1       1.751  70.340  19.391  1.00  0.00     0.006 C 
BRANCH   8   9
ATOM      9  C   UNL     1       2.999  71.184  19.114  1.00  0.00     0.053 C 
BRANCH   9  10
ATOM     10  C   UNL     1       2.614  72.553  18.654  1.00  0.00     0.041 C 
ATOM     11  O   UNL     1       3.257  73.116  17.729  1.00  0.00    -0.550 OA
ATOM     12  O   UNL     1       1.511  73.189  19.210  1.00  0.00    -0.550 OA
ENDBRANCH   9  10
ENDBRANCH   8   9
ENDBRANCH   7   8
ENDBRANCH   6   7
ENDBRANCH   5   6
ENDBRANCH   4   5
ENDBRANCH   3   4
ENDBRANCH   1   3
BRANCH   2  13
ATOM     13  C   UNL     1       3.714  72.105  12.103  1.00  0.00     0.027 C 
BRANCH  13  14
ATOM     14  C   UNL     1       2.958  73.366  11.656  1.00  0.00     0.004 C 
BRANCH  14  15
ATOM     15  C   UNL     1       2.392  73.229  10.232  1.00  0.00     0.000 C 
BRANCH  15  16
ATOM     16  C   UNL     1       2.377  71.773   9.731  1.00  0.00     0.000 C 
BRANCH  16  17
ATOM     17  C   UNL     1       1.034  71.040   9.902  1.00  0.00    -0.000 C 
BRANCH  17  18
ATOM     18  C   UNL     1       1.188  69.645  10.526  1.00  0.00    -0.000 C 
BRANCH  18  19
ATOM     19  C   UNL     1       0.467  69.565  11.878  1.00  0.00    -0.003 C 
ATOM     20  C   UNL     1      -0.142  70.911  12.258  1.00  0.00     0.004 C 
ENDBRANCH  18  19
ENDBRANCH  17  18
ENDBRANCH  16  17
ENDBRANCH  15  16
ENDBRANCH  14  15
ENDBRANCH  13  14
ENDBRANCH   2  13
TORSDOF 15
ENDMDL
MODEL 7
REMARK VINA RESULT:    -3.262      4.674      9.052
REMARK INTER + INTRA:          -8.155
REMARK INTER:                  -5.843
REMARK INTRA:                  -2.312
REMARK UNBOUND:                -2.033
REMARK SMILES CCCCCCCCC=CCCCCCCCC(=O)[O-]
REMARK SMILES IDX 10 1 9 2 11 3 12 4 13 5 14 6 15 7 16 8 17 9 18 10 19 11
REMARK SMILES IDX 20 12 8 13 7 14 6 15 5 16 4 17 3 18 2 19 1 20
REMARK H PARENT
REMARK Flexibility Score: inf
ROOT
ATOM      1  C   UNL     1       0.791  69.009  12.905  1.00  0.00    -0.031 C 
ATOM      2  C   UNL     1       1.127  68.709  11.642  1.00  0.00    -0.031 C 
ENDROOT
BRANCH   1   3
ATOM      3  C   UNL     1       1.333  68.229  14.070  1.00  0.00     0.027 C 
BRANCH   3   4
ATOM      4  C   UNL     1       2.827  68.516  14.277  1.00  0.00     0.004 C 
BRANCH   4   5
ATOM      5  C   UNL     1       3.165  68.855  15.738  1.00  0.00     0.000 C 
BRANCH   5   6
ATOM      6  C   UNL     1       2.628  70.233  16.162  1.00  0.00     0.000 C 
BRANCH   6   7
ATOM      7  C   UNL     1       1.597  70.140  17.298  1.00  0.00     0.000 C 
BRANCH   7   8
ATOM      8  C   UNL     1       2.220  70.382  18.682  1.00  0.00     0.006 C 
BRANCH   8   9
ATOM      9  C   UNL     1       3.187  71.570  18.647  1.00  0.00     0.053 C 
BRANCH   9  10
ATOM     10  C   UNL     1       2.433  72.860  18.690  1.00  0.00     0.041 C 
ATOM     11  O   UNL     1       1.414  72.975  19.422  1.00  0.00    -0.550 OA
ATOM     12  O   UNL     1       2.883  73.954  17.963  1.00  0.00    -0.550 OA
ENDBRANCH   9  10
ENDBRANCH   8   9
ENDBRANCH   7   8
ENDBRANCH   6   7
ENDBRANCH   5   6
ENDBRANCH   4   5
ENDBRANCH   3   4
ENDBRANCH   1   3
BRANCH   2  13
ATOM     13  C   UNL     1       0.584  69.487  10.474  1.00  0.00     0.027 C 
BRANCH  13  14
ATOM     14  C   UNL     1      -0.532  70.459  10.887  1.00  0.00     0.004 C 
BRANCH  14  15
ATOM     15  C   UNL     1      -0.182  71.919  10.551  1.00  0.00     0.000 C 
BRANCH  15  16
ATOM     16  C   UNL     1       1.307  72.117  10.215  1.00  0.00     0.000 C 
BRANCH  16  17
ATOM     17  C   UNL     1       2.105  72.933  11.248  1.00  0.00    -0.000 C 
BRANCH  17  18
ATOM     18  C   UNL     1       2.268  72.206  12.590  1.00  0.00    -0.000 C 
BRANCH  18  19
ATOM     19  C   UNL     1       3.747  71.931  12.890  1.00  0.00    -0.003 C 
ATOM     20  C   UNL     1       4.312  70.873  11.948  1.00  0.00     0.004 C 
ENDBRANCH  18  19
ENDBRANCH  17  18
ENDBRANCH  16  17
ENDBRANCH  15  16
ENDBRANCH  14  15
ENDBRANCH  13  14
ENDBRANCH   2  13
TORSDOF 15
ENDMDL
MODEL 8
REMARK VINA RESULT:    -3.259      4.039      6.956
REMARK INTER + INTRA:          -8.150
REMARK INTER:                  -5.847
REMARK INTRA:                  -2.303
REMARK UNBOUND:                -2.033
REMARK SMILES CCCCCCCCC=CCCCCCCCC(=O)[O-]
REMARK SMILES IDX 10 1 9 2 11 3 12 4 13 5 14 6 15 7 16 8 17 9 18 10 19 11
REMARK SMILES IDX 20 12 8 13 7 14 6 15 5 16 4 17 3 18 2 19 1 20
REMARK H PARENT
REMARK Flexibility Score: inf
ROOT
ATOM      1  C   UNL     1       2.056  65.133  15.814  1.00  0.00    -0.031 C 
ATOM      2  C   UNL     1       1.907  64.099  14.972  1.00  0.00    -0.031 C 
ENDROOT
BRANCH   1   3
ATOM      3  C   UNL     1       1.514  66.496  15.488  1.00  0.00     0.027 C 
BRANCH   3   4
ATOM      4  C   UNL     1       1.830  67.497  16.609  1.00  0.00     0.004 C 
BRANCH   4   5
ATOM      5  C   UNL     1       1.874  66.834  17.995  1.00  0.00     0.000 C 
BRANCH   5   6
ATOM      6  C   UNL     1       1.867  67.862  19.140  1.00  0.00     0.000 C 
BRANCH   6   7
ATOM      7  C   UNL     1       1.801  69.311  18.632  1.00  0.00     0.000 C 
BRANCH   7   8
ATOM      8  C   UNL     1       2.185  70.333  19.713  1.00  0.00     0.006 C 
BRANCH   8   9
ATOM      9  C   UNL     1       3.247  71.308  19.193  1.00  0.00     0.053 C 
BRANCH   9  10
ATOM     10  C   UNL     1       2.613  72.593  18.766  1.00  0.00     0.041 C 
ATOM     11  O   UNL     1       3.151  73.300  17.873  1.00  0.00    -0.550 OA
ATOM     12  O   UNL     1       1.401  72.987  19.317  1.00  0.00    -0.550 OA
ENDBRANCH   9  10
ENDBRANCH   8   9
ENDBRANCH   7   8
ENDBRANCH   6   7
ENDBRANCH   5   6
ENDBRANCH   4   5
ENDBRANCH   3   4
ENDBRANCH   1   3
BRANCH   2  13
ATOM     13  C   UNL     1       2.450  62.733  15.295  1.00  0.00     0.027 C 
BRANCH  13  14
ATOM     14  C   UNL     1       2.724  62.553  16.797  1.00  0.00     0.004 C 
BRANCH  14  15
ATOM     15  C   UNL     1       1.477  62.074  17.559  1.00  0.00     0.000 C 
BRANCH  15  16
ATOM     16  C   UNL     1       1.102  62.996  18.735  1.00  0.00     0.000 C 
BRANCH  16  17
ATOM     17  C   UNL     1      -0.211  63.778  18.556  1.00  0.00    -0.000 C 
BRANCH  17  18
ATOM     18  C   UNL     1      -0.958  63.410  17.266  1.00  0.00    -0.000 C 
BRANCH  18  19
ATOM     19  C   UNL     1      -1.589  64.651  16.623  1.00  0.00    -0.003 C 
ATOM     20  C   UNL     1      -1.773  64.461  15.121  1.00  0.00     0.004 C 
ENDBRANCH  18  19
ENDBRANCH  17  18
ENDBRANCH  16  17
ENDBRANCH  15  16
ENDBRANCH  14  15
ENDBRANCH  13  14
ENDBRANCH   2  13
TORSDOF 15
ENDMDL
MODEL 9
REMARK VINA RESULT:    -3.225      2.981      5.464
REMARK INTER + INTRA:          -8.086
REMARK INTER:                  -6.543
REMARK INTRA:                  -1.542
REMARK UNBOUND:                -2.033
REMARK SMILES CCCCCCCCC=CCCCCCCCC(=O)[O-]
REMARK SMILES IDX 10 1 9 2 11 3 12 4 13 5 14 6 15 7 16 8 17 9 18 10 19 11
REMARK SMILES IDX 20 12 8 13 7 14 6 15 5 16 4 17 3 18 2 19 1 20
REMARK H PARENT
REMARK Flexibility Score: inf
ROOT
ATOM      1  C   UNL     1       7.566  65.943  20.833  1.00  0.00    -0.031 C 
ATOM      2  C   UNL     1       8.818  66.235  21.217  1.00  0.00    -0.031 C 
ENDROOT
BRANCH   1   3
ATOM      3  C   UNL     1       6.418  66.867  21.127  1.00  0.00     0.027 C 
BRANCH   3   4
ATOM      4  C   UNL     1       6.803  67.901  22.195  1.00  0.00     0.004 C 
BRANCH   4   5
ATOM      5  C   UNL     1       5.631  68.819  22.576  1.00  0.00     0.000 C 
BRANCH   5   6
ATOM      6  C   UNL     1       4.265  68.129  22.415  1.00  0.00     0.000 C 
BRANCH   6   7
ATOM      7  C   UNL     1       3.214  69.046  21.770  1.00  0.00     0.000 C 
BRANCH   7   8
ATOM      8  C   UNL     1       3.345  69.110  20.241  1.00  0.00     0.006 C 
BRANCH   8   9
ATOM      9  C   UNL     1       3.845  70.486  19.790  1.00  0.00     0.053 C 
BRANCH   9  10
ATOM     10  C   UNL     1       2.789  71.193  19.001  1.00  0.00     0.041 C 
ATOM     11  O   UNL     1       1.685  71.480  19.534  1.00  0.00    -0.550 OA
ATOM     12  O   UNL     1       3.043  71.583  17.693  1.00  0.00    -0.550 OA
ENDBRANCH   9  10
ENDBRANCH   8   9
ENDBRANCH   7   8
ENDBRANCH   6   7
ENDBRANCH   5   6
ENDBRANCH   4   5
ENDBRANCH   3   4
ENDBRANCH   1   3
BRANCH   2  13
ATOM     13  C   UNL     1       9.969  65.310  20.927  1.00  0.00     0.027 C 
BRANCH  13  14
ATOM     14  C   UNL     1       9.729  63.891  21.466  1.00  0.00     0.004 C 
BRANCH  14  15
ATOM     15  C   UNL     1       9.912  62.819  20.378  1.00  0.00     0.000 C 
BRANCH  15  16
ATOM     16  C   UNL     1       9.725  63.373  18.953  1.00  0.00     0.000 C 
BRANCH  16  17
ATOM     17  C   UNL     1       9.263  62.341  17.909  1.00  0.00    -0.000 C 
BRANCH  17  18
ATOM     18  C   UNL     1       7.850  62.618  17.376  1.00  0.00    -0.000 C 
BRANCH  18  19
ATOM     19  C   UNL     1       7.678  64.100  17.019  1.00  0.00    -0.003 C 
ATOM     20  C   UNL     1       6.405  64.671  17.635  1.00  0.00     0.004 C 
ENDBRANCH  18  19
ENDBRANCH  17  18
ENDBRANCH  16  17
ENDBRANCH  15  16
ENDBRANCH  14  15
ENDBRANCH  13  14
ENDBRANCH   2  13
TORSDOF 15
ENDMDL
