MODEL 1
REMARK VINA RESULT:    -4.249      0.000      0.000
REMARK INTER + INTRA:          -5.374
REMARK INTER:                  -5.118
REMARK INTRA:                  -0.256
REMARK UNBOUND:                -0.256
REMARK SMILES NC(=O)C[C@H]([NH3+])C(=O)[O-]
REMARK SMILES IDX 4 1 5 2 6 3 7 7 8 8 9 9 2 10 3 11 1 12
REMARK H PARENT 6 4 6 5 6 6 1 13 1 14
REMARK Flexibility Score: inf
ROOT
ATOM      1  C   UNL     1       8.682  27.600  19.048  1.00  0.00     0.171 C 
ENDROOT
BRANCH   1   2
ATOM      2  C   UNL     1       7.468  27.194  18.187  1.00  0.00     0.237 C 
BRANCH   2   3
ATOM      3  N   UNL     1       6.939  25.883  18.588  1.00  0.00    -0.350 N 
ATOM      4  H   UNL     1       5.915  25.955  18.784  1.00  0.00     0.345 HD
ATOM      5  H   UNL     1       7.429  25.529  19.441  1.00  0.00     0.345 HD
ATOM      6  H   UNL     1       7.067  25.195  17.809  1.00  0.00     0.345 HD
ENDBRANCH   2   3
BRANCH   2   7
ATOM      7  C   UNL     1       7.857  27.176  16.733  1.00  0.00     0.100 C 
ATOM      8  O   UNL     1       6.987  26.990  15.841  1.00  0.00    -0.544 OA
ATOM      9  O   UNL     1       9.186  27.348  16.368  1.00  0.00    -0.544 OA
ENDBRANCH   2   7
ENDBRANCH   1   2
BRANCH   1  10
ATOM     10  C   UNL     1       8.294  27.834  20.478  1.00  0.00     0.223 C 
ATOM     11  O   UNL     1       7.085  27.743  20.822  1.00  0.00    -0.275 OA
ATOM     12  N   UNL     1       9.289  28.125  21.462  1.00  0.00    -0.369 N 
ATOM     13  H   UNL     1       9.016  28.276  22.458  1.00  0.00     0.159 HD
ATOM     14  H   UNL     1      10.298  28.181  21.200  1.00  0.00     0.159 HD
ENDBRANCH   1  10
TORSDOF 4
ENDMDL
MODEL 2
REMARK VINA RESULT:    -3.946     18.749     19.742
REMARK INTER + INTRA:          -5.008
REMARK INTER:                  -4.901
REMARK INTRA:                  -0.108
REMARK UNBOUND:                -0.256
REMARK SMILES NC(=O)C[C@H]([NH3+])C(=O)[O-]
REMARK SMILES IDX 4 1 5 2 6 3 7 7 8 8 9 9 2 10 3 11 1 12
REMARK H PARENT 6 4 6 5 6 6 1 13 1 14
REMARK Flexibility Score: inf
ROOT
ATOM      1  C   UNL     1      -4.493  11.151  17.532  1.00  0.00     0.171 C 
ENDROOT
BRANCH   1   2
ATOM      2  C   UNL     1      -2.953  11.218  17.467  1.00  0.00     0.237 C 
BRANCH   2   3
ATOM      3  N   UNL     1      -2.373   9.919  17.098  1.00  0.00    -0.350 N 
ATOM      4  H   UNL     1      -3.075   9.349  16.574  1.00  0.00     0.345 HD
ATOM      5  H   UNL     1      -2.068   9.393  17.949  1.00  0.00     0.345 HD
ATOM      6  H   UNL     1      -1.547  10.064  16.472  1.00  0.00     0.345 HD
ENDBRANCH   2   3
BRANCH   2   7
ATOM      7  C   UNL     1      -2.405  11.676  18.792  1.00  0.00     0.100 C 
ATOM      8  O   UNL     1      -2.319  10.874  19.759  1.00  0.00    -0.544 OA
ATOM      9  O   UNL     1      -2.007  12.996  18.959  1.00  0.00    -0.544 OA
ENDBRANCH   2   7
ENDBRANCH   1   2
BRANCH   1  10
ATOM     10  C   UNL     1      -5.129  12.318  16.836  1.00  0.00     0.223 C 
ATOM     11  O   UNL     1      -6.064  12.948  17.398  1.00  0.00    -0.275 OA
ATOM     12  N   UNL     1      -4.660  12.742  15.555  1.00  0.00    -0.369 N 
ATOM     13  H   UNL     1      -5.098  13.561  15.078  1.00  0.00     0.159 HD
ATOM     14  H   UNL     1      -3.870  12.246  15.084  1.00  0.00     0.159 HD
ENDBRANCH   1  10
TORSDOF 4
ENDMDL
MODEL 3
REMARK VINA RESULT:    -3.915      1.504      4.228
REMARK INTER + INTRA:          -4.971
REMARK INTER:                  -4.714
REMARK INTRA:                  -0.257
REMARK UNBOUND:                -0.256
REMARK SMILES NC(=O)C[C@H]([NH3+])C(=O)[O-]
REMARK SMILES IDX 4 1 5 2 6 3 7 7 8 8 9 9 2 10 3 11 1 12
REMARK H PARENT 6 4 6 5 6 6 1 13 1 14
REMARK Flexibility Score: inf
ROOT
ATOM      1  C   UNL     1       7.813  26.772  18.323  1.00  0.00     0.171 C 
ENDROOT
BRANCH   1   2
ATOM      2  C   UNL     1       8.395  27.858  19.251  1.00  0.00     0.237 C 
BRANCH   2   3
ATOM      3  N   UNL     1       9.858  27.750  19.353  1.00  0.00    -0.350 N 
ATOM      4  H   UNL     1      10.224  28.469  20.017  1.00  0.00     0.345 HD
ATOM      5  H   UNL     1      10.306  27.885  18.418  1.00  0.00     0.345 HD
ATOM      6  H   UNL     1      10.119  26.808  19.725  1.00  0.00     0.345 HD
ENDBRANCH   2   3
BRANCH   2   7
ATOM      7  C   UNL     1       7.769  27.753  20.616  1.00  0.00     0.100 C 
ATOM      8  O   UNL     1       6.584  27.344  20.745  1.00  0.00    -0.544 OA
ATOM      9  O   UNL     1       8.491  28.125  21.742  1.00  0.00    -0.544 OA
ENDBRANCH   2   7
ENDBRANCH   1   2
BRANCH   1  10
ATOM     10  C   UNL     1       8.076  27.077  16.878  1.00  0.00     0.223 C 
ATOM     11  O   UNL     1       9.249  27.336  16.497  1.00  0.00    -0.275 OA
ATOM     12  N   UNL     1       7.014  27.044  15.924  1.00  0.00    -0.369 N 
ATOM     13  H   UNL     1       7.203  27.246  14.917  1.00  0.00     0.159 HD
ATOM     14  H   UNL     1       6.040  26.808  16.217  1.00  0.00     0.159 HD
ENDBRANCH   1  10
TORSDOF 4
ENDMDL
MODEL 4
REMARK VINA RESULT:    -3.863     19.662     20.484
REMARK INTER + INTRA:          -4.909
REMARK INTER:                  -4.599
REMARK INTRA:                  -0.311
REMARK UNBOUND:                -0.256
REMARK SMILES NC(=O)C[C@H]([NH3+])C(=O)[O-]
REMARK SMILES IDX 4 1 5 2 6 3 7 7 8 8 9 9 2 10 3 11 1 12
REMARK H PARENT 6 4 6 5 6 6 1 13 1 14
REMARK Flexibility Score: inf
ROOT
ATOM      1  C   UNL     1      -4.875  10.726  17.513  1.00  0.00     0.171 C 
ENDROOT
BRANCH   1   2
ATOM      2  C   UNL     1      -5.598  11.652  16.512  1.00  0.00     0.237 C 
BRANCH   2   3
ATOM      3  N   UNL     1      -4.644  12.483  15.763  1.00  0.00    -0.350 N 
ATOM      4  H   UNL     1      -3.728  12.517  16.264  1.00  0.00     0.345 HD
ATOM      5  H   UNL     1      -5.010  13.456  15.649  1.00  0.00     0.345 HD
ATOM      6  H   UNL     1      -4.477  12.067  14.818  1.00  0.00     0.345 HD
ENDBRANCH   2   3
BRANCH   2   7
ATOM      7  C   UNL     1      -6.587  12.521  17.241  1.00  0.00     0.100 C 
ATOM      8  O   UNL     1      -6.491  13.776  17.193  1.00  0.00    -0.544 OA
ATOM      9  O   UNL     1      -7.603  11.939  17.988  1.00  0.00    -0.544 OA
ENDBRANCH   2   7
ENDBRANCH   1   2
BRANCH   1  10
ATOM     10  C   UNL     1      -3.406  11.019  17.579  1.00  0.00     0.223 C 
ATOM     11  O   UNL     1      -3.004  12.083  18.121  1.00  0.00    -0.275 OA
ATOM     12  N   UNL     1      -2.456  10.086  17.062  1.00  0.00    -0.369 N 
ATOM     13  H   UNL     1      -1.433  10.288  17.120  1.00  0.00     0.159 HD
ATOM     14  H   UNL     1      -2.770   9.188  16.631  1.00  0.00     0.159 HD
ENDBRANCH   1  10
TORSDOF 4
ENDMDL
MODEL 5
REMARK VINA RESULT:    -3.720     20.320     20.847
REMARK INTER + INTRA:          -4.737
REMARK INTER:                  -4.471
REMARK INTRA:                  -0.266
REMARK UNBOUND:                -0.256
REMARK SMILES NC(=O)C[C@H]([NH3+])C(=O)[O-]
REMARK SMILES IDX 4 1 5 2 6 3 7 7 8 8 9 9 2 10 3 11 1 12
REMARK H PARENT 6 4 6 5 6 6 1 13 1 14
REMARK Flexibility Score: inf
ROOT
ATOM      1  C   UNL     1      -5.792  13.024  17.033  1.00  0.00     0.171 C 
ENDROOT
BRANCH   1   2
ATOM      2  C   UNL     1      -4.756  11.995  17.530  1.00  0.00     0.237 C 
BRANCH   2   3
ATOM      3  N   UNL     1      -3.670  11.811  16.556  1.00  0.00    -0.350 N 
ATOM      4  H   UNL     1      -3.142  12.705  16.435  1.00  0.00     0.345 HD
ATOM      5  H   UNL     1      -4.049  11.508  15.630  1.00  0.00     0.345 HD
ATOM      6  H   UNL     1      -2.999  11.089  16.905  1.00  0.00     0.345 HD
ENDBRANCH   2   3
BRANCH   2   7
ATOM      7  C   UNL     1      -5.434  10.680  17.808  1.00  0.00     0.100 C 
ATOM      8  O   UNL     1      -4.756   9.627  17.941  1.00  0.00    -0.544 OA
ATOM      9  O   UNL     1      -6.819  10.620  17.900  1.00  0.00    -0.544 OA
ENDBRANCH   2   7
ENDBRANCH   1   2
BRANCH   1  10
ATOM     10  C   UNL     1      -5.865  13.061  15.535  1.00  0.00     0.223 C 
ATOM     11  O   UNL     1      -6.397  12.105  14.912  1.00  0.00    -0.275 OA
ATOM     12  N   UNL     1      -5.366  14.187  14.812  1.00  0.00    -0.369 N 
ATOM     13  H   UNL     1      -5.428  14.213  13.770  1.00  0.00     0.159 HD
ATOM     14  H   UNL     1      -4.942  14.999  15.314  1.00  0.00     0.159 HD
ENDBRANCH   1  10
TORSDOF 4
ENDMDL
MODEL 6
REMARK VINA RESULT:    -3.562     19.875     20.937
REMARK INTER + INTRA:          -4.546
REMARK INTER:                  -4.110
REMARK INTRA:                  -0.436
REMARK UNBOUND:                -0.256
REMARK SMILES NC(=O)C[C@H]([NH3+])C(=O)[O-]
REMARK SMILES IDX 4 1 5 2 6 3 7 7 8 8 9 9 2 10 3 11 1 12
REMARK H PARENT 6 4 6 5 6 6 1 13 1 14
REMARK Flexibility Score: inf
ROOT
ATOM      1  C   UNL     1      -6.158  11.761  17.583  1.00  0.00     0.171 C 
ENDROOT
BRANCH   1   2
ATOM      2  C   UNL     1      -4.882  12.482  17.102  1.00  0.00     0.237 C 
BRANCH   2   3
ATOM      3  N   UNL     1      -4.795  12.501  15.635  1.00  0.00    -0.350 N 
ATOM      4  H   UNL     1      -4.103  13.220  15.326  1.00  0.00     0.345 HD
ATOM      5  H   UNL     1      -5.727  12.715  15.211  1.00  0.00     0.345 HD
ATOM      6  H   UNL     1      -4.467  11.570  15.288  1.00  0.00     0.345 HD
ENDBRANCH   2   3
BRANCH   2   7
ATOM      7  C   UNL     1      -3.667  11.816  17.688  1.00  0.00     0.100 C 
ATOM      8  O   UNL     1      -3.350  10.646  17.342  1.00  0.00    -0.544 OA
ATOM      9  O   UNL     1      -2.896  12.483  18.631  1.00  0.00    -0.544 OA
ENDBRANCH   2   7
ENDBRANCH   1   2
BRANCH   1  10
ATOM     10  C   UNL     1      -6.533  10.628  16.673  1.00  0.00     0.223 C 
ATOM     11  O   UNL     1      -7.217  10.856  15.641  1.00  0.00    -0.275 OA
ATOM     12  N   UNL     1      -6.090   9.299  16.950  1.00  0.00    -0.369 N 
ATOM     13  H   UNL     1      -6.344   8.515  16.308  1.00  0.00     0.159 HD
ATOM     14  H   UNL     1      -5.502   9.095  17.788  1.00  0.00     0.159 HD
ENDBRANCH   1  10
TORSDOF 4
ENDMDL
MODEL 7
REMARK VINA RESULT:    -3.531     18.970     19.765
REMARK INTER + INTRA:          -4.509
REMARK INTER:                  -4.284
REMARK INTRA:                  -0.225
REMARK UNBOUND:                -0.256
REMARK SMILES NC(=O)C[C@H]([NH3+])C(=O)[O-]
REMARK SMILES IDX 4 1 5 2 6 3 7 7 8 8 9 9 2 10 3 11 1 12
REMARK H PARENT 6 4 6 5 6 6 1 13 1 14
REMARK Flexibility Score: inf
ROOT
ATOM      1  C   UNL     1      -3.089  12.124  18.131  1.00  0.00     0.171 C 
ENDROOT
BRANCH   1   2
ATOM      2  C   UNL     1      -3.398  10.616  18.025  1.00  0.00     0.237 C 
BRANCH   2   3
ATOM      3  N   UNL     1      -2.459   9.937  17.120  1.00  0.00    -0.350 N 
ATOM      4  H   UNL     1      -1.517  10.386  17.179  1.00  0.00     0.345 HD
ATOM      5  H   UNL     1      -2.799   9.979  16.132  1.00  0.00     0.345 HD
ATOM      6  H   UNL     1      -2.355   8.936  17.404  1.00  0.00     0.345 HD
ENDBRANCH   2   3
BRANCH   2   7
ATOM      7  C   UNL     1      -4.813  10.417  17.552  1.00  0.00     0.100 C 
ATOM      8  O   UNL     1      -5.450  11.369  17.027  1.00  0.00    -0.544 OA
ATOM      9  O   UNL     1      -5.430   9.184  17.711  1.00  0.00    -0.544 OA
ENDBRANCH   2   7
ENDBRANCH   1   2
BRANCH   1  10
ATOM     10  C   UNL     1      -1.945  12.392  19.065  1.00  0.00     0.223 C 
ATOM     11  O   UNL     1      -1.561  11.492  19.858  1.00  0.00    -0.275 OA
ATOM     12  N   UNL     1      -1.265  13.648  19.038  1.00  0.00    -0.369 N 
ATOM     13  H   UNL     1      -0.463  13.826  19.681  1.00  0.00     0.159 HD
ATOM     14  H   UNL     1      -1.555  14.397  18.370  1.00  0.00     0.159 HD
ENDBRANCH   1  10
TORSDOF 4
ENDMDL
MODEL 8
REMARK VINA RESULT:    -3.514     18.670     19.662
REMARK INTER + INTRA:          -4.488
REMARK INTER:                  -4.358
REMARK INTRA:                  -0.130
REMARK UNBOUND:                -0.256
REMARK SMILES NC(=O)C[C@H]([NH3+])C(=O)[O-]
REMARK SMILES IDX 4 1 5 2 6 3 7 7 8 8 9 9 2 10 3 11 1 12
REMARK H PARENT 6 4 6 5 6 6 1 13 1 14
REMARK Flexibility Score: inf
ROOT
ATOM      1  C   UNL     1      -2.768  11.232  17.556  1.00  0.00     0.171 C 
ENDROOT
BRANCH   1   2
ATOM      2  C   UNL     1      -2.427  11.954  18.876  1.00  0.00     0.237 C 
BRANCH   2   3
ATOM      3  N   UNL     1      -1.390  12.977  18.678  1.00  0.00    -0.350 N 
ATOM      4  H   UNL     1      -1.511  13.433  17.746  1.00  0.00     0.345 HD
ATOM      5  H   UNL     1      -0.436  12.553  18.733  1.00  0.00     0.345 HD
ATOM      6  H   UNL     1      -1.479  13.717  19.412  1.00  0.00     0.345 HD
ENDBRANCH   2   3
BRANCH   2   7
ATOM      7  C   UNL     1      -1.980  10.951  19.906  1.00  0.00     0.100 C 
ATOM      8  O   UNL     1      -0.864  11.076  20.477  1.00  0.00    -0.544 OA
ATOM      9  O   UNL     1      -2.792   9.868  20.218  1.00  0.00    -0.544 OA
ENDBRANCH   2   7
ENDBRANCH   1   2
BRANCH   1  10
ATOM     10  C   UNL     1      -4.184  11.489  17.133  1.00  0.00     0.223 C 
ATOM     11  O   UNL     1      -5.128  10.889  17.711  1.00  0.00    -0.275 OA
ATOM     12  N   UNL     1      -4.473  12.434  16.102  1.00  0.00    -0.369 N 
ATOM     13  H   UNL     1      -5.461  12.619  15.817  1.00  0.00     0.159 HD
ATOM     14  H   UNL     1      -3.704  12.959  15.627  1.00  0.00     0.159 HD
ENDBRANCH   1  10
TORSDOF 4
ENDMDL
MODEL 9
REMARK VINA RESULT:    -3.476     20.910     21.882
REMARK INTER + INTRA:          -4.443
REMARK INTER:                  -4.175
REMARK INTRA:                  -0.268
REMARK UNBOUND:                -0.256
REMARK SMILES NC(=O)C[C@H]([NH3+])C(=O)[O-]
REMARK SMILES IDX 4 1 5 2 6 3 7 7 8 8 9 9 2 10 3 11 1 12
REMARK H PARENT 6 4 6 5 6 6 1 13 1 14
REMARK Flexibility Score: inf
ROOT
ATOM      1  C   UNL     1      -6.429  12.075  17.360  1.00  0.00     0.171 C 
ENDROOT
BRANCH   1   2
ATOM      2  C   UNL     1      -6.623  10.564  17.599  1.00  0.00     0.237 C 
BRANCH   2   3
ATOM      3  N   UNL     1      -5.410   9.805  17.263  1.00  0.00    -0.350 N 
ATOM      4  H   UNL     1      -5.649   9.010  16.628  1.00  0.00     0.345 HD
ATOM      5  H   UNL     1      -4.955   9.431  18.127  1.00  0.00     0.345 HD
ATOM      6  H   UNL     1      -4.733  10.424  16.760  1.00  0.00     0.345 HD
ENDBRANCH   2   3
BRANCH   2   7
ATOM      7  C   UNL     1      -7.791  10.065  16.790  1.00  0.00     0.100 C 
ATOM      8  O   UNL     1      -8.971  10.255  17.188  1.00  0.00    -0.544 OA
ATOM      9  O   UNL     1      -7.570   9.374  15.605  1.00  0.00    -0.544 OA
ENDBRANCH   2   7
ENDBRANCH   1   2
BRANCH   1  10
ATOM     10  C   UNL     1      -5.034  12.391  16.907  1.00  0.00     0.223 C 
ATOM     11  O   UNL     1      -4.079  12.316  17.725  1.00  0.00    -0.275 OA
ATOM     12  N   UNL     1      -4.775  12.742  15.547  1.00  0.00    -0.369 N 
ATOM     13  H   UNL     1      -3.801  12.951  15.233  1.00  0.00     0.159 HD
ATOM     14  H   UNL     1      -5.551  12.786  14.850  1.00  0.00     0.159 HD
ENDBRANCH   1  10
TORSDOF 4
ENDMDL
