MODEL 1
REMARK VINA RESULT:    -2.771      0.000      0.000
REMARK INTER + INTRA:          -3.506
REMARK INTER:                  -3.175
REMARK INTRA:                  -0.331
REMARK UNBOUND:                -0.331
REMARK SMILES COc1ccc(C(C)=O)c(O)c1
REMARK SMILES IDX 6 1 10 2 12 3 3 4 4 5 5 6 7 7 8 8 9 9 11 10 2 12 1 13
REMARK H PARENT 11 11
REMARK Flexibility Score: inf
ROOT
ATOM      1  C   UNL     1      11.184  14.551   1.279  1.00  0.00     0.059 A 
ATOM      2  C   UNL     1      11.641  15.775   1.819  1.00  0.00     0.130 A 
ATOM      3  C   UNL     1      10.730  16.805   2.101  1.00  0.00     0.093 A 
ATOM      4  C   UNL     1       9.357  16.633   1.857  1.00  0.00     0.122 A 
ATOM      5  C   UNL     1       8.907  15.424   1.328  1.00  0.00     0.047 A 
ATOM      6  C   UNL     1       9.804  14.393   1.041  1.00  0.00     0.019 A 
ENDROOT
BRANCH   1   7
ATOM      7  C   UNL     1      12.132  13.443   0.960  1.00  0.00     0.163 C 
ATOM      8  C   UNL     1      12.371  12.993  -0.451  1.00  0.00     0.093 C 
ATOM      9  O   UNL     1      12.779  12.879   1.882  1.00  0.00    -0.294 OA
ENDBRANCH   1   7
BRANCH   2  10
ATOM     10  O   UNL     1      12.997  15.971   2.087  1.00  0.00    -0.507 OA
ATOM     11  H   UNL     1      13.310  16.603   2.815  1.00  0.00     0.293 HD
ENDBRANCH   2  10
BRANCH   4  12
ATOM     12  O   UNL     1       8.413  17.636   2.125  1.00  0.00    -0.497 OA
ATOM     13  C   UNL     1       7.002  17.447   2.077  1.00  0.00     0.278 C 
ENDBRANCH   4  12
TORSDOF 3
ENDMDL
MODEL 2
REMARK VINA RESULT:    -1.009      1.376      4.631
REMARK INTER + INTRA:          -1.487
REMARK INTER:                  -1.146
REMARK INTRA:                  -0.342
REMARK UNBOUND:                -0.331
REMARK SMILES COc1ccc(C(C)=O)c(O)c1
REMARK SMILES IDX 6 1 10 2 12 3 3 4 4 5 5 6 7 7 8 8 9 9 11 10 2 12 1 13
REMARK H PARENT 11 11
REMARK Flexibility Score: inf
ROOT
ATOM      1  C   UNL     1       9.483  16.319   1.424  1.00  0.00     0.059 A 
ATOM      2  C   UNL     1      10.890  16.469   1.456  1.00  0.00     0.130 A 
ATOM      3  C   UNL     1      11.713  15.355   1.682  1.00  0.00     0.093 A 
ATOM      4  C   UNL     1      11.155  14.080   1.872  1.00  0.00     0.122 A 
ATOM      5  C   UNL     1       9.768  13.932   1.836  1.00  0.00     0.047 A 
ATOM      6  C   UNL     1       8.939  15.033   1.615  1.00  0.00     0.019 A 
ENDROOT
BRANCH   1   7
ATOM      7  C   UNL     1       8.585  17.488   1.196  1.00  0.00     0.163 C 
ATOM      8  C   UNL     1       7.450  17.802   2.125  1.00  0.00     0.093 C 
ATOM      9  O   UNL     1       8.785  18.260   0.221  1.00  0.00    -0.294 OA
ENDBRANCH   1   7
BRANCH   2  10
ATOM     10  O   UNL     1      11.475  17.720   1.255  1.00  0.00    -0.507 OA
ATOM     11  H   UNL     1      11.874  17.984   0.361  1.00  0.00     0.293 HD
ENDBRANCH   2  10
BRANCH   4  12
ATOM     12  O   UNL     1      11.941  12.940   2.100  1.00  0.00    -0.497 OA
ATOM     13  C   UNL     1      13.349  12.880   1.899  1.00  0.00     0.278 C 
ENDBRANCH   4  12
TORSDOF 3
ENDMDL
MODEL 3
REMARK VINA RESULT:    -0.587      2.035      3.192
REMARK INTER + INTRA:          -1.003
REMARK INTER:                  -0.860
REMARK INTRA:                  -0.143
REMARK UNBOUND:                -0.331
REMARK SMILES COc1ccc(C(C)=O)c(O)c1
REMARK SMILES IDX 6 1 10 2 12 3 3 4 4 5 5 6 7 7 8 8 9 9 11 10 2 12 1 13
REMARK H PARENT 11 11
REMARK Flexibility Score: inf
ROOT
ATOM      1  C   UNL     1      10.196  16.040   2.064  1.00  0.00     0.059 A 
ATOM      2  C   UNL     1       9.814  14.678   2.072  1.00  0.00     0.130 A 
ATOM      3  C   UNL     1       8.454  14.328   2.095  1.00  0.00     0.093 A 
ATOM      4  C   UNL     1       7.460  15.321   2.104  1.00  0.00     0.122 A 
ATOM      5  C   UNL     1       7.838  16.663   2.091  1.00  0.00     0.047 A 
ATOM      6  C   UNL     1       9.187  17.023   2.072  1.00  0.00     0.019 A 
ENDROOT
BRANCH   1   7
ATOM      7  C   UNL     1      11.634  16.440   2.051  1.00  0.00     0.163 C 
ATOM      8  C   UNL     1      12.052  17.878   2.119  1.00  0.00     0.093 C 
ATOM      9  O   UNL     1      12.535  15.560   2.012  1.00  0.00    -0.294 OA
ENDBRANCH   1   7
BRANCH   2  10
ATOM     10  O   UNL     1      10.777  13.669   2.048  1.00  0.00    -0.507 OA
ATOM     11  H   UNL     1      10.862  12.994   2.799  1.00  0.00     0.293 HD
ENDBRANCH   2  10
BRANCH   4  12
ATOM     12  O   UNL     1       6.090  15.015   2.125  1.00  0.00    -0.497 OA
ATOM     13  C   UNL     1       5.482  13.994   1.340  1.00  0.00     0.278 C 
ENDBRANCH   4  12
TORSDOF 3
ENDMDL
