MODEL 1
REMARK VINA RESULT:    -7.317      0.000      0.000
REMARK INTER + INTRA:          -8.700
REMARK INTER:                  -8.814
REMARK INTRA:                   0.114
REMARK UNBOUND:                 0.114
REMARK SMILES O=c1c(O)c(-c2ccc(O)c(O)c2)oc2cc(O)cc(O)c12
REMARK SMILES IDX 5 1 3 2 2 3 1 4 22 5 20 6 19 7 17 8 16 9 15 10 14 11 6 12
REMARK SMILES IDX 7 13 8 14 9 15 13 16 11 17 10 18 12 20 4 22 21 24 18 26
REMARK H PARENT 10 19 12 21 4 23 21 25 18 27
REMARK Flexibility Score: inf
ROOT
ATOM      1  C   UNL     1      16.160  71.230  15.901  1.00  0.00     0.180 A 
ATOM      2  C   UNL     1      16.297  71.857  14.651  1.00  0.00     0.208 A 
ATOM      3  C   UNL     1      16.384  71.064  13.496  1.00  0.00     0.238 A 
ATOM      4  O   UNL     1      16.452  71.633  12.376  1.00  0.00    -0.285 OA
ATOM      5  C   UNL     1      16.348  69.653  13.607  1.00  0.00     0.111 A 
ATOM      6  C   UNL     1      16.468  68.751  12.508  1.00  0.00     0.134 A 
ATOM      7  C   UNL     1      16.288  67.378  12.718  1.00  0.00     0.093 A 
ATOM      8  C   UNL     1      16.057  66.869  13.999  1.00  0.00     0.123 A 
ATOM      9  C   UNL     1      15.998  67.737  15.087  1.00  0.00     0.094 A 
ATOM     10  C   UNL     1      16.138  69.115  14.903  1.00  0.00     0.146 A 
ATOM     11  O   UNL     1      16.064  69.907  15.966  1.00  0.00    -0.452 OA
ENDROOT
BRANCH   1  12
ATOM     12  C   UNL     1      16.088  71.998  17.165  1.00  0.00     0.025 A 
ATOM     13  C   UNL     1      15.128  71.702  18.147  1.00  0.00     0.016 A 
ATOM     14  C   UNL     1      15.062  72.456  19.322  1.00  0.00     0.051 A 
ATOM     15  C   UNL     1      15.945  73.523  19.527  1.00  0.00     0.157 A 
ATOM     16  C   UNL     1      16.958  73.083  17.367  1.00  0.00     0.062 A 
ATOM     17  C   UNL     1      16.896  73.839  18.542  1.00  0.00     0.158 A 
BRANCH  15  18
ATOM     18  O   UNL     1      15.880  74.272  20.701  1.00  0.00    -0.504 OA
ATOM     19  H   UNL     1      15.267  74.009  21.464  1.00  0.00     0.293 HD
ENDBRANCH  15  18
BRANCH  17  20
ATOM     20  O   UNL     1      17.784  74.901  18.712  1.00  0.00    -0.504 OA
ATOM     21  H   UNL     1      17.494  75.867  18.622  1.00  0.00     0.293 HD
ENDBRANCH  17  20
ENDBRANCH   1  12
BRANCH   2  22
ATOM     22  O   UNL     1      16.308  73.252  14.562  1.00  0.00    -0.502 OA
ATOM     23  H   UNL     1      17.136  73.774  14.299  1.00  0.00     0.293 HD
ENDBRANCH   2  22
BRANCH   6  24
ATOM     24  O   UNL     1      16.787  69.145  11.205  1.00  0.00    -0.507 OA
ATOM     25  H   UNL     1      16.130  69.533  10.545  1.00  0.00     0.293 HD
ENDBRANCH   6  24
BRANCH   8  26
ATOM     26  O   UNL     1      15.895  65.501  14.202  1.00  0.00    -0.508 OA
ATOM     27  H   UNL     1      15.159  64.980  13.740  1.00  0.00     0.293 HD
ENDBRANCH   8  26
TORSDOF 6
ENDMDL
MODEL 2
REMARK VINA RESULT:    -7.024      7.435     12.400
REMARK INTER + INTRA:          -8.348
REMARK INTER:                  -8.449
REMARK INTRA:                   0.102
REMARK UNBOUND:                 0.114
REMARK SMILES O=c1c(O)c(-c2ccc(O)c(O)c2)oc2cc(O)cc(O)c12
REMARK SMILES IDX 5 1 3 2 2 3 1 4 22 5 20 6 19 7 17 8 16 9 15 10 14 11 6 12
REMARK SMILES IDX 7 13 8 14 9 15 13 16 11 17 10 18 12 20 4 22 21 24 18 26
REMARK H PARENT 10 19 12 21 4 23 21 25 18 27
REMARK Flexibility Score: inf
ROOT
ATOM      1  C   UNL     1      17.125  59.899  15.740  1.00  0.00     0.180 A 
ATOM      2  C   UNL     1      15.878  59.307  16.007  1.00  0.00     0.208 A 
ATOM      3  C   UNL     1      14.748  60.128  16.142  1.00  0.00     0.238 A 
ATOM      4  O   UNL     1      13.627  59.588  16.328  1.00  0.00    -0.285 OA
ATOM      5  C   UNL     1      14.880  61.533  16.025  1.00  0.00     0.111 A 
ATOM      6  C   UNL     1      13.810  62.463  16.183  1.00  0.00     0.134 A 
ATOM      7  C   UNL     1      14.029  63.821  15.916  1.00  0.00     0.093 A 
ATOM      8  C   UNL     1      15.296  64.289  15.559  1.00  0.00     0.123 A 
ATOM      9  C   UNL     1      16.360  63.397  15.460  1.00  0.00     0.094 A 
ATOM     10  C   UNL     1      16.165  62.032  15.685  1.00  0.00     0.146 A 
ATOM     11  O   UNL     1      17.204  61.214  15.570  1.00  0.00    -0.452 OA
ENDROOT
BRANCH   1  12
ATOM     12  C   UNL     1      18.365  59.102  15.609  1.00  0.00     0.025 A 
ATOM     13  C   UNL     1      19.262  59.313  14.547  1.00  0.00     0.016 A 
ATOM     14  C   UNL     1      20.415  58.532  14.430  1.00  0.00     0.051 A 
ATOM     15  C   UNL     1      20.682  57.521  15.362  1.00  0.00     0.157 A 
ATOM     16  C   UNL     1      18.627  58.073  16.528  1.00  0.00     0.062 A 
ATOM     17  C   UNL     1      19.780  57.289  16.414  1.00  0.00     0.158 A 
BRANCH  15  18
ATOM     18  O   UNL     1      21.833  56.745  15.244  1.00  0.00    -0.504 OA
ATOM     19  H   UNL     1      21.893  55.819  15.652  1.00  0.00     0.293 HD
ENDBRANCH  15  18
BRANCH  17  20
ATOM     20  O   UNL     1      20.013  56.286  17.354  1.00  0.00    -0.504 OA
ATOM     21  H   UNL     1      19.396  56.132  18.143  1.00  0.00     0.293 HD
ENDBRANCH  17  20
ENDBRANCH   1  12
BRANCH   2  22
ATOM     22  O   UNL     1      15.767  57.917  16.097  1.00  0.00    -0.502 OA
ATOM     23  H   UNL     1      15.120  57.463  16.732  1.00  0.00     0.293 HD
ENDBRANCH   2  22
BRANCH   6  24
ATOM     24  O   UNL     1      12.530  62.113  16.624  1.00  0.00    -0.507 OA
ATOM     25  H   UNL     1      12.012  62.608  17.334  1.00  0.00     0.293 HD
ENDBRANCH   6  24
BRANCH   8  26
ATOM     26  O   UNL     1      15.509  65.643  15.310  1.00  0.00    -0.508 OA
ATOM     27  H   UNL     1      14.739  66.277  15.131  1.00  0.00     0.293 HD
ENDBRANCH   8  26
TORSDOF 6
ENDMDL
MODEL 3
REMARK VINA RESULT:    -6.910      2.185      6.897
REMARK INTER + INTRA:          -8.210
REMARK INTER:                  -8.061
REMARK INTRA:                  -0.149
REMARK UNBOUND:                 0.114
REMARK SMILES O=c1c(O)c(-c2ccc(O)c(O)c2)oc2cc(O)cc(O)c12
REMARK SMILES IDX 5 1 3 2 2 3 1 4 22 5 20 6 19 7 17 8 16 9 15 10 14 11 6 12
REMARK SMILES IDX 7 13 8 14 9 15 13 16 11 17 10 18 12 20 4 22 21 24 18 26
REMARK H PARENT 10 19 12 21 4 23 21 25 18 27
REMARK Flexibility Score: inf
ROOT
ATOM      1  C   UNL     1      16.752  71.380  15.401  1.00  0.00     0.180 A 
ATOM      2  C   UNL     1      17.704  70.453  15.858  1.00  0.00     0.208 A 
ATOM      3  C   UNL     1      18.080  70.473  17.210  1.00  0.00     0.238 A 
ATOM      4  O   UNL     1      18.893  69.606  17.625  1.00  0.00    -0.285 OA
ATOM      5  C   UNL     1      17.511  71.429  18.085  1.00  0.00     0.111 A 
ATOM      6  C   UNL     1      17.848  71.566  19.465  1.00  0.00     0.134 A 
ATOM      7  C   UNL     1      17.126  72.460  20.267  1.00  0.00     0.093 A 
ATOM      8  C   UNL     1      16.124  73.268  19.723  1.00  0.00     0.123 A 
ATOM      9  C   UNL     1      15.830  73.184  18.365  1.00  0.00     0.094 A 
ATOM     10  C   UNL     1      16.507  72.276  17.547  1.00  0.00     0.146 A 
ATOM     11  O   UNL     1      16.187  72.220  16.260  1.00  0.00    -0.452 OA
ENDROOT
BRANCH   1  12
ATOM     12  C   UNL     1      16.324  71.437  13.985  1.00  0.00     0.025 A 
ATOM     13  C   UNL     1      16.559  72.576  13.195  1.00  0.00     0.016 A 
ATOM     14  C   UNL     1      16.125  72.617  11.867  1.00  0.00     0.051 A 
ATOM     15  C   UNL     1      15.439  71.528  11.313  1.00  0.00     0.157 A 
ATOM     16  C   UNL     1      15.617  70.357  13.431  1.00  0.00     0.062 A 
ATOM     17  C   UNL     1      15.181  70.394  12.102  1.00  0.00     0.158 A 
BRANCH  15  18
ATOM     18  O   UNL     1      15.009  71.571   9.988  1.00  0.00    -0.504 OA
ATOM     19  H   UNL     1      15.608  71.277   9.226  1.00  0.00     0.293 HD
ENDBRANCH  15  18
BRANCH  17  20
ATOM     20  O   UNL     1      14.494  69.297  11.583  1.00  0.00    -0.504 OA
ATOM     21  H   UNL     1      14.543  69.046  10.603  1.00  0.00     0.293 HD
ENDBRANCH  17  20
ENDBRANCH   1  12
BRANCH   2  22
ATOM     22  O   UNL     1      18.238  69.504  14.982  1.00  0.00    -0.502 OA
ATOM     23  H   UNL     1      19.221  69.479  14.740  1.00  0.00     0.293 HD
ENDBRANCH   2  22
BRANCH   6  24
ATOM     24  O   UNL     1      18.891  70.874  20.087  1.00  0.00    -0.507 OA
ATOM     25  H   UNL     1      19.228  69.966  19.803  1.00  0.00     0.293 HD
ENDBRANCH   6  24
BRANCH   8  26
ATOM     26  O   UNL     1      15.423  74.166  20.525  1.00  0.00    -0.508 OA
ATOM     27  H   UNL     1      14.720  74.785  20.138  1.00  0.00     0.293 HD
ENDBRANCH   8  26
TORSDOF 6
ENDMDL
MODEL 4
REMARK VINA RESULT:    -6.889      1.720      3.456
REMARK INTER + INTRA:          -8.185
REMARK INTER:                  -7.998
REMARK INTRA:                  -0.187
REMARK UNBOUND:                 0.114
REMARK SMILES O=c1c(O)c(-c2ccc(O)c(O)c2)oc2cc(O)cc(O)c12
REMARK SMILES IDX 5 1 3 2 2 3 1 4 22 5 20 6 19 7 17 8 16 9 15 10 14 11 6 12
REMARK SMILES IDX 7 13 8 14 9 15 13 16 11 17 10 18 12 20 4 22 21 24 18 26
REMARK H PARENT 10 19 12 21 4 23 21 25 18 27
REMARK Flexibility Score: inf
ROOT
ATOM      1  C   UNL     1      16.236  71.131  16.371  1.00  0.00     0.180 A 
ATOM      2  C   UNL     1      15.959  69.773  16.133  1.00  0.00     0.208 A 
ATOM      3  C   UNL     1      15.731  69.345  14.816  1.00  0.00     0.238 A 
ATOM      4  O   UNL     1      15.536  68.120  14.604  1.00  0.00    -0.285 OA
ATOM      5  C   UNL     1      15.766  70.282  13.755  1.00  0.00     0.111 A 
ATOM      6  C   UNL     1      15.511  69.965  12.387  1.00  0.00     0.134 A 
ATOM      7  C   UNL     1      15.702  70.946  11.404  1.00  0.00     0.093 A 
ATOM      8  C   UNL     1      16.077  72.247  11.748  1.00  0.00     0.123 A 
ATOM      9  C   UNL     1      16.271  72.580  13.086  1.00  0.00     0.094 A 
ATOM     10  C   UNL     1      16.123  71.615  14.085  1.00  0.00     0.146 A 
ATOM     11  O   UNL     1      16.328  71.972  15.348  1.00  0.00    -0.452 OA
ENDROOT
BRANCH   1  12
ATOM     12  C   UNL     1      16.463  71.662  17.734  1.00  0.00     0.025 A 
ATOM     13  C   UNL     1      17.595  71.296  18.483  1.00  0.00     0.016 A 
ATOM     14  C   UNL     1      17.776  71.791  19.778  1.00  0.00     0.051 A 
ATOM     15  C   UNL     1      16.825  72.647  20.347  1.00  0.00     0.157 A 
ATOM     16  C   UNL     1      15.503  72.505  18.318  1.00  0.00     0.062 A 
ATOM     17  C   UNL     1      15.681  73.002  19.613  1.00  0.00     0.158 A 
BRANCH  15  18
ATOM     18  O   UNL     1      17.010  73.141  21.637  1.00  0.00    -0.504 OA
ATOM     19  H   UNL     1      16.634  72.662  22.447  1.00  0.00     0.293 HD
ENDBRANCH  15  18
BRANCH  17  20
ATOM     20  O   UNL     1      14.712  73.847  20.154  1.00  0.00    -0.504 OA
ATOM     21  H   UNL     1      13.802  73.968  19.725  1.00  0.00     0.293 HD
ENDBRANCH  17  20
ENDBRANCH   1  12
BRANCH   2  22
ATOM     22  O   UNL     1      15.950  68.862  17.193  1.00  0.00    -0.502 OA
ATOM     23  H   UNL     1      16.116  69.143  18.153  1.00  0.00     0.293 HD
ENDBRANCH   2  22
BRANCH   6  24
ATOM     24  O   UNL     1      15.044  68.723  11.946  1.00  0.00    -0.507 OA
ATOM     25  H   UNL     1      15.345  67.833  12.314  1.00  0.00     0.293 HD
ENDBRANCH   6  24
BRANCH   8  26
ATOM     26  O   UNL     1      16.250  73.219  10.765  1.00  0.00    -0.508 OA
ATOM     27  H   UNL     1      16.564  74.154  10.995  1.00  0.00     0.293 HD
ENDBRANCH   8  26
TORSDOF 6
ENDMDL
MODEL 5
REMARK VINA RESULT:    -6.874      1.648      2.472
REMARK INTER + INTRA:          -8.166
REMARK INTER:                  -7.904
REMARK INTRA:                  -0.262
REMARK UNBOUND:                 0.114
REMARK SMILES O=c1c(O)c(-c2ccc(O)c(O)c2)oc2cc(O)cc(O)c12
REMARK SMILES IDX 5 1 3 2 2 3 1 4 22 5 20 6 19 7 17 8 16 9 15 10 14 11 6 12
REMARK SMILES IDX 7 13 8 14 9 15 13 16 11 17 10 18 12 20 4 22 21 24 18 26
REMARK H PARENT 10 19 12 21 4 23 21 25 18 27
REMARK Flexibility Score: inf
ROOT
ATOM      1  C   UNL     1      16.714  70.353  16.494  1.00  0.00     0.180 A 
ATOM      2  C   UNL     1      17.895  69.591  16.499  1.00  0.00     0.208 A 
ATOM      3  C   UNL     1      18.103  68.650  15.479  1.00  0.00     0.238 A 
ATOM      4  O   UNL     1      19.186  68.009  15.459  1.00  0.00    -0.285 OA
ATOM      5  C   UNL     1      17.121  68.470  14.475  1.00  0.00     0.111 A 
ATOM      6  C   UNL     1      17.209  67.517  13.417  1.00  0.00     0.134 A 
ATOM      7  C   UNL     1      16.239  67.516  12.405  1.00  0.00     0.093 A 
ATOM      8  C   UNL     1      15.151  68.392  12.450  1.00  0.00     0.123 A 
ATOM      9  C   UNL     1      15.026  69.285  13.510  1.00  0.00     0.094 A 
ATOM     10  C   UNL     1      15.995  69.334  14.515  1.00  0.00     0.146 A 
ATOM     11  O   UNL     1      15.843  70.208  15.503  1.00  0.00    -0.452 OA
ENDROOT
BRANCH   1  12
ATOM     12  C   UNL     1      16.413  71.347  17.549  1.00  0.00     0.025 A 
ATOM     13  C   UNL     1      15.450  71.091  18.541  1.00  0.00     0.016 A 
ATOM     14  C   UNL     1      15.164  72.054  19.513  1.00  0.00     0.051 A 
ATOM     15  C   UNL     1      15.825  73.289  19.501  1.00  0.00     0.157 A 
ATOM     16  C   UNL     1      17.057  72.595  17.529  1.00  0.00     0.062 A 
ATOM     17  C   UNL     1      16.774  73.561  18.501  1.00  0.00     0.158 A 
BRANCH  15  18
ATOM     18  O   UNL     1      15.540  74.247  20.473  1.00  0.00    -0.504 OA
ATOM     19  H   UNL     1      14.708  74.187  21.048  1.00  0.00     0.293 HD
ENDBRANCH  15  18
BRANCH  17  20
ATOM     20  O   UNL     1      17.443  74.783  18.456  1.00  0.00    -0.504 OA
ATOM     21  H   UNL     1      17.609  75.337  19.288  1.00  0.00     0.293 HD
ENDBRANCH  17  20
ENDBRANCH   1  12
BRANCH   2  22
ATOM     22  O   UNL     1      18.862  69.800  17.486  1.00  0.00    -0.502 OA
ATOM     23  H   UNL     1      18.620  69.985  18.453  1.00  0.00     0.293 HD
ENDBRANCH   2  22
BRANCH   6  24
ATOM     24  O   UNL     1      18.204  66.538  13.327  1.00  0.00    -0.507 OA
ATOM     25  H   UNL     1      18.293  65.751  13.952  1.00  0.00     0.293 HD
ENDBRANCH   6  24
BRANCH   8  26
ATOM     26  O   UNL     1      14.184  68.374  11.448  1.00  0.00    -0.508 OA
ATOM     27  H   UNL     1      13.257  68.000  11.612  1.00  0.00     0.293 HD
ENDBRANCH   8  26
TORSDOF 6
ENDMDL
MODEL 6
REMARK VINA RESULT:    -6.858      9.659     12.689
REMARK INTER + INTRA:          -8.147
REMARK INTER:                  -7.862
REMARK INTRA:                  -0.285
REMARK UNBOUND:                 0.114
REMARK SMILES O=c1c(O)c(-c2ccc(O)c(O)c2)oc2cc(O)cc(O)c12
REMARK SMILES IDX 5 1 3 2 2 3 1 4 22 5 20 6 19 7 17 8 16 9 15 10 14 11 6 12
REMARK SMILES IDX 7 13 8 14 9 15 13 16 11 17 10 18 12 20 4 22 21 24 18 26
REMARK H PARENT 10 19 12 21 4 23 21 25 18 27
REMARK Flexibility Score: inf
ROOT
ATOM      1  C   UNL     1      17.410  59.565  15.788  1.00  0.00     0.180 A 
ATOM      2  C   UNL     1      17.317  60.956  15.966  1.00  0.00     0.208 A 
ATOM      3  C   UNL     1      16.047  61.548  16.052  1.00  0.00     0.238 A 
ATOM      4  O   UNL     1      15.970  62.786  16.265  1.00  0.00    -0.285 OA
ATOM      5  C   UNL     1      14.886  60.745  15.944  1.00  0.00     0.111 A 
ATOM      6  C   UNL     1      13.550  61.244  15.977  1.00  0.00     0.134 A 
ATOM      7  C   UNL     1      12.477  60.343  15.993  1.00  0.00     0.093 A 
ATOM      8  C   UNL     1      12.691  58.965  15.910  1.00  0.00     0.123 A 
ATOM      9  C   UNL     1      13.990  58.472  15.817  1.00  0.00     0.094 A 
ATOM     10  C   UNL     1      15.082  59.343  15.836  1.00  0.00     0.146 A 
ATOM     11  O   UNL     1      16.305  58.831  15.756  1.00  0.00    -0.452 OA
ENDROOT
BRANCH   1  12
ATOM     12  C   UNL     1      18.713  58.872  15.663  1.00  0.00     0.025 A 
ATOM     13  C   UNL     1      19.463  58.934  14.476  1.00  0.00     0.016 A 
ATOM     14  C   UNL     1      20.679  58.252  14.372  1.00  0.00     0.051 A 
ATOM     15  C   UNL     1      21.155  57.489  15.445  1.00  0.00     0.157 A 
ATOM     16  C   UNL     1      19.185  58.089  16.729  1.00  0.00     0.062 A 
ATOM     17  C   UNL     1      20.402  57.405  16.628  1.00  0.00     0.158 A 
BRANCH  15  18
ATOM     18  O   UNL     1      22.369  56.811  15.340  1.00  0.00    -0.504 OA
ATOM     19  H   UNL     1      23.224  57.292  15.087  1.00  0.00     0.293 HD
ENDBRANCH  15  18
BRANCH  17  20
ATOM     20  O   UNL     1      20.845  56.648  17.713  1.00  0.00    -0.504 OA
ATOM     21  H   UNL     1      20.385  56.677  18.614  1.00  0.00     0.293 HD
ENDBRANCH  17  20
ENDBRANCH   1  12
BRANCH   2  22
ATOM     22  O   UNL     1      18.475  61.728  16.092  1.00  0.00    -0.502 OA
ATOM     23  H   UNL     1      18.985  62.079  15.290  1.00  0.00     0.293 HD
ENDBRANCH   2  22
BRANCH   6  24
ATOM     24  O   UNL     1      13.223  62.603  15.968  1.00  0.00    -0.507 OA
ATOM     25  H   UNL     1      13.891  63.355  16.051  1.00  0.00     0.293 HD
ENDBRANCH   6  24
BRANCH   8  26
ATOM     26  O   UNL     1      11.618  58.078  15.910  1.00  0.00    -0.508 OA
ATOM     27  H   UNL     1      10.997  57.997  16.706  1.00  0.00     0.293 HD
ENDBRANCH   8  26
TORSDOF 6
ENDMDL
MODEL 7
REMARK VINA RESULT:    -6.640      2.689      7.080
REMARK INTER + INTRA:          -7.884
REMARK INTER:                  -7.607
REMARK INTRA:                  -0.277
REMARK UNBOUND:                 0.114
REMARK SMILES O=c1c(O)c(-c2ccc(O)c(O)c2)oc2cc(O)cc(O)c12
REMARK SMILES IDX 5 1 3 2 2 3 1 4 22 5 20 6 19 7 17 8 16 9 15 10 14 11 6 12
REMARK SMILES IDX 7 13 8 14 9 15 13 16 11 17 10 18 12 20 4 22 21 24 18 26
REMARK H PARENT 10 19 12 21 4 23 21 25 18 27
REMARK Flexibility Score: inf
ROOT
ATOM      1  C   UNL     1      15.804  69.801  17.822  1.00  0.00     0.180 A 
ATOM      2  C   UNL     1      16.037  70.789  16.850  1.00  0.00     0.208 A 
ATOM      3  C   UNL     1      16.458  72.064  17.261  1.00  0.00     0.238 A 
ATOM      4  O   UNL     1      16.716  72.927  16.383  1.00  0.00    -0.285 OA
ATOM      5  C   UNL     1      16.626  72.339  18.640  1.00  0.00     0.111 A 
ATOM      6  C   UNL     1      17.010  73.607  19.171  1.00  0.00     0.134 A 
ATOM      7  C   UNL     1      17.273  73.729  20.542  1.00  0.00     0.093 A 
ATOM      8  C   UNL     1      17.103  72.647  21.408  1.00  0.00     0.123 A 
ATOM      9  C   UNL     1      16.671  71.422  20.907  1.00  0.00     0.094 A 
ATOM     10  C   UNL     1      16.435  71.258  19.539  1.00  0.00     0.146 A 
ATOM     11  O   UNL     1      16.034  70.070  19.102  1.00  0.00    -0.452 OA
ENDROOT
BRANCH   1  12
ATOM     12  C   UNL     1      15.335  68.442  17.468  1.00  0.00     0.025 A 
ATOM     13  C   UNL     1      16.219  67.351  17.425  1.00  0.00     0.016 A 
ATOM     14  C   UNL     1      15.759  66.081  17.065  1.00  0.00     0.051 A 
ATOM     15  C   UNL     1      14.413  65.886  16.730  1.00  0.00     0.157 A 
ATOM     16  C   UNL     1      13.990  68.245  17.111  1.00  0.00     0.062 A 
ATOM     17  C   UNL     1      13.526  66.976  16.751  1.00  0.00     0.158 A 
BRANCH  15  18
ATOM     18  O   UNL     1      13.955  64.619  16.374  1.00  0.00    -0.504 OA
ATOM     19  H   UNL     1      14.539  63.797  16.475  1.00  0.00     0.293 HD
ENDBRANCH  15  18
BRANCH  17  20
ATOM     20  O   UNL     1      12.181  66.816  16.416  1.00  0.00    -0.504 OA
ATOM     21  H   UNL     1      11.840  65.994  15.932  1.00  0.00     0.293 HD
ENDBRANCH  17  20
ENDBRANCH   1  12
BRANCH   2  22
ATOM     22  O   UNL     1      15.885  70.489  15.493  1.00  0.00    -0.502 OA
ATOM     23  H   UNL     1      16.674  70.293  14.888  1.00  0.00     0.293 HD
ENDBRANCH   2  22
BRANCH   6  24
ATOM     24  O   UNL     1      17.120  74.773  18.408  1.00  0.00    -0.507 OA
ATOM     25  H   UNL     1      17.803  75.499  18.564  1.00  0.00     0.293 HD
ENDBRANCH   6  24
BRANCH   8  26
ATOM     26  O   UNL     1      17.352  72.782  22.772  1.00  0.00    -0.508 OA
ATOM     27  H   UNL     1      17.995  73.479  23.127  1.00  0.00     0.293 HD
ENDBRANCH   8  26
TORSDOF 6
ENDMDL
MODEL 8
REMARK VINA RESULT:    -6.606      9.678     12.172
REMARK INTER + INTRA:          -7.843
REMARK INTER:                  -7.607
REMARK INTRA:                  -0.236
REMARK UNBOUND:                 0.114
REMARK SMILES O=c1c(O)c(-c2ccc(O)c(O)c2)oc2cc(O)cc(O)c12
REMARK SMILES IDX 5 1 3 2 2 3 1 4 22 5 20 6 19 7 17 8 16 9 15 10 14 11 6 12
REMARK SMILES IDX 7 13 8 14 9 15 13 16 11 17 10 18 12 20 4 22 21 24 18 26
REMARK H PARENT 10 19 12 21 4 23 21 25 18 27
REMARK Flexibility Score: inf
ROOT
ATOM      1  C   UNL     1      19.083  60.106  16.870  1.00  0.00     0.180 A 
ATOM      2  C   UNL     1      19.269  58.721  16.721  1.00  0.00     0.208 A 
ATOM      3  C   UNL     1      20.570  58.223  16.549  1.00  0.00     0.238 A 
ATOM      4  O   UNL     1      20.735  56.977  16.470  1.00  0.00    -0.285 OA
ATOM      5  C   UNL     1      21.667  59.116  16.513  1.00  0.00     0.111 A 
ATOM      6  C   UNL     1      23.024  58.726  16.305  1.00  0.00     0.134 A 
ATOM      7  C   UNL     1      24.043  59.680  16.419  1.00  0.00     0.093 A 
ATOM      8  C   UNL     1      23.748  61.023  16.670  1.00  0.00     0.123 A 
ATOM      9  C   UNL     1      22.423  61.423  16.816  1.00  0.00     0.094 A 
ATOM     10  C   UNL     1      21.387  60.489  16.743  1.00  0.00     0.146 A 
ATOM     11  O   UNL     1      20.138  60.912  16.899  1.00  0.00    -0.452 OA
ENDROOT
BRANCH   1  12
ATOM     12  C   UNL     1      17.740  60.708  17.030  1.00  0.00     0.025 A 
ATOM     13  C   UNL     1      16.816  60.727  15.971  1.00  0.00     0.016 A 
ATOM     14  C   UNL     1      15.562  61.322  16.138  1.00  0.00     0.051 A 
ATOM     15  C   UNL     1      15.219  61.918  17.358  1.00  0.00     0.157 A 
ATOM     16  C   UNL     1      17.398  61.325  18.245  1.00  0.00     0.062 A 
ATOM     17  C   UNL     1      16.144  61.922  18.415  1.00  0.00     0.158 A 
BRANCH  15  18
ATOM     18  O   UNL     1      13.967  62.510  17.522  1.00  0.00    -0.504 OA
ATOM     19  H   UNL     1      13.309  62.579  16.754  1.00  0.00     0.293 HD
ENDBRANCH  15  18
BRANCH  17  20
ATOM     20  O   UNL     1      15.836  62.514  19.640  1.00  0.00    -0.504 OA
ATOM     21  H   UNL     1      16.450  63.186  20.083  1.00  0.00     0.293 HD
ENDBRANCH  17  20
ENDBRANCH   1  12
BRANCH   2  22
ATOM     22  O   UNL     1      18.174  57.854  16.782  1.00  0.00    -0.502 OA
ATOM     23  H   UNL     1      18.195  56.986  17.303  1.00  0.00     0.293 HD
ENDBRANCH   2  22
BRANCH   6  24
ATOM     24  O   UNL     1      23.419  57.430  15.959  1.00  0.00    -0.507 OA
ATOM     25  H   UNL     1      23.733  57.151  15.042  1.00  0.00     0.293 HD
ENDBRANCH   6  24
BRANCH   8  26
ATOM     26  O   UNL     1      24.767  61.968  16.766  1.00  0.00    -0.508 OA
ATOM     27  H   UNL     1      24.687  62.879  16.332  1.00  0.00     0.293 HD
ENDBRANCH   8  26
TORSDOF 6
ENDMDL
MODEL 9
REMARK VINA RESULT:    -6.605      8.083     11.220
REMARK INTER + INTRA:          -7.843
REMARK INTER:                  -7.524
REMARK INTRA:                  -0.319
REMARK UNBOUND:                 0.114
REMARK SMILES O=c1c(O)c(-c2ccc(O)c(O)c2)oc2cc(O)cc(O)c12
REMARK SMILES IDX 5 1 3 2 2 3 1 4 22 5 20 6 19 7 17 8 16 9 15 10 14 11 6 12
REMARK SMILES IDX 7 13 8 14 9 15 13 16 11 17 10 18 12 20 4 22 21 24 18 26
REMARK H PARENT 10 19 12 21 4 23 21 25 18 27
REMARK Flexibility Score: inf
ROOT
ATOM      1  C   UNL     1      20.940  61.874  15.442  1.00  0.00     0.180 A 
ATOM      2  C   UNL     1      22.341  61.815  15.548  1.00  0.00     0.208 A 
ATOM      3  C   UNL     1      22.942  60.622  15.979  1.00  0.00     0.238 A 
ATOM      4  O   UNL     1      24.198  60.558  16.021  1.00  0.00    -0.285 OA
ATOM      5  C   UNL     1      22.135  59.508  16.314  1.00  0.00     0.111 A 
ATOM      6  C   UNL     1      22.635  58.262  16.800  1.00  0.00     0.134 A 
ATOM      7  C   UNL     1      21.755  57.186  16.975  1.00  0.00     0.093 A 
ATOM      8  C   UNL     1      20.385  57.330  16.743  1.00  0.00     0.123 A 
ATOM      9  C   UNL     1      19.880  58.559  16.326  1.00  0.00     0.094 A 
ATOM     10  C   UNL     1      20.737  59.641  16.108  1.00  0.00     0.146 A 
ATOM     11  O   UNL     1      20.215  60.792  15.700  1.00  0.00    -0.452 OA
ENDROOT
BRANCH   1  12
ATOM     12  C   UNL     1      20.233  63.103  15.019  1.00  0.00     0.025 A 
ATOM     13  C   UNL     1      19.906  63.332  13.671  1.00  0.00     0.016 A 
ATOM     14  C   UNL     1      19.259  64.511  13.290  1.00  0.00     0.051 A 
ATOM     15  C   UNL     1      18.942  65.484  14.247  1.00  0.00     0.157 A 
ATOM     16  C   UNL     1      19.932  64.092  15.970  1.00  0.00     0.062 A 
ATOM     17  C   UNL     1      19.284  65.273  15.594  1.00  0.00     0.158 A 
BRANCH  15  18
ATOM     18  O   UNL     1      18.295  66.658  13.866  1.00  0.00    -0.504 OA
ATOM     19  H   UNL     1      17.917  67.302  14.551  1.00  0.00     0.293 HD
ENDBRANCH  15  18
BRANCH  17  20
ATOM     20  O   UNL     1      18.989  66.225  16.569  1.00  0.00    -0.504 OA
ATOM     21  H   UNL     1      19.698  66.836  16.957  1.00  0.00     0.293 HD
ENDBRANCH  17  20
ENDBRANCH   1  12
BRANCH   2  22
ATOM     22  O   UNL     1      23.119  62.919  15.192  1.00  0.00    -0.502 OA
ATOM     23  H   UNL     1      22.899  63.861  15.495  1.00  0.00     0.293 HD
ENDBRANCH   2  22
BRANCH   6  24
ATOM     24  O   UNL     1      23.970  58.040  17.150  1.00  0.00    -0.507 OA
ATOM     25  H   UNL     1      24.765  58.354  16.613  1.00  0.00     0.293 HD
ENDBRANCH   6  24
BRANCH   8  26
ATOM     26  O   UNL     1      19.516  56.259  16.934  1.00  0.00    -0.508 OA
ATOM     27  H   UNL     1      19.738  55.329  16.600  1.00  0.00     0.293 HD
ENDBRANCH   8  26
TORSDOF 6
ENDMDL
