MODEL 1
REMARK VINA RESULT:    -5.388      0.000      0.000
REMARK INTER + INTRA:          -8.600
REMARK INTER:                  -8.223
REMARK INTRA:                  -0.377
REMARK UNBOUND:                -0.377
REMARK SMILES O=C([O-])CCCCCCCCC(=O)[O-]
REMARK SMILES IDX 7 1 6 2 5 3 4 4 2 5 1 6 3 7 8 8 9 9 10 10 11 11 12 12 13 13
REMARK SMILES IDX 14 14
REMARK H PARENT
REMARK Flexibility Score: inf
ROOT
ATOM      1  C   UNL     1     101.440 306.077 194.753  1.00  0.00     0.000 C 
ENDROOT
BRANCH   1   2
ATOM      2  C   UNL     1     102.436 306.240 195.912  1.00  0.00     0.000 C 
BRANCH   2   3
ATOM      3  C   UNL     1     101.905 305.666 197.234  1.00  0.00     0.006 C 
BRANCH   3   4
ATOM      4  C   UNL     1     101.777 306.764 198.296  1.00  0.00     0.053 C 
BRANCH   4   5
ATOM      5  C   UNL     1     101.621 306.162 199.656  1.00  0.00     0.041 C 
ATOM      6  O   UNL     1     100.478 305.852 200.086  1.00  0.00    -0.550 OA
ATOM      7  O   UNL     1     102.743 305.896 200.432  1.00  0.00    -0.550 OA
ENDBRANCH   4   5
ENDBRANCH   3   4
ENDBRANCH   2   3
ENDBRANCH   1   2
BRANCH   1   8
ATOM      8  C   UNL     1     102.134 305.846 193.403  1.00  0.00     0.000 C 
BRANCH   8   9
ATOM      9  C   UNL     1     103.605 306.277 193.461  1.00  0.00     0.000 C 
BRANCH   9  10
ATOM     10  C   UNL     1     103.910 307.339 192.393  1.00  0.00     0.006 C 
BRANCH  10  11
ATOM     11  C   UNL     1     102.636 307.894 191.745  1.00  0.00     0.053 C 
BRANCH  11  12
ATOM     12  C   UNL     1     102.947 308.775 190.574  1.00  0.00     0.041 C 
ATOM     13  O   UNL     1     104.108 309.234 190.415  1.00  0.00    -0.550 OA
ATOM     14  O   UNL     1     101.943 309.115 189.675  1.00  0.00    -0.550 OA
ENDBRANCH  11  12
ENDBRANCH  10  11
ENDBRANCH   9  10
ENDBRANCH   8   9
ENDBRANCH   1   8
TORSDOF 9
ENDMDL
MODEL 2
REMARK VINA RESULT:    -5.331     19.941     20.620
REMARK INTER + INTRA:          -8.514
REMARK INTER:                  -8.114
REMARK INTRA:                  -0.400
REMARK UNBOUND:                -0.377
REMARK SMILES O=C([O-])CCCCCCCCC(=O)[O-]
REMARK SMILES IDX 7 1 6 2 5 3 4 4 2 5 1 6 3 7 8 8 9 9 10 10 11 11 12 12 13 13
REMARK SMILES IDX 14 14
REMARK H PARENT
REMARK Flexibility Score: inf
ROOT
ATOM      1  C   UNL     1      87.365 320.623 195.732  1.00  0.00     0.000 C 
ENDROOT
BRANCH   1   2
ATOM      2  C   UNL     1      86.436 320.212 196.885  1.00  0.00     0.000 C 
BRANCH   2   3
ATOM      3  C   UNL     1      87.208 319.783 198.142  1.00  0.00     0.006 C 
BRANCH   3   4
ATOM      4  C   UNL     1      87.398 320.967 199.098  1.00  0.00     0.053 C 
BRANCH   4   5
ATOM      5  C   UNL     1      87.793 320.484 200.457  1.00  0.00     0.041 C 
ATOM      6  O   UNL     1      86.980 320.556 201.417  1.00  0.00    -0.550 OA
ATOM      7  O   UNL     1      89.042 319.908 200.655  1.00  0.00    -0.550 OA
ENDBRANCH   4   5
ENDBRANCH   3   4
ENDBRANCH   2   3
ENDBRANCH   1   2
BRANCH   1   8
ATOM      8  C   UNL     1      86.599 320.942 194.439  1.00  0.00     0.000 C 
BRANCH   8   9
ATOM      9  C   UNL     1      85.131 320.517 194.552  1.00  0.00     0.000 C 
BRANCH   9  10
ATOM     10  C   UNL     1      84.774 319.475 193.480  1.00  0.00     0.006 C 
BRANCH  10  11
ATOM     11  C   UNL     1      86.018 318.910 192.784  1.00  0.00     0.053 C 
BRANCH  11  12
ATOM     12  C   UNL     1      85.658 318.082 191.589  1.00  0.00     0.041 C 
ATOM     13  O   UNL     1      86.476 317.941 190.643  1.00  0.00    -0.550 OA
ATOM     14  O   UNL     1      84.403 317.491 191.505  1.00  0.00    -0.550 OA
ENDBRANCH  11  12
ENDBRANCH  10  11
ENDBRANCH   9  10
ENDBRANCH   8   9
ENDBRANCH   1   8
TORSDOF 9
ENDMDL
MODEL 3
REMARK VINA RESULT:    -5.296      1.327      7.110
REMARK INTER + INTRA:          -8.460
REMARK INTER:                  -7.928
REMARK INTRA:                  -0.533
REMARK UNBOUND:                -0.377
REMARK SMILES O=C([O-])CCCCCCCCC(=O)[O-]
REMARK SMILES IDX 7 1 6 2 5 3 4 4 2 5 1 6 3 7 8 8 9 9 10 10 11 11 12 12 13 13
REMARK SMILES IDX 14 14
REMARK H PARENT
REMARK Flexibility Score: inf
ROOT
ATOM      1  C   UNL     1     102.194 305.780 193.206  1.00  0.00     0.000 C 
ENDROOT
BRANCH   1   2
ATOM      2  C   UNL     1     103.652 306.262 193.162  1.00  0.00     0.000 C 
BRANCH   2   3
ATOM      3  C   UNL     1     103.852 307.457 192.218  1.00  0.00     0.006 C 
BRANCH   3   4
ATOM      4  C   UNL     1     102.516 307.911 191.619  1.00  0.00     0.053 C 
BRANCH   4   5
ATOM      5  C   UNL     1     102.121 309.244 192.171  1.00  0.00     0.041 C 
ATOM      6  O   UNL     1     101.978 310.232 191.401  1.00  0.00    -0.550 OA
ATOM      7  O   UNL     1     101.862 309.387 193.528  1.00  0.00    -0.550 OA
ENDBRANCH   4   5
ENDBRANCH   3   4
ENDBRANCH   2   3
ENDBRANCH   1   2
BRANCH   1   8
ATOM      8  C   UNL     1     101.525 306.037 194.565  1.00  0.00     0.000 C 
BRANCH   8   9
ATOM      9  C   UNL     1     102.575 306.285 195.655  1.00  0.00     0.000 C 
BRANCH   9  10
ATOM     10  C   UNL     1     101.911 306.727 196.969  1.00  0.00     0.006 C 
BRANCH  10  11
ATOM     11  C   UNL     1     101.855 305.594 198.000  1.00  0.00     0.053 C 
BRANCH  11  12
ATOM     12  C   UNL     1     101.553 306.108 199.374  1.00  0.00     0.041 C 
ATOM     13  O   UNL     1     100.505 306.773 199.587  1.00  0.00    -0.550 OA
ATOM     14  O   UNL     1     102.446 305.880 200.414  1.00  0.00    -0.550 OA
ENDBRANCH  11  12
ENDBRANCH  10  11
ENDBRANCH   9  10
ENDBRANCH   8   9
ENDBRANCH   1   8
TORSDOF 9
ENDMDL
MODEL 4
REMARK VINA RESULT:    -5.218     20.034     21.769
REMARK INTER + INTRA:          -8.341
REMARK INTER:                  -7.980
REMARK INTRA:                  -0.362
REMARK UNBOUND:                -0.377
REMARK SMILES O=C([O-])CCCCCCCCC(=O)[O-]
REMARK SMILES IDX 7 1 6 2 5 3 4 4 2 5 1 6 3 7 8 8 9 9 10 10 11 11 12 12 13 13
REMARK SMILES IDX 14 14
REMARK H PARENT
REMARK Flexibility Score: inf
ROOT
ATOM      1  C   UNL     1      86.750 320.792 194.766  1.00  0.00     0.000 C 
ENDROOT
BRANCH   1   2
ATOM      2  C   UNL     1      85.237 320.530 194.705  1.00  0.00     0.000 C 
BRANCH   2   3
ATOM      3  C   UNL     1      84.846 319.583 193.560  1.00  0.00     0.006 C 
BRANCH   3   4
ATOM      4  C   UNL     1      86.082 319.145 192.766  1.00  0.00     0.053 C 
BRANCH   4   5
ATOM      5  C   UNL     1      85.688 318.237 191.644  1.00  0.00     0.041 C 
ATOM      6  O   UNL     1      84.542 317.713 191.624  1.00  0.00    -0.550 OA
ATOM      7  O   UNL     1      86.568 318.006 190.595  1.00  0.00    -0.550 OA
ENDBRANCH   4   5
ENDBRANCH   3   4
ENDBRANCH   2   3
ENDBRANCH   1   2
BRANCH   1   8
ATOM      8  C   UNL     1      87.397 320.234 196.042  1.00  0.00     0.000 C 
BRANCH   8   9
ATOM      9  C   UNL     1      86.437 320.335 197.233  1.00  0.00     0.000 C 
BRANCH   9  10
ATOM     10  C   UNL     1      87.132 320.968 198.450  1.00  0.00     0.006 C 
BRANCH  10  11
ATOM     11  C   UNL     1      87.566 319.919 199.481  1.00  0.00     0.053 C 
BRANCH  11  12
ATOM     12  C   UNL     1      87.793 320.528 200.830  1.00  0.00     0.041 C 
ATOM     13  O   UNL     1      88.863 321.144 201.077  1.00  0.00    -0.550 OA
ATOM     14  O   UNL     1      86.835 320.387 201.827  1.00  0.00    -0.550 OA
ENDBRANCH  11  12
ENDBRANCH  10  11
ENDBRANCH   9  10
ENDBRANCH   8   9
ENDBRANCH   1   8
TORSDOF 9
ENDMDL
MODEL 5
REMARK VINA RESULT:    -5.205      1.751      2.676
REMARK INTER + INTRA:          -8.322
REMARK INTER:                  -7.887
REMARK INTRA:                  -0.434
REMARK UNBOUND:                -0.377
REMARK SMILES O=C([O-])CCCCCCCCC(=O)[O-]
REMARK SMILES IDX 7 1 6 2 5 3 4 4 2 5 1 6 3 7 8 8 9 9 10 10 11 11 12 12 13 13
REMARK SMILES IDX 14 14
REMARK H PARENT
REMARK Flexibility Score: inf
ROOT
ATOM      1  C   UNL     1     103.602 306.182 193.358  1.00  0.00     0.000 C 
ENDROOT
BRANCH   1   2
ATOM      2  C   UNL     1     102.103 305.844 193.349  1.00  0.00     0.000 C 
BRANCH   2   3
ATOM      3  C   UNL     1     101.451 306.007 194.730  1.00  0.00     0.006 C 
BRANCH   3   4
ATOM      4  C   UNL     1     102.457 306.554 195.749  1.00  0.00     0.053 C 
BRANCH   4   5
ATOM      5  C   UNL     1     101.972 306.314 197.144  1.00  0.00     0.041 C 
ATOM      6  O   UNL     1     101.658 305.152 197.515  1.00  0.00    -0.550 OA
ATOM      7  O   UNL     1     101.915 307.366 198.050  1.00  0.00    -0.550 OA
ENDBRANCH   4   5
ENDBRANCH   3   4
ENDBRANCH   2   3
ENDBRANCH   1   2
BRANCH   1   8
ATOM      8  C   UNL     1     103.971 307.265 192.334  1.00  0.00     0.000 C 
BRANCH   8   9
ATOM      9  C   UNL     1     102.715 307.952 191.784  1.00  0.00     0.000 C 
BRANCH   9  10
ATOM     10  C   UNL     1     103.068 308.902 190.629  1.00  0.00     0.006 C 
BRANCH  10  11
ATOM     11  C   UNL     1     101.883 309.130 189.682  1.00  0.00     0.053 C 
BRANCH  11  12
ATOM     12  C   UNL     1     102.068 310.359 188.846  1.00  0.00     0.041 C 
ATOM     13  O   UNL     1     102.425 310.261 187.643  1.00  0.00    -0.550 OA
ATOM     14  O   UNL     1     101.877 311.616 189.407  1.00  0.00    -0.550 OA
ENDBRANCH  11  12
ENDBRANCH  10  11
ENDBRANCH   9  10
ENDBRANCH   8   9
ENDBRANCH   1   8
TORSDOF 9
ENDMDL
MODEL 6
REMARK VINA RESULT:    -5.138      3.053      6.014
REMARK INTER + INTRA:          -8.219
REMARK INTER:                  -7.249
REMARK INTRA:                  -0.970
REMARK UNBOUND:                -0.377
REMARK SMILES O=C([O-])CCCCCCCCC(=O)[O-]
REMARK SMILES IDX 7 1 6 2 5 3 4 4 2 5 1 6 3 7 8 8 9 9 10 10 11 11 12 12 13 13
REMARK SMILES IDX 14 14
REMARK H PARENT
REMARK Flexibility Score: inf
ROOT
ATOM      1  C   UNL     1     102.194 305.753 193.339  1.00  0.00     0.000 C 
ENDROOT
BRANCH   1   2
ATOM      2  C   UNL     1     103.648 306.245 193.275  1.00  0.00     0.000 C 
BRANCH   2   3
ATOM      3  C   UNL     1     103.845 307.381 192.260  1.00  0.00     0.006 C 
BRANCH   3   4
ATOM      4  C   UNL     1     102.514 307.762 191.601  1.00  0.00     0.053 C 
BRANCH   4   5
ATOM      5  C   UNL     1     102.727 308.818 190.564  1.00  0.00     0.041 C 
ATOM      6  O   UNL     1     101.743 309.318 189.956  1.00  0.00    -0.550 OA
ATOM      7  O   UNL     1     104.008 309.288 190.302  1.00  0.00    -0.550 OA
ENDBRANCH   4   5
ENDBRANCH   3   4
ENDBRANCH   2   3
ENDBRANCH   1   2
BRANCH   1   8
ATOM      8  C   UNL     1     101.510 306.100 194.670  1.00  0.00     0.000 C 
BRANCH   8   9
ATOM      9  C   UNL     1     102.535 306.572 195.708  1.00  0.00     0.000 C 
BRANCH   9  10
ATOM     10  C   UNL     1     102.247 308.016 196.150  1.00  0.00     0.006 C 
BRANCH  10  11
ATOM     11  C   UNL     1     101.360 308.764 195.147  1.00  0.00     0.053 C 
BRANCH  11  12
ATOM     12  C   UNL     1     102.103 309.874 194.469  1.00  0.00     0.041 C 
ATOM     13  O   UNL     1     103.266 310.180 194.840  1.00  0.00    -0.550 OA
ATOM     14  O   UNL     1     101.495 310.594 193.447  1.00  0.00    -0.550 OA
ENDBRANCH  11  12
ENDBRANCH  10  11
ENDBRANCH   9  10
ENDBRANCH   8   9
ENDBRANCH   1   8
TORSDOF 9
ENDMDL
MODEL 7
REMARK VINA RESULT:    -5.133      1.651      7.664
REMARK INTER + INTRA:          -8.210
REMARK INTER:                  -7.732
REMARK INTRA:                  -0.478
REMARK UNBOUND:                -0.377
REMARK SMILES O=C([O-])CCCCCCCCC(=O)[O-]
REMARK SMILES IDX 7 1 6 2 5 3 4 4 2 5 1 6 3 7 8 8 9 9 10 10 11 11 12 12 13 13
REMARK SMILES IDX 14 14
REMARK H PARENT
REMARK Flexibility Score: inf
ROOT
ATOM      1  C   UNL     1     102.206 307.397 192.038  1.00  0.00     0.000 C 
ENDROOT
BRANCH   1   2
ATOM      2  C   UNL     1     103.608 307.941 191.724  1.00  0.00     0.000 C 
BRANCH   2   3
ATOM      3  C   UNL     1     103.592 309.029 190.639  1.00  0.00     0.006 C 
BRANCH   3   4
ATOM      4  C   UNL     1     102.158 309.485 190.344  1.00  0.00     0.053 C 
BRANCH   4   5
ATOM      5  C   UNL     1     101.952 309.641 188.871  1.00  0.00     0.041 C 
ATOM      6  O   UNL     1     100.918 309.174 188.322  1.00  0.00    -0.550 OA
ATOM      7  O   UNL     1     102.875 310.346 188.110  1.00  0.00    -0.550 OA
ENDBRANCH   4   5
ENDBRANCH   3   4
ENDBRANCH   2   3
ENDBRANCH   1   2
BRANCH   1   8
ATOM      8  C   UNL     1     102.241 306.161 192.950  1.00  0.00     0.000 C 
BRANCH   8   9
ATOM      9  C   UNL     1     103.606 306.022 193.634  1.00  0.00     0.000 C 
BRANCH   9  10
ATOM     10  C   UNL     1     103.488 306.251 195.150  1.00  0.00     0.006 C 
BRANCH  10  11
ATOM     11  C   UNL     1     102.029 306.331 195.613  1.00  0.00     0.053 C 
BRANCH  11  12
ATOM     12  C   UNL     1     101.927 306.609 197.082  1.00  0.00     0.041 C 
ATOM     13  O   UNL     1     101.804 305.661 197.901  1.00  0.00    -0.550 OA
ATOM     14  O   UNL     1     101.934 307.920 197.543  1.00  0.00    -0.550 OA
ENDBRANCH  11  12
ENDBRANCH  10  11
ENDBRANCH   9  10
ENDBRANCH   8   9
ENDBRANCH   1   8
TORSDOF 9
ENDMDL
MODEL 8
REMARK VINA RESULT:    -5.132      1.299      7.546
REMARK INTER + INTRA:          -8.210
REMARK INTER:                  -7.768
REMARK INTRA:                  -0.442
REMARK UNBOUND:                -0.377
REMARK SMILES O=C([O-])CCCCCCCCC(=O)[O-]
REMARK SMILES IDX 7 1 6 2 5 3 4 4 2 5 1 6 3 7 8 8 9 9 10 10 11 11 12 12 13 13
REMARK SMILES IDX 14 14
REMARK H PARENT
REMARK Flexibility Score: inf
ROOT
ATOM      1  C   UNL     1     101.444 306.248 194.872  1.00  0.00     0.000 C 
ENDROOT
BRANCH   1   2
ATOM      2  C   UNL     1     102.168 305.874 193.569  1.00  0.00     0.000 C 
BRANCH   2   3
ATOM      3  C   UNL     1     103.680 306.134 193.635  1.00  0.00     0.006 C 
BRANCH   3   4
ATOM      4  C   UNL     1     104.125 307.065 192.502  1.00  0.00     0.053 C 
BRANCH   4   5
ATOM      5  C   UNL     1     103.329 308.332 192.521  1.00  0.00     0.041 C 
ATOM      6  O   UNL     1     102.582 308.627 191.550  1.00  0.00    -0.550 OA
ATOM      7  O   UNL     1     103.372 309.163 193.633  1.00  0.00    -0.550 OA
ENDBRANCH   4   5
ENDBRANCH   3   4
ENDBRANCH   2   3
ENDBRANCH   1   2
BRANCH   1   8
ATOM      8  C   UNL     1     102.405 306.397 196.061  1.00  0.00     0.000 C 
BRANCH   8   9
ATOM      9  C   UNL     1     101.874 305.655 197.292  1.00  0.00     0.000 C 
BRANCH   9  10
ATOM     10  C   UNL     1     101.767 306.598 198.501  1.00  0.00     0.006 C 
BRANCH  10  11
ATOM     11  C   UNL     1     101.309 305.867 199.769  1.00  0.00     0.053 C 
BRANCH  11  12
ATOM     12  C   UNL     1     102.221 306.137 200.926  1.00  0.00     0.041 C 
ATOM     13  O   UNL     1     102.023 305.575 202.035  1.00  0.00    -0.550 OA
ATOM     14  O   UNL     1     103.271 307.036 200.788  1.00  0.00    -0.550 OA
ENDBRANCH  11  12
ENDBRANCH  10  11
ENDBRANCH   9  10
ENDBRANCH   8   9
ENDBRANCH   1   8
TORSDOF 9
ENDMDL
MODEL 9
REMARK VINA RESULT:    -5.083      2.617      3.154
REMARK INTER + INTRA:          -8.135
REMARK INTER:                  -7.317
REMARK INTRA:                  -0.818
REMARK UNBOUND:                -0.377
REMARK SMILES O=C([O-])CCCCCCCCC(=O)[O-]
REMARK SMILES IDX 7 1 6 2 5 3 4 4 2 5 1 6 3 7 8 8 9 9 10 10 11 11 12 12 13 13
REMARK SMILES IDX 14 14
REMARK H PARENT
REMARK Flexibility Score: inf
ROOT
ATOM      1  C   UNL     1     101.474 306.139 194.587  1.00  0.00     0.000 C 
ENDROOT
BRANCH   1   2
ATOM      2  C   UNL     1     102.391 306.259 195.814  1.00  0.00     0.000 C 
BRANCH   2   3
ATOM      3  C   UNL     1     102.190 307.578 196.576  1.00  0.00     0.006 C 
BRANCH   3   4
ATOM      4  C   UNL     1     101.386 308.577 195.737  1.00  0.00     0.053 C 
BRANCH   4   5
ATOM      5  C   UNL     1     102.218 309.777 195.412  1.00  0.00     0.041 C 
ATOM      6  O   UNL     1     102.317 310.177 194.222  1.00  0.00    -0.550 OA
ATOM      7  O   UNL     1     102.845 310.485 196.430  1.00  0.00    -0.550 OA
ENDBRANCH   4   5
ENDBRANCH   3   4
ENDBRANCH   2   3
ENDBRANCH   1   2
BRANCH   1   8
ATOM      8  C   UNL     1     102.239 305.757 193.311  1.00  0.00     0.000 C 
BRANCH   8   9
ATOM      9  C   UNL     1     103.691 306.243 193.375  1.00  0.00     0.000 C 
BRANCH   9  10
ATOM     10  C   UNL     1     103.932 307.395 192.386  1.00  0.00     0.006 C 
BRANCH  10  11
ATOM     11  C   UNL     1     102.644 307.830 191.678  1.00  0.00     0.053 C 
BRANCH  11  12
ATOM     12  C   UNL     1     102.915 308.834 190.599  1.00  0.00     0.041 C 
ATOM     13  O   UNL     1     104.057 309.352 190.487  1.00  0.00    -0.550 OA
ATOM     14  O   UNL     1     101.896 309.221 189.737  1.00  0.00    -0.550 OA
ENDBRANCH  11  12
ENDBRANCH  10  11
ENDBRANCH   9  10
ENDBRANCH   8   9
ENDBRANCH   1   8
TORSDOF 9
ENDMDL
