MODEL 1
REMARK VINA RESULT:    -3.452      0.000      0.000
REMARK INTER + INTRA:          -3.553
REMARK INTER:                  -3.553
REMARK INTRA:                   0.000
REMARK UNBOUND:                 0.000
REMARK SMILES CC1(C)[C@H]2CC[C@]1(C)[C@H](O)C2
REMARK SMILES IDX 1 1 2 2 4 3 5 4 6 5 7 6 9 7 11 8 8 9 3 10 10 11
REMARK H PARENT 10 12
REMARK Flexibility Score: inf
ROOT
ATOM      1  C   UNL     1       0.012   2.536  -7.597  1.00  0.00     0.012 C 
ATOM      2  C   UNL     1      -0.048   3.677  -6.535  1.00  0.00    -0.025 C 
ATOM      3  C   UNL     1       1.279   3.896  -5.787  1.00  0.00    -0.002 C 
ATOM      4  C   UNL     1       0.917   4.962  -4.724  1.00  0.00     0.005 C 
ATOM      5  C   UNL     1      -0.526   4.586  -4.340  1.00  0.00     0.010 C 
ATOM      6  C   UNL     1      -0.800   3.338  -5.226  1.00  0.00    -0.001 C 
ATOM      7  C   UNL     1       0.036   2.157  -4.645  1.00  0.00     0.121 C 
ATOM      8  C   UNL     1       1.482   2.568  -5.013  1.00  0.00     0.036 C 
ATOM      9  C   UNL     1      -2.291   3.012  -5.377  1.00  0.00     0.015 C 
ATOM     10  C   UNL     1      -0.559   4.940  -7.295  1.00  0.00     0.012 C 
ENDROOT
BRANCH   7  11
ATOM     11  O   UNL     1      -0.128   2.023  -3.256  1.00  0.00    -0.393 OA
ATOM     12  H   UNL     1       0.688   1.568  -2.920  1.00  0.00     0.210 HD
ENDBRANCH   7  11
TORSDOF 1
ENDMDL
MODEL 2
REMARK VINA RESULT:    -3.376     12.639     13.929
REMARK INTER + INTRA:          -3.475
REMARK INTER:                  -3.475
REMARK INTRA:                   0.000
REMARK UNBOUND:                 0.000
REMARK SMILES CC1(C)[C@H]2CC[C@]1(C)[C@H](O)C2
REMARK SMILES IDX 1 1 2 2 4 3 5 4 6 5 7 6 9 7 11 8 8 9 3 10 10 11
REMARK H PARENT 10 12
REMARK Flexibility Score: inf
ROOT
ATOM      1  C   UNL     1      -2.639  -0.835   8.334  1.00  0.00     0.012 C 
ATOM      2  C   UNL     1      -1.528   0.255   8.441  1.00  0.00    -0.025 C 
ATOM      3  C   UNL     1      -1.950   1.490   9.257  1.00  0.00    -0.002 C 
ATOM      4  C   UNL     1      -0.747   2.451   9.097  1.00  0.00     0.005 C 
ATOM      5  C   UNL     1      -0.280   2.178   7.654  1.00  0.00     0.010 C 
ATOM      6  C   UNL     1      -1.291   1.102   7.168  1.00  0.00    -0.001 C 
ATOM      7  C   UNL     1      -2.666   1.807   6.964  1.00  0.00     0.121 C 
ATOM      8  C   UNL     1      -3.103   2.100   8.419  1.00  0.00     0.036 C 
ATOM      9  C   UNL     1      -0.812   0.329   5.932  1.00  0.00     0.015 C 
ATOM     10  C   UNL     1      -0.269  -0.474   9.007  1.00  0.00     0.012 C 
ENDROOT
BRANCH   7  11
ATOM     11  O   UNL     1      -2.551   2.986   6.208  1.00  0.00    -0.393 OA
ATOM     12  H   UNL     1      -3.477   3.282   6.007  1.00  0.00     0.210 HD
ENDBRANCH   7  11
TORSDOF 1
ENDMDL
MODEL 3
REMARK VINA RESULT:    -3.316      1.573      3.025
REMARK INTER + INTRA:          -3.412
REMARK INTER:                  -3.412
REMARK INTRA:                   0.000
REMARK UNBOUND:                 0.000
REMARK SMILES CC1(C)[C@H]2CC[C@]1(C)[C@H](O)C2
REMARK SMILES IDX 1 1 2 2 4 3 5 4 6 5 7 6 9 7 11 8 8 9 3 10 10 11
REMARK H PARENT 10 12
REMARK Flexibility Score: inf
ROOT
ATOM      1  C   UNL     1       0.012   5.454  -5.678  1.00  0.00     0.012 C 
ATOM      2  C   UNL     1      -1.200   4.768  -6.382  1.00  0.00    -0.025 C 
ATOM      3  C   UNL     1      -2.492   4.787  -5.547  1.00  0.00    -0.002 C 
ATOM      4  C   UNL     1      -3.477   3.945  -6.394  1.00  0.00     0.005 C 
ATOM      5  C   UNL     1      -2.564   2.865  -7.007  1.00  0.00     0.010 C 
ATOM      6  C   UNL     1      -1.171   3.222  -6.414  1.00  0.00    -0.001 C 
ATOM      7  C   UNL     1      -1.193   2.845  -4.903  1.00  0.00     0.121 C 
ATOM      8  C   UNL     1      -2.137   3.919  -4.311  1.00  0.00     0.036 C 
ATOM      9  C   UNL     1      -0.003   2.592  -7.183  1.00  0.00     0.015 C 
ATOM     10  C   UNL     1      -1.337   5.468  -7.770  1.00  0.00     0.012 C 
ENDROOT
BRANCH   7  11
ATOM     11  O   UNL     1      -1.683   1.547  -4.685  1.00  0.00    -0.393 OA
ATOM     12  H   UNL     1      -1.573   1.363  -3.716  1.00  0.00     0.210 HD
ENDBRANCH   7  11
TORSDOF 1
ENDMDL
MODEL 4
REMARK VINA RESULT:    -3.306      1.128      2.874
REMARK INTER + INTRA:          -3.402
REMARK INTER:                  -3.402
REMARK INTRA:                   0.000
REMARK UNBOUND:                 0.000
REMARK SMILES CC1(C)[C@H]2CC[C@]1(C)[C@H](O)C2
REMARK SMILES IDX 1 1 2 2 4 3 5 4 6 5 7 6 9 7 11 8 8 9 3 10 10 11
REMARK H PARENT 10 12
REMARK Flexibility Score: inf
ROOT
ATOM      1  C   UNL     1       0.472   5.528  -4.144  1.00  0.00     0.012 C 
ATOM      2  C   UNL     1       0.431   4.663  -5.442  1.00  0.00    -0.025 C 
ATOM      3  C   UNL     1      -0.981   4.500  -6.032  1.00  0.00    -0.002 C 
ATOM      4  C   UNL     1      -0.765   3.513  -7.205  1.00  0.00     0.005 C 
ATOM      5  C   UNL     1       0.330   2.573  -6.664  1.00  0.00     0.010 C 
ATOM      6  C   UNL     1       0.589   3.138  -5.239  1.00  0.00    -0.001 C 
ATOM      7  C   UNL     1      -0.646   2.778  -4.359  1.00  0.00     0.121 C 
ATOM      8  C   UNL     1      -1.740   3.707  -4.936  1.00  0.00     0.036 C 
ATOM      9  C   UNL     1       1.922   2.679  -4.635  1.00  0.00     0.015 C 
ATOM     10  C   UNL     1       1.451   5.320  -6.424  1.00  0.00     0.012 C 
ENDROOT
BRANCH   7  11
ATOM     11  O   UNL     1      -1.002   1.424  -4.471  1.00  0.00    -0.393 OA
ATOM     12  H   UNL     1      -1.443   1.321  -5.355  1.00  0.00     0.210 HD
ENDBRANCH   7  11
TORSDOF 1
ENDMDL
MODEL 5
REMARK VINA RESULT:    -3.284     12.663     13.923
REMARK INTER + INTRA:          -3.380
REMARK INTER:                  -3.380
REMARK INTRA:                   0.000
REMARK UNBOUND:                 0.000
REMARK SMILES CC1(C)[C@H]2CC[C@]1(C)[C@H](O)C2
REMARK SMILES IDX 1 1 2 2 4 3 5 4 6 5 7 6 9 7 11 8 8 9 3 10 10 11
REMARK H PARENT 10 12
REMARK Flexibility Score: inf
ROOT
ATOM      1  C   UNL     1      -2.843   0.757   9.624  1.00  0.00     0.012 C 
ATOM      2  C   UNL     1      -2.132   0.369   8.291  1.00  0.00    -0.025 C 
ATOM      3  C   UNL     1      -0.720  -0.209   8.489  1.00  0.00    -0.002 C 
ATOM      4  C   UNL     1      -0.198  -0.380   7.042  1.00  0.00     0.005 C 
ATOM      5  C   UNL     1      -0.811   0.831   6.312  1.00  0.00     0.010 C 
ATOM      6  C   UNL     1      -1.596   1.549   7.446  1.00  0.00    -0.001 C 
ATOM      7  C   UNL     1      -0.551   2.206   8.397  1.00  0.00     0.121 C 
ATOM      8  C   UNL     1       0.075   0.976   9.097  1.00  0.00     0.036 C 
ATOM      9  C   UNL     1      -2.652   2.533   6.928  1.00  0.00     0.015 C 
ATOM     10  C   UNL     1      -3.110  -0.597   7.552  1.00  0.00     0.012 C 
ENDROOT
BRANCH   7  11
ATOM     11  O   UNL     1       0.413   2.950   7.696  1.00  0.00    -0.393 OA
ATOM     12  H   UNL     1       0.282   3.899   7.958  1.00  0.00     0.210 HD
ENDBRANCH   7  11
TORSDOF 1
ENDMDL
MODEL 6
REMARK VINA RESULT:    -3.279      1.603      2.690
REMARK INTER + INTRA:          -3.375
REMARK INTER:                  -3.375
REMARK INTRA:                   0.000
REMARK UNBOUND:                 0.000
REMARK SMILES CC1(C)[C@H]2CC[C@]1(C)[C@H](O)C2
REMARK SMILES IDX 1 1 2 2 4 3 5 4 6 5 7 6 9 7 11 8 8 9 3 10 10 11
REMARK H PARENT 10 12
REMARK Flexibility Score: inf
ROOT
ATOM      1  C   UNL     1      -0.924   5.770  -6.436  1.00  0.00     0.012 C 
ATOM      2  C   UNL     1      -0.484   4.544  -5.577  1.00  0.00    -0.025 C 
ATOM      3  C   UNL     1       0.168   3.417  -6.397  1.00  0.00    -0.002 C 
ATOM      4  C   UNL     1       0.381   2.294  -5.352  1.00  0.00     0.005 C 
ATOM      5  C   UNL     1      -0.853   2.436  -4.441  1.00  0.00     0.010 C 
ATOM      6  C   UNL     1      -1.624   3.617  -5.094  1.00  0.00    -0.001 C 
ATOM      7  C   UNL     1      -2.235   3.098  -6.431  1.00  0.00     0.121 C 
ATOM      8  C   UNL     1      -0.980   2.932  -7.321  1.00  0.00     0.036 C 
ATOM      9  C   UNL     1      -2.658   4.260  -4.161  1.00  0.00     0.015 C 
ATOM     10  C   UNL     1       0.436   5.119  -4.455  1.00  0.00     0.012 C 
ENDROOT
BRANCH   7  11
ATOM     11  O   UNL     1      -2.918   1.882  -6.266  1.00  0.00    -0.393 OA
ATOM     12  H   UNL     1      -3.578   2.026  -5.538  1.00  0.00     0.210 HD
ENDBRANCH   7  11
TORSDOF 1
ENDMDL
MODEL 7
REMARK VINA RESULT:    -3.262     12.521     13.801
REMARK INTER + INTRA:          -3.357
REMARK INTER:                  -3.357
REMARK INTRA:                   0.000
REMARK UNBOUND:                 0.000
REMARK SMILES CC1(C)[C@H]2CC[C@]1(C)[C@H](O)C2
REMARK SMILES IDX 1 1 2 2 4 3 5 4 6 5 7 6 9 7 11 8 8 9 3 10 10 11
REMARK H PARENT 10 12
REMARK Flexibility Score: inf
ROOT
ATOM      1  C   UNL     1      -0.280   2.628   8.796  1.00  0.00     0.012 C 
ATOM      2  C   UNL     1      -1.383   1.528   8.704  1.00  0.00    -0.025 C 
ATOM      3  C   UNL     1      -0.823   0.101   8.571  1.00  0.00    -0.002 C 
ATOM      4  C   UNL     1      -2.092  -0.761   8.366  1.00  0.00     0.005 C 
ATOM      5  C   UNL     1      -2.999   0.159   7.527  1.00  0.00     0.010 C 
ATOM      6  C   UNL     1      -2.121   1.430   7.348  1.00  0.00    -0.001 C 
ATOM      7  C   UNL     1      -0.973   1.072   6.356  1.00  0.00     0.121 C 
ATOM      8  C   UNL     1      -0.092   0.124   7.204  1.00  0.00     0.036 C 
ATOM      9  C   UNL     1      -2.922   2.670   6.932  1.00  0.00     0.015 C 
ATOM     10  C   UNL     1      -2.295   1.735   9.953  1.00  0.00     0.012 C 
ENDROOT
BRANCH   7  11
ATOM     11  O   UNL     1      -1.451   0.437   5.197  1.00  0.00    -0.393 OA
ATOM     12  H   UNL     1      -2.175  -0.175   5.489  1.00  0.00     0.210 HD
ENDBRANCH   7  11
TORSDOF 1
ENDMDL
MODEL 8
REMARK VINA RESULT:    -3.198      1.857      2.927
REMARK INTER + INTRA:          -3.291
REMARK INTER:                  -3.291
REMARK INTRA:                   0.000
REMARK UNBOUND:                 0.000
REMARK SMILES CC1(C)[C@H]2CC[C@]1(C)[C@H](O)C2
REMARK SMILES IDX 1 1 2 2 4 3 5 4 6 5 7 6 9 7 11 8 8 9 3 10 10 11
REMARK H PARENT 10 12
REMARK Flexibility Score: inf
ROOT
ATOM      1  C   UNL     1      -2.506   5.755  -6.361  1.00  0.00     0.012 C 
ATOM      2  C   UNL     1      -2.123   4.588  -5.398  1.00  0.00    -0.025 C 
ATOM      3  C   UNL     1      -0.644   4.596  -4.974  1.00  0.00    -0.002 C 
ATOM      4  C   UNL     1      -0.502   3.292  -4.152  1.00  0.00     0.005 C 
ATOM      5  C   UNL     1      -1.442   2.319  -4.890  1.00  0.00     0.010 C 
ATOM      6  C   UNL     1      -1.991   3.192  -6.053  1.00  0.00    -0.001 C 
ATOM      7  C   UNL     1      -0.831   3.399  -7.073  1.00  0.00     0.121 C 
ATOM      8  C   UNL     1       0.115   4.352  -6.304  1.00  0.00     0.036 C 
ATOM      9  C   UNL     1      -3.269   2.629  -6.688  1.00  0.00     0.015 C 
ATOM     10  C   UNL     1      -3.122   4.678  -4.203  1.00  0.00     0.012 C 
ENDROOT
BRANCH   7  11
ATOM     11  O   UNL     1      -0.195   2.192  -7.406  1.00  0.00    -0.393 OA
ATOM     12  H   UNL     1       0.660   2.176  -6.901  1.00  0.00     0.210 HD
ENDBRANCH   7  11
TORSDOF 1
ENDMDL
MODEL 9
REMARK VINA RESULT:    -3.191     12.917     14.156
REMARK INTER + INTRA:          -3.284
REMARK INTER:                  -3.284
REMARK INTRA:                   0.000
REMARK UNBOUND:                 0.000
REMARK SMILES CC1(C)[C@H]2CC[C@]1(C)[C@H](O)C2
REMARK SMILES IDX 1 1 2 2 4 3 5 4 6 5 7 6 9 7 11 8 8 9 3 10 10 11
REMARK H PARENT 10 12
REMARK Flexibility Score: inf
ROOT
ATOM      1  C   UNL     1      -1.705  -1.220   7.505  1.00  0.00     0.012 C 
ATOM      2  C   UNL     1      -2.277   0.076   8.160  1.00  0.00    -0.025 C 
ATOM      3  C   UNL     1      -2.769   1.119   7.141  1.00  0.00    -0.002 C 
ATOM      4  C   UNL     1      -3.150   2.330   8.027  1.00  0.00     0.005 C 
ATOM      5  C   UNL     1      -2.092   2.282   9.145  1.00  0.00     0.010 C 
ATOM      6  C   UNL     1      -1.229   1.052   8.744  1.00  0.00    -0.001 C 
ATOM      7  C   UNL     1      -0.395   1.452   7.491  1.00  0.00     0.121 C 
ATOM      8  C   UNL     1      -1.477   1.526   6.387  1.00  0.00     0.036 C 
ATOM      9  C   UNL     1      -0.376   0.505   9.896  1.00  0.00     0.015 C 
ATOM     10  C   UNL     1      -3.380  -0.402   9.155  1.00  0.00     0.012 C 
ENDROOT
BRANCH   7  11
ATOM     11  O   UNL     1       0.260   2.684   7.659  1.00  0.00    -0.393 OA
ATOM     12  H   UNL     1       0.541   2.726   8.610  1.00  0.00     0.210 HD
ENDBRANCH   7  11
TORSDOF 1
ENDMDL
