MODEL 1
REMARK VINA RESULT:    -5.098      0.000      0.000
REMARK INTER + INTRA:          -8.195
REMARK INTER:                  -6.737
REMARK INTRA:                  -1.458
REMARK UNBOUND:                -1.458
REMARK SMILES CC[C@H](C=C[C@@H](C)[C@@H]1CC[C@@H]2C3=CC[C@H]4C[C@H](O)CC[C@@]4(C)[C@@H]3CC[C@@]21C)C(C)C
REMARK SMILES IDX 6 1 7 2 5 3 4 4 3 5 2 6 1 7 28 8 29 9 30 10 8 11 9 12 26 13
REMARK SMILES IDX 10 14 11 15 25 16 27 17 12 18 24 19 23 20 13 21 21 22 14 23
REMARK SMILES IDX 15 24 20 25 22 26 16 27 19 28 17 29 18 30
REMARK H PARENT 18 31
REMARK Flexibility Score: inf
ROOT
ATOM      1  C   UNL     1      -3.732  24.105  10.081  1.00  0.00     0.012 C 
ATOM      2  C   UNL     1      -2.614  24.446  11.082  1.00  0.00     0.012 C 
ENDROOT
BRANCH   1   3
ATOM      3  C   UNL     1      -3.180  24.341   8.695  1.00  0.00    -0.028 C 
ATOM      4  C   UNL     1      -3.585  23.599   7.646  1.00  0.00    -0.027 C 
BRANCH   4   5
ATOM      5  C   UNL     1      -2.967  23.623   6.252  1.00  0.00     0.014 C 
BRANCH   5   6
ATOM      6  C   UNL     1      -3.655  22.633   5.264  1.00  0.00     0.004 C 
ATOM      7  C   UNL     1      -4.979  22.058   5.758  1.00  0.00     0.004 C 
ENDBRANCH   5   6
BRANCH   5   8
ATOM      8  C   UNL     1      -2.884  25.113   5.778  1.00  0.00    -0.011 C 
ATOM      9  C   UNL     1      -4.248  25.712   5.409  1.00  0.00     0.008 C 
ATOM     10  C   UNL     1      -1.858  25.352   4.658  1.00  0.00     0.008 C 
ENDBRANCH   5   8
ENDBRANCH   4   5
ENDBRANCH   1   3
BRANCH   1  11
ATOM     11  C   UNL     1      -5.023  24.953  10.330  1.00  0.00     0.002 C 
ATOM     12  C   UNL     1      -5.154  25.365  11.798  1.00  0.00     0.005 C 
ATOM     13  C   UNL     1      -6.419  24.322   9.942  1.00  0.00    -0.023 C 
ATOM     14  C   UNL     1      -6.609  25.715  11.998  1.00  0.00     0.009 C 
ATOM     15  C   UNL     1      -7.391  24.755  11.099  1.00  0.00     0.021 C 
ATOM     16  C   UNL     1      -6.384  22.755   9.779  1.00  0.00     0.008 C 
ATOM     17  C   UNL     1      -6.905  24.934   8.604  1.00  0.00     0.012 C 
ATOM     18  C   UNL     1      -7.975  23.530  11.788  1.00  0.00    -0.067 C 
ATOM     19  C   UNL     1      -7.779  22.075   9.793  1.00  0.00     0.009 C 
ATOM     20  C   UNL     1      -8.770  22.669  10.847  1.00  0.00     0.021 C 
ATOM     21  C   UNL     1      -7.484  23.005  12.932  1.00  0.00    -0.027 C 
ATOM     22  C   UNL     1      -9.681  21.645  11.599  1.00  0.00    -0.023 C 
ATOM     23  C   UNL     1      -7.791  21.612  13.421  1.00  0.00     0.031 C 
ATOM     24  C   UNL     1      -8.821  20.791  12.583  1.00  0.00     0.002 C 
ATOM     25  C   UNL     1     -10.775  22.430  12.395  1.00  0.00     0.010 C 
ATOM     26  C   UNL     1     -10.386  20.735  10.549  1.00  0.00     0.012 C 
ATOM     27  C   UNL     1      -9.695  19.913  13.511  1.00  0.00     0.036 C 
ATOM     28  C   UNL     1     -11.629  21.539  13.312  1.00  0.00     0.032 C 
ATOM     29  C   UNL     1     -10.763  20.723  14.280  1.00  0.00     0.114 C 
BRANCH  29  30
ATOM     30  O   UNL     1     -11.601  19.876  15.028  1.00  0.00    -0.393 OA
ATOM     31  H   UNL     1     -11.108  19.031  15.192  1.00  0.00     0.210 HD
ENDBRANCH  29  30
ENDBRANCH   1  11
TORSDOF 6
ENDMDL
MODEL 2
REMARK VINA RESULT:    -5.094      1.502      2.569
REMARK INTER + INTRA:          -8.190
REMARK INTER:                  -6.905
REMARK INTRA:                  -1.285
REMARK UNBOUND:                -1.458
REMARK SMILES CC[C@H](C=C[C@@H](C)[C@@H]1CC[C@@H]2C3=CC[C@H]4C[C@H](O)CC[C@@]4(C)[C@@H]3CC[C@@]21C)C(C)C
REMARK SMILES IDX 6 1 7 2 5 3 4 4 3 5 2 6 1 7 28 8 29 9 30 10 8 11 9 12 26 13
REMARK SMILES IDX 10 14 11 15 25 16 27 17 12 18 24 19 23 20 13 21 21 22 14 23
REMARK SMILES IDX 15 24 20 25 22 26 16 27 19 28 17 29 18 30
REMARK H PARENT 18 31
REMARK Flexibility Score: inf
ROOT
ATOM      1  C   UNL     1      -4.536  23.521   7.844  1.00  0.00     0.012 C 
ATOM      2  C   UNL     1      -3.077  24.008   7.881  1.00  0.00     0.012 C 
ENDROOT
BRANCH   1   3
ATOM      3  C   UNL     1      -4.908  23.325   6.394  1.00  0.00    -0.028 C 
ATOM      4  C   UNL     1      -5.351  22.138   5.940  1.00  0.00    -0.027 C 
BRANCH   4   5
ATOM      5  C   UNL     1      -5.576  21.775   4.475  1.00  0.00     0.014 C 
BRANCH   5   6
ATOM      6  C   UNL     1      -4.816  20.485   4.044  1.00  0.00     0.004 C 
ATOM      7  C   UNL     1      -3.385  20.385   4.565  1.00  0.00     0.004 C 
ENDBRANCH   5   6
BRANCH   5   8
ATOM      8  C   UNL     1      -7.117  21.785   4.199  1.00  0.00    -0.011 C 
ATOM      9  C   UNL     1      -7.677  23.186   3.919  1.00  0.00     0.008 C 
ATOM     10  C   UNL     1      -7.946  21.067   5.277  1.00  0.00     0.008 C 
ENDBRANCH   5   8
ENDBRANCH   4   5
ENDBRANCH   1   3
BRANCH   1  11
ATOM     11  C   UNL     1      -5.508  24.526   8.548  1.00  0.00     0.002 C 
ATOM     12  C   UNL     1      -4.971  24.972   9.910  1.00  0.00     0.005 C 
ATOM     13  C   UNL     1      -6.998  24.067   8.810  1.00  0.00    -0.023 C 
ATOM     14  C   UNL     1      -6.165  25.501  10.668  1.00  0.00     0.009 C 
ATOM     15  C   UNL     1      -7.348  24.633  10.234  1.00  0.00     0.021 C 
ATOM     16  C   UNL     1      -7.200  22.505   8.748  1.00  0.00     0.008 C 
ATOM     17  C   UNL     1      -7.928  24.715   7.755  1.00  0.00     0.012 C 
ATOM     18  C   UNL     1      -7.718  23.499  11.180  1.00  0.00    -0.067 C 
ATOM     19  C   UNL     1      -8.526  22.003   9.379  1.00  0.00     0.009 C 
ATOM     20  C   UNL     1      -8.919  22.729  10.707  1.00  0.00     0.021 C 
ATOM     21  C   UNL     1      -6.854  22.933  12.051  1.00  0.00    -0.027 C 
ATOM     22  C   UNL     1      -9.537  21.835  11.832  1.00  0.00    -0.023 C 
ATOM     23  C   UNL     1      -7.076  21.596  12.711  1.00  0.00     0.031 C 
ATOM     24  C   UNL     1      -8.442  20.896  12.426  1.00  0.00     0.002 C 
ATOM     25  C   UNL     1     -10.110  22.761  12.955  1.00  0.00     0.010 C 
ATOM     26  C   UNL     1     -10.708  21.005  11.226  1.00  0.00     0.012 C 
ATOM     27  C   UNL     1      -8.938  20.145  13.686  1.00  0.00     0.036 C 
ATOM     28  C   UNL     1     -10.594  21.995  14.198  1.00  0.00     0.032 C 
ATOM     29  C   UNL     1      -9.496  21.091  14.773  1.00  0.00     0.114 C 
BRANCH  29  30
ATOM     30  O   UNL     1     -10.031  20.366  15.852  1.00  0.00    -0.393 OA
ATOM     31  H   UNL     1     -11.009  20.530  15.872  1.00  0.00     0.210 HD
ENDBRANCH  29  30
ENDBRANCH   1  11
TORSDOF 6
ENDMDL
MODEL 3
REMARK VINA RESULT:    -5.039      1.416      1.875
REMARK INTER + INTRA:          -8.118
REMARK INTER:                  -6.711
REMARK INTRA:                  -1.407
REMARK UNBOUND:                -1.458
REMARK SMILES CC[C@H](C=C[C@@H](C)[C@@H]1CC[C@@H]2C3=CC[C@H]4C[C@H](O)CC[C@@]4(C)[C@@H]3CC[C@@]21C)C(C)C
REMARK SMILES IDX 6 1 7 2 5 3 4 4 3 5 2 6 1 7 28 8 29 9 30 10 8 11 9 12 26 13
REMARK SMILES IDX 10 14 11 15 25 16 27 17 12 18 24 19 23 20 13 21 21 22 14 23
REMARK SMILES IDX 15 24 20 25 22 26 16 27 19 28 17 29 18 30
REMARK H PARENT 18 31
REMARK Flexibility Score: inf
ROOT
ATOM      1  C   UNL     1      -4.201  25.180   9.972  1.00  0.00     0.012 C 
ATOM      2  C   UNL     1      -3.752  26.647  10.095  1.00  0.00     0.012 C 
ENDROOT
BRANCH   1   3
ATOM      3  C   UNL     1      -3.287  24.514   8.971  1.00  0.00    -0.028 C 
ATOM      4  C   UNL     1      -3.508  24.616   7.647  1.00  0.00    -0.027 C 
BRANCH   4   5
ATOM      5  C   UNL     1      -2.769  23.840   6.561  1.00  0.00     0.014 C 
BRANCH   5   6
ATOM      6  C   UNL     1      -3.557  22.595   6.059  1.00  0.00     0.004 C 
ATOM      7  C   UNL     1      -4.340  22.815   4.767  1.00  0.00     0.004 C 
ENDBRANCH   5   6
BRANCH   5   8
ATOM      8  C   UNL     1      -2.316  24.853   5.457  1.00  0.00    -0.011 C 
ATOM      9  C   UNL     1      -0.854  24.673   5.027  1.00  0.00     0.008 C 
ATOM     10  C   UNL     1      -2.609  26.322   5.804  1.00  0.00     0.008 C 
ENDBRANCH   5   8
ENDBRANCH   4   5
ENDBRANCH   1   3
BRANCH   1  11
ATOM     11  C   UNL     1      -5.700  25.060   9.540  1.00  0.00     0.002 C 
ATOM     12  C   UNL     1      -6.559  26.162  10.164  1.00  0.00     0.005 C 
ATOM     13  C   UNL     1      -6.461  23.708   9.845  1.00  0.00    -0.023 C 
ATOM     14  C   UNL     1      -7.983  25.664  10.091  1.00  0.00     0.009 C 
ATOM     15  C   UNL     1      -7.901  24.150  10.296  1.00  0.00     0.021 C 
ATOM     16  C   UNL     1      -5.762  22.823  10.946  1.00  0.00     0.008 C 
ATOM     17  C   UNL     1      -6.561  22.870   8.547  1.00  0.00     0.012 C 
ATOM     18  C   UNL     1      -8.191  23.656  11.706  1.00  0.00    -0.067 C 
ATOM     19  C   UNL     1      -6.665  21.711  11.546  1.00  0.00     0.009 C 
ATOM     20  C   UNL     1      -8.141  22.157  11.808  1.00  0.00     0.021 C 
ATOM     21  C   UNL     1      -8.042  24.413  12.815  1.00  0.00    -0.027 C 
ATOM     22  C   UNL     1      -8.806  21.624  13.119  1.00  0.00    -0.023 C 
ATOM     23  C   UNL     1      -7.957  23.855  14.212  1.00  0.00     0.031 C 
ATOM     24  C   UNL     1      -8.158  22.314  14.361  1.00  0.00     0.002 C 
ATOM     25  C   UNL     1     -10.337  21.941  13.074  1.00  0.00     0.010 C 
ATOM     26  C   UNL     1      -8.618  20.079  13.185  1.00  0.00     0.012 C 
ATOM     27  C   UNL     1      -8.920  21.992  15.670  1.00  0.00     0.036 C 
ATOM     28  C   UNL     1     -11.072  21.616  14.385  1.00  0.00     0.032 C 
ATOM     29  C   UNL     1     -10.428  22.318  15.588  1.00  0.00     0.114 C 
BRANCH  29  30
ATOM     30  O   UNL     1     -11.099  21.914  16.756  1.00  0.00    -0.393 OA
ATOM     31  H   UNL     1     -11.771  22.610  16.975  1.00  0.00     0.210 HD
ENDBRANCH  29  30
ENDBRANCH   1  11
TORSDOF 6
ENDMDL
MODEL 4
REMARK VINA RESULT:    -5.014      3.053      8.688
REMARK INTER + INTRA:          -8.084
REMARK INTER:                  -6.574
REMARK INTRA:                  -1.510
REMARK UNBOUND:                -1.458
REMARK SMILES CC[C@H](C=C[C@@H](C)[C@@H]1CC[C@@H]2C3=CC[C@H]4C[C@H](O)CC[C@@]4(C)[C@@H]3CC[C@@]21C)C(C)C
REMARK SMILES IDX 6 1 7 2 5 3 4 4 3 5 2 6 1 7 28 8 29 9 30 10 8 11 9 12 26 13
REMARK SMILES IDX 10 14 11 15 25 16 27 17 12 18 24 19 23 20 13 21 21 22 14 23
REMARK SMILES IDX 15 24 20 25 22 26 16 27 19 28 17 29 18 30
REMARK H PARENT 18 31
REMARK Flexibility Score: inf
ROOT
ATOM      1  C   UNL     1      -8.797  24.224  13.299  1.00  0.00     0.012 C 
ATOM      2  C   UNL     1      -7.597  24.668  14.154  1.00  0.00     0.012 C 
ENDROOT
BRANCH   1   3
ATOM      3  C   UNL     1      -9.971  24.044  14.233  1.00  0.00    -0.028 C 
ATOM      4  C   UNL     1     -10.592  22.855  14.352  1.00  0.00    -0.027 C 
BRANCH   4   5
ATOM      5  C   UNL     1     -11.890  22.605  15.115  1.00  0.00     0.014 C 
BRANCH   5   6
ATOM      6  C   UNL     1     -13.125  22.448  14.179  1.00  0.00     0.004 C 
ATOM      7  C   UNL     1     -12.793  22.028  12.750  1.00  0.00     0.004 C 
ENDBRANCH   5   6
BRANCH   5   8
ATOM      8  C   UNL     1     -11.646  21.435  16.126  1.00  0.00    -0.011 C 
ATOM      9  C   UNL     1     -10.707  20.348  15.586  1.00  0.00     0.008 C 
ATOM     10  C   UNL     1     -12.938  20.817  16.684  1.00  0.00     0.008 C 
ENDBRANCH   5   8
ENDBRANCH   4   5
ENDBRANCH   1   3
BRANCH   1  11
ATOM     11  C   UNL     1      -8.498  22.911  12.503  1.00  0.00     0.002 C 
ATOM     12  C   UNL     1      -7.161  22.291  12.917  1.00  0.00     0.005 C 
ATOM     13  C   UNL     1      -8.459  22.985  10.925  1.00  0.00    -0.023 C 
ATOM     14  C   UNL     1      -6.767  21.373  11.786  1.00  0.00     0.009 C 
ATOM     15  C   UNL     1      -7.261  22.055  10.509  1.00  0.00     0.021 C 
ATOM     16  C   UNL     1      -8.273  24.445  10.363  1.00  0.00     0.008 C 
ATOM     17  C   UNL     1      -9.779  22.413  10.351  1.00  0.00     0.012 C 
ATOM     18  C   UNL     1      -6.217  22.849   9.736  1.00  0.00    -0.067 C 
ATOM     19  C   UNL     1      -7.839  24.511   8.874  1.00  0.00     0.009 C 
ATOM     20  C   UNL     1      -6.772  23.442   8.471  1.00  0.00     0.021 C 
ATOM     21  C   UNL     1      -5.103  23.370  10.293  1.00  0.00    -0.027 C 
ATOM     22  C   UNL     1      -5.649  23.916   7.490  1.00  0.00    -0.023 C 
ATOM     23  C   UNL     1      -4.267  24.451   9.657  1.00  0.00     0.031 C 
ATOM     24  C   UNL     1      -4.686  24.902   8.222  1.00  0.00     0.002 C 
ATOM     25  C   UNL     1      -4.851  22.665   6.994  1.00  0.00     0.010 C 
ATOM     26  C   UNL     1      -6.314  24.602   6.260  1.00  0.00     0.012 C 
ATOM     27  C   UNL     1      -3.435  25.234   7.373  1.00  0.00     0.036 C 
ATOM     28  C   UNL     1      -3.612  23.018   6.155  1.00  0.00     0.032 C 
ATOM     29  C   UNL     1      -2.673  23.975   6.901  1.00  0.00     0.114 C 
BRANCH  29  30
ATOM     30  O   UNL     1      -1.608  24.316   6.048  1.00  0.00    -0.393 OA
ATOM     31  H   UNL     1      -1.629  23.694   5.275  1.00  0.00     0.210 HD
ENDBRANCH  29  30
ENDBRANCH   1  11
TORSDOF 6
ENDMDL
MODEL 5
REMARK VINA RESULT:    -4.977      1.180      2.154
REMARK INTER + INTRA:          -8.035
REMARK INTER:                  -7.135
REMARK INTRA:                  -0.900
REMARK UNBOUND:                -1.458
REMARK SMILES CC[C@H](C=C[C@@H](C)[C@@H]1CC[C@@H]2C3=CC[C@H]4C[C@H](O)CC[C@@]4(C)[C@@H]3CC[C@@]21C)C(C)C
REMARK SMILES IDX 6 1 7 2 5 3 4 4 3 5 2 6 1 7 28 8 29 9 30 10 8 11 9 12 26 13
REMARK SMILES IDX 10 14 11 15 25 16 27 17 12 18 24 19 23 20 13 21 21 22 14 23
REMARK SMILES IDX 15 24 20 25 22 26 16 27 19 28 17 29 18 30
REMARK H PARENT 18 31
REMARK Flexibility Score: inf
ROOT
ATOM      1  C   UNL     1      -4.522  23.988   8.337  1.00  0.00     0.012 C 
ATOM      2  C   UNL     1      -3.128  24.617   8.509  1.00  0.00     0.012 C 
ENDROOT
BRANCH   1   3
ATOM      3  C   UNL     1      -4.745  23.787   6.857  1.00  0.00    -0.028 C 
ATOM      4  C   UNL     1      -4.189  22.751   6.202  1.00  0.00    -0.027 C 
BRANCH   4   5
ATOM      5  C   UNL     1      -4.192  22.554   4.689  1.00  0.00     0.014 C 
BRANCH   5   6
ATOM      6  C   UNL     1      -2.911  23.112   4.000  1.00  0.00     0.004 C 
ATOM      7  C   UNL     1      -2.091  24.069   4.860  1.00  0.00     0.004 C 
ENDBRANCH   5   6
BRANCH   5   8
ATOM      8  C   UNL     1      -4.530  21.054   4.390  1.00  0.00    -0.011 C 
ATOM      9  C   UNL     1      -5.648  20.493   5.279  1.00  0.00     0.008 C 
ATOM     10  C   UNL     1      -3.303  20.127   4.401  1.00  0.00     0.008 C 
ENDBRANCH   5   8
ENDBRANCH   4   5
ENDBRANCH   1   3
BRANCH   1  11
ATOM     11  C   UNL     1      -5.648  24.875   8.966  1.00  0.00     0.002 C 
ATOM     12  C   UNL     1      -5.269  25.362  10.366  1.00  0.00     0.005 C 
ATOM     13  C   UNL     1      -7.095  24.256   9.110  1.00  0.00    -0.023 C 
ATOM     14  C   UNL     1      -6.567  25.753  11.030  1.00  0.00     0.009 C 
ATOM     15  C   UNL     1      -7.613  24.767  10.504  1.00  0.00     0.021 C 
ATOM     16  C   UNL     1      -7.122  22.683   9.030  1.00  0.00     0.008 C 
ATOM     17  C   UNL     1      -8.006  24.811   7.987  1.00  0.00     0.012 C 
ATOM     18  C   UNL     1      -7.930  23.590  11.416  1.00  0.00    -0.067 C 
ATOM     19  C   UNL     1      -8.431  22.034   9.555  1.00  0.00     0.009 C 
ATOM     20  C   UNL     1      -9.001  22.700  10.850  1.00  0.00     0.021 C 
ATOM     21  C   UNL     1      -7.080  23.111  12.351  1.00  0.00    -0.027 C 
ATOM     22  C   UNL     1      -9.604  21.734  11.921  1.00  0.00    -0.023 C 
ATOM     23  C   UNL     1      -7.206  21.751  12.989  1.00  0.00     0.031 C 
ATOM     24  C   UNL     1      -8.463  20.912  12.597  1.00  0.00     0.002 C 
ATOM     25  C   UNL     1     -10.358  22.581  12.999  1.00  0.00     0.010 C 
ATOM     26  C   UNL     1     -10.628  20.790  11.225  1.00  0.00     0.012 C 
ATOM     27  C   UNL     1      -8.971  20.100  13.813  1.00  0.00     0.036 C 
ATOM     28  C   UNL     1     -10.851  21.755  14.198  1.00  0.00     0.032 C 
ATOM     29  C   UNL     1      -9.709  20.969  14.855  1.00  0.00     0.114 C 
BRANCH  29  30
ATOM     30  O   UNL     1     -10.244  20.179  15.888  1.00  0.00    -0.393 OA
ATOM     31  H   UNL     1     -11.121  19.831  15.581  1.00  0.00     0.210 HD
ENDBRANCH  29  30
ENDBRANCH   1  11
TORSDOF 6
ENDMDL
MODEL 6
REMARK VINA RESULT:    -4.830      1.605      3.172
REMARK INTER + INTRA:          -7.841
REMARK INTER:                  -7.017
REMARK INTRA:                  -0.824
REMARK UNBOUND:                -1.458
REMARK SMILES CC[C@H](C=C[C@@H](C)[C@@H]1CC[C@@H]2C3=CC[C@H]4C[C@H](O)CC[C@@]4(C)[C@@H]3CC[C@@]21C)C(C)C
REMARK SMILES IDX 6 1 7 2 5 3 4 4 3 5 2 6 1 7 28 8 29 9 30 10 8 11 9 12 26 13
REMARK SMILES IDX 10 14 11 15 25 16 27 17 12 18 24 19 23 20 13 21 21 22 14 23
REMARK SMILES IDX 15 24 20 25 22 26 16 27 19 28 17 29 18 30
REMARK H PARENT 18 31
REMARK Flexibility Score: inf
ROOT
ATOM      1  C   UNL     1      -3.940  25.071   7.600  1.00  0.00     0.012 C 
ATOM      2  C   UNL     1      -5.045  25.889   6.908  1.00  0.00     0.012 C 
ENDROOT
BRANCH   1   3
ATOM      3  C   UNL     1      -4.291  23.612   7.433  1.00  0.00    -0.028 C 
ATOM      4  C   UNL     1      -5.160  23.206   6.488  1.00  0.00    -0.027 C 
BRANCH   4   5
ATOM      5  C   UNL     1      -5.726  21.796   6.351  1.00  0.00     0.014 C 
BRANCH   5   6
ATOM      6  C   UNL     1      -7.267  21.734   6.568  1.00  0.00     0.004 C 
ATOM      7  C   UNL     1      -7.731  22.143   7.963  1.00  0.00     0.004 C 
ENDBRANCH   5   6
BRANCH   5   8
ATOM      8  C   UNL     1      -5.201  21.186   5.008  1.00  0.00    -0.011 C 
ATOM      9  C   UNL     1      -5.899  19.875   4.619  1.00  0.00     0.008 C 
ATOM     10  C   UNL     1      -3.672  21.031   4.952  1.00  0.00     0.008 C 
ENDBRANCH   5   8
ENDBRANCH   4   5
ENDBRANCH   1   3
BRANCH   1  11
ATOM     11  C   UNL     1      -3.787  25.449   9.110  1.00  0.00     0.002 C 
ATOM     12  C   UNL     1      -3.023  24.376   9.888  1.00  0.00     0.005 C 
ATOM     13  C   UNL     1      -5.097  25.727   9.949  1.00  0.00    -0.023 C 
ATOM     14  C   UNL     1      -3.369  24.596  11.341  1.00  0.00     0.009 C 
ATOM     15  C   UNL     1      -4.824  25.070  11.350  1.00  0.00     0.021 C 
ATOM     16  C   UNL     1      -6.406  25.146   9.290  1.00  0.00     0.008 C 
ATOM     17  C   UNL     1      -5.283  27.255  10.122  1.00  0.00     0.012 C 
ATOM     18  C   UNL     1      -5.865  24.001  11.649  1.00  0.00    -0.067 C 
ATOM     19  C   UNL     1      -7.621  25.048  10.251  1.00  0.00     0.009 C 
ATOM     20  C   UNL     1      -7.261  24.558  11.691  1.00  0.00     0.021 C 
ATOM     21  C   UNL     1      -5.673  22.681  11.434  1.00  0.00    -0.027 C 
ATOM     22  C   UNL     1      -8.276  23.579  12.366  1.00  0.00    -0.023 C 
ATOM     23  C   UNL     1      -6.785  21.666  11.361  1.00  0.00     0.031 C 
ATOM     24  C   UNL     1      -8.226  22.190  11.657  1.00  0.00     0.002 C 
ATOM     25  C   UNL     1      -7.896  23.419  13.875  1.00  0.00     0.010 C 
ATOM     26  C   UNL     1      -9.703  24.196  12.276  1.00  0.00     0.012 C 
ATOM     27  C   UNL     1      -9.046  21.118  12.416  1.00  0.00     0.036 C 
ATOM     28  C   UNL     1      -8.720  22.347  14.608  1.00  0.00     0.032 C 
ATOM     29  C   UNL     1      -8.642  20.988  13.902  1.00  0.00     0.114 C 
BRANCH  29  30
ATOM     30  O   UNL     1      -9.479  20.082  14.578  1.00  0.00    -0.393 OA
ATOM     31  H   UNL     1      -9.154  20.009  15.513  1.00  0.00     0.210 HD
ENDBRANCH  29  30
ENDBRANCH   1  11
TORSDOF 6
ENDMDL
MODEL 7
REMARK VINA RESULT:    -4.773      3.888      8.410
REMARK INTER + INTRA:          -7.765
REMARK INTER:                  -6.938
REMARK INTRA:                  -0.827
REMARK UNBOUND:                -1.458
REMARK SMILES CC[C@H](C=C[C@@H](C)[C@@H]1CC[C@@H]2C3=CC[C@H]4C[C@H](O)CC[C@@]4(C)[C@@H]3CC[C@@]21C)C(C)C
REMARK SMILES IDX 6 1 7 2 5 3 4 4 3 5 2 6 1 7 28 8 29 9 30 10 8 11 9 12 26 13
REMARK SMILES IDX 10 14 11 15 25 16 27 17 12 18 24 19 23 20 13 21 21 22 14 23
REMARK SMILES IDX 15 24 20 25 22 26 16 27 19 28 17 29 18 30
REMARK H PARENT 18 31
REMARK Flexibility Score: inf
ROOT
ATOM      1  C   UNL     1      -8.595  24.620  13.901  1.00  0.00     0.012 C 
ATOM      2  C   UNL     1      -7.262  25.344  13.639  1.00  0.00     0.012 C 
ENDROOT
BRANCH   1   3
ATOM      3  C   UNL     1      -8.739  24.472  15.397  1.00  0.00    -0.028 C 
ATOM      4  C   UNL     1      -7.705  24.712  16.226  1.00  0.00    -0.027 C 
BRANCH   4   5
ATOM      5  C   UNL     1      -7.680  24.417  17.722  1.00  0.00     0.014 C 
BRANCH   5   6
ATOM      6  C   UNL     1      -6.799  23.186  18.087  1.00  0.00     0.004 C 
ATOM      7  C   UNL     1      -6.480  23.048  19.573  1.00  0.00     0.004 C 
ENDBRANCH   5   6
BRANCH   5   8
ATOM      8  C   UNL     1      -7.343  25.746  18.478  1.00  0.00    -0.011 C 
ATOM      9  C   UNL     1      -8.505  26.749  18.496  1.00  0.00     0.008 C 
ATOM     10  C   UNL     1      -6.045  26.419  18.002  1.00  0.00     0.008 C 
ENDBRANCH   5   8
ENDBRANCH   4   5
ENDBRANCH   1   3
BRANCH   1  11
ATOM     11  C   UNL     1      -8.659  23.232  13.183  1.00  0.00     0.002 C 
ATOM     12  C   UNL     1      -7.391  22.410  13.425  1.00  0.00     0.005 C 
ATOM     13  C   UNL     1      -8.887  23.207  11.619  1.00  0.00    -0.023 C 
ATOM     14  C   UNL     1      -7.358  21.373  12.328  1.00  0.00     0.009 C 
ATOM     15  C   UNL     1      -7.950  22.059  11.095  1.00  0.00     0.021 C 
ATOM     16  C   UNL     1      -8.566  24.577  10.911  1.00  0.00     0.008 C 
ATOM     17  C   UNL     1     -10.363  22.845  11.321  1.00  0.00     0.012 C 
ATOM     18  C   UNL     1      -6.943  22.610  10.096  1.00  0.00    -0.067 C 
ATOM     19  C   UNL     1      -8.395  24.480   9.371  1.00  0.00     0.009 C 
ATOM     20  C   UNL     1      -7.606  23.218   8.892  1.00  0.00     0.021 C 
ATOM     21  C   UNL     1      -5.677  22.957  10.417  1.00  0.00    -0.027 C 
ATOM     22  C   UNL     1      -6.611  23.429   7.704  1.00  0.00    -0.023 C 
ATOM     23  C   UNL     1      -4.800  23.836   9.562  1.00  0.00     0.031 C 
ATOM     24  C   UNL     1      -5.385  24.271   8.181  1.00  0.00     0.002 C 
ATOM     25  C   UNL     1      -6.129  22.032   7.194  1.00  0.00     0.010 C 
ATOM     26  C   UNL     1      -7.360  24.151   6.545  1.00  0.00     0.012 C 
ATOM     27  C   UNL     1      -4.266  24.327   7.113  1.00  0.00     0.036 C 
ATOM     28  C   UNL     1      -5.015  22.111   6.137  1.00  0.00     0.032 C 
ATOM     29  C   UNL     1      -3.816  22.929   6.634  1.00  0.00     0.114 C 
BRANCH  29  30
ATOM     30  O   UNL     1      -2.877  23.027   5.592  1.00  0.00    -0.393 OA
ATOM     31  H   UNL     1      -2.434  23.912   5.666  1.00  0.00     0.210 HD
ENDBRANCH  29  30
ENDBRANCH   1  11
TORSDOF 6
ENDMDL
MODEL 8
REMARK VINA RESULT:    -4.715      3.041      8.829
REMARK INTER + INTRA:          -7.689
REMARK INTER:                  -6.375
REMARK INTRA:                  -1.314
REMARK UNBOUND:                -1.458
REMARK SMILES CC[C@H](C=C[C@@H](C)[C@@H]1CC[C@@H]2C3=CC[C@H]4C[C@H](O)CC[C@@]4(C)[C@@H]3CC[C@@]21C)C(C)C
REMARK SMILES IDX 6 1 7 2 5 3 4 4 3 5 2 6 1 7 28 8 29 9 30 10 8 11 9 12 26 13
REMARK SMILES IDX 10 14 11 15 25 16 27 17 12 18 24 19 23 20 13 21 21 22 14 23
REMARK SMILES IDX 15 24 20 25 22 26 16 27 19 28 17 29 18 30
REMARK H PARENT 18 31
REMARK Flexibility Score: inf
ROOT
ATOM      1  C   UNL     1      -9.267  20.997  11.244  1.00  0.00     0.012 C 
ATOM      2  C   UNL     1     -10.490  20.295  10.628  1.00  0.00     0.012 C 
ENDROOT
BRANCH   1   3
ATOM      3  C   UNL     1      -9.270  20.689  12.722  1.00  0.00    -0.028 C 
ATOM      4  C   UNL     1     -10.205  21.208  13.542  1.00  0.00    -0.027 C 
BRANCH   4   5
ATOM      5  C   UNL     1     -10.197  21.117  15.065  1.00  0.00     0.014 C 
BRANCH   5   6
ATOM      6  C   UNL     1      -9.917  22.485  15.755  1.00  0.00     0.004 C 
ATOM      7  C   UNL     1      -8.438  22.838  15.892  1.00  0.00     0.004 C 
ENDBRANCH   5   6
BRANCH   5   8
ATOM      8  C   UNL     1     -11.501  20.378  15.518  1.00  0.00    -0.011 C 
ATOM      9  C   UNL     1     -12.370  19.901  14.346  1.00  0.00     0.008 C 
ATOM     10  C   UNL     1     -12.339  21.167  16.538  1.00  0.00     0.008 C 
ENDBRANCH   5   8
ENDBRANCH   4   5
ENDBRANCH   1   3
BRANCH   1  11
ATOM     11  C   UNL     1      -9.285  22.540  10.985  1.00  0.00     0.002 C 
ATOM     12  C   UNL     1      -9.739  22.871   9.562  1.00  0.00     0.005 C 
ATOM     13  C   UNL     1      -7.945  23.351  11.200  1.00  0.00    -0.023 C 
ATOM     14  C   UNL     1      -9.249  24.273   9.289  1.00  0.00     0.009 C 
ATOM     15  C   UNL     1      -7.912  24.392  10.023  1.00  0.00     0.021 C 
ATOM     16  C   UNL     1      -6.653  22.448  11.203  1.00  0.00     0.008 C 
ATOM     17  C   UNL     1      -8.009  24.102  12.553  1.00  0.00     0.012 C 
ATOM     18  C   UNL     1      -6.668  24.189   9.169  1.00  0.00    -0.067 C 
ATOM     19  C   UNL     1      -5.323  23.228  11.013  1.00  0.00     0.009 C 
ATOM     20  C   UNL     1      -5.399  24.375   9.954  1.00  0.00     0.021 C 
ATOM     21  C   UNL     1      -6.652  23.482   8.018  1.00  0.00    -0.027 C 
ATOM     22  C   UNL     1      -4.148  24.555   9.033  1.00  0.00    -0.023 C 
ATOM     23  C   UNL     1      -5.398  22.957   7.367  1.00  0.00     0.031 C 
ATOM     24  C   UNL     1      -4.045  23.360   8.036  1.00  0.00     0.002 C 
ATOM     25  C   UNL     1      -4.293  25.897   8.241  1.00  0.00     0.010 C 
ATOM     26  C   UNL     1      -2.876  24.640   9.928  1.00  0.00     0.012 C 
ATOM     27  C   UNL     1      -2.957  23.590   6.959  1.00  0.00     0.036 C 
ATOM     28  C   UNL     1      -3.204  26.104   7.175  1.00  0.00     0.032 C 
ATOM     29  C   UNL     1      -3.133  24.923   6.198  1.00  0.00     0.114 C 
BRANCH  29  30
ATOM     30  O   UNL     1      -2.068  25.143   5.305  1.00  0.00    -0.393 OA
ATOM     31  H   UNL     1      -1.994  24.345   4.720  1.00  0.00     0.210 HD
ENDBRANCH  29  30
ENDBRANCH   1  11
TORSDOF 6
ENDMDL
MODEL 9
REMARK VINA RESULT:    -4.696      3.712      8.283
REMARK INTER + INTRA:          -7.665
REMARK INTER:                  -6.317
REMARK INTRA:                  -1.347
REMARK UNBOUND:                -1.458
REMARK SMILES CC[C@H](C=C[C@@H](C)[C@@H]1CC[C@@H]2C3=CC[C@H]4C[C@H](O)CC[C@@]4(C)[C@@H]3CC[C@@]21C)C(C)C
REMARK SMILES IDX 6 1 7 2 5 3 4 4 3 5 2 6 1 7 28 8 29 9 30 10 8 11 9 12 26 13
REMARK SMILES IDX 10 14 11 15 25 16 27 17 12 18 24 19 23 20 13 21 21 22 14 23
REMARK SMILES IDX 15 24 20 25 22 26 16 27 19 28 17 29 18 30
REMARK H PARENT 18 31
REMARK Flexibility Score: inf
ROOT
ATOM      1  C   UNL     1      -8.334  22.542  14.200  1.00  0.00     0.012 C 
ATOM      2  C   UNL     1      -9.351  21.425  13.906  1.00  0.00     0.012 C 
ENDROOT
BRANCH   1   3
ATOM      3  C   UNL     1      -8.421  22.852  15.675  1.00  0.00    -0.028 C 
ATOM      4  C   UNL     1      -7.934  24.002  16.178  1.00  0.00    -0.027 C 
BRANCH   4   5
ATOM      5  C   UNL     1      -7.800  24.336  17.660  1.00  0.00     0.014 C 
BRANCH   5   6
ATOM      6  C   UNL     1      -6.347  24.167  18.194  1.00  0.00     0.004 C 
ATOM      7  C   UNL     1      -6.084  22.851  18.920  1.00  0.00     0.004 C 
ENDBRANCH   5   6
BRANCH   5   8
ATOM      8  C   UNL     1      -8.461  25.734  17.909  1.00  0.00    -0.011 C 
ATOM      9  C   UNL     1      -8.744  26.513  16.618  1.00  0.00     0.008 C 
ATOM     10  C   UNL     1      -7.703  26.607  18.923  1.00  0.00     0.008 C 
ENDBRANCH   5   8
ENDBRANCH   4   5
ENDBRANCH   1   3
BRANCH   1  11
ATOM     11  C   UNL     1      -8.598  23.819  13.335  1.00  0.00     0.002 C 
ATOM     12  C   UNL     1      -9.858  23.673  12.480  1.00  0.00     0.005 C 
ATOM     13  C   UNL     1      -7.466  24.298  12.341  1.00  0.00    -0.023 C 
ATOM     14  C   UNL     1      -9.727  24.696  11.377  1.00  0.00     0.009 C 
ATOM     15  C   UNL     1      -8.234  24.761  11.051  1.00  0.00     0.021 C 
ATOM     16  C   UNL     1      -6.404  23.183  12.007  1.00  0.00     0.008 C 
ATOM     17  C   UNL     1      -6.717  25.506  12.958  1.00  0.00     0.012 C 
ATOM     18  C   UNL     1      -7.784  23.949   9.845  1.00  0.00    -0.067 C 
ATOM     19  C   UNL     1      -5.530  23.481  10.759  1.00  0.00     0.009 C 
ATOM     20  C   UNL     1      -6.316  24.110   9.563  1.00  0.00     0.021 C 
ATOM     21  C   UNL     1      -8.447  22.871   9.373  1.00  0.00    -0.027 C 
ATOM     22  C   UNL     1      -5.924  23.611   8.133  1.00  0.00    -0.023 C 
ATOM     23  C   UNL     1      -7.843  21.848   8.445  1.00  0.00     0.031 C 
ATOM     24  C   UNL     1      -6.395  22.136   7.937  1.00  0.00     0.002 C 
ATOM     25  C   UNL     1      -6.608  24.533   7.071  1.00  0.00     0.010 C 
ATOM     26  C   UNL     1      -4.379  23.724   7.969  1.00  0.00     0.012 C 
ATOM     27  C   UNL     1      -6.231  21.661   6.473  1.00  0.00     0.036 C 
ATOM     28  C   UNL     1      -6.434  24.041   5.624  1.00  0.00     0.032 C 
ATOM     29  C   UNL     1      -6.919  22.595   5.453  1.00  0.00     0.114 C 
BRANCH  29  30
ATOM     30  O   UNL     1      -6.657  22.187   4.133  1.00  0.00    -0.393 OA
ATOM     31  H   UNL     1      -7.495  22.293   3.611  1.00  0.00     0.210 HD
ENDBRANCH  29  30
ENDBRANCH   1  11
TORSDOF 6
ENDMDL
