MODEL 1
REMARK VINA RESULT:    -3.274      0.000      0.000
REMARK INTER + INTRA:          -3.370
REMARK INTER:                  -3.370
REMARK INTRA:                   0.000
REMARK UNBOUND:                 0.000
REMARK SMILES CC1(C)[C@@H]2CC[C@@](C)(C2)[C@@H]1O
REMARK SMILES IDX 1 1 2 2 4 3 5 4 6 5 7 6 9 7 10 8 8 9 3 10 11 11
REMARK H PARENT 11 12
REMARK Flexibility Score: inf
ROOT
ATOM      1  C   UNL     1     144.199 138.306 144.035  1.00  0.00     0.014 C 
ATOM      2  C   UNL     1     143.130 138.189 142.922  1.00  0.00    -0.006 C 
ATOM      3  C   UNL     1     142.863 136.680 142.588  1.00  0.00    -0.002 C 
ATOM      4  C   UNL     1     142.009 136.535 141.311  1.00  0.00     0.005 C 
ATOM      5  C   UNL     1     140.645 137.093 141.748  1.00  0.00     0.010 C 
ATOM      6  C   UNL     1     140.861 137.379 143.254  1.00  0.00    -0.006 C 
ATOM      7  C   UNL     1     141.834 136.285 143.635  1.00  0.00     0.013 C 
ATOM      8  C   UNL     1     141.727 138.648 143.445  1.00  0.00     0.126 C 
ATOM      9  C   UNL     1     139.567 137.377 144.076  1.00  0.00     0.014 C 
ATOM     10  C   UNL     1     143.638 139.005 141.706  1.00  0.00     0.014 C 
ENDROOT
BRANCH   8  11
ATOM     11  O   UNL     1     141.193 139.743 142.743  1.00  0.00    -0.392 OA
ATOM     12  H   UNL     1     141.122 140.488 143.395  1.00  0.00     0.211 HD
ENDBRANCH   8  11
TORSDOF 1
ENDMDL
MODEL 2
REMARK VINA RESULT:    -3.262      5.882      7.356
REMARK INTER + INTRA:          -3.358
REMARK INTER:                  -3.358
REMARK INTRA:                   0.000
REMARK UNBOUND:                 0.000
REMARK SMILES CC1(C)[C@@H]2CC[C@@](C)(C2)[C@@H]1O
REMARK SMILES IDX 1 1 2 2 4 3 5 4 6 5 7 6 9 7 10 8 8 9 3 10 11 11
REMARK H PARENT 11 12
REMARK Flexibility Score: inf
ROOT
ATOM      1  C   UNL     1     137.544 143.290 144.125  1.00  0.00     0.014 C 
ATOM      2  C   UNL     1     138.561 143.420 142.966  1.00  0.00    -0.006 C 
ATOM      3  C   UNL     1     138.800 144.932 142.625  1.00  0.00    -0.002 C 
ATOM      4  C   UNL     1     139.594 145.089 141.312  1.00  0.00     0.005 C 
ATOM      5  C   UNL     1     140.981 144.542 141.685  1.00  0.00     0.010 C 
ATOM      6  C   UNL     1     140.836 144.250 143.198  1.00  0.00    -0.006 C 
ATOM      7  C   UNL     1     139.871 145.334 143.626  1.00  0.00     0.013 C 
ATOM      8  C   UNL     1     139.990 142.972 143.424  1.00  0.00     0.126 C 
ATOM      9  C   UNL     1     142.165 144.261 143.961  1.00  0.00     0.014 C 
ATOM     10  C   UNL     1     138.007 142.603 141.771  1.00  0.00     0.014 C 
ENDROOT
BRANCH   8  11
ATOM     11  O   UNL     1     140.502 141.884 142.695  1.00  0.00    -0.392 OA
ATOM     12  H   UNL     1     140.115 141.948 141.784  1.00  0.00     0.211 HD
ENDBRANCH   8  11
TORSDOF 1
ENDMDL
MODEL 3
REMARK VINA RESULT:    -3.252      3.882      5.469
REMARK INTER + INTRA:          -3.347
REMARK INTER:                  -3.347
REMARK INTRA:                   0.000
REMARK UNBOUND:                 0.000
REMARK SMILES CC1(C)[C@@H]2CC[C@@](C)(C2)[C@@H]1O
REMARK SMILES IDX 1 1 2 2 4 3 5 4 6 5 7 6 9 7 10 8 8 9 3 10 11 11
REMARK H PARENT 11 12
REMARK Flexibility Score: inf
ROOT
ATOM      1  C   UNL     1     138.037 137.704 144.116  1.00  0.00     0.014 C 
ATOM      2  C   UNL     1     137.921 138.631 142.882  1.00  0.00    -0.006 C 
ATOM      3  C   UNL     1     136.418 138.987 142.615  1.00  0.00    -0.002 C 
ATOM      4  C   UNL     1     136.244 139.682 141.248  1.00  0.00     0.005 C 
ATOM      5  C   UNL     1     136.940 141.035 141.464  1.00  0.00     0.010 C 
ATOM      6  C   UNL     1     137.322 140.987 142.963  1.00  0.00    -0.006 C 
ATOM      7  C   UNL     1     136.187 140.171 143.540  1.00  0.00     0.013 C 
ATOM      8  C   UNL     1     138.530 140.042 143.184  1.00  0.00     0.126 C 
ATOM      9  C   UNL     1     137.486 142.369 143.605  1.00  0.00     0.014 C 
ATOM     10  C   UNL     1     138.600 137.903 141.693  1.00  0.00     0.014 C 
ENDROOT
BRANCH   8  11
ATOM     11  O   UNL     1     139.607 140.384 142.348  1.00  0.00    -0.392 OA
ATOM     12  H   UNL     1     139.218 140.854 141.565  1.00  0.00     0.211 HD
ENDBRANCH   8  11
TORSDOF 1
ENDMDL
MODEL 4
REMARK VINA RESULT:    -3.251      3.362      4.980
REMARK INTER + INTRA:          -3.346
REMARK INTER:                  -3.346
REMARK INTRA:                   0.000
REMARK UNBOUND:                 0.000
REMARK SMILES CC1(C)[C@@H]2CC[C@@](C)(C2)[C@@H]1O
REMARK SMILES IDX 1 1 2 2 4 3 5 4 6 5 7 6 9 7 10 8 8 9 3 10 11 11
REMARK H PARENT 11 12
REMARK Flexibility Score: inf
ROOT
ATOM      1  C   UNL     1     143.498 143.902 144.086  1.00  0.00     0.014 C 
ATOM      2  C   UNL     1     143.583 142.910 142.901  1.00  0.00    -0.006 C 
ATOM      3  C   UNL     1     145.077 142.522 142.629  1.00  0.00    -0.002 C 
ATOM      4  C   UNL     1     145.221 141.753 141.299  1.00  0.00     0.005 C 
ATOM      5  C   UNL     1     144.512 140.422 141.597  1.00  0.00     0.010 C 
ATOM      6  C   UNL     1     144.155 140.554 143.097  1.00  0.00    -0.006 C 
ATOM      7  C   UNL     1     145.310 141.385 143.612  1.00  0.00     0.013 C 
ATOM      8  C   UNL     1     142.963 141.525 143.286  1.00  0.00     0.126 C 
ATOM      9  C   UNL     1     143.985 139.211 143.814  1.00  0.00     0.014 C 
ATOM     10  C   UNL     1     142.894 143.583 141.685  1.00  0.00     0.014 C 
ENDROOT
BRANCH   8  11
ATOM     11  O   UNL     1     141.868 141.153 142.486  1.00  0.00    -0.392 OA
ATOM     12  H   UNL     1     141.938 141.682 141.650  1.00  0.00     0.211 HD
ENDBRANCH   8  11
TORSDOF 1
ENDMDL
MODEL 5
REMARK VINA RESULT:    -3.235      1.394      3.165
REMARK INTER + INTRA:          -3.329
REMARK INTER:                  -3.329
REMARK INTRA:                   0.000
REMARK UNBOUND:                 0.000
REMARK SMILES CC1(C)[C@@H]2CC[C@@](C)(C2)[C@@H]1O
REMARK SMILES IDX 1 1 2 2 4 3 5 4 6 5 7 6 9 7 10 8 8 9 3 10 11 11
REMARK H PARENT 11 12
REMARK Flexibility Score: inf
ROOT
ATOM      1  C   UNL     1     138.614 137.647 143.540  1.00  0.00     0.014 C 
ATOM      2  C   UNL     1     140.072 137.952 143.119  1.00  0.00    -0.006 C 
ATOM      3  C   UNL     1     141.074 137.281 144.121  1.00  0.00    -0.002 C 
ATOM      4  C   UNL     1     142.515 137.782 143.888  1.00  0.00     0.005 C 
ATOM      5  C   UNL     1     142.865 137.184 142.516  1.00  0.00     0.010 C 
ATOM      6  C   UNL     1     141.622 136.321 142.193  1.00  0.00    -0.006 C 
ATOM      7  C   UNL     1     141.199 135.869 143.573  1.00  0.00     0.013 C 
ATOM      8  C   UNL     1     140.430 137.222 141.780  1.00  0.00     0.126 C 
ATOM      9  C   UNL     1     141.901 135.173 141.218  1.00  0.00     0.014 C 
ATOM     10  C   UNL     1     140.219 139.494 143.045  1.00  0.00     0.014 C 
ENDROOT
BRANCH   8  11
ATOM     11  O   UNL     1     140.786 138.096 140.738  1.00  0.00    -0.392 OA
ATOM     12  H   UNL     1     139.937 138.416 140.337  1.00  0.00     0.211 HD
ENDBRANCH   8  11
TORSDOF 1
ENDMDL
MODEL 6
REMARK VINA RESULT:    -3.225      3.806      5.240
REMARK INTER + INTRA:          -3.320
REMARK INTER:                  -3.320
REMARK INTRA:                   0.000
REMARK UNBOUND:                 0.000
REMARK SMILES CC1(C)[C@@H]2CC[C@@](C)(C2)[C@@H]1O
REMARK SMILES IDX 1 1 2 2 4 3 5 4 6 5 7 6 9 7 10 8 8 9 3 10 11 11
REMARK H PARENT 11 12
REMARK Flexibility Score: inf
ROOT
ATOM      1  C   UNL     1     146.338 141.766 141.284  1.00  0.00     0.014 C 
ATOM      2  C   UNL     1     144.937 141.444 141.855  1.00  0.00    -0.006 C 
ATOM      3  C   UNL     1     145.060 140.942 143.335  1.00  0.00    -0.002 C 
ATOM      4  C   UNL     1     143.722 140.363 143.841  1.00  0.00     0.005 C 
ATOM      5  C   UNL     1     142.821 141.606 143.916  1.00  0.00     0.010 C 
ATOM      6  C   UNL     1     143.793 142.755 143.554  1.00  0.00    -0.006 C 
ATOM      7  C   UNL     1     145.096 142.240 144.125  1.00  0.00     0.013 C 
ATOM      8  C   UNL     1     144.093 142.751 142.035  1.00  0.00     0.126 C 
ATOM      9  C   UNL     1     143.368 144.121 144.103  1.00  0.00     0.014 C 
ATOM     10  C   UNL     1     144.280 140.406 140.908  1.00  0.00     0.014 C 
ENDROOT
BRANCH   8  11
ATOM     11  O   UNL     1     142.908 142.768 141.279  1.00  0.00    -0.392 OA
ATOM     12  H   UNL     1     143.083 142.223 140.468  1.00  0.00     0.211 HD
ENDBRANCH   8  11
TORSDOF 1
ENDMDL
MODEL 7
REMARK VINA RESULT:    -3.212      1.564      2.881
REMARK INTER + INTRA:          -3.306
REMARK INTER:                  -3.306
REMARK INTRA:                   0.000
REMARK UNBOUND:                 0.000
REMARK SMILES CC1(C)[C@@H]2CC[C@@](C)(C2)[C@@H]1O
REMARK SMILES IDX 1 1 2 2 4 3 5 4 6 5 7 6 9 7 10 8 8 9 3 10 11 11
REMARK H PARENT 11 12
REMARK Flexibility Score: inf
ROOT
ATOM      1  C   UNL     1     141.807 140.032 141.703  1.00  0.00     0.014 C 
ATOM      2  C   UNL     1     141.720 138.920 142.775  1.00  0.00    -0.006 C 
ATOM      3  C   UNL     1     140.272 138.320 142.814  1.00  0.00    -0.002 C 
ATOM      4  C   UNL     1     140.080 137.405 144.041  1.00  0.00     0.005 C 
ATOM      5  C   UNL     1     140.995 136.212 143.724  1.00  0.00     0.010 C 
ATOM      6  C   UNL     1     141.506 136.543 142.301  1.00  0.00    -0.006 C 
ATOM      7  C   UNL     1     140.317 137.271 141.714  1.00  0.00     0.013 C 
ATOM      8  C   UNL     1     142.567 137.671 142.355  1.00  0.00     0.126 C 
ATOM      9  C   UNL     1     141.944 135.314 141.498  1.00  0.00     0.014 C 
ATOM     10  C   UNL     1     142.161 139.544 144.125  1.00  0.00     0.014 C 
ENDROOT
BRANCH   8  11
ATOM     11  O   UNL     1     143.600 137.359 143.257  1.00  0.00    -0.392 OA
ATOM     12  H   UNL     1     143.521 138.002 144.009  1.00  0.00     0.211 HD
ENDBRANCH   8  11
TORSDOF 1
ENDMDL
MODEL 8
REMARK VINA RESULT:    -3.197      1.123      3.051
REMARK INTER + INTRA:          -3.290
REMARK INTER:                  -3.290
REMARK INTRA:                   0.000
REMARK UNBOUND:                 0.000
REMARK SMILES CC1(C)[C@@H]2CC[C@@](C)(C2)[C@@H]1O
REMARK SMILES IDX 1 1 2 2 4 3 5 4 6 5 7 6 9 7 10 8 8 9 3 10 11 11
REMARK H PARENT 11 12
REMARK Flexibility Score: inf
ROOT
ATOM      1  C   UNL     1     141.776 135.310 141.259  1.00  0.00     0.014 C 
ATOM      2  C   UNL     1     141.422 136.688 141.869  1.00  0.00    -0.006 C 
ATOM      3  C   UNL     1     140.981 136.519 143.364  1.00  0.00    -0.002 C 
ATOM      4  C   UNL     1     140.371 137.824 143.916  1.00  0.00     0.005 C 
ATOM      5  C   UNL     1     141.580 138.771 143.964  1.00  0.00     0.010 C 
ATOM      6  C   UNL     1     142.751 137.851 143.542  1.00  0.00    -0.006 C 
ATOM      7  C   UNL     1     142.308 136.519 144.105  1.00  0.00     0.013 C 
ATOM      8  C   UNL     1     142.702 137.578 142.018  1.00  0.00     0.126 C 
ATOM      9  C   UNL     1     144.119 138.319 144.048  1.00  0.00     0.014 C 
ATOM     10  C   UNL     1     140.325 137.321 140.974  1.00  0.00     0.014 C 
ENDROOT
BRANCH   8  11
ATOM     11  O   UNL     1     142.645 138.777 141.284  1.00  0.00    -0.392 OA
ATOM     12  H   UNL     1     142.144 139.425 141.843  1.00  0.00     0.211 HD
ENDBRANCH   8  11
TORSDOF 1
ENDMDL
MODEL 9
REMARK VINA RESULT:    -0.663      6.181      7.300
REMARK INTER + INTRA:          -0.683
REMARK INTER:                  -0.683
REMARK INTRA:                   0.000
REMARK UNBOUND:                 0.000
REMARK SMILES CC1(C)[C@@H]2CC[C@@](C)(C2)[C@@H]1O
REMARK SMILES IDX 1 1 2 2 4 3 5 4 6 5 7 6 9 7 10 8 8 9 3 10 11 11
REMARK H PARENT 11 12
REMARK Flexibility Score: inf
ROOT
ATOM      1  C   UNL     1     139.831 146.392 141.284  1.00  0.00     0.014 C 
ATOM      2  C   UNL     1     140.179 144.996 141.854  1.00  0.00    -0.006 C 
ATOM      3  C   UNL     1     140.679 145.127 143.334  1.00  0.00    -0.002 C 
ATOM      4  C   UNL     1     141.283 143.799 143.838  1.00  0.00     0.005 C 
ATOM      5  C   UNL     1     140.057 142.875 143.914  1.00  0.00     0.010 C 
ATOM      6  C   UNL     1     138.890 143.827 143.554  1.00  0.00    -0.006 C 
ATOM      7  C   UNL     1     139.381 145.139 144.125  1.00  0.00     0.013 C 
ATOM      8  C   UNL     1     138.887 144.128 142.035  1.00  0.00     0.126 C 
ATOM      9  C   UNL     1     137.532 143.377 144.104  1.00  0.00     0.014 C 
ATOM     10  C   UNL     1     141.227 144.358 140.906  1.00  0.00     0.014 C 
ENDROOT
BRANCH   8  11
ATOM     11  O   UNL     1     138.891 142.944 141.278  1.00  0.00    -0.392 OA
ATOM     12  H   UNL     1     139.370 143.150 140.434  1.00  0.00     0.211 HD
ENDBRANCH   8  11
TORSDOF 1
ENDMDL
