MODEL 1
REMARK VINA RESULT:    -5.153      0.000      0.000
REMARK INTER + INTRA:          -6.371
REMARK INTER:                  -6.056
REMARK INTRA:                  -0.315
REMARK UNBOUND:                -0.315
REMARK SMILES O=c1cc(-c2ccc(O)c(O)c2)oc2cc(O)cc(O)c12
REMARK SMILES IDX 4 1 3 2 2 3 1 4 21 5 19 6 18 7 16 8 15 9 14 10 13 11 5 12
REMARK SMILES IDX 6 13 7 14 8 15 12 16 10 17 9 18 11 20 20 22 17 24
REMARK H PARENT 9 19 11 21 20 23 17 25
REMARK Flexibility Score: inf
ROOT
ATOM      1  C   UNL     1       7.724   6.666  31.991  1.00  0.00     0.138 A 
ATOM      2  C   UNL     1       9.042   7.089  31.774  1.00  0.00     0.100 A 
ATOM      3  C   UNL     1       9.705   6.713  30.605  1.00  0.00     0.197 A 
ATOM      4  O   UNL     1      10.866   7.159  30.410  1.00  0.00    -0.289 OA
ATOM      5  C   UNL     1       9.053   5.881  29.664  1.00  0.00     0.107 A 
ATOM      6  C   UNL     1       9.644   5.402  28.457  1.00  0.00     0.134 A 
ATOM      7  C   UNL     1       8.863   4.681  27.544  1.00  0.00     0.093 A 
ATOM      8  C   UNL     1       7.532   4.372  27.822  1.00  0.00     0.123 A 
ATOM      9  C   UNL     1       6.959   4.790  29.024  1.00  0.00     0.094 A 
ATOM     10  C   UNL     1       7.702   5.540  29.939  1.00  0.00     0.146 A 
ATOM     11  O   UNL     1       7.116   5.931  31.065  1.00  0.00    -0.456 OA
ENDROOT
BRANCH   1  12
ATOM     12  C   UNL     1       6.973   7.036  33.217  1.00  0.00     0.021 A 
ATOM     13  C   UNL     1       7.660   7.591  34.309  1.00  0.00     0.016 A 
ATOM     14  C   UNL     1       6.975   7.954  35.471  1.00  0.00     0.051 A 
ATOM     15  C   UNL     1       5.592   7.779  35.560  1.00  0.00     0.157 A 
ATOM     16  C   UNL     1       5.576   6.873  33.306  1.00  0.00     0.062 A 
ATOM     17  C   UNL     1       4.887   7.240  34.472  1.00  0.00     0.158 A 
BRANCH  15  18
ATOM     18  O   UNL     1       4.936   8.149  36.733  1.00  0.00    -0.504 OA
ATOM     19  H   UNL     1       5.389   8.699  37.453  1.00  0.00     0.293 HD
ENDBRANCH  15  18
BRANCH  17  20
ATOM     20  O   UNL     1       3.505   7.072  34.550  1.00  0.00    -0.504 OA
ATOM     21  H   UNL     1       3.015   6.415  33.954  1.00  0.00     0.293 HD
ENDBRANCH  17  20
ENDBRANCH   1  12
BRANCH   6  22
ATOM     22  O   UNL     1      10.990   5.582  28.120  1.00  0.00    -0.507 OA
ATOM     23  H   UNL     1      11.441   5.178  27.315  1.00  0.00     0.293 HD
ENDBRANCH   6  22
BRANCH   8  24
ATOM     24  O   UNL     1       6.789   3.640  26.898  1.00  0.00    -0.508 OA
ATOM     25  H   UNL     1       6.130   2.929  27.192  1.00  0.00     0.293 HD
ENDBRANCH   8  24
TORSDOF 5
ENDMDL
MODEL 2
REMARK VINA RESULT:    -5.094     11.338     12.752
REMARK INTER + INTRA:          -6.303
REMARK INTER:                  -6.004
REMARK INTRA:                  -0.299
REMARK UNBOUND:                -0.315
REMARK SMILES O=c1cc(-c2ccc(O)c(O)c2)oc2cc(O)cc(O)c12
REMARK SMILES IDX 4 1 3 2 2 3 1 4 21 5 19 6 18 7 16 8 15 9 14 10 13 11 5 12
REMARK SMILES IDX 6 13 7 14 8 15 12 16 10 17 9 18 11 20 20 22 17 24
REMARK H PARENT 9 19 11 21 20 23 17 25
REMARK Flexibility Score: inf
ROOT
ATOM      1  C   UNL     1       1.365  15.890  30.485  1.00  0.00     0.138 A 
ATOM      2  C   UNL     1       2.763  15.949  30.550  1.00  0.00     0.100 A 
ATOM      3  C   UNL     1       3.433  17.060  30.037  1.00  0.00     0.197 A 
ATOM      4  O   UNL     1       4.684  17.113  30.165  1.00  0.00    -0.289 OA
ATOM      5  C   UNL     1       2.697  18.104  29.426  1.00  0.00     0.107 A 
ATOM      6  C   UNL     1       3.275  19.265  28.832  1.00  0.00     0.134 A 
ATOM      7  C   UNL     1       2.442  20.287  28.360  1.00  0.00     0.093 A 
ATOM      8  C   UNL     1       1.054  20.164  28.407  1.00  0.00     0.123 A 
ATOM      9  C   UNL     1       0.478  19.008  28.937  1.00  0.00     0.094 A 
ATOM     10  C   UNL     1       1.282  17.986  29.446  1.00  0.00     0.146 A 
ATOM     11  O   UNL     1       0.695  16.908  29.955  1.00  0.00    -0.456 OA
ENDROOT
BRANCH   1  12
ATOM     12  C   UNL     1       0.603  14.731  31.015  1.00  0.00     0.021 A 
ATOM     13  C   UNL     1       1.119  13.434  30.859  1.00  0.00     0.016 A 
ATOM     14  C   UNL     1       0.424  12.328  31.354  1.00  0.00     0.051 A 
ATOM     15  C   UNL     1      -0.791  12.497  32.023  1.00  0.00     0.157 A 
ATOM     16  C   UNL     1      -0.617  14.899  31.700  1.00  0.00     0.062 A 
ATOM     17  C   UNL     1      -1.314  13.789  32.201  1.00  0.00     0.158 A 
BRANCH  15  18
ATOM     18  O   UNL     1      -1.462  11.375  32.505  1.00  0.00    -0.504 OA
ATOM     19  H   UNL     1      -0.984  10.635  33.006  1.00  0.00     0.293 HD
ENDBRANCH  15  18
BRANCH  17  20
ATOM     20  O   UNL     1      -2.520  13.966  32.876  1.00  0.00    -0.504 OA
ATOM     21  H   UNL     1      -2.840  13.306  33.575  1.00  0.00     0.293 HD
ENDBRANCH  17  20
ENDBRANCH   1  12
BRANCH   6  22
ATOM     22  O   UNL     1       4.650  19.452  28.658  1.00  0.00    -0.507 OA
ATOM     23  H   UNL     1       5.314  18.715  28.479  1.00  0.00     0.293 HD
ENDBRANCH   6  22
BRANCH   8  24
ATOM     24  O   UNL     1       0.255  21.194  27.915  1.00  0.00    -0.508 OA
ATOM     25  H   UNL     1       0.636  21.927  27.330  1.00  0.00     0.293 HD
ENDBRANCH   8  24
TORSDOF 5
ENDMDL
MODEL 3
REMARK VINA RESULT:    -5.015      8.962     10.977
REMARK INTER + INTRA:          -6.210
REMARK INTER:                  -5.937
REMARK INTRA:                  -0.273
REMARK UNBOUND:                -0.315
REMARK SMILES O=c1cc(-c2ccc(O)c(O)c2)oc2cc(O)cc(O)c12
REMARK SMILES IDX 4 1 3 2 2 3 1 4 21 5 19 6 18 7 16 8 15 9 14 10 13 11 5 12
REMARK SMILES IDX 6 13 7 14 8 15 12 16 10 17 9 18 11 20 20 22 17 24
REMARK H PARENT 9 19 11 21 20 23 17 25
REMARK Flexibility Score: inf
ROOT
ATOM      1  C   UNL     1      -0.419  11.292  33.133  1.00  0.00     0.138 A 
ATOM      2  C   UNL     1       0.630  10.870  33.960  1.00  0.00     0.100 A 
ATOM      3  C   UNL     1       0.546   9.638  34.609  1.00  0.00     0.197 A 
ATOM      4  O   UNL     1       1.530   9.258  35.296  1.00  0.00    -0.289 OA
ATOM      5  C   UNL     1      -0.612   8.839  34.453  1.00  0.00     0.107 A 
ATOM      6  C   UNL     1      -0.826   7.584  35.098  1.00  0.00     0.134 A 
ATOM      7  C   UNL     1      -1.960   6.827  34.776  1.00  0.00     0.093 A 
ATOM      8  C   UNL     1      -2.915   7.306  33.881  1.00  0.00     0.123 A 
ATOM      9  C   UNL     1      -2.742   8.557  33.285  1.00  0.00     0.094 A 
ATOM     10  C   UNL     1      -1.605   9.320  33.559  1.00  0.00     0.146 A 
ATOM     11  O   UNL     1      -1.471  10.498  32.960  1.00  0.00    -0.456 OA
ENDROOT
BRANCH   1  12
ATOM     12  C   UNL     1      -0.381  12.594  32.420  1.00  0.00     0.021 A 
ATOM     13  C   UNL     1       0.599  12.817  31.438  1.00  0.00     0.016 A 
ATOM     14  C   UNL     1       0.652  14.030  30.748  1.00  0.00     0.051 A 
ATOM     15  C   UNL     1      -0.278  15.038  31.017  1.00  0.00     0.157 A 
ATOM     16  C   UNL     1      -1.325  13.607  32.679  1.00  0.00     0.062 A 
ATOM     17  C   UNL     1      -1.275  14.825  31.984  1.00  0.00     0.158 A 
BRANCH  15  18
ATOM     18  O   UNL     1      -0.200  16.238  30.314  1.00  0.00    -0.504 OA
ATOM     19  H   UNL     1      -1.011  16.828  30.164  1.00  0.00     0.293 HD
ENDBRANCH  15  18
BRANCH  17  20
ATOM     20  O   UNL     1      -2.213  15.822  32.250  1.00  0.00    -0.504 OA
ATOM     21  H   UNL     1      -1.961  16.803  32.245  1.00  0.00     0.293 HD
ENDBRANCH  17  20
ENDBRANCH   1  12
BRANCH   6  22
ATOM     22  O   UNL     1       0.023   7.051  36.073  1.00  0.00    -0.507 OA
ATOM     23  H   UNL     1       0.422   7.573  36.837  1.00  0.00     0.293 HD
ENDBRANCH   6  22
BRANCH   8  24
ATOM     24  O   UNL     1      -4.039   6.533  33.595  1.00  0.00    -0.508 OA
ATOM     25  H   UNL     1      -4.062   5.539  33.790  1.00  0.00     0.293 HD
ENDBRANCH   8  24
TORSDOF 5
ENDMDL
MODEL 4
REMARK VINA RESULT:    -4.996      9.667     11.923
REMARK INTER + INTRA:          -6.187
REMARK INTER:                  -5.893
REMARK INTRA:                  -0.294
REMARK UNBOUND:                -0.315
REMARK SMILES O=c1cc(-c2ccc(O)c(O)c2)oc2cc(O)cc(O)c12
REMARK SMILES IDX 4 1 3 2 2 3 1 4 21 5 19 6 18 7 16 8 15 9 14 10 13 11 5 12
REMARK SMILES IDX 6 13 7 14 8 15 12 16 10 17 9 18 11 20 20 22 17 24
REMARK H PARENT 9 19 11 21 20 23 17 25
REMARK Flexibility Score: inf
ROOT
ATOM      1  C   UNL     1       2.107  15.499  31.275  1.00  0.00     0.138 A 
ATOM      2  C   UNL     1       3.060  15.332  32.288  1.00  0.00     0.100 A 
ATOM      3  C   UNL     1       2.914  14.294  33.210  1.00  0.00     0.197 A 
ATOM      4  O   UNL     1       3.818  14.131  34.070  1.00  0.00    -0.289 OA
ATOM      5  C   UNL     1       1.788  13.440  33.134  1.00  0.00     0.107 A 
ATOM      6  C   UNL     1       1.514  12.375  34.043  1.00  0.00     0.134 A 
ATOM      7  C   UNL     1       0.430  11.522  33.800  1.00  0.00     0.093 A 
ATOM      8  C   UNL     1      -0.422  11.731  32.716  1.00  0.00     0.123 A 
ATOM      9  C   UNL     1      -0.194  12.802  31.851  1.00  0.00     0.094 A 
ATOM     10  C   UNL     1       0.898  13.650  32.047  1.00  0.00     0.146 A 
ATOM     11  O   UNL     1       1.088  14.649  31.193  1.00  0.00    -0.456 OA
ENDROOT
BRANCH   1  12
ATOM     12  C   UNL     1       2.214  16.586  30.269  1.00  0.00     0.021 A 
ATOM     13  C   UNL     1       3.459  16.866  29.681  1.00  0.00     0.016 A 
ATOM     14  C   UNL     1       3.584  17.878  28.727  1.00  0.00     0.051 A 
ATOM     15  C   UNL     1       2.468  18.623  28.336  1.00  0.00     0.157 A 
ATOM     16  C   UNL     1       1.089  17.331  29.862  1.00  0.00     0.062 A 
ATOM     17  C   UNL     1       1.213  18.346  28.902  1.00  0.00     0.158 A 
BRANCH  15  18
ATOM     18  O   UNL     1       2.624  19.629  27.383  1.00  0.00    -0.504 OA
ATOM     19  H   UNL     1       1.886  19.873  26.733  1.00  0.00     0.293 HD
ENDBRANCH  15  18
BRANCH  17  20
ATOM     20  O   UNL     1       0.093  19.078  28.509  1.00  0.00    -0.504 OA
ATOM     21  H   UNL     1      -0.450  19.616  29.173  1.00  0.00     0.293 HD
ENDBRANCH  17  20
ENDBRANCH   1  12
BRANCH   6  22
ATOM     22  O   UNL     1       2.252  12.129  35.205  1.00  0.00    -0.507 OA
ATOM     23  H   UNL     1       2.651  12.842  35.795  1.00  0.00     0.293 HD
ENDBRANCH   6  22
BRANCH   8  24
ATOM     24  O   UNL     1      -1.500  10.871  32.513  1.00  0.00    -0.508 OA
ATOM     25  H   UNL     1      -1.595  10.008  33.035  1.00  0.00     0.293 HD
ENDBRANCH   8  24
TORSDOF 5
ENDMDL
MODEL 5
REMARK VINA RESULT:    -4.974     10.925     13.038
REMARK INTER + INTRA:          -6.161
REMARK INTER:                  -5.896
REMARK INTRA:                  -0.265
REMARK UNBOUND:                -0.315
REMARK SMILES O=c1cc(-c2ccc(O)c(O)c2)oc2cc(O)cc(O)c12
REMARK SMILES IDX 4 1 3 2 2 3 1 4 21 5 19 6 18 7 16 8 15 9 14 10 13 11 5 12
REMARK SMILES IDX 6 13 7 14 8 15 12 16 10 17 9 18 11 20 20 22 17 24
REMARK H PARENT 9 19 11 21 20 23 17 25
REMARK Flexibility Score: inf
ROOT
ATOM      1  C   UNL     1       2.885  17.152  29.951  1.00  0.00     0.138 A 
ATOM      2  C   UNL     1       1.849  18.017  30.330  1.00  0.00     0.100 A 
ATOM      3  C   UNL     1       0.663  17.492  30.843  1.00  0.00     0.197 A 
ATOM      4  O   UNL     1      -0.225  18.296  31.231  1.00  0.00    -0.289 OA
ATOM      5  C   UNL     1       0.502  16.090  30.948  1.00  0.00     0.107 A 
ATOM      6  C   UNL     1      -0.678  15.441  31.418  1.00  0.00     0.134 A 
ATOM      7  C   UNL     1      -0.680  14.051  31.589  1.00  0.00     0.093 A 
ATOM      8  C   UNL     1       0.432  13.282  31.250  1.00  0.00     0.123 A 
ATOM      9  C   UNL     1       1.574  13.901  30.738  1.00  0.00     0.094 A 
ATOM     10  C   UNL     1       1.619  15.289  30.589  1.00  0.00     0.146 A 
ATOM     11  O   UNL     1       2.729  15.842  30.111  1.00  0.00    -0.456 OA
ENDROOT
BRANCH   1  12
ATOM     12  C   UNL     1       4.166  17.657  29.399  1.00  0.00     0.021 A 
ATOM     13  C   UNL     1       4.268  17.931  28.024  1.00  0.00     0.016 A 
ATOM     14  C   UNL     1       5.461  18.413  27.480  1.00  0.00     0.051 A 
ATOM     15  C   UNL     1       6.570  18.640  28.299  1.00  0.00     0.157 A 
ATOM     16  C   UNL     1       5.283  17.900  30.223  1.00  0.00     0.062 A 
ATOM     17  C   UNL     1       6.481  18.386  29.678  1.00  0.00     0.158 A 
BRANCH  15  18
ATOM     18  O   UNL     1       7.747  19.120  27.729  1.00  0.00    -0.504 OA
ATOM     19  H   UNL     1       8.145  18.711  26.891  1.00  0.00     0.293 HD
ENDBRANCH  15  18
BRANCH  17  20
ATOM     20  O   UNL     1       7.581  18.621  30.503  1.00  0.00    -0.504 OA
ATOM     21  H   UNL     1       7.769  19.539  30.889  1.00  0.00     0.293 HD
ENDBRANCH  17  20
ENDBRANCH   1  12
BRANCH   6  22
ATOM     22  O   UNL     1      -1.875  16.106  31.706  1.00  0.00    -0.507 OA
ATOM     23  H   UNL     1      -2.496  15.871  32.464  1.00  0.00     0.293 HD
ENDBRANCH   6  22
BRANCH   8  24
ATOM     24  O   UNL     1       0.390  11.899  31.419  1.00  0.00    -0.508 OA
ATOM     25  H   UNL     1       0.680  11.462  32.285  1.00  0.00     0.293 HD
ENDBRANCH   8  24
TORSDOF 5
ENDMDL
MODEL 6
REMARK VINA RESULT:    -4.969      8.323     10.942
REMARK INTER + INTRA:          -6.155
REMARK INTER:                  -5.885
REMARK INTRA:                  -0.271
REMARK UNBOUND:                -0.315
REMARK SMILES O=c1cc(-c2ccc(O)c(O)c2)oc2cc(O)cc(O)c12
REMARK SMILES IDX 4 1 3 2 2 3 1 4 21 5 19 6 18 7 16 8 15 9 14 10 13 11 5 12
REMARK SMILES IDX 6 13 7 14 8 15 12 16 10 17 9 18 11 20 20 22 17 24
REMARK H PARENT 9 19 11 21 20 23 17 25
REMARK Flexibility Score: inf
ROOT
ATOM      1  C   UNL     1      -0.195  11.747  32.883  1.00  0.00     0.138 A 
ATOM      2  C   UNL     1      -1.383  11.005  32.836  1.00  0.00     0.100 A 
ATOM      3  C   UNL     1      -1.486   9.819  33.564  1.00  0.00     0.197 A 
ATOM      4  O   UNL     1      -2.586   9.207  33.552  1.00  0.00    -0.289 OA
ATOM      5  C   UNL     1      -0.380   9.358  34.318  1.00  0.00     0.107 A 
ATOM      6  C   UNL     1      -0.356   8.143  35.065  1.00  0.00     0.134 A 
ATOM      7  C   UNL     1       0.753   7.847  35.867  1.00  0.00     0.093 A 
ATOM      8  C   UNL     1       1.863   8.691  35.901  1.00  0.00     0.123 A 
ATOM      9  C   UNL     1       1.872   9.856  35.131  1.00  0.00     0.094 A 
ATOM     10  C   UNL     1       0.767  10.195  34.349  1.00  0.00     0.146 A 
ATOM     11  O   UNL     1       0.810  11.319  33.642  1.00  0.00    -0.456 OA
ENDROOT
BRANCH   1  12
ATOM     12  C   UNL     1      -0.031  13.014  32.127  1.00  0.00     0.021 A 
ATOM     13  C   UNL     1       1.059  13.162  31.253  1.00  0.00     0.016 A 
ATOM     14  C   UNL     1       1.232  14.342  30.526  1.00  0.00     0.051 A 
ATOM     15  C   UNL     1       0.316  15.390  30.650  1.00  0.00     0.157 A 
ATOM     16  C   UNL     1      -0.959  14.068  32.239  1.00  0.00     0.062 A 
ATOM     17  C   UNL     1      -0.788  15.252  31.507  1.00  0.00     0.158 A 
BRANCH  15  18
ATOM     18  O   UNL     1       0.515  16.556  29.913  1.00  0.00    -0.504 OA
ATOM     19  H   UNL     1      -0.060  17.380  30.042  1.00  0.00     0.293 HD
ENDBRANCH  15  18
BRANCH  17  20
ATOM     20  O   UNL     1      -1.712  16.289  31.628  1.00  0.00    -0.504 OA
ATOM     21  H   UNL     1      -2.659  16.199  31.281  1.00  0.00     0.293 HD
ENDBRANCH  17  20
ENDBRANCH   1  12
BRANCH   6  22
ATOM     22  O   UNL     1      -1.377   7.187  35.037  1.00  0.00    -0.507 OA
ATOM     23  H   UNL     1      -2.292   7.333  34.640  1.00  0.00     0.293 HD
ENDBRANCH   6  22
BRANCH   8  24
ATOM     24  O   UNL     1       2.956   8.359  36.699  1.00  0.00    -0.508 OA
ATOM     25  H   UNL     1       2.914   7.597  37.365  1.00  0.00     0.293 HD
ENDBRANCH   8  24
TORSDOF 5
ENDMDL
MODEL 7
REMARK VINA RESULT:    -4.959      9.318     11.946
REMARK INTER + INTRA:          -6.144
REMARK INTER:                  -5.848
REMARK INTRA:                  -0.296
REMARK UNBOUND:                -0.315
REMARK SMILES O=c1cc(-c2ccc(O)c(O)c2)oc2cc(O)cc(O)c12
REMARK SMILES IDX 4 1 3 2 2 3 1 4 21 5 19 6 18 7 16 8 15 9 14 10 13 11 5 12
REMARK SMILES IDX 6 13 7 14 8 15 12 16 10 17 9 18 11 20 20 22 17 24
REMARK H PARENT 9 19 11 21 20 23 17 25
REMARK Flexibility Score: inf
ROOT
ATOM      1  C   UNL     1      -0.197  13.450  32.248  1.00  0.00     0.138 A 
ATOM      2  C   UNL     1      -1.518  13.803  32.550  1.00  0.00     0.100 A 
ATOM      3  C   UNL     1      -2.337  12.902  33.231  1.00  0.00     0.197 A 
ATOM      4  O   UNL     1      -3.499  13.272  33.543  1.00  0.00    -0.289 OA
ATOM      5  C   UNL     1      -1.836  11.626  33.584  1.00  0.00     0.107 A 
ATOM      6  C   UNL     1      -2.592  10.611  34.243  1.00  0.00     0.134 A 
ATOM      7  C   UNL     1      -1.957   9.430  34.646  1.00  0.00     0.093 A 
ATOM      8  C   UNL     1      -0.611   9.201  34.361  1.00  0.00     0.123 A 
ATOM      9  C   UNL     1       0.124  10.165  33.668  1.00  0.00     0.094 A 
ATOM     10  C   UNL     1      -0.472  11.368  33.283  1.00  0.00     0.146 A 
ATOM     11  O   UNL     1       0.265  12.265  32.638  1.00  0.00    -0.456 OA
ENDROOT
BRANCH   1  12
ATOM     12  C   UNL     1       0.716  14.369  31.524  1.00  0.00     0.021 A 
ATOM     13  C   UNL     1       2.082  14.054  31.427  1.00  0.00     0.016 A 
ATOM     14  C   UNL     1       2.961  14.899  30.746  1.00  0.00     0.051 A 
ATOM     15  C   UNL     1       2.492  16.068  30.141  1.00  0.00     0.157 A 
ATOM     16  C   UNL     1       0.245  15.542  30.902  1.00  0.00     0.062 A 
ATOM     17  C   UNL     1       1.127  16.390  30.215  1.00  0.00     0.158 A 
BRANCH  15  18
ATOM     18  O   UNL     1       3.392  16.893  29.469  1.00  0.00    -0.504 OA
ATOM     19  H   UNL     1       3.985  17.554  29.958  1.00  0.00     0.293 HD
ENDBRANCH  15  18
BRANCH  17  20
ATOM     20  O   UNL     1       0.650  17.550  29.605  1.00  0.00    -0.504 OA
ATOM     21  H   UNL     1       0.183  18.276  30.135  1.00  0.00     0.293 HD
ENDBRANCH  17  20
ENDBRANCH   1  12
BRANCH   6  22
ATOM     22  O   UNL     1      -3.963  10.701  34.502  1.00  0.00    -0.507 OA
ATOM     23  H   UNL     1      -4.497  10.024  35.025  1.00  0.00     0.293 HD
ENDBRANCH   6  22
BRANCH   8  24
ATOM     24  O   UNL     1      -0.015   8.008  34.763  1.00  0.00    -0.508 OA
ATOM     25  H   UNL     1       0.930   7.984  35.126  1.00  0.00     0.293 HD
ENDBRANCH   8  24
TORSDOF 5
ENDMDL
MODEL 8
REMARK VINA RESULT:    -4.947     10.333     12.959
REMARK INTER + INTRA:          -6.130
REMARK INTER:                  -5.838
REMARK INTRA:                  -0.292
REMARK UNBOUND:                -0.315
REMARK SMILES O=c1cc(-c2ccc(O)c(O)c2)oc2cc(O)cc(O)c12
REMARK SMILES IDX 4 1 3 2 2 3 1 4 21 5 19 6 18 7 16 8 15 9 14 10 13 11 5 12
REMARK SMILES IDX 6 13 7 14 8 15 12 16 10 17 9 18 11 20 20 22 17 24
REMARK H PARENT 9 19 11 21 20 23 17 25
REMARK Flexibility Score: inf
ROOT
ATOM      1  C   UNL     1       0.607  15.777  30.988  1.00  0.00     0.138 A 
ATOM      2  C   UNL     1      -0.606  16.331  31.418  1.00  0.00     0.100 A 
ATOM      3  C   UNL     1      -1.518  15.540  32.117  1.00  0.00     0.197 A 
ATOM      4  O   UNL     1      -2.571  16.082  32.544  1.00  0.00    -0.289 OA
ATOM      5  C   UNL     1      -1.225  14.176  32.359  1.00  0.00     0.107 A 
ATOM      6  C   UNL     1      -2.097  13.264  33.025  1.00  0.00     0.134 A 
ATOM      7  C   UNL     1      -1.652  11.967  33.311  1.00  0.00     0.093 A 
ATOM      8  C   UNL     1      -0.392  11.532  32.902  1.00  0.00     0.123 A 
ATOM      9  C   UNL     1       0.448  12.400  32.202  1.00  0.00     0.094 A 
ATOM     10  C   UNL     1       0.046  13.710  31.932  1.00  0.00     0.146 A 
ATOM     11  O   UNL     1       0.881  14.508  31.275  1.00  0.00    -0.456 OA
ENDROOT
BRANCH   1  12
ATOM     12  C   UNL     1       1.612  16.573  30.239  1.00  0.00     0.021 A 
ATOM     13  C   UNL     1       2.955  16.160  30.232  1.00  0.00     0.016 A 
ATOM     14  C   UNL     1       3.919  16.888  29.530  1.00  0.00     0.051 A 
ATOM     15  C   UNL     1       3.559  18.033  28.814  1.00  0.00     0.157 A 
ATOM     16  C   UNL     1       1.251  17.720  29.506  1.00  0.00     0.062 A 
ATOM     17  C   UNL     1       2.217  18.450  28.798  1.00  0.00     0.158 A 
BRANCH  15  18
ATOM     18  O   UNL     1       4.542  18.739  28.125  1.00  0.00    -0.504 OA
ATOM     19  H   UNL     1       4.892  19.633  28.451  1.00  0.00     0.293 HD
ENDBRANCH  15  18
BRANCH  17  20
ATOM     20  O   UNL     1       1.849  19.585  28.078  1.00  0.00    -0.504 OA
ATOM     21  H   UNL     1       2.295  20.481  28.233  1.00  0.00     0.293 HD
ENDBRANCH  17  20
ENDBRANCH   1  12
BRANCH   6  22
ATOM     22  O   UNL     1      -3.408  13.570  33.403  1.00  0.00    -0.507 OA
ATOM     23  H   UNL     1      -3.663  14.121  34.207  1.00  0.00     0.293 HD
ENDBRANCH   6  22
BRANCH   8  24
ATOM     24  O   UNL     1       0.013  10.230  33.190  1.00  0.00    -0.508 OA
ATOM     25  H   UNL     1       0.355   9.972  34.108  1.00  0.00     0.293 HD
ENDBRANCH   8  24
TORSDOF 5
ENDMDL
MODEL 9
REMARK VINA RESULT:    -4.914      7.106     10.824
REMARK INTER + INTRA:          -6.091
REMARK INTER:                  -5.776
REMARK INTRA:                  -0.315
REMARK UNBOUND:                -0.315
REMARK SMILES O=c1cc(-c2ccc(O)c(O)c2)oc2cc(O)cc(O)c12
REMARK SMILES IDX 4 1 3 2 2 3 1 4 21 5 19 6 18 7 16 8 15 9 14 10 13 11 5 12
REMARK SMILES IDX 6 13 7 14 8 15 12 16 10 17 9 18 11 20 20 22 17 24
REMARK H PARENT 9 19 11 21 20 23 17 25
REMARK Flexibility Score: inf
ROOT
ATOM      1  C   UNL     1       4.351   8.390  39.682  1.00  0.00     0.138 A 
ATOM      2  C   UNL     1       4.230   9.309  40.734  1.00  0.00     0.100 A 
ATOM      3  C   UNL     1       4.907   9.081  41.932  1.00  0.00     0.197 A 
ATOM      4  O   UNL     1       4.827   9.954  42.835  1.00  0.00    -0.289 OA
ATOM      5  C   UNL     1       5.685   7.909  42.088  1.00  0.00     0.107 A 
ATOM      6  C   UNL     1       6.386   7.552  43.279  1.00  0.00     0.134 A 
ATOM      7  C   UNL     1       7.219   6.426  43.278  1.00  0.00     0.093 A 
ATOM      8  C   UNL     1       7.330   5.613  42.151  1.00  0.00     0.123 A 
ATOM      9  C   UNL     1       6.606   5.923  40.998  1.00  0.00     0.094 A 
ATOM     10  C   UNL     1       5.794   7.058  40.957  1.00  0.00     0.146 A 
ATOM     11  O   UNL     1       5.133   7.325  39.836  1.00  0.00    -0.456 OA
ENDROOT
BRANCH   1  12
ATOM     12  C   UNL     1       3.653   8.583  38.387  1.00  0.00     0.021 A 
ATOM     13  C   UNL     1       2.607   9.517  38.297  1.00  0.00     0.016 A 
ATOM     14  C   UNL     1       1.938   9.722  37.088  1.00  0.00     0.051 A 
ATOM     15  C   UNL     1       2.307   9.006  35.945  1.00  0.00     0.157 A 
ATOM     16  C   UNL     1       4.030   7.873  37.230  1.00  0.00     0.062 A 
ATOM     17  C   UNL     1       3.360   8.080  36.015  1.00  0.00     0.158 A 
BRANCH  15  18
ATOM     18  O   UNL     1       1.620   9.231  34.754  1.00  0.00    -0.504 OA
ATOM     19  H   UNL     1       0.967   8.555  34.373  1.00  0.00     0.293 HD
ENDBRANCH  15  18
BRANCH  17  20
ATOM     20  O   UNL     1       3.740   7.370  34.876  1.00  0.00    -0.504 OA
ATOM     21  H   UNL     1       4.317   7.789  34.157  1.00  0.00     0.293 HD
ENDBRANCH  17  20
ENDBRANCH   1  12
BRANCH   6  22
ATOM     22  O   UNL     1       6.280   8.249  44.487  1.00  0.00    -0.507 OA
ATOM     23  H   UNL     1       6.248   7.819  45.398  1.00  0.00     0.293 HD
ENDBRANCH   6  22
BRANCH   8  24
ATOM     24  O   UNL     1       8.157   4.492  42.190  1.00  0.00    -0.508 OA
ATOM     25  H   UNL     1       7.951   3.662  41.647  1.00  0.00     0.293 HD
ENDBRANCH   8  24
TORSDOF 5
ENDMDL
