MODEL 1
REMARK VINA RESULT:    -5.755      0.000      0.000
REMARK INTER + INTRA:          -9.039
REMARK INTER:                  -7.942
REMARK INTRA:                  -1.097
REMARK UNBOUND:                -1.097
REMARK SMILES O=C([O-])[C@@H]1O[C@@H](Oc2cc3oc(-c4ccccc4)cc(=O)c3c(O)c2O)[C@H](O)[C@@H](O)[C@@H]1O
REMARK SMILES IDX 7 1 6 2 4 3 31 4 5 5 29 6 27 7 2 8 1 9 3 10 32 11 30 13
REMARK SMILES IDX 28 15 8 17 25 18 9 19 23 20 10 21 22 22 11 23 20 24 12 25
REMARK SMILES IDX 19 26 21 27 26 28 24 30 13 32 14 33 18 34 15 35 17 36 16 37
REMARK H PARENT 32 12 30 14 28 16 26 29 24 31
REMARK Flexibility Score: inf
ROOT
ATOM      1  O   UNL     1      86.430   1.092   1.493  1.00  0.00    -0.458 OA
ENDROOT
BRANCH   1   2
ATOM      2  C   UNL     1      86.232   2.372   0.881  1.00  0.00     0.339 C 
ATOM      3  C   UNL     1      84.378   1.637  -0.359  1.00  0.00     0.199 C 
ATOM      4  C   UNL     1      85.108   1.758  -1.713  1.00  0.00     0.180 C 
ATOM      5  O   UNL     1      84.864   2.595   0.569  1.00  0.00    -0.328 OA
ATOM      6  C   UNL     1      86.627   1.590  -1.505  1.00  0.00     0.181 C 
ATOM      7  C   UNL     1      87.125   2.509  -0.368  1.00  0.00     0.214 C 
BRANCH   3   8
ATOM      8  C   UNL     1      82.903   1.835  -0.546  1.00  0.00     0.073 C 
ATOM      9  O   UNL     1      82.104   0.882  -0.348  1.00  0.00    -0.547 OA
ATOM     10  O   UNL     1      82.406   3.093  -0.871  1.00  0.00    -0.547 OA
ENDBRANCH   3   8
BRANCH   4  11
ATOM     11  O   UNL     1      84.844   3.013  -2.290  1.00  0.00    -0.387 OA
ATOM     12  H   UNL     1      85.402   3.676  -1.800  1.00  0.00     0.211 HD
ENDBRANCH   4  11
BRANCH   6  13
ATOM     13  O   UNL     1      86.927   0.252  -1.188  1.00  0.00    -0.387 OA
ATOM     14  H   UNL     1      87.476  -0.104  -1.934  1.00  0.00     0.211 HD
ENDBRANCH   6  13
BRANCH   7  15
ATOM     15  O   UNL     1      87.121   3.850  -0.788  1.00  0.00    -0.384 OA
ATOM     16  H   UNL     1      87.194   4.408   0.030  1.00  0.00     0.211 HD
ENDBRANCH   7  15
ENDBRANCH   1   2
BRANCH   1  17
ATOM     17  C   UNL     1      86.311   0.820   2.865  1.00  0.00     0.172 A 
ATOM     18  C   UNL     1      86.666  -0.455   3.332  1.00  0.00     0.201 A 
ATOM     19  C   UNL     1      85.857   1.783   3.778  1.00  0.00     0.098 A 
ATOM     20  C   UNL     1      86.582  -0.771   4.697  1.00  0.00     0.176 A 
ATOM     21  C   UNL     1      85.729   1.476   5.132  1.00  0.00     0.146 A 
ATOM     22  C   UNL     1      86.074   0.191   5.618  1.00  0.00     0.111 A 
ATOM     23  O   UNL     1      85.265   2.414   5.953  1.00  0.00    -0.456 OA
ATOM     24  C   UNL     1      85.844  -0.054   6.994  1.00  0.00     0.197 A 
ATOM     25  C   UNL     1      85.084   2.224   7.254  1.00  0.00     0.138 A 
ATOM     26  C   UNL     1      85.367   0.971   7.811  1.00  0.00     0.100 A 
ATOM     27  O   UNL     1      86.024  -1.187   7.510  1.00  0.00    -0.289 OA
BRANCH  18  28
ATOM     28  O   UNL     1      87.124  -1.430   2.444  1.00  0.00    -0.502 OA
ATOM     29  H   UNL     1      87.512  -1.200   1.537  1.00  0.00     0.293 HD
ENDBRANCH  18  28
BRANCH  20  30
ATOM     30  O   UNL     1      87.038  -2.040   5.073  1.00  0.00    -0.504 OA
ATOM     31  H   UNL     1      86.750  -2.908   4.646  1.00  0.00     0.293 HD
ENDBRANCH  20  30
BRANCH  25  32
ATOM     32  C   UNL     1      84.559   3.341   8.076  1.00  0.00     0.017 A 
ATOM     33  C   UNL     1      83.870   3.060   9.269  1.00  0.00     0.012 A 
ATOM     34  C   UNL     1      84.707   4.684   7.676  1.00  0.00     0.012 A 
ATOM     35  C   UNL     1      83.366   4.098  10.060  1.00  0.00     0.001 A 
ATOM     36  C   UNL     1      84.193   5.718   8.466  1.00  0.00     0.001 A 
ATOM     37  C   UNL     1      83.526   5.426   9.657  1.00  0.00     0.000 A 
ENDBRANCH  25  32
ENDBRANCH   1  17
TORSDOF 9
ENDMDL
MODEL 2
REMARK VINA RESULT:    -4.005      2.972      8.811
REMARK INTER + INTRA:          -6.624
REMARK INTER:                  -5.386
REMARK INTRA:                  -1.238
REMARK UNBOUND:                -1.097
REMARK SMILES O=C([O-])[C@@H]1O[C@@H](Oc2cc3oc(-c4ccccc4)cc(=O)c3c(O)c2O)[C@H](O)[C@@H](O)[C@@H]1O
REMARK SMILES IDX 7 1 6 2 4 3 31 4 5 5 29 6 27 7 2 8 1 9 3 10 32 11 30 13
REMARK SMILES IDX 28 15 8 17 25 18 9 19 23 20 10 21 22 22 11 23 20 24 12 25
REMARK SMILES IDX 19 26 21 27 26 28 24 30 13 32 14 33 18 34 15 35 17 36 16 37
REMARK H PARENT 32 12 30 14 28 16 26 29 24 31
REMARK Flexibility Score: inf
ROOT
ATOM      1  O   UNL     1      85.844   1.144   6.563  1.00  0.00    -0.458 OA
ENDROOT
BRANCH   1   2
ATOM      2  C   UNL     1      84.518   1.249   7.093  1.00  0.00     0.339 C 
ATOM      3  C   UNL     1      84.813   3.488   7.737  1.00  0.00     0.199 C 
ATOM      4  C   UNL     1      84.757   3.167   9.245  1.00  0.00     0.180 C 
ATOM      5  O   UNL     1      84.019   2.576   6.992  1.00  0.00    -0.328 OA
ATOM      6  C   UNL     1      85.225   1.717   9.489  1.00  0.00     0.181 C 
ATOM      7  C   UNL     1      84.483   0.742   8.548  1.00  0.00     0.214 C 
BRANCH   3   8
ATOM      8  C   UNL     1      84.326   4.885   7.486  1.00  0.00     0.073 C 
ATOM      9  O   UNL     1      85.148   5.827   7.334  1.00  0.00    -0.547 OA
ATOM     10  O   UNL     1      82.964   5.132   7.349  1.00  0.00    -0.547 OA
ENDBRANCH   3   8
BRANCH   4  11
ATOM     11  O   UNL     1      83.444   3.329   9.722  1.00  0.00    -0.387 OA
ATOM     12  H   UNL     1      83.044   4.079   9.205  1.00  0.00     0.211 HD
ENDBRANCH   4  11
BRANCH   6  13
ATOM     13  O   UNL     1      86.610   1.613   9.271  1.00  0.00    -0.387 OA
ATOM     14  H   UNL     1      86.889   0.722   9.609  1.00  0.00     0.211 HD
ENDBRANCH   6  13
BRANCH   7  15
ATOM     15  O   UNL     1      83.145   0.599   8.950  1.00  0.00    -0.384 OA
ATOM     16  H   UNL     1      83.126   0.717   9.936  1.00  0.00     0.211 HD
ENDBRANCH   7  15
ENDBRANCH   1   2
BRANCH   1  17
ATOM     17  C   UNL     1      86.166   0.926   5.214  1.00  0.00     0.172 A 
ATOM     18  C   UNL     1      86.376   2.039   4.384  1.00  0.00     0.201 A 
ATOM     19  C   UNL     1      86.290  -0.363   4.677  1.00  0.00     0.098 A 
ATOM     20  C   UNL     1      86.717   1.875   3.032  1.00  0.00     0.176 A 
ATOM     21  C   UNL     1      86.589  -0.547   3.328  1.00  0.00     0.146 A 
ATOM     22  C   UNL     1      86.795   0.566   2.474  1.00  0.00     0.111 A 
ATOM     23  O   UNL     1      86.666  -1.789   2.859  1.00  0.00    -0.456 OA
ATOM     24  C   UNL     1      87.023   0.286   1.105  1.00  0.00     0.197 A 
ATOM     25  C   UNL     1      86.924  -2.079   1.590  1.00  0.00     0.138 A 
ATOM     26  C   UNL     1      87.105  -1.038   0.672  1.00  0.00     0.100 A 
ATOM     27  O   UNL     1      87.123   1.197   0.244  1.00  0.00    -0.289 OA
BRANCH  18  28
ATOM     28  O   UNL     1      86.262   3.333   4.895  1.00  0.00    -0.502 OA
ATOM     29  H   UNL     1      85.370   3.805   4.984  1.00  0.00     0.293 HD
ENDBRANCH  18  28
BRANCH  20  30
ATOM     30  O   UNL     1      86.988   3.043   2.310  1.00  0.00    -0.504 OA
ATOM     31  H   UNL     1      87.911   3.407   2.125  1.00  0.00     0.293 HD
ENDBRANCH  20  30
BRANCH  25  32
ATOM     32  C   UNL     1      86.985  -3.502   1.177  1.00  0.00     0.017 A 
ATOM     33  C   UNL     1      86.917  -3.831  -0.189  1.00  0.00     0.012 A 
ATOM     34  C   UNL     1      87.079  -4.541   2.124  1.00  0.00     0.012 A 
ATOM     35  C   UNL     1      86.972  -5.166  -0.602  1.00  0.00     0.001 A 
ATOM     36  C   UNL     1      87.125  -5.876   1.706  1.00  0.00     0.001 A 
ATOM     37  C   UNL     1      87.075  -6.188   0.346  1.00  0.00     0.000 A 
ENDBRANCH  25  32
ENDBRANCH   1  17
TORSDOF 9
ENDMDL
MODEL 3
REMARK VINA RESULT:    -2.757      2.327      7.958
REMARK INTER + INTRA:          -4.902
REMARK INTER:                  -4.692
REMARK INTRA:                  -0.210
REMARK UNBOUND:                -1.097
REMARK SMILES O=C([O-])[C@@H]1O[C@@H](Oc2cc3oc(-c4ccccc4)cc(=O)c3c(O)c2O)[C@H](O)[C@@H](O)[C@@H]1O
REMARK SMILES IDX 7 1 6 2 4 3 31 4 5 5 29 6 27 7 2 8 1 9 3 10 32 11 30 13
REMARK SMILES IDX 28 15 8 17 25 18 9 19 23 20 10 21 22 22 11 23 20 24 12 25
REMARK SMILES IDX 19 26 21 27 26 28 24 30 13 32 14 33 18 34 15 35 17 36 16 37
REMARK H PARENT 32 12 30 14 28 16 26 29 24 31
REMARK Flexibility Score: inf
ROOT
ATOM      1  O   UNL     1      86.624   0.958   5.568  1.00  0.00    -0.458 OA
ENDROOT
BRANCH   1   2
ATOM      2  C   UNL     1      87.015   2.183   6.199  1.00  0.00     0.339 C 
ATOM      3  C   UNL     1      85.392   1.985   7.884  1.00  0.00     0.199 C 
ATOM      4  C   UNL     1      84.573   3.190   7.377  1.00  0.00     0.180 C 
ATOM      5  O   UNL     1      86.772   2.150   7.598  1.00  0.00    -0.328 OA
ATOM      6  C   UNL     1      84.795   3.374   5.862  1.00  0.00     0.181 C 
ATOM      7  C   UNL     1      86.304   3.376   5.531  1.00  0.00     0.214 C 
BRANCH   3   8
ATOM      8  C   UNL     1      85.210   1.819   9.364  1.00  0.00     0.073 C 
ATOM      9  O   UNL     1      86.114   1.287  10.060  1.00  0.00    -0.547 OA
ATOM     10  O   UNL     1      84.068   2.318   9.984  1.00  0.00    -0.547 OA
ENDBRANCH   3   8
BRANCH   4  11
ATOM     11  O   UNL     1      84.965   4.356   8.060  1.00  0.00    -0.387 OA
ATOM     12  H   UNL     1      85.263   5.006   7.368  1.00  0.00     0.211 HD
ENDBRANCH   4  11
BRANCH   6  13
ATOM     13  O   UNL     1      84.163   2.338   5.152  1.00  0.00    -0.387 OA
ATOM     14  H   UNL     1      84.193   2.587   4.191  1.00  0.00     0.211 HD
ENDBRANCH   6  13
BRANCH   7  15
ATOM     15  O   UNL     1      86.899   4.569   5.973  1.00  0.00    -0.384 OA
ATOM     16  H   UNL     1      86.933   4.524   6.964  1.00  0.00     0.211 HD
ENDBRANCH   7  15
ENDBRANCH   1   2
BRANCH   1  17
ATOM     17  C   UNL     1      86.684   0.697   4.190  1.00  0.00     0.172 A 
ATOM     18  C   UNL     1      86.710  -0.638   3.757  1.00  0.00     0.201 A 
ATOM     19  C   UNL     1      86.711   1.727   3.238  1.00  0.00     0.098 A 
ATOM     20  C   UNL     1      86.752  -0.951   2.389  1.00  0.00     0.176 A 
ATOM     21  C   UNL     1      86.793   1.438   1.877  1.00  0.00     0.146 A 
ATOM     22  C   UNL     1      86.830   0.095   1.424  1.00  0.00     0.111 A 
ATOM     23  O   UNL     1      86.847   2.449   1.016  1.00  0.00    -0.456 OA
ATOM     24  C   UNL     1      86.985  -0.104   0.031  1.00  0.00     0.197 A 
ATOM     25  C   UNL     1      86.946   2.288  -0.298  1.00  0.00     0.138 A 
ATOM     26  C   UNL     1      87.024   0.995  -0.827  1.00  0.00     0.100 A 
ATOM     27  O   UNL     1      87.125  -1.250  -0.469  1.00  0.00    -0.289 OA
BRANCH  18  28
ATOM     28  O   UNL     1      86.680  -1.681   4.684  1.00  0.00    -0.502 OA
ATOM     29  H   UNL     1      87.227  -1.665   5.537  1.00  0.00     0.293 HD
ENDBRANCH  18  28
BRANCH  20  30
ATOM     30  O   UNL     1      86.690  -2.309   2.058  1.00  0.00    -0.504 OA
ATOM     31  H   UNL     1      86.461  -2.671   1.143  1.00  0.00     0.293 HD
ENDBRANCH  20  30
BRANCH  25  32
ATOM     32  C   UNL     1      87.000   3.490  -1.165  1.00  0.00     0.017 A 
ATOM     33  C   UNL     1      87.048   3.335  -2.563  1.00  0.00     0.012 A 
ATOM     34  C   UNL     1      87.034   4.790  -0.623  1.00  0.00     0.012 A 
ATOM     35  C   UNL     1      87.100   4.454  -3.400  1.00  0.00     0.001 A 
ATOM     36  C   UNL     1      87.095   5.906  -1.466  1.00  0.00     0.001 A 
ATOM     37  C   UNL     1      87.125   5.739  -2.851  1.00  0.00     0.000 A 
ENDBRANCH  25  32
ENDBRANCH   1  17
TORSDOF 9
ENDMDL
