MODEL 1
REMARK VINA RESULT:    -7.370      0.000      0.000
REMARK INTER + INTRA:          -8.960
REMARK INTER:                  -8.663
REMARK INTRA:                  -0.297
REMARK UNBOUND:                -0.297
REMARK SMILES O=c1cc(-c2ccc(O)c(O)c2)oc2cc(O)cc(O)c12
REMARK SMILES IDX 4 1 3 2 2 3 1 4 21 5 19 6 18 7 16 8 15 9 14 10 13 11 5 12
REMARK SMILES IDX 6 13 7 14 8 15 12 16 10 17 9 18 11 20 20 22 17 24
REMARK H PARENT 9 19 11 21 20 23 17 25
REMARK Flexibility Score: inf
ROOT
ATOM      1  C   UNL     1      11.130  14.663   8.567  1.00  0.00     0.138 A 
ATOM      2  C   UNL     1      10.736  14.480   9.900  1.00  0.00     0.100 A 
ATOM      3  C   UNL     1      10.925  15.510  10.822  1.00  0.00     0.197 A 
ATOM      4  O   UNL     1      10.505  15.339  11.996  1.00  0.00    -0.289 OA
ATOM      5  C   UNL     1      11.540  16.717  10.413  1.00  0.00     0.107 A 
ATOM      6  C   UNL     1      11.821  17.818  11.276  1.00  0.00     0.134 A 
ATOM      7  C   UNL     1      12.327  19.006  10.734  1.00  0.00     0.093 A 
ATOM      8  C   UNL     1      12.619  19.111   9.372  1.00  0.00     0.123 A 
ATOM      9  C   UNL     1      12.400  18.023   8.531  1.00  0.00     0.094 A 
ATOM     10  C   UNL     1      11.863  16.835   9.034  1.00  0.00     0.146 A 
ATOM     11  O   UNL     1      11.655  15.826   8.197  1.00  0.00    -0.456 OA
ENDROOT
BRANCH   1  12
ATOM     12  C   UNL     1      10.953  13.600   7.544  1.00  0.00     0.021 A 
ATOM     13  C   UNL     1      11.326  13.853   6.213  1.00  0.00     0.016 A 
ATOM     14  C   UNL     1      11.177  12.867   5.234  1.00  0.00     0.051 A 
ATOM     15  C   UNL     1      10.663  11.612   5.567  1.00  0.00     0.157 A 
ATOM     16  C   UNL     1      10.447  12.329   7.877  1.00  0.00     0.062 A 
ATOM     17  C   UNL     1      10.299  11.338   6.896  1.00  0.00     0.158 A 
BRANCH  15  18
ATOM     18  O   UNL     1      10.524  10.649   4.567  1.00  0.00    -0.504 OA
ATOM     19  H   UNL     1      11.317  10.134   4.203  1.00  0.00     0.293 HD
ENDBRANCH  15  18
BRANCH  17  20
ATOM     20  O   UNL     1       9.796  10.084   7.236  1.00  0.00    -0.504 OA
ATOM     21  H   UNL     1       8.840   9.819   7.023  1.00  0.00     0.293 HD
ENDBRANCH  17  20
ENDBRANCH   1  12
BRANCH   6  22
ATOM     22  O   UNL     1      11.646  17.789  12.662  1.00  0.00    -0.507 OA
ATOM     23  H   UNL     1      12.259  18.229  13.330  1.00  0.00     0.293 HD
ENDBRANCH   6  22
BRANCH   8  24
ATOM     24  O   UNL     1      13.138  20.293   8.845  1.00  0.00    -0.508 OA
ATOM     25  H   UNL     1      12.699  20.762   8.062  1.00  0.00     0.293 HD
ENDBRANCH   8  24
TORSDOF 5
ENDMDL
MODEL 2
REMARK VINA RESULT:    -7.162      1.419      7.291
REMARK INTER + INTRA:          -8.714
REMARK INTER:                  -8.396
REMARK INTRA:                  -0.318
REMARK UNBOUND:                -0.297
REMARK SMILES O=c1cc(-c2ccc(O)c(O)c2)oc2cc(O)cc(O)c12
REMARK SMILES IDX 4 1 3 2 2 3 1 4 21 5 19 6 18 7 16 8 15 9 14 10 13 11 5 12
REMARK SMILES IDX 6 13 7 14 8 15 12 16 10 17 9 18 11 20 20 22 17 24
REMARK H PARENT 9 19 11 21 20 23 17 25
REMARK Flexibility Score: inf
ROOT
ATOM      1  C   UNL     1      11.547  14.969   8.018  1.00  0.00     0.138 A 
ATOM      2  C   UNL     1      12.035  15.347   6.759  1.00  0.00     0.100 A 
ATOM      3  C   UNL     1      12.004  14.433   5.705  1.00  0.00     0.197 A 
ATOM      4  O   UNL     1      12.391  14.821   4.572  1.00  0.00    -0.289 OA
ATOM      5  C   UNL     1      11.510  13.125   5.921  1.00  0.00     0.107 A 
ATOM      6  C   UNL     1      11.469  12.098   4.932  1.00  0.00     0.134 A 
ATOM      7  C   UNL     1      10.850  10.877   5.230  1.00  0.00     0.093 A 
ATOM      8  C   UNL     1      10.326  10.626   6.501  1.00  0.00     0.123 A 
ATOM      9  C   UNL     1      10.411  11.602   7.490  1.00  0.00     0.094 A 
ATOM     10  C   UNL     1      10.991  12.843   7.214  1.00  0.00     0.146 A 
ATOM     11  O   UNL     1      11.038  13.752   8.180  1.00  0.00    -0.456 OA
ENDROOT
BRANCH   1  12
ATOM     12  C   UNL     1      11.557  15.900   9.174  1.00  0.00     0.021 A 
ATOM     13  C   UNL     1      12.093  17.190   9.019  1.00  0.00     0.016 A 
ATOM     14  C   UNL     1      12.107  18.088  10.090  1.00  0.00     0.051 A 
ATOM     15  C   UNL     1      11.579  17.719  11.329  1.00  0.00     0.157 A 
ATOM     16  C   UNL     1      11.014  15.537  10.422  1.00  0.00     0.062 A 
ATOM     17  C   UNL     1      11.026  16.438  11.497  1.00  0.00     0.158 A 
BRANCH  15  18
ATOM     18  O   UNL     1      11.609  18.636  12.379  1.00  0.00    -0.504 OA
ATOM     19  H   UNL     1      12.424  18.749  12.971  1.00  0.00     0.293 HD
ENDBRANCH  15  18
BRANCH  17  20
ATOM     20  O   UNL     1      10.488  16.068  12.728  1.00  0.00    -0.504 OA
ATOM     21  H   UNL     1      10.030  15.173  12.861  1.00  0.00     0.293 HD
ENDBRANCH  17  20
ENDBRANCH   1  12
BRANCH   6  22
ATOM     22  O   UNL     1      12.036  12.216   3.660  1.00  0.00    -0.507 OA
ATOM     23  H   UNL     1      11.696  11.752   2.832  1.00  0.00     0.293 HD
ENDBRANCH   6  22
BRANCH   8  24
ATOM     24  O   UNL     1       9.727   9.402   6.792  1.00  0.00    -0.508 OA
ATOM     25  H   UNL     1       9.719   8.642   6.123  1.00  0.00     0.293 HD
ENDBRANCH   8  24
TORSDOF 5
ENDMDL
MODEL 3
REMARK VINA RESULT:    -7.134      6.919     10.452
REMARK INTER + INTRA:          -8.682
REMARK INTER:                  -8.365
REMARK INTRA:                  -0.317
REMARK UNBOUND:                -0.297
REMARK SMILES O=c1cc(-c2ccc(O)c(O)c2)oc2cc(O)cc(O)c12
REMARK SMILES IDX 4 1 3 2 2 3 1 4 21 5 19 6 18 7 16 8 15 9 14 10 13 11 5 12
REMARK SMILES IDX 6 13 7 14 8 15 12 16 10 17 9 18 11 20 20 22 17 24
REMARK H PARENT 9 19 11 21 20 23 17 25
REMARK Flexibility Score: inf
ROOT
ATOM      1  C   UNL     1      11.762  17.208   1.435  1.00  0.00     0.138 A 
ATOM      2  C   UNL     1      11.973  15.864   1.097  1.00  0.00     0.100 A 
ATOM      3  C   UNL     1      11.625  15.411  -0.176  1.00  0.00     0.197 A 
ATOM      4  O   UNL     1      11.885  14.215  -0.471  1.00  0.00    -0.289 OA
ATOM      5  C   UNL     1      11.035  16.301  -1.104  1.00  0.00     0.107 A 
ATOM      6  C   UNL     1      10.603  15.940  -2.415  1.00  0.00     0.134 A 
ATOM      7  C   UNL     1      10.139  16.933  -3.286  1.00  0.00     0.093 A 
ATOM      8  C   UNL     1      10.035  18.264  -2.873  1.00  0.00     0.123 A 
ATOM      9  C   UNL     1      10.403  18.617  -1.578  1.00  0.00     0.094 A 
ATOM     10  C   UNL     1      10.902  17.656  -0.695  1.00  0.00     0.146 A 
ATOM     11  O   UNL     1      11.256  18.036   0.527  1.00  0.00    -0.456 OA
ENDROOT
BRANCH   1  12
ATOM     12  C   UNL     1      12.112  17.743   2.775  1.00  0.00     0.021 A 
ATOM     13  C   UNL     1      12.835  16.940   3.673  1.00  0.00     0.016 A 
ATOM     14  C   UNL     1      13.184  17.424   4.937  1.00  0.00     0.051 A 
ATOM     15  C   UNL     1      12.826  18.718   5.322  1.00  0.00     0.157 A 
ATOM     16  C   UNL     1      11.765  19.052   3.163  1.00  0.00     0.062 A 
ATOM     17  C   UNL     1      12.116  19.539   4.431  1.00  0.00     0.158 A 
BRANCH  15  18
ATOM     18  O   UNL     1      13.187  19.172   6.591  1.00  0.00    -0.504 OA
ATOM     19  H   UNL     1      13.316  20.156   6.793  1.00  0.00     0.293 HD
ENDBRANCH  15  18
BRANCH  17  20
ATOM     20  O   UNL     1      11.767  20.835   4.805  1.00  0.00    -0.504 OA
ATOM     21  H   UNL     1      11.082  21.372   4.285  1.00  0.00     0.293 HD
ENDBRANCH  17  20
ENDBRANCH   1  12
BRANCH   6  22
ATOM     22  O   UNL     1      10.585  14.628  -2.898  1.00  0.00    -0.507 OA
ATOM     23  H   UNL     1       9.781  14.020  -2.888  1.00  0.00     0.293 HD
ENDBRANCH   6  22
BRANCH   8  24
ATOM     24  O   UNL     1       9.558  19.243  -3.743  1.00  0.00    -0.508 OA
ATOM     25  H   UNL     1       9.883  19.306  -4.700  1.00  0.00     0.293 HD
ENDBRANCH   8  24
TORSDOF 5
ENDMDL
MODEL 4
REMARK VINA RESULT:    -7.110      6.840      9.790
REMARK INTER + INTRA:          -8.653
REMARK INTER:                  -8.390
REMARK INTRA:                  -0.264
REMARK UNBOUND:                -0.297
REMARK SMILES O=c1cc(-c2ccc(O)c(O)c2)oc2cc(O)cc(O)c12
REMARK SMILES IDX 4 1 3 2 2 3 1 4 21 5 19 6 18 7 16 8 15 9 14 10 13 11 5 12
REMARK SMILES IDX 6 13 7 14 8 15 12 16 10 17 9 18 11 20 20 22 17 24
REMARK H PARENT 9 19 11 21 20 23 17 25
REMARK Flexibility Score: inf
ROOT
ATOM      1  C   UNL     1      11.599  16.092   0.185  1.00  0.00     0.138 A 
ATOM      2  C   UNL     1      11.895  16.862   1.319  1.00  0.00     0.100 A 
ATOM      3  C   UNL     1      11.888  16.263   2.579  1.00  0.00     0.197 A 
ATOM      4  O   UNL     1      12.219  16.964   3.570  1.00  0.00    -0.289 OA
ATOM      5  C   UNL     1      11.554  14.894   2.707  1.00  0.00     0.107 A 
ATOM      6  C   UNL     1      11.476  14.189   3.944  1.00  0.00     0.134 A 
ATOM      7  C   UNL     1      11.249  12.806   3.937  1.00  0.00     0.093 A 
ATOM      8  C   UNL     1      11.038  12.117   2.741  1.00  0.00     0.123 A 
ATOM      9  C   UNL     1      11.058  12.806   1.532  1.00  0.00     0.094 A 
ATOM     10  C   UNL     1      11.316  14.178   1.502  1.00  0.00     0.146 A 
ATOM     11  O   UNL     1      11.342  14.796   0.327  1.00  0.00    -0.456 OA
ENDROOT
BRANCH   1  12
ATOM     12  C   UNL     1      11.590  16.678  -1.179  1.00  0.00     0.021 A 
ATOM     13  C   UNL     1      10.363  16.901  -1.828  1.00  0.00     0.016 A 
ATOM     14  C   UNL     1      10.327  17.458  -3.109  1.00  0.00     0.051 A 
ATOM     15  C   UNL     1      11.512  17.812  -3.760  1.00  0.00     0.157 A 
ATOM     16  C   UNL     1      12.780  17.049  -1.834  1.00  0.00     0.062 A 
ATOM     17  C   UNL     1      12.746  17.610  -3.119  1.00  0.00     0.158 A 
BRANCH  15  18
ATOM     18  O   UNL     1      11.444  18.364  -5.039  1.00  0.00    -0.504 OA
ATOM     19  H   UNL     1      11.382  17.789  -5.871  1.00  0.00     0.293 HD
ENDBRANCH  15  18
BRANCH  17  20
ATOM     20  O   UNL     1      13.930  17.971  -3.759  1.00  0.00    -0.504 OA
ATOM     21  H   UNL     1      13.936  18.307  -4.715  1.00  0.00     0.293 HD
ENDBRANCH  17  20
ENDBRANCH   1  12
BRANCH   6  22
ATOM     22  O   UNL     1      11.588  14.796   5.198  1.00  0.00    -0.507 OA
ATOM     23  H   UNL     1      10.998  15.541   5.533  1.00  0.00     0.293 HD
ENDBRANCH   6  22
BRANCH   8  24
ATOM     24  O   UNL     1      10.797  10.744   2.746  1.00  0.00    -0.508 OA
ATOM     25  H   UNL     1      11.138  10.143   2.005  1.00  0.00     0.293 HD
ENDBRANCH   8  24
TORSDOF 5
ENDMDL
MODEL 5
REMARK VINA RESULT:    -7.065      1.433      6.885
REMARK INTER + INTRA:          -8.600
REMARK INTER:                  -8.315
REMARK INTRA:                  -0.285
REMARK UNBOUND:                -0.297
REMARK SMILES O=c1cc(-c2ccc(O)c(O)c2)oc2cc(O)cc(O)c12
REMARK SMILES IDX 4 1 3 2 2 3 1 4 21 5 19 6 18 7 16 8 15 9 14 10 13 11 5 12
REMARK SMILES IDX 6 13 7 14 8 15 12 16 10 17 9 18 11 20 20 22 17 24
REMARK H PARENT 9 19 11 21 20 23 17 25
REMARK Flexibility Score: inf
ROOT
ATOM      1  C   UNL     1      11.341  14.283   8.647  1.00  0.00     0.138 A 
ATOM      2  C   UNL     1      11.505  12.976   9.125  1.00  0.00     0.100 A 
ATOM      3  C   UNL     1      11.429  11.903   8.237  1.00  0.00     0.197 A 
ATOM      4  O   UNL     1      11.643  10.746   8.685  1.00  0.00    -0.289 OA
ATOM      5  C   UNL     1      11.157  12.139   6.869  1.00  0.00     0.107 A 
ATOM      6  C   UNL     1      11.016  11.119   5.881  1.00  0.00     0.134 A 
ATOM      7  C   UNL     1      10.863  11.479   4.536  1.00  0.00     0.093 A 
ATOM      8  C   UNL     1      10.784  12.820   4.153  1.00  0.00     0.123 A 
ATOM      9  C   UNL     1      10.865  13.821   5.117  1.00  0.00     0.094 A 
ATOM     10  C   UNL     1      11.053  13.497   6.462  1.00  0.00     0.146 A 
ATOM     11  O   UNL     1      11.141  14.482   7.349  1.00  0.00    -0.456 OA
ENDROOT
BRANCH   1  12
ATOM     12  C   UNL     1      11.411  15.462   9.548  1.00  0.00     0.021 A 
ATOM     13  C   UNL     1      11.944  16.670   9.066  1.00  0.00     0.016 A 
ATOM     14  C   UNL     1      12.014  17.796   9.891  1.00  0.00     0.051 A 
ATOM     15  C   UNL     1      11.545  17.739  11.206  1.00  0.00     0.157 A 
ATOM     16  C   UNL     1      10.928  15.414  10.870  1.00  0.00     0.062 A 
ATOM     17  C   UNL     1      10.996  16.543  11.699  1.00  0.00     0.158 A 
BRANCH  15  18
ATOM     18  O   UNL     1      11.630  18.878  12.006  1.00  0.00    -0.504 OA
ATOM     19  H   UNL     1      11.106  19.720  11.800  1.00  0.00     0.293 HD
ENDBRANCH  15  18
BRANCH  17  20
ATOM     20  O   UNL     1      10.517  16.484  13.006  1.00  0.00    -0.504 OA
ATOM     21  H   UNL     1      10.125  17.298  13.466  1.00  0.00     0.293 HD
ENDBRANCH  17  20
ENDBRANCH   1  12
BRANCH   6  22
ATOM     22  O   UNL     1      10.997   9.751   6.167  1.00  0.00    -0.507 OA
ATOM     23  H   UNL     1      10.826   9.023   5.491  1.00  0.00     0.293 HD
ENDBRANCH   6  22
BRANCH   8  24
ATOM     24  O   UNL     1      10.615  13.168   2.814  1.00  0.00    -0.508 OA
ATOM     25  H   UNL     1      11.355  13.038   2.135  1.00  0.00     0.293 HD
ENDBRANCH   8  24
TORSDOF 5
ENDMDL
MODEL 6
REMARK VINA RESULT:    -7.054      7.404      9.021
REMARK INTER + INTRA:          -8.587
REMARK INTER:                  -8.319
REMARK INTRA:                  -0.268
REMARK UNBOUND:                -0.297
REMARK SMILES O=c1cc(-c2ccc(O)c(O)c2)oc2cc(O)cc(O)c12
REMARK SMILES IDX 4 1 3 2 2 3 1 4 21 5 19 6 18 7 16 8 15 9 14 10 13 11 5 12
REMARK SMILES IDX 6 13 7 14 8 15 12 16 10 17 9 18 11 20 20 22 17 24
REMARK H PARENT 9 19 11 21 20 23 17 25
REMARK Flexibility Score: inf
ROOT
ATOM      1  C   UNL     1      11.630  17.683   0.428  1.00  0.00     0.138 A 
ATOM      2  C   UNL     1      11.683  16.403   0.997  1.00  0.00     0.100 A 
ATOM      3  C   UNL     1      11.774  16.268   2.383  1.00  0.00     0.197 A 
ATOM      4  O   UNL     1      11.756  15.107   2.869  1.00  0.00    -0.289 OA
ATOM      5  C   UNL     1      11.843  17.422   3.200  1.00  0.00     0.107 A 
ATOM      6  C   UNL     1      11.978  17.404   4.620  1.00  0.00     0.134 A 
ATOM      7  C   UNL     1      11.919  18.609   5.333  1.00  0.00     0.093 A 
ATOM      8  C   UNL     1      11.790  19.832   4.671  1.00  0.00     0.123 A 
ATOM      9  C   UNL     1      11.713  19.864   3.282  1.00  0.00     0.094 A 
ATOM     10  C   UNL     1      11.734  18.678   2.544  1.00  0.00     0.146 A 
ATOM     11  O   UNL     1      11.641  18.749   1.221  1.00  0.00    -0.456 OA
ENDROOT
BRANCH   1  12
ATOM     12  C   UNL     1      11.535  17.884  -1.040  1.00  0.00     0.021 A 
ATOM     13  C   UNL     1      10.436  18.580  -1.572  1.00  0.00     0.016 A 
ATOM     14  C   UNL     1      10.326  18.790  -2.950  1.00  0.00     0.051 A 
ATOM     15  C   UNL     1      11.315  18.318  -3.817  1.00  0.00     0.157 A 
ATOM     16  C   UNL     1      12.535  17.423  -1.918  1.00  0.00     0.062 A 
ATOM     17  C   UNL     1      12.427  17.635  -3.300  1.00  0.00     0.158 A 
BRANCH  15  18
ATOM     18  O   UNL     1      11.177  18.541  -5.187  1.00  0.00    -0.504 OA
ATOM     19  H   UNL     1      10.593  17.954  -5.772  1.00  0.00     0.293 HD
ENDBRANCH  15  18
BRANCH  17  20
ATOM     20  O   UNL     1      13.422  17.172  -4.160  1.00  0.00    -0.504 OA
ATOM     21  H   UNL     1      14.111  16.492  -3.858  1.00  0.00     0.293 HD
ENDBRANCH  17  20
ENDBRANCH   1  12
BRANCH   6  22
ATOM     22  O   UNL     1      12.195  16.245   5.371  1.00  0.00    -0.507 OA
ATOM     23  H   UNL     1      12.436  15.345   4.985  1.00  0.00     0.293 HD
ENDBRANCH   6  22
BRANCH   8  24
ATOM     24  O   UNL     1      11.748  21.027   5.389  1.00  0.00    -0.508 OA
ATOM     25  H   UNL     1      11.659  21.037   6.398  1.00  0.00     0.293 HD
ENDBRANCH   8  24
TORSDOF 5
ENDMDL
MODEL 7
REMARK VINA RESULT:    -7.019      8.378     11.744
REMARK INTER + INTRA:          -8.546
REMARK INTER:                  -8.259
REMARK INTRA:                  -0.287
REMARK UNBOUND:                -0.297
REMARK SMILES O=c1cc(-c2ccc(O)c(O)c2)oc2cc(O)cc(O)c12
REMARK SMILES IDX 4 1 3 2 2 3 1 4 21 5 19 6 18 7 16 8 15 9 14 10 13 11 5 12
REMARK SMILES IDX 6 13 7 14 8 15 12 16 10 17 9 18 11 20 20 22 17 24
REMARK H PARENT 9 19 11 21 20 23 17 25
REMARK Flexibility Score: inf
ROOT
ATOM      1  C   UNL     1      11.594  17.809  -0.250  1.00  0.00     0.138 A 
ATOM      2  C   UNL     1      10.904  18.764  -1.008  1.00  0.00     0.100 A 
ATOM      3  C   UNL     1      10.902  18.670  -2.400  1.00  0.00     0.197 A 
ATOM      4  O   UNL     1      10.222  19.506  -3.050  1.00  0.00    -0.289 OA
ATOM      5  C   UNL     1      11.620  17.630  -3.036  1.00  0.00     0.107 A 
ATOM      6  C   UNL     1      11.722  17.460  -4.449  1.00  0.00     0.134 A 
ATOM      7  C   UNL     1      12.364  16.326  -4.962  1.00  0.00     0.093 A 
ATOM      8  C   UNL     1      12.960  15.389  -4.114  1.00  0.00     0.123 A 
ATOM      9  C   UNL     1      12.914  15.575  -2.735  1.00  0.00     0.094 A 
ATOM     10  C   UNL     1      12.250  16.677  -2.191  1.00  0.00     0.146 A 
ATOM     11  O   UNL     1      12.215  16.810  -0.870  1.00  0.00    -0.456 OA
ENDROOT
BRANCH   1  12
ATOM     12  C   UNL     1      11.630  17.862   1.234  1.00  0.00     0.021 A 
ATOM     13  C   UNL     1      11.716  16.666   1.967  1.00  0.00     0.016 A 
ATOM     14  C   UNL     1      11.760  16.689   3.363  1.00  0.00     0.051 A 
ATOM     15  C   UNL     1      11.728  17.904   4.051  1.00  0.00     0.157 A 
ATOM     16  C   UNL     1      11.613  19.085   1.932  1.00  0.00     0.062 A 
ATOM     17  C   UNL     1      11.658  19.110   3.333  1.00  0.00     0.158 A 
BRANCH  15  18
ATOM     18  O   UNL     1      11.771  17.896   5.445  1.00  0.00    -0.504 OA
ATOM     19  H   UNL     1      12.600  18.171   5.959  1.00  0.00     0.293 HD
ENDBRANCH  15  18
BRANCH  17  20
ATOM     20  O   UNL     1      11.638  20.326   4.014  1.00  0.00    -0.504 OA
ATOM     21  H   UNL     1      12.482  20.870   4.155  1.00  0.00     0.293 HD
ENDBRANCH  17  20
ENDBRANCH   1  12
BRANCH   6  22
ATOM     22  O   UNL     1      11.236  18.378  -5.384  1.00  0.00    -0.507 OA
ATOM     23  H   UNL     1      10.737  19.224  -5.156  1.00  0.00     0.293 HD
ENDBRANCH   6  22
BRANCH   8  24
ATOM     24  O   UNL     1      13.611  14.272  -4.635  1.00  0.00    -0.508 OA
ATOM     25  H   UNL     1      14.620  14.230  -4.705  1.00  0.00     0.293 HD
ENDBRANCH   8  24
TORSDOF 5
ENDMDL
MODEL 8
REMARK VINA RESULT:    -6.923      1.527      2.158
REMARK INTER + INTRA:          -8.433
REMARK INTER:                  -8.170
REMARK INTRA:                  -0.264
REMARK UNBOUND:                -0.297
REMARK SMILES O=c1cc(-c2ccc(O)c(O)c2)oc2cc(O)cc(O)c12
REMARK SMILES IDX 4 1 3 2 2 3 1 4 21 5 19 6 18 7 16 8 15 9 14 10 13 11 5 12
REMARK SMILES IDX 6 13 7 14 8 15 12 16 10 17 9 18 11 20 20 22 17 24
REMARK H PARENT 9 19 11 21 20 23 17 25
REMARK Flexibility Score: inf
ROOT
ATOM      1  C   UNL     1      11.878  15.631   9.499  1.00  0.00     0.138 A 
ATOM      2  C   UNL     1      11.726  15.852  10.874  1.00  0.00     0.100 A 
ATOM      3  C   UNL     1      11.915  17.135  11.390  1.00  0.00     0.197 A 
ATOM      4  O   UNL     1      11.710  17.315  12.619  1.00  0.00    -0.289 OA
ATOM      5  C   UNL     1      12.288  18.193  10.529  1.00  0.00     0.107 A 
ATOM      6  C   UNL     1      12.547  19.531  10.951  1.00  0.00     0.134 A 
ATOM      7  C   UNL     1      12.795  20.521   9.991  1.00  0.00     0.093 A 
ATOM      8  C   UNL     1      12.854  20.207   8.631  1.00  0.00     0.123 A 
ATOM      9  C   UNL     1      12.657  18.894   8.214  1.00  0.00     0.094 A 
ATOM     10  C   UNL     1      12.372  17.890   9.143  1.00  0.00     0.146 A 
ATOM     11  O   UNL     1      12.175  16.653   8.703  1.00  0.00    -0.456 OA
ENDROOT
BRANCH   1  12
ATOM     12  C   UNL     1      11.690  14.286   8.896  1.00  0.00     0.021 A 
ATOM     13  C   UNL     1      10.421  13.913   8.421  1.00  0.00     0.016 A 
ATOM     14  C   UNL     1      10.220  12.657   7.842  1.00  0.00     0.051 A 
ATOM     15  C   UNL     1      11.281  11.757   7.719  1.00  0.00     0.157 A 
ATOM     16  C   UNL     1      12.760  13.381   8.757  1.00  0.00     0.062 A 
ATOM     17  C   UNL     1      12.559  12.121   8.175  1.00  0.00     0.158 A 
BRANCH  15  18
ATOM     18  O   UNL     1      11.049  10.510   7.138  1.00  0.00    -0.504 OA
ATOM     19  H   UNL     1      11.806   9.891   6.873  1.00  0.00     0.293 HD
ENDBRANCH  15  18
BRANCH  17  20
ATOM     20  O   UNL     1      13.624  11.231   8.044  1.00  0.00    -0.504 OA
ATOM     21  H   UNL     1      14.181  10.948   8.842  1.00  0.00     0.293 HD
ENDBRANCH  17  20
ENDBRANCH   1  12
BRANCH   6  22
ATOM     22  O   UNL     1      12.596  19.933  12.289  1.00  0.00    -0.507 OA
ATOM     23  H   UNL     1      12.326  19.361  13.073  1.00  0.00     0.293 HD
ENDBRANCH   6  22
BRANCH   8  24
ATOM     24  O   UNL     1      13.117  21.196   7.685  1.00  0.00    -0.508 OA
ATOM     25  H   UNL     1      12.611  22.073   7.679  1.00  0.00     0.293 HD
ENDBRANCH   8  24
TORSDOF 5
ENDMDL
MODEL 9
REMARK VINA RESULT:    -6.850     11.572     14.683
REMARK INTER + INTRA:          -8.348
REMARK INTER:                  -8.063
REMARK INTRA:                  -0.285
REMARK UNBOUND:                -0.297
REMARK SMILES O=c1cc(-c2ccc(O)c(O)c2)oc2cc(O)cc(O)c12
REMARK SMILES IDX 4 1 3 2 2 3 1 4 21 5 19 6 18 7 16 8 15 9 14 10 13 11 5 12
REMARK SMILES IDX 6 13 7 14 8 15 12 16 10 17 9 18 11 20 20 22 17 24
REMARK H PARENT 9 19 11 21 20 23 17 25
REMARK Flexibility Score: inf
ROOT
ATOM      1  C   UNL     1      11.148  14.051  -4.333  1.00  0.00     0.138 A 
ATOM      2  C   UNL     1      10.964  13.595  -5.645  1.00  0.00     0.100 A 
ATOM      3  C   UNL     1      11.217  12.257  -5.951  1.00  0.00     0.197 A 
ATOM      4  O   UNL     1      10.982  11.862  -7.123  1.00  0.00    -0.289 OA
ATOM      5  C   UNL     1      11.687  11.381  -4.945  1.00  0.00     0.107 A 
ATOM      6  C   UNL     1      12.017  10.009  -5.152  1.00  0.00     0.134 A 
ATOM      7  C   UNL     1      12.361   9.209  -4.054  1.00  0.00     0.093 A 
ATOM      8  C   UNL     1      12.446   9.748  -2.768  1.00  0.00     0.123 A 
ATOM      9  C   UNL     1      12.179  11.099  -2.564  1.00  0.00     0.094 A 
ATOM     10  C   UNL     1      11.799  11.915  -3.633  1.00  0.00     0.146 A 
ATOM     11  O   UNL     1      11.537  13.195  -3.394  1.00  0.00    -0.456 OA
ENDROOT
BRANCH   1  12
ATOM     12  C   UNL     1      10.895  15.464  -3.952  1.00  0.00     0.021 A 
ATOM     13  C   UNL     1      10.370  15.754  -2.681  1.00  0.00     0.016 A 
ATOM     14  C   UNL     1      10.130  17.076  -2.295  1.00  0.00     0.051 A 
ATOM     15  C   UNL     1      10.418  18.130  -3.166  1.00  0.00     0.157 A 
ATOM     16  C   UNL     1      11.196  16.531  -4.821  1.00  0.00     0.062 A 
ATOM     17  C   UNL     1      10.957  17.858  -4.434  1.00  0.00     0.158 A 
BRANCH  15  18
ATOM     18  O   UNL     1      10.166  19.438  -2.753  1.00  0.00    -0.504 OA
ATOM     19  H   UNL     1       9.350  19.952  -3.065  1.00  0.00     0.293 HD
ENDBRANCH  15  18
BRANCH  17  20
ATOM     20  O   UNL     1      11.257  18.906  -5.302  1.00  0.00    -0.504 OA
ATOM     21  H   UNL     1      11.860  18.774  -6.107  1.00  0.00     0.293 HD
ENDBRANCH  17  20
ENDBRANCH   1  12
BRANCH   6  22
ATOM     22  O   UNL     1      12.046   9.392  -6.406  1.00  0.00    -0.507 OA
ATOM     23  H   UNL     1      11.372   9.547  -7.140  1.00  0.00     0.293 HD
ENDBRANCH   6  22
BRANCH   8  24
ATOM     24  O   UNL     1      12.805   8.948  -1.685  1.00  0.00    -0.508 OA
ATOM     25  H   UNL     1      12.203   8.848  -0.876  1.00  0.00     0.293 HD
ENDBRANCH   8  24
TORSDOF 5
ENDMDL
