MODEL 1
REMARK VINA RESULT:    -5.634      0.000      0.000
REMARK INTER + INTRA:         -10.649
REMARK INTER:                  -8.598
REMARK INTRA:                  -2.050
REMARK UNBOUND:                -2.050
REMARK SMILES CC(=O)CCC=C(C)CCC=C(C)CCC=C(C)C
REMARK SMILES IDX 10 1 11 2 12 3 13 4 14 5 15 6 16 7 18 8 17 9 19 10 9 11 7 12
REMARK SMILES IDX 6 13 8 14 5 15 4 16 2 17 3 18 1 19
REMARK H PARENT
REMARK Flexibility Score: inf
ROOT
ATOM      1  C   UNL     1      -9.415 -23.874 -16.808  1.00  0.00     0.032 C 
ENDROOT
BRANCH   1   2
ATOM      2  C   UNL     1      -8.717 -22.870 -17.695  1.00  0.00    -0.028 C 
ATOM      3  C   UNL     1      -7.694 -22.087 -17.284  1.00  0.00    -0.077 C 
ATOM      4  C   UNL     1      -7.103 -21.108 -18.266  1.00  0.00     0.039 C 
BRANCH   3   5
ATOM      5  C   UNL     1      -7.109 -22.165 -15.884  1.00  0.00     0.034 C 
BRANCH   5   6
ATOM      6  C   UNL     1      -5.587 -22.361 -15.898  1.00  0.00     0.032 C 
BRANCH   6   7
ATOM      7  C   UNL     1      -5.219 -23.825 -15.809  1.00  0.00    -0.028 C 
ATOM      8  C   UNL     1      -4.388 -26.004 -16.579  1.00  0.00     0.039 C 
ATOM      9  C   UNL     1      -4.778 -24.573 -16.844  1.00  0.00    -0.080 C 
ATOM     10  C   UNL     1      -4.665 -24.019 -18.246  1.00  0.00     0.039 C 
ENDBRANCH   6   7
ENDBRANCH   5   6
ENDBRANCH   3   5
ENDBRANCH   1   2
BRANCH   1  11
ATOM     11  C   UNL     1      -8.533 -25.103 -16.562  1.00  0.00     0.034 C 
BRANCH  11  12
ATOM     12  C   UNL     1      -8.739 -26.140 -17.645  1.00  0.00    -0.077 C 
ATOM     13  C   UNL     1      -9.994 -26.578 -17.902  1.00  0.00    -0.028 C 
ATOM     14  C   UNL     1      -7.544 -26.647 -18.417  1.00  0.00     0.039 C 
BRANCH  13  15
ATOM     15  C   UNL     1     -10.340 -27.643 -18.915  1.00  0.00     0.035 C 
BRANCH  15  16
ATOM     16  C   UNL     1     -10.440 -29.030 -18.269  1.00  0.00     0.079 C 
BRANCH  16  17
ATOM     17  C   UNL     1      -9.378 -29.963 -18.794  1.00  0.00     0.130 C 
ATOM     18  O   UNL     1      -8.492 -30.350 -18.046  1.00  0.00    -0.300 OA
ATOM     19  C   UNL     1      -9.385 -30.428 -20.220  1.00  0.00     0.087 C 
ENDBRANCH  16  17
ENDBRANCH  15  16
ENDBRANCH  13  15
ENDBRANCH  11  12
ENDBRANCH   1  11
TORSDOF 9
ENDMDL
MODEL 2
REMARK VINA RESULT:    -5.449      1.273      2.252
REMARK INTER + INTRA:         -10.366
REMARK INTER:                  -8.033
REMARK INTRA:                  -2.333
REMARK UNBOUND:                -2.050
REMARK SMILES CC(=O)CCC=C(C)CCC=C(C)CCC=C(C)C
REMARK SMILES IDX 10 1 11 2 12 3 13 4 14 5 15 6 16 7 18 8 17 9 19 10 9 11 7 12
REMARK SMILES IDX 6 13 8 14 5 15 4 16 2 17 3 18 1 19
REMARK H PARENT
REMARK Flexibility Score: inf
ROOT
ATOM      1  C   UNL     1      -8.052 -21.802 -17.388  1.00  0.00     0.032 C 
ENDROOT
BRANCH   1   2
ATOM      2  C   UNL     1      -6.581 -21.584 -17.654  1.00  0.00    -0.028 C 
ATOM      3  C   UNL     1      -5.596 -22.047 -16.852  1.00  0.00    -0.077 C 
ATOM      4  C   UNL     1      -4.167 -21.738 -17.222  1.00  0.00     0.039 C 
BRANCH   3   5
ATOM      5  C   UNL     1      -5.869 -22.876 -15.609  1.00  0.00     0.034 C 
BRANCH   5   6
ATOM      6  C   UNL     1      -5.242 -24.275 -15.691  1.00  0.00     0.032 C 
BRANCH   6   7
ATOM      7  C   UNL     1      -5.751 -25.038 -16.893  1.00  0.00    -0.028 C 
ATOM      8  C   UNL     1      -5.624 -26.371 -18.952  1.00  0.00     0.039 C 
ATOM      9  C   UNL     1      -4.966 -25.582 -17.849  1.00  0.00    -0.080 C 
ATOM     10  C   UNL     1      -3.464 -25.423 -17.843  1.00  0.00     0.039 C 
ENDBRANCH   6   7
ENDBRANCH   5   6
ENDBRANCH   3   5
ENDBRANCH   1   2
BRANCH   1  11
ATOM     11  C   UNL     1      -8.649 -22.811 -18.375  1.00  0.00     0.034 C 
BRANCH  11  12
ATOM     12  C   UNL     1      -9.093 -24.068 -17.659  1.00  0.00    -0.077 C 
ATOM     13  C   UNL     1      -9.228 -25.212 -18.367  1.00  0.00    -0.028 C 
ATOM     14  C   UNL     1      -9.361 -24.013 -16.173  1.00  0.00     0.039 C 
BRANCH  13  15
ATOM     15  C   UNL     1      -9.710 -26.525 -17.795  1.00  0.00     0.035 C 
BRANCH  15  16
ATOM     16  C   UNL     1      -9.023 -27.722 -18.465  1.00  0.00     0.079 C 
BRANCH  16  17
ATOM     17  C   UNL     1     -10.009 -28.814 -18.793  1.00  0.00     0.130 C 
ATOM     18  O   UNL     1     -10.726 -29.263 -17.911  1.00  0.00    -0.300 OA
ATOM     19  C   UNL     1     -10.129 -29.363 -20.183  1.00  0.00     0.087 C 
ENDBRANCH  16  17
ENDBRANCH  15  16
ENDBRANCH  13  15
ENDBRANCH  11  12
ENDBRANCH   1  11
TORSDOF 9
ENDMDL
MODEL 3
REMARK VINA RESULT:    -5.340      2.429      6.644
REMARK INTER + INTRA:         -10.200
REMARK INTER:                  -8.408
REMARK INTRA:                  -1.793
REMARK UNBOUND:                -2.050
REMARK SMILES CC(=O)CCC=C(C)CCC=C(C)CCC=C(C)C
REMARK SMILES IDX 10 1 11 2 12 3 13 4 14 5 15 6 16 7 18 8 17 9 19 10 9 11 7 12
REMARK SMILES IDX 6 13 8 14 5 15 4 16 2 17 3 18 1 19
REMARK H PARENT
REMARK Flexibility Score: inf
ROOT
ATOM      1  C   UNL     1      -7.310 -28.869 -18.642  1.00  0.00     0.032 C 
ENDROOT
BRANCH   1   2
ATOM      2  C   UNL     1      -8.282 -29.325 -19.705  1.00  0.00    -0.028 C 
ATOM      3  C   UNL     1      -9.623 -29.182 -19.608  1.00  0.00    -0.077 C 
ATOM      4  C   UNL     1     -10.481 -29.703 -20.733  1.00  0.00     0.039 C 
BRANCH   3   5
ATOM      5  C   UNL     1     -10.295 -28.505 -18.425  1.00  0.00     0.034 C 
BRANCH   5   6
ATOM      6  C   UNL     1     -10.367 -26.981 -18.590  1.00  0.00     0.032 C 
BRANCH   6   7
ATOM      7  C   UNL     1     -10.180 -26.274 -17.267  1.00  0.00    -0.028 C 
ATOM      8  C   UNL     1      -9.411 -24.530 -15.718  1.00  0.00     0.039 C 
ATOM      9  C   UNL     1      -9.447 -25.153 -17.089  1.00  0.00    -0.080 C 
ATOM     10  C   UNL     1      -8.670 -24.514 -18.217  1.00  0.00     0.039 C 
ENDBRANCH   6   7
ENDBRANCH   5   6
ENDBRANCH   3   5
ENDBRANCH   1   2
BRANCH   1  11
ATOM     11  C   UNL     1      -6.518 -27.642 -19.106  1.00  0.00     0.034 C 
BRANCH  11  12
ATOM     12  C   UNL     1      -5.518 -27.216 -18.052  1.00  0.00    -0.077 C 
ATOM     13  C   UNL     1      -5.538 -25.937 -17.610  1.00  0.00    -0.028 C 
ATOM     14  C   UNL     1      -4.536 -28.231 -17.515  1.00  0.00     0.039 C 
BRANCH  13  15
ATOM     15  C   UNL     1      -4.570 -25.362 -16.603  1.00  0.00     0.035 C 
BRANCH  15  16
ATOM     16  C   UNL     1      -5.279 -24.459 -15.587  1.00  0.00     0.079 C 
BRANCH  16  17
ATOM     17  C   UNL     1      -5.450 -23.057 -16.115  1.00  0.00     0.130 C 
ATOM     18  O   UNL     1      -4.584 -22.572 -16.827  1.00  0.00    -0.300 OA
ATOM     19  C   UNL     1      -6.665 -22.243 -15.783  1.00  0.00     0.087 C 
ENDBRANCH  16  17
ENDBRANCH  15  16
ENDBRANCH  13  15
ENDBRANCH  11  12
ENDBRANCH   1  11
TORSDOF 9
ENDMDL
MODEL 4
REMARK VINA RESULT:    -5.307      2.531      6.150
REMARK INTER + INTRA:         -10.150
REMARK INTER:                  -8.090
REMARK INTRA:                  -2.059
REMARK UNBOUND:                -2.050
REMARK SMILES CC(=O)CCC=C(C)CCC=C(C)CCC=C(C)C
REMARK SMILES IDX 10 1 11 2 12 3 13 4 14 5 15 6 16 7 18 8 17 9 19 10 9 11 7 12
REMARK SMILES IDX 6 13 8 14 5 15 4 16 2 17 3 18 1 19
REMARK H PARENT
REMARK Flexibility Score: inf
ROOT
ATOM      1  C   UNL     1     -10.231 -26.907 -17.859  1.00  0.00     0.032 C 
ENDROOT
BRANCH   1   2
ATOM      2  C   UNL     1     -10.398 -27.932 -18.956  1.00  0.00    -0.028 C 
ATOM      3  C   UNL     1      -9.457 -28.846 -19.281  1.00  0.00    -0.077 C 
ATOM      4  C   UNL     1      -9.743 -29.797 -20.414  1.00  0.00     0.039 C 
BRANCH   3   5
ATOM      5  C   UNL     1      -8.135 -28.963 -18.541  1.00  0.00     0.034 C 
BRANCH   5   6
ATOM      6  C   UNL     1      -7.008 -28.185 -19.233  1.00  0.00     0.032 C 
BRANCH   6   7
ATOM      7  C   UNL     1      -6.058 -27.576 -18.226  1.00  0.00    -0.028 C 
ATOM      8  C   UNL     1      -4.732 -25.821 -17.135  1.00  0.00     0.039 C 
ATOM      9  C   UNL     1      -5.628 -26.296 -18.249  1.00  0.00    -0.080 C 
ATOM     10  C   UNL     1      -6.016 -25.336 -19.350  1.00  0.00     0.039 C 
ENDBRANCH   6   7
ENDBRANCH   5   6
ENDBRANCH   3   5
ENDBRANCH   1   2
BRANCH   1  11
ATOM     11  C   UNL     1      -9.601 -25.617 -18.398  1.00  0.00     0.034 C 
BRANCH  11  12
ATOM     12  C   UNL     1      -9.259 -24.670 -17.268  1.00  0.00    -0.077 C 
ATOM     13  C   UNL     1      -8.651 -23.497 -17.558  1.00  0.00    -0.028 C 
ATOM     14  C   UNL     1      -9.616 -25.055 -15.852  1.00  0.00     0.039 C 
BRANCH  13  15
ATOM     15  C   UNL     1      -8.208 -22.483 -16.530  1.00  0.00     0.035 C 
BRANCH  15  16
ATOM     16  C   UNL     1      -6.748 -22.698 -16.114  1.00  0.00     0.079 C 
BRANCH  16  17
ATOM     17  C   UNL     1      -5.801 -21.908 -16.983  1.00  0.00     0.130 C 
ATOM     18  O   UNL     1      -6.246 -21.061 -17.743  1.00  0.00    -0.300 OA
ATOM     19  C   UNL     1      -4.321 -22.141 -16.933  1.00  0.00     0.087 C 
ENDBRANCH  16  17
ENDBRANCH  15  16
ENDBRANCH  13  15
ENDBRANCH  11  12
ENDBRANCH   1  11
TORSDOF 9
ENDMDL
MODEL 5
REMARK VINA RESULT:    -5.286      2.044      6.351
REMARK INTER + INTRA:         -10.117
REMARK INTER:                  -8.377
REMARK INTRA:                  -1.740
REMARK UNBOUND:                -2.050
REMARK SMILES CC(=O)CCC=C(C)CCC=C(C)CCC=C(C)C
REMARK SMILES IDX 10 1 11 2 12 3 13 4 14 5 15 6 16 7 18 8 17 9 19 10 9 11 7 12
REMARK SMILES IDX 6 13 8 14 5 15 4 16 2 17 3 18 1 19
REMARK H PARENT
REMARK Flexibility Score: inf
ROOT
ATOM      1  C   UNL     1      -3.773 -25.998 -17.322  1.00  0.00     0.032 C 
ENDROOT
BRANCH   1   2
ATOM      2  C   UNL     1      -4.037 -27.480 -17.189  1.00  0.00    -0.028 C 
ATOM      3  C   UNL     1      -5.022 -28.130 -17.848  1.00  0.00    -0.077 C 
ATOM      4  C   UNL     1      -5.191 -29.608 -17.605  1.00  0.00     0.039 C 
BRANCH   3   5
ATOM      5  C   UNL     1      -5.949 -27.438 -18.832  1.00  0.00     0.034 C 
BRANCH   5   6
ATOM      6  C   UNL     1      -7.410 -27.443 -18.359  1.00  0.00     0.032 C 
BRANCH   6   7
ATOM      7  C   UNL     1      -8.235 -28.448 -19.130  1.00  0.00    -0.028 C 
ATOM      8  C   UNL     1     -10.261 -29.488 -20.049  1.00  0.00     0.039 C 
ATOM      9  C   UNL     1      -9.585 -28.459 -19.181  1.00  0.00    -0.080 C 
ATOM     10  C   UNL     1     -10.427 -27.477 -18.400  1.00  0.00     0.039 C 
ENDBRANCH   6   7
ENDBRANCH   5   6
ENDBRANCH   3   5
ENDBRANCH   1   2
BRANCH   1  11
ATOM     11  C   UNL     1      -4.445 -25.213 -16.190  1.00  0.00     0.034 C 
BRANCH  11  12
ATOM     12  C   UNL     1      -5.315 -24.106 -16.744  1.00  0.00    -0.077 C 
ATOM     13  C   UNL     1      -6.057 -23.365 -15.888  1.00  0.00    -0.028 C 
ATOM     14  C   UNL     1      -5.323 -23.850 -18.233  1.00  0.00     0.039 C 
BRANCH  13  15
ATOM     15  C   UNL     1      -7.005 -22.266 -16.305  1.00  0.00     0.035 C 
BRANCH  15  16
ATOM     16  C   UNL     1      -8.438 -22.544 -15.832  1.00  0.00     0.079 C 
BRANCH  16  17
ATOM     17  C   UNL     1      -9.001 -23.788 -16.471  1.00  0.00     0.130 C 
ATOM     18  O   UNL     1      -9.280 -24.751 -15.773  1.00  0.00    -0.300 OA
ATOM     19  C   UNL     1      -9.227 -23.868 -17.952  1.00  0.00     0.087 C 
ENDBRANCH  16  17
ENDBRANCH  15  16
ENDBRANCH  13  15
ENDBRANCH  11  12
ENDBRANCH   1  11
TORSDOF 9
ENDMDL
MODEL 6
REMARK VINA RESULT:    -5.236      1.488      3.567
REMARK INTER + INTRA:         -10.041
REMARK INTER:                  -8.127
REMARK INTRA:                  -1.913
REMARK UNBOUND:                -2.050
REMARK SMILES CC(=O)CCC=C(C)CCC=C(C)CCC=C(C)C
REMARK SMILES IDX 10 1 11 2 12 3 13 4 14 5 15 6 16 7 18 8 17 9 19 10 9 11 7 12
REMARK SMILES IDX 6 13 8 14 5 15 4 16 2 17 3 18 1 19
REMARK H PARENT
REMARK Flexibility Score: inf
ROOT
ATOM      1  C   UNL     1      -6.907 -22.490 -15.536  1.00  0.00     0.032 C 
ENDROOT
BRANCH   1   2
ATOM      2  C   UNL     1      -6.062 -23.608 -16.099  1.00  0.00    -0.028 C 
ATOM      3  C   UNL     1      -4.804 -23.439 -16.564  1.00  0.00    -0.077 C 
ATOM      4  C   UNL     1      -4.080 -24.637 -17.122  1.00  0.00     0.039 C 
BRANCH   3   5
ATOM      5  C   UNL     1      -4.088 -22.099 -16.531  1.00  0.00     0.034 C 
BRANCH   5   6
ATOM      6  C   UNL     1      -4.058 -21.420 -17.907  1.00  0.00     0.032 C 
BRANCH   6   7
ATOM      7  C   UNL     1      -5.257 -20.521 -18.105  1.00  0.00    -0.028 C 
ATOM      8  C   UNL     1      -7.483 -19.855 -18.900  1.00  0.00     0.039 C 
ATOM      9  C   UNL     1      -6.337 -20.831 -18.856  1.00  0.00    -0.080 C 
ATOM     10  C   UNL     1      -6.426 -22.118 -19.643  1.00  0.00     0.039 C 
ENDBRANCH   6   7
ENDBRANCH   5   6
ENDBRANCH   3   5
ENDBRANCH   1   2
BRANCH   1  11
ATOM     11  C   UNL     1      -8.229 -22.356 -16.300  1.00  0.00     0.034 C 
BRANCH  11  12
ATOM     12  C   UNL     1      -8.846 -23.714 -16.551  1.00  0.00    -0.077 C 
ATOM     13  C   UNL     1      -8.694 -24.288 -17.767  1.00  0.00    -0.028 C 
ATOM     14  C   UNL     1      -9.604 -24.396 -15.436  1.00  0.00     0.039 C 
BRANCH  13  15
ATOM     15  C   UNL     1      -9.297 -25.612 -18.173  1.00  0.00     0.035 C 
BRANCH  15  16
ATOM     16  C   UNL     1      -8.227 -26.702 -18.317  1.00  0.00     0.079 C 
BRANCH  16  17
ATOM     17  C   UNL     1      -8.846 -28.069 -18.466  1.00  0.00     0.130 C 
ATOM     18  O   UNL     1     -10.062 -28.180 -18.499  1.00  0.00    -0.300 OA
ATOM     19  C   UNL     1      -7.996 -29.300 -18.576  1.00  0.00     0.087 C 
ENDBRANCH  16  17
ENDBRANCH  15  16
ENDBRANCH  13  15
ENDBRANCH  11  12
ENDBRANCH   1  11
TORSDOF 9
ENDMDL
MODEL 7
REMARK VINA RESULT:    -5.215      1.360      3.671
REMARK INTER + INTRA:         -10.009
REMARK INTER:                  -7.882
REMARK INTRA:                  -2.127
REMARK UNBOUND:                -2.050
REMARK SMILES CC(=O)CCC=C(C)CCC=C(C)CCC=C(C)C
REMARK SMILES IDX 10 1 11 2 12 3 13 4 14 5 15 6 16 7 18 8 17 9 19 10 9 11 7 12
REMARK SMILES IDX 6 13 8 14 5 15 4 16 2 17 3 18 1 19
REMARK H PARENT
REMARK Flexibility Score: inf
ROOT
ATOM      1  C   UNL     1      -5.626 -23.552 -16.307  1.00  0.00     0.032 C 
ENDROOT
BRANCH   1   2
ATOM      2  C   UNL     1      -5.475 -22.133 -16.803  1.00  0.00    -0.028 C 
ATOM      3  C   UNL     1      -6.040 -21.669 -17.939  1.00  0.00    -0.077 C 
ATOM      4  C   UNL     1      -5.788 -20.235 -18.331  1.00  0.00     0.039 C 
BRANCH   3   5
ATOM      5  C   UNL     1      -6.929 -22.526 -18.825  1.00  0.00     0.034 C 
BRANCH   5   6
ATOM      6  C   UNL     1      -8.421 -22.323 -18.524  1.00  0.00     0.032 C 
BRANCH   6   7
ATOM      7  C   UNL     1      -9.037 -23.567 -17.926  1.00  0.00    -0.028 C 
ATOM      8  C   UNL     1      -9.995 -25.009 -16.184  1.00  0.00     0.039 C 
ATOM      9  C   UNL     1      -9.320 -23.733 -16.615  1.00  0.00    -0.080 C 
ATOM     10  C   UNL     1      -8.981 -22.685 -15.580  1.00  0.00     0.039 C 
ENDBRANCH   6   7
ENDBRANCH   5   6
ENDBRANCH   3   5
ENDBRANCH   1   2
BRANCH   1  11
ATOM     11  C   UNL     1      -4.425 -24.412 -16.715  1.00  0.00     0.034 C 
BRANCH  11  12
ATOM     12  C   UNL     1      -4.877 -25.759 -17.235  1.00  0.00    -0.077 C 
ATOM     13  C   UNL     1      -6.029 -25.835 -17.941  1.00  0.00    -0.028 C 
ATOM     14  C   UNL     1      -4.026 -26.977 -16.964  1.00  0.00     0.039 C 
BRANCH  13  15
ATOM     15  C   UNL     1      -6.626 -27.116 -18.475  1.00  0.00     0.035 C 
BRANCH  15  16
ATOM     16  C   UNL     1      -8.149 -27.147 -18.302  1.00  0.00     0.079 C 
BRANCH  16  17
ATOM     17  C   UNL     1      -8.742 -28.426 -18.838  1.00  0.00     0.130 C 
ATOM     18  O   UNL     1      -8.074 -29.137 -19.575  1.00  0.00    -0.300 OA
ATOM     19  C   UNL     1     -10.137 -28.846 -18.485  1.00  0.00     0.087 C 
ENDBRANCH  16  17
ENDBRANCH  15  16
ENDBRANCH  13  15
ENDBRANCH  11  12
ENDBRANCH   1  11
TORSDOF 9
ENDMDL
MODEL 8
REMARK VINA RESULT:    -5.199      1.564      3.571
REMARK INTER + INTRA:          -9.984
REMARK INTER:                  -7.989
REMARK INTRA:                  -1.996
REMARK UNBOUND:                -2.050
REMARK SMILES CC(=O)CCC=C(C)CCC=C(C)CCC=C(C)C
REMARK SMILES IDX 10 1 11 2 12 3 13 4 14 5 15 6 16 7 18 8 17 9 19 10 9 11 7 12
REMARK SMILES IDX 6 13 8 14 5 15 4 16 2 17 3 18 1 19
REMARK H PARENT
REMARK Flexibility Score: inf
ROOT
ATOM      1  C   UNL     1      -5.521 -24.462 -18.949  1.00  0.00     0.032 C 
ENDROOT
BRANCH   1   2
ATOM      2  C   UNL     1      -4.412 -23.699 -18.264  1.00  0.00    -0.028 C 
ATOM      3  C   UNL     1      -4.474 -23.270 -16.984  1.00  0.00    -0.077 C 
ATOM      4  C   UNL     1      -3.304 -22.497 -16.431  1.00  0.00     0.039 C 
BRANCH   3   5
ATOM      5  C   UNL     1      -5.663 -23.549 -16.080  1.00  0.00     0.034 C 
BRANCH   5   6
ATOM      6  C   UNL     1      -6.538 -22.306 -15.867  1.00  0.00     0.032 C 
BRANCH   6   7
ATOM      7  C   UNL     1      -7.577 -22.169 -16.956  1.00  0.00    -0.028 C 
ATOM      8  C   UNL     1      -8.558 -21.386 -19.067  1.00  0.00     0.039 C 
ATOM      9  C   UNL     1      -7.462 -21.361 -18.033  1.00  0.00    -0.080 C 
ATOM     10  C   UNL     1      -6.278 -20.443 -18.227  1.00  0.00     0.039 C 
ENDBRANCH   6   7
ENDBRANCH   5   6
ENDBRANCH   3   5
ENDBRANCH   1   2
BRANCH   1  11
ATOM     11  C   UNL     1      -5.245 -25.969 -18.939  1.00  0.00     0.034 C 
BRANCH  11  12
ATOM     12  C   UNL     1      -6.500 -26.746 -18.601  1.00  0.00    -0.077 C 
ATOM     13  C   UNL     1      -6.515 -28.084 -18.800  1.00  0.00    -0.028 C 
ATOM     14  C   UNL     1      -7.694 -26.008 -18.041  1.00  0.00     0.039 C 
BRANCH  13  15
ATOM     15  C   UNL     1      -7.710 -28.974 -18.555  1.00  0.00     0.035 C 
BRANCH  15  16
ATOM     16  C   UNL     1      -8.468 -29.276 -19.855  1.00  0.00     0.079 C 
BRANCH  16  17
ATOM     17  C   UNL     1      -9.950 -29.047 -19.698  1.00  0.00     0.130 C 
ATOM     18  O   UNL     1     -10.707 -29.361 -20.604  1.00  0.00    -0.300 OA
ATOM     19  C   UNL     1     -10.516 -28.441 -18.449  1.00  0.00     0.087 C 
ENDBRANCH  16  17
ENDBRANCH  15  16
ENDBRANCH  13  15
ENDBRANCH  11  12
ENDBRANCH   1  11
TORSDOF 9
ENDMDL
MODEL 9
REMARK VINA RESULT:    -5.188      1.908      2.563
REMARK INTER + INTRA:          -9.968
REMARK INTER:                  -7.846
REMARK INTRA:                  -2.122
REMARK UNBOUND:                -2.050
REMARK SMILES CC(=O)CCC=C(C)CCC=C(C)CCC=C(C)C
REMARK SMILES IDX 10 1 11 2 12 3 13 4 14 5 15 6 16 7 18 8 17 9 19 10 9 11 7 12
REMARK SMILES IDX 6 13 8 14 5 15 4 16 2 17 3 18 1 19
REMARK H PARENT
REMARK Flexibility Score: inf
ROOT
ATOM      1  C   UNL     1      -8.982 -24.769 -17.332  1.00  0.00     0.032 C 
ENDROOT
BRANCH   1   2
ATOM      2  C   UNL     1      -8.633 -23.473 -18.024  1.00  0.00    -0.028 C 
ATOM      3  C   UNL     1      -8.009 -22.440 -17.416  1.00  0.00    -0.077 C 
ATOM      4  C   UNL     1      -7.741 -21.193 -18.218  1.00  0.00     0.039 C 
BRANCH   3   5
ATOM      5  C   UNL     1      -7.554 -22.493 -15.967  1.00  0.00     0.034 C 
BRANCH   5   6
ATOM      6  C   UNL     1      -6.025 -22.477 -15.836  1.00  0.00     0.032 C 
BRANCH   6   7
ATOM      7  C   UNL     1      -5.465 -23.878 -15.735  1.00  0.00    -0.028 C 
ATOM      8  C   UNL     1      -4.342 -25.929 -16.485  1.00  0.00     0.039 C 
ATOM      9  C   UNL     1      -4.916 -24.564 -16.762  1.00  0.00    -0.080 C 
ATOM     10  C   UNL     1      -4.861 -24.005 -18.164  1.00  0.00     0.039 C 
ENDBRANCH   6   7
ENDBRANCH   5   6
ENDBRANCH   3   5
ENDBRANCH   1   2
BRANCH   1  11
ATOM     11  C   UNL     1      -9.623 -25.763 -18.308  1.00  0.00     0.034 C 
BRANCH  11  12
ATOM     12  C   UNL     1      -8.824 -27.046 -18.373  1.00  0.00    -0.077 C 
ATOM     13  C   UNL     1      -7.472 -26.977 -18.364  1.00  0.00    -0.028 C 
ATOM     14  C   UNL     1      -9.555 -28.367 -18.435  1.00  0.00     0.039 C 
BRANCH  13  15
ATOM     15  C   UNL     1      -6.551 -28.169 -18.475  1.00  0.00     0.035 C 
BRANCH  15  16
ATOM     16  C   UNL     1      -5.358 -27.879 -19.393  1.00  0.00     0.079 C 
BRANCH  16  17
ATOM     17  C   UNL     1      -5.274 -28.874 -20.524  1.00  0.00     0.130 C 
ATOM     18  O   UNL     1      -4.309 -29.620 -20.600  1.00  0.00    -0.300 OA
ATOM     19  C   UNL     1      -6.354 -28.967 -21.560  1.00  0.00     0.087 C 
ENDBRANCH  16  17
ENDBRANCH  15  16
ENDBRANCH  13  15
ENDBRANCH  11  12
ENDBRANCH   1  11
TORSDOF 9
ENDMDL
