MODEL 1
REMARK VINA RESULT:    -4.746      0.000      0.000
REMARK INTER + INTRA:          -5.117
REMARK INTER:                  -5.024
REMARK INTRA:                  -0.093
REMARK UNBOUND:                -0.093
REMARK SMILES C=C(C)[C@H]1CC=C(C)C(=O)C1
REMARK SMILES IDX 8 1 7 2 6 3 5 4 4 5 11 6 9 7 10 8 2 9 1 10 3 11
REMARK H PARENT
REMARK Flexibility Score: inf
ROOT
ATOM      1  C   UNL     1     -21.816  23.056  40.586  1.00  0.00     0.048 C 
ATOM      2  C   UNL     1     -20.753  22.163  41.166  1.00  0.00    -0.012 C 
ATOM      3  C   UNL     1     -21.103  21.077  41.875  1.00  0.00    -0.019 C 
ATOM      4  C   UNL     1     -20.080  20.161  42.491  1.00  0.00     0.036 C 
ATOM      5  C   UNL     1     -18.805  20.094  41.629  1.00  0.00     0.025 C 
ATOM      6  C   UNL     1     -18.249  21.510  41.386  1.00  0.00     0.089 C 
ATOM      7  C   UNL     1     -19.324  22.414  40.848  1.00  0.00     0.158 C 
ATOM      8  O   UNL     1     -18.995  23.413  40.152  1.00  0.00    -0.295 OA
ENDROOT
BRANCH   5   9
ATOM      9  C   UNL     1     -17.756  19.179  42.245  1.00  0.00    -0.077 C 
ATOM     10  C   UNL     1     -17.431  19.263  43.547  1.00  0.00     0.008 C 
ATOM     11  C   UNL     1     -17.058  18.148  41.395  1.00  0.00     0.039 C 
ENDBRANCH   5   9
TORSDOF 1
ENDMDL
MODEL 2
REMARK VINA RESULT:    -4.291     15.823     17.072
REMARK INTER + INTRA:          -4.635
REMARK INTER:                  -4.539
REMARK INTRA:                  -0.096
REMARK UNBOUND:                -0.093
REMARK SMILES C=C(C)[C@H]1CC=C(C)C(=O)C1
REMARK SMILES IDX 8 1 7 2 6 3 5 4 4 5 11 6 9 7 10 8 2 9 1 10 3 11
REMARK H PARENT
REMARK Flexibility Score: inf
ROOT
ATOM      1  C   UNL     1      -7.259  27.257  45.645  1.00  0.00     0.048 C 
ATOM      2  C   UNL     1      -7.057  28.710  45.977  1.00  0.00    -0.012 C 
ATOM      3  C   UNL     1      -8.050  29.590  45.762  1.00  0.00    -0.019 C 
ATOM      4  C   UNL     1      -7.895  31.057  46.061  1.00  0.00     0.036 C 
ATOM      5  C   UNL     1      -6.963  31.283  47.267  1.00  0.00     0.025 C 
ATOM      6  C   UNL     1      -5.608  30.590  47.032  1.00  0.00     0.089 C 
ATOM      7  C   UNL     1      -5.811  29.147  46.657  1.00  0.00     0.158 C 
ATOM      8  O   UNL     1      -4.892  28.316  46.891  1.00  0.00    -0.295 OA
ENDROOT
BRANCH   5   9
ATOM      9  C   UNL     1      -6.789  32.764  47.574  1.00  0.00    -0.077 C 
ATOM     10  C   UNL     1      -7.311  33.711  46.775  1.00  0.00     0.008 C 
ATOM     11  C   UNL     1      -6.021  33.197  48.797  1.00  0.00     0.039 C 
ENDBRANCH   5   9
TORSDOF 1
ENDMDL
MODEL 3
REMARK VINA RESULT:    -4.281     15.415     16.484
REMARK INTER + INTRA:          -4.624
REMARK INTER:                  -4.528
REMARK INTRA:                  -0.097
REMARK UNBOUND:                -0.093
REMARK SMILES C=C(C)[C@H]1CC=C(C)C(=O)C1
REMARK SMILES IDX 8 1 7 2 6 3 5 4 4 5 11 6 9 7 10 8 2 9 1 10 3 11
REMARK H PARENT
REMARK Flexibility Score: inf
ROOT
ATOM      1  C   UNL     1      -5.518  32.967  47.613  1.00  0.00     0.048 C 
ATOM      2  C   UNL     1      -6.069  31.624  47.217  1.00  0.00    -0.012 C 
ATOM      3  C   UNL     1      -7.389  31.476  47.012  1.00  0.00    -0.019 C 
ATOM      4  C   UNL     1      -7.994  30.151  46.632  1.00  0.00     0.036 C 
ATOM      5  C   UNL     1      -7.021  29.322  45.773  1.00  0.00     0.025 C 
ATOM      6  C   UNL     1      -5.672  29.160  46.500  1.00  0.00     0.089 C 
ATOM      7  C   UNL     1      -5.142  30.499  46.935  1.00  0.00     0.158 C 
ATOM      8  O   UNL     1      -3.900  30.646  47.093  1.00  0.00    -0.295 OA
ENDROOT
BRANCH   5   9
ATOM      9  C   UNL     1      -7.616  27.974  45.390  1.00  0.00    -0.077 C 
ATOM     10  C   UNL     1      -7.034  26.820  45.763  1.00  0.00     0.008 C 
ATOM     11  C   UNL     1      -8.885  27.911  44.579  1.00  0.00     0.039 C 
ENDBRANCH   5   9
TORSDOF 1
ENDMDL
MODEL 4
REMARK VINA RESULT:    -4.184      1.177      4.379
REMARK INTER + INTRA:          -4.522
REMARK INTER:                  -4.427
REMARK INTRA:                  -0.095
REMARK UNBOUND:                -0.093
REMARK SMILES C=C(C)[C@H]1CC=C(C)C(=O)C1
REMARK SMILES IDX 8 1 7 2 6 3 5 4 4 5 11 6 9 7 10 8 2 9 1 10 3 11
REMARK H PARENT
REMARK Flexibility Score: inf
ROOT
ATOM      1  C   UNL     1     -17.617  19.192  42.276  1.00  0.00     0.048 C 
ATOM      2  C   UNL     1     -18.589  20.239  41.804  1.00  0.00    -0.012 C 
ATOM      3  C   UNL     1     -19.901  20.100  42.061  1.00  0.00    -0.019 C 
ATOM      4  C   UNL     1     -20.917  21.108  41.597  1.00  0.00     0.036 C 
ATOM      5  C   UNL     1     -20.320  22.529  41.577  1.00  0.00     0.025 C 
ATOM      6  C   UNL     1     -19.038  22.558  40.723  1.00  0.00     0.089 C 
ATOM      7  C   UNL     1     -18.084  21.482  41.166  1.00  0.00     0.158 C 
ATOM      8  O   UNL     1     -16.850  21.630  40.956  1.00  0.00    -0.295 OA
ENDROOT
BRANCH   5   9
ATOM      9  C   UNL     1     -21.334  23.559  41.099  1.00  0.00    -0.077 C 
ATOM     10  C   UNL     1     -21.076  24.877  41.162  1.00  0.00     0.008 C 
ATOM     11  C   UNL     1     -22.660  23.112  40.538  1.00  0.00     0.039 C 
ENDBRANCH   5   9
TORSDOF 1
ENDMDL
MODEL 5
REMARK VINA RESULT:    -4.106     15.812     16.926
REMARK INTER + INTRA:          -4.440
REMARK INTER:                  -4.343
REMARK INTRA:                  -0.097
REMARK UNBOUND:                -0.093
REMARK SMILES C=C(C)[C@H]1CC=C(C)C(=O)C1
REMARK SMILES IDX 8 1 7 2 6 3 5 4 4 5 11 6 9 7 10 8 2 9 1 10 3 11
REMARK H PARENT
REMARK Flexibility Score: inf
ROOT
ATOM      1  C   UNL     1      -4.588  32.732  47.724  1.00  0.00     0.048 C 
ATOM      2  C   UNL     1      -5.090  31.447  47.124  1.00  0.00    -0.012 C 
ATOM      3  C   UNL     1      -4.227  30.456  46.846  1.00  0.00    -0.019 C 
ATOM      4  C   UNL     1      -4.673  29.157  46.230  1.00  0.00     0.036 C 
ATOM      5  C   UNL     1      -6.096  28.784  46.691  1.00  0.00     0.025 C 
ATOM      6  C   UNL     1      -7.073  29.937  46.394  1.00  0.00     0.089 C 
ATOM      7  C   UNL     1      -6.550  31.231  46.956  1.00  0.00     0.158 C 
ATOM      8  O   UNL     1      -7.364  32.148  47.249  1.00  0.00    -0.295 OA
ENDROOT
BRANCH   5   9
ATOM      9  C   UNL     1      -6.565  27.477  46.066  1.00  0.00    -0.077 C 
ATOM     10  C   UNL     1      -7.695  27.415  45.341  1.00  0.00     0.008 C 
ATOM     11  C   UNL     1      -5.758  26.218  46.251  1.00  0.00     0.039 C 
ENDBRANCH   5   9
TORSDOF 1
ENDMDL
MODEL 6
REMARK VINA RESULT:    -4.062      3.216      4.903
REMARK INTER + INTRA:          -4.393
REMARK INTER:                  -4.297
REMARK INTRA:                  -0.095
REMARK UNBOUND:                -0.093
REMARK SMILES C=C(C)[C@H]1CC=C(C)C(=O)C1
REMARK SMILES IDX 8 1 7 2 6 3 5 4 4 5 11 6 9 7 10 8 2 9 1 10 3 11
REMARK H PARENT
REMARK Flexibility Score: inf
ROOT
ATOM      1  C   UNL     1     -23.078  20.870  35.503  1.00  0.00     0.048 C 
ATOM      2  C   UNL     1     -22.732  21.415  36.862  1.00  0.00    -0.012 C 
ATOM      3  C   UNL     1     -23.467  21.065  37.931  1.00  0.00    -0.019 C 
ATOM      4  C   UNL     1     -23.175  21.596  39.309  1.00  0.00     0.036 C 
ATOM      5  C   UNL     1     -21.665  21.836  39.504  1.00  0.00     0.025 C 
ATOM      6  C   UNL     1     -21.124  22.760  38.396  1.00  0.00     0.089 C 
ATOM      7  C   UNL     1     -21.508  22.238  37.038  1.00  0.00     0.158 C 
ATOM      8  O   UNL     1     -20.797  22.538  36.041  1.00  0.00    -0.295 OA
ENDROOT
BRANCH   5   9
ATOM      9  C   UNL     1     -21.355  22.383  40.890  1.00  0.00    -0.077 C 
ATOM     10  C   UNL     1     -22.297  22.998  41.626  1.00  0.00     0.008 C 
ATOM     11  C   UNL     1     -19.971  22.238  41.468  1.00  0.00     0.039 C 
ENDBRANCH   5   9
TORSDOF 1
ENDMDL
MODEL 7
REMARK VINA RESULT:    -3.927      2.037      4.697
REMARK INTER + INTRA:          -4.250
REMARK INTER:                  -4.153
REMARK INTRA:                  -0.098
REMARK UNBOUND:                -0.093
REMARK SMILES C=C(C)[C@H]1CC=C(C)C(=O)C1
REMARK SMILES IDX 8 1 7 2 6 3 5 4 4 5 11 6 9 7 10 8 2 9 1 10 3 11
REMARK H PARENT
REMARK Flexibility Score: inf
ROOT
ATOM      1  C   UNL     1     -17.856  20.041  43.571  1.00  0.00     0.048 C 
ATOM      2  C   UNL     1     -18.801  20.753  42.641  1.00  0.00    -0.012 C 
ATOM      3  C   UNL     1     -18.315  21.552  41.677  1.00  0.00    -0.019 C 
ATOM      4  C   UNL     1     -19.215  22.301  40.731  1.00  0.00     0.036 C 
ATOM      5  C   UNL     1     -20.504  21.506  40.445  1.00  0.00     0.025 C 
ATOM      6  C   UNL     1     -21.213  21.146  41.765  1.00  0.00     0.089 C 
ATOM      7  C   UNL     1     -20.257  20.474  42.712  1.00  0.00     0.158 C 
ATOM      8  O   UNL     1     -20.712  19.696  43.594  1.00  0.00    -0.295 OA
ENDROOT
BRANCH   5   9
ATOM      9  C   UNL     1     -21.430  22.257  39.498  1.00  0.00    -0.077 C 
ATOM     10  C   UNL     1     -22.739  21.958  39.416  1.00  0.00     0.008 C 
ATOM     11  C   UNL     1     -20.888  23.363  38.629  1.00  0.00     0.039 C 
ENDBRANCH   5   9
TORSDOF 1
ENDMDL
MODEL 8
REMARK VINA RESULT:    -3.919     15.149     16.551
REMARK INTER + INTRA:          -4.241
REMARK INTER:                  -4.145
REMARK INTRA:                  -0.096
REMARK UNBOUND:                -0.093
REMARK SMILES C=C(C)[C@H]1CC=C(C)C(=O)C1
REMARK SMILES IDX 8 1 7 2 6 3 5 4 4 5 11 6 9 7 10 8 2 9 1 10 3 11
REMARK H PARENT
REMARK Flexibility Score: inf
ROOT
ATOM      1  C   UNL     1      -5.858  26.604  45.786  1.00  0.00     0.048 C 
ATOM      2  C   UNL     1      -6.268  28.002  46.162  1.00  0.00    -0.012 C 
ATOM      3  C   UNL     1      -5.411  28.794  46.828  1.00  0.00    -0.019 C 
ATOM      4  C   UNL     1      -5.776  30.194  47.243  1.00  0.00     0.036 C 
ATOM      5  C   UNL     1      -6.736  30.843  46.226  1.00  0.00     0.025 C 
ATOM      6  C   UNL     1      -7.976  29.953  46.020  1.00  0.00     0.089 C 
ATOM      7  C   UNL     1      -7.567  28.544  45.688  1.00  0.00     0.158 C 
ATOM      8  O   UNL     1      -8.357  27.812  45.032  1.00  0.00    -0.295 OA
ENDROOT
BRANCH   5   9
ATOM      9  C   UNL     1      -7.123  32.256  46.638  1.00  0.00    -0.077 C 
ATOM     10  C   UNL     1      -7.971  32.993  45.900  1.00  0.00     0.008 C 
ATOM     11  C   UNL     1      -6.556  32.858  47.899  1.00  0.00     0.039 C 
ENDBRANCH   5   9
TORSDOF 1
ENDMDL
MODEL 9
REMARK VINA RESULT:    -3.857     15.477     16.484
REMARK INTER + INTRA:          -4.176
REMARK INTER:                  -4.080
REMARK INTRA:                  -0.096
REMARK UNBOUND:                -0.093
REMARK SMILES C=C(C)[C@H]1CC=C(C)C(=O)C1
REMARK SMILES IDX 8 1 7 2 6 3 5 4 4 5 11 6 9 7 10 8 2 9 1 10 3 11
REMARK H PARENT
REMARK Flexibility Score: inf
ROOT
ATOM      1  C   UNL     1      -7.202  33.931  47.430  1.00  0.00     0.048 C 
ATOM      2  C   UNL     1      -6.938  32.524  46.967  1.00  0.00    -0.012 C 
ATOM      3  C   UNL     1      -5.987  31.789  47.568  1.00  0.00    -0.019 C 
ATOM      4  C   UNL     1      -5.671  30.383  47.133  1.00  0.00     0.036 C 
ATOM      5  C   UNL     1      -6.932  29.666  46.611  1.00  0.00     0.025 C 
ATOM      6  C   UNL     1      -7.587  30.491  45.487  1.00  0.00     0.089 C 
ATOM      7  C   UNL     1      -7.811  31.910  45.934  1.00  0.00     0.158 C 
ATOM      8  O   UNL     1      -8.727  32.587  45.395  1.00  0.00    -0.295 OA
ENDROOT
BRANCH   5   9
ATOM      9  C   UNL     1      -6.625  28.246  46.157  1.00  0.00    -0.077 C 
ATOM     10  C   UNL     1      -5.449  27.659  46.441  1.00  0.00     0.008 C 
ATOM     11  C   UNL     1      -7.649  27.464  45.376  1.00  0.00     0.039 C 
ENDBRANCH   5   9
TORSDOF 1
ENDMDL
