MODEL 1
REMARK VINA RESULT:    -4.344      0.000      0.000
REMARK INTER + INTRA:          -4.800
REMARK INTER:                  -4.725
REMARK INTRA:                  -0.075
REMARK UNBOUND:                -0.075
REMARK SMILES CC(=O)[C@H]1CC[C@@H]2[C@@H]3CC=C4C[C@H](O)CC[C@]4(C)[C@@H]3CC[C@]12C
REMARK SMILES IDX 4 1 5 2 6 3 7 4 22 5 21 6 20 7 19 8 8 9 9 10 10 11 11 12
REMARK SMILES IDX 17 13 16 14 15 15 13 16 12 17 18 18 23 19 2 20 1 21 3 22
REMARK SMILES IDX 14 23
REMARK H PARENT 14 24
REMARK Flexibility Score: inf
ROOT
ATOM      1  C   UNL     1      -0.958  32.045  62.118  1.00  0.00     0.062 C 
ATOM      2  C   UNL     1       0.001  33.215  62.358  1.00  0.00     0.012 C 
ATOM      3  C   UNL     1      -0.823  34.500  62.288  1.00  0.00     0.005 C 
ATOM      4  C   UNL     1      -2.304  34.094  62.142  1.00  0.00    -0.001 C 
ATOM      5  C   UNL     1      -2.383  32.579  62.480  1.00  0.00    -0.020 C 
ATOM      6  C   UNL     1      -2.689  32.323  64.002  1.00  0.00     0.008 C 
ATOM      7  C   UNL     1      -2.454  33.539  64.902  1.00  0.00     0.005 C 
ATOM      8  C   UNL     1      -3.380  34.706  64.478  1.00  0.00     0.003 C 
ATOM      9  C   UNL     1      -3.314  34.983  62.935  1.00  0.00     0.000 C 
ATOM     10  C   UNL     1      -3.159  36.464  62.567  1.00  0.00     0.031 C 
ATOM     11  C   UNL     1      -3.978  37.350  63.448  1.00  0.00    -0.027 C 
ATOM     12  C   UNL     1      -3.956  37.203  64.785  1.00  0.00    -0.065 C 
ATOM     13  C   UNL     1      -3.323  35.972  65.439  1.00  0.00    -0.008 C 
ATOM     14  C   UNL     1      -1.872  36.381  65.829  1.00  0.00     0.014 C 
ATOM     15  C   UNL     1      -1.804  37.700  66.643  1.00  0.00     0.033 C 
ATOM     16  C   UNL     1      -2.574  38.869  65.990  1.00  0.00     0.118 C 
ATOM     17  C   UNL     1      -4.016  38.467  65.615  1.00  0.00     0.063 C 
ATOM     18  C   UNL     1      -4.125  35.612  66.728  1.00  0.00     0.016 C 
ATOM     19  C   UNL     1      -3.503  31.896  61.649  1.00  0.00     0.012 C 
ENDROOT
BRANCH   1  20
ATOM     20  C   UNL     1      -0.820  31.478  60.707  1.00  0.00     0.133 C 
ATOM     21  C   UNL     1      -0.981  30.017  60.383  1.00  0.00     0.088 C 
ATOM     22  O   UNL     1      -0.529  32.239  59.797  1.00  0.00    -0.300 OA
ENDBRANCH   1  20
BRANCH  16  23
ATOM     23  O   UNL     1      -1.877  39.298  64.848  1.00  0.00    -0.393 OA
ATOM     24  H   UNL     1      -2.387  40.062  64.470  1.00  0.00     0.210 HD
ENDBRANCH  16  23
TORSDOF 2
ENDMDL
MODEL 2
REMARK VINA RESULT:    -4.295      1.148      6.636
REMARK INTER + INTRA:          -4.747
REMARK INTER:                  -4.725
REMARK INTRA:                  -0.022
REMARK UNBOUND:                -0.075
REMARK SMILES CC(=O)[C@H]1CC[C@@H]2[C@@H]3CC=C4C[C@H](O)CC[C@]4(C)[C@@H]3CC[C@]12C
REMARK SMILES IDX 4 1 5 2 6 3 7 4 22 5 21 6 20 7 19 8 8 9 9 10 10 11 11 12
REMARK SMILES IDX 17 13 16 14 15 15 13 16 12 17 18 18 23 19 2 20 1 21 3 22
REMARK SMILES IDX 14 23
REMARK H PARENT 14 24
REMARK Flexibility Score: inf
ROOT
ATOM      1  C   UNL     1      -3.707  36.978  64.007  1.00  0.00     0.062 C 
ATOM      2  C   UNL     1      -3.607  36.982  62.479  1.00  0.00     0.012 C 
ATOM      3  C   UNL     1      -2.459  36.048  62.096  1.00  0.00     0.005 C 
ATOM      4  C   UNL     1      -1.957  35.375  63.390  1.00  0.00    -0.001 C 
ATOM      5  C   UNL     1      -3.037  35.645  64.475  1.00  0.00    -0.020 C 
ATOM      6  C   UNL     1      -4.106  34.494  64.551  1.00  0.00     0.008 C 
ATOM      7  C   UNL     1      -4.125  33.574  63.326  1.00  0.00     0.005 C 
ATOM      8  C   UNL     1      -2.757  32.865  63.169  1.00  0.00     0.003 C 
ATOM      9  C   UNL     1      -1.557  33.874  63.240  1.00  0.00     0.000 C 
ATOM     10  C   UNL     1      -0.509  33.684  62.135  1.00  0.00     0.031 C 
ATOM     11  C   UNL     1      -0.253  32.242  61.845  1.00  0.00    -0.027 C 
ATOM     12  C   UNL     1      -1.273  31.383  61.663  1.00  0.00    -0.065 C 
ATOM     13  C   UNL     1      -2.712  31.774  62.012  1.00  0.00    -0.008 C 
ATOM     14  C   UNL     1      -3.368  32.259  60.686  1.00  0.00     0.014 C 
ATOM     15  C   UNL     1      -3.196  31.257  59.514  1.00  0.00     0.033 C 
ATOM     16  C   UNL     1      -1.735  30.803  59.299  1.00  0.00     0.118 C 
ATOM     17  C   UNL     1      -1.090  30.311  60.612  1.00  0.00     0.063 C 
ATOM     18  C   UNL     1      -3.469  30.513  62.534  1.00  0.00     0.016 C 
ATOM     19  C   UNL     1      -2.377  35.770  65.875  1.00  0.00     0.012 C 
ENDROOT
BRANCH   1  20
ATOM     20  C   UNL     1      -3.119  38.247  64.619  1.00  0.00     0.133 C 
ATOM     21  C   UNL     1      -3.586  38.829  65.926  1.00  0.00     0.088 C 
ATOM     22  O   UNL     1      -2.250  38.844  64.002  1.00  0.00    -0.300 OA
ENDBRANCH   1  20
BRANCH  16  23
ATOM     23  O   UNL     1      -0.995  31.871  58.765  1.00  0.00    -0.393 OA
ATOM     24  H   UNL     1      -0.156  31.932  59.293  1.00  0.00     0.210 HD
ENDBRANCH  16  23
TORSDOF 2
ENDMDL
MODEL 3
REMARK VINA RESULT:    -4.288      1.430      6.582
REMARK INTER + INTRA:          -4.740
REMARK INTER:                  -4.635
REMARK INTRA:                  -0.104
REMARK UNBOUND:                -0.075
REMARK SMILES CC(=O)[C@H]1CC[C@@H]2[C@@H]3CC=C4C[C@H](O)CC[C@]4(C)[C@@H]3CC[C@]12C
REMARK SMILES IDX 4 1 5 2 6 3 7 4 22 5 21 6 20 7 19 8 8 9 9 10 10 11 11 12
REMARK SMILES IDX 17 13 16 14 15 15 13 16 12 17 18 18 23 19 2 20 1 21 3 22
REMARK SMILES IDX 14 23
REMARK H PARENT 14 24
REMARK Flexibility Score: inf
ROOT
ATOM      1  C   UNL     1      -3.510  36.058  65.578  1.00  0.00     0.062 C 
ATOM      2  C   UNL     1      -3.754  36.436  64.114  1.00  0.00     0.012 C 
ATOM      3  C   UNL     1      -2.736  35.668  63.272  1.00  0.00     0.005 C 
ATOM      4  C   UNL     1      -1.969  34.722  64.218  1.00  0.00    -0.001 C 
ATOM      5  C   UNL     1      -2.773  34.679  65.547  1.00  0.00    -0.020 C 
ATOM      6  C   UNL     1      -3.818  33.503  65.574  1.00  0.00     0.008 C 
ATOM      7  C   UNL     1      -4.125  32.906  64.197  1.00  0.00     0.005 C 
ATOM      8  C   UNL     1      -2.838  32.310  63.573  1.00  0.00     0.003 C 
ATOM      9  C   UNL     1      -1.637  33.318  63.622  1.00  0.00     0.000 C 
ATOM     10  C   UNL     1      -0.866  33.442  62.301  1.00  0.00     0.031 C 
ATOM     11  C   UNL     1      -0.705  32.124  61.618  1.00  0.00    -0.027 C 
ATOM     12  C   UNL     1      -1.754  31.295  61.462  1.00  0.00    -0.065 C 
ATOM     13  C   UNL     1      -3.071  31.534  62.205  1.00  0.00    -0.008 C 
ATOM     14  C   UNL     1      -4.000  32.299  61.216  1.00  0.00     0.014 C 
ATOM     15  C   UNL     1      -4.111  31.617  59.827  1.00  0.00     0.033 C 
ATOM     16  C   UNL     1      -2.742  31.285  59.191  1.00  0.00     0.118 C 
ATOM     17  C   UNL     1      -1.828  30.517  60.167  1.00  0.00     0.063 C 
ATOM     18  C   UNL     1      -3.713  30.155  62.557  1.00  0.00     0.016 C 
ATOM     19  C   UNL     1      -1.815  34.489  66.754  1.00  0.00     0.012 C 
ENDROOT
BRANCH   1  20
ATOM     20  C   UNL     1      -2.779  37.164  66.336  1.00  0.00     0.133 C 
ATOM     21  C   UNL     1      -3.159  37.608  67.723  1.00  0.00     0.088 C 
ATOM     22  O   UNL     1      -1.861  37.746  65.778  1.00  0.00    -0.300 OA
ENDBRANCH   1  20
BRANCH  16  23
ATOM     23  O   UNL     1      -2.123  32.479  58.783  1.00  0.00    -0.393 OA
ATOM     24  H   UNL     1      -2.427  33.189  59.409  1.00  0.00     0.210 HD
ENDBRANCH  16  23
TORSDOF 2
ENDMDL
MODEL 4
REMARK VINA RESULT:    -3.953      2.358      3.673
REMARK INTER + INTRA:          -4.375
REMARK INTER:                  -4.282
REMARK INTRA:                  -0.092
REMARK UNBOUND:                -0.075
REMARK SMILES CC(=O)[C@H]1CC[C@@H]2[C@@H]3CC=C4C[C@H](O)CC[C@]4(C)[C@@H]3CC[C@]12C
REMARK SMILES IDX 4 1 5 2 6 3 7 4 22 5 21 6 20 7 19 8 8 9 9 10 10 11 11 12
REMARK SMILES IDX 17 13 16 14 15 15 13 16 12 17 18 18 23 19 2 20 1 21 3 22
REMARK SMILES IDX 14 23
REMARK H PARENT 14 24
REMARK Flexibility Score: inf
ROOT
ATOM      1  C   UNL     1      -3.928  32.282  60.320  1.00  0.00     0.062 C 
ATOM      2  C   UNL     1      -4.039  31.328  61.512  1.00  0.00     0.012 C 
ATOM      3  C   UNL     1      -2.875  31.639  62.453  1.00  0.00     0.005 C 
ATOM      4  C   UNL     1      -2.141  32.873  61.891  1.00  0.00    -0.001 C 
ATOM      5  C   UNL     1      -3.081  33.498  60.821  1.00  0.00    -0.020 C 
ATOM      6  C   UNL     1      -4.022  34.603  61.427  1.00  0.00     0.008 C 
ATOM      7  C   UNL     1      -4.125  34.571  62.955  1.00  0.00     0.005 C 
ATOM      8  C   UNL     1      -2.733  34.810  63.591  1.00  0.00     0.003 C 
ATOM      9  C   UNL     1      -1.631  33.884  62.966  1.00  0.00     0.000 C 
ATOM     10  C   UNL     1      -0.732  33.191  63.999  1.00  0.00     0.031 C 
ATOM     11  C   UNL     1      -0.389  34.092  65.139  1.00  0.00    -0.027 C 
ATOM     12  C   UNL     1      -1.342  34.807  65.765  1.00  0.00    -0.065 C 
ATOM     13  C   UNL     1      -2.749  34.941  65.176  1.00  0.00    -0.008 C 
ATOM     14  C   UNL     1      -3.622  33.857  65.873  1.00  0.00     0.014 C 
ATOM     15  C   UNL     1      -3.522  33.890  67.420  1.00  0.00     0.033 C 
ATOM     16  C   UNL     1      -2.069  33.883  67.946  1.00  0.00     0.118 C 
ATOM     17  C   UNL     1      -1.208  34.966  67.263  1.00  0.00     0.063 C 
ATOM     18  C   UNL     1      -3.309  36.357  65.518  1.00  0.00     0.016 C 
ATOM     19  C   UNL     1      -2.249  34.153  59.686  1.00  0.00     0.012 C 
ENDROOT
BRANCH   1  20
ATOM     20  C   UNL     1      -3.379  31.580  59.080  1.00  0.00     0.133 C 
ATOM     21  C   UNL     1      -2.223  30.617  59.117  1.00  0.00     0.088 C 
ATOM     22  O   UNL     1      -3.876  31.838  57.994  1.00  0.00    -0.300 OA
ENDBRANCH   1  20
BRANCH  16  23
ATOM     23  O   UNL     1      -1.509  32.612  67.732  1.00  0.00    -0.393 OA
ATOM     24  H   UNL     1      -2.259  31.960  67.753  1.00  0.00     0.210 HD
ENDBRANCH  16  23
TORSDOF 2
ENDMDL
MODEL 5
REMARK VINA RESULT:    -3.882      1.823      6.718
REMARK INTER + INTRA:          -4.298
REMARK INTER:                  -4.592
REMARK INTRA:                   0.294
REMARK UNBOUND:                -0.075
REMARK SMILES CC(=O)[C@H]1CC[C@@H]2[C@@H]3CC=C4C[C@H](O)CC[C@]4(C)[C@@H]3CC[C@]12C
REMARK SMILES IDX 4 1 5 2 6 3 7 4 22 5 21 6 20 7 19 8 8 9 9 10 10 11 11 12
REMARK SMILES IDX 17 13 16 14 15 15 13 16 12 17 18 18 23 19 2 20 1 21 3 22
REMARK SMILES IDX 14 23
REMARK H PARENT 14 24
REMARK Flexibility Score: inf
ROOT
ATOM      1  C   UNL     1      -4.073  37.904  61.794  1.00  0.00     0.062 C 
ATOM      2  C   UNL     1      -4.086  37.294  60.389  1.00  0.00     0.012 C 
ATOM      3  C   UNL     1      -2.864  36.383  60.278  1.00  0.00     0.005 C 
ATOM      4  C   UNL     1      -2.190  36.339  61.665  1.00  0.00    -0.001 C 
ATOM      5  C   UNL     1      -3.212  36.938  62.672  1.00  0.00    -0.020 C 
ATOM      6  C   UNL     1      -4.125  35.833  63.322  1.00  0.00     0.008 C 
ATOM      7  C   UNL     1      -4.120  34.496  62.575  1.00  0.00     0.005 C 
ATOM      8  C   UNL     1      -2.691  33.900  62.554  1.00  0.00     0.003 C 
ATOM      9  C   UNL     1      -1.621  34.945  62.078  1.00  0.00     0.000 C 
ATOM     10  C   UNL     1      -0.643  34.409  61.026  1.00  0.00     0.031 C 
ATOM     11  C   UNL     1      -0.234  33.000  61.304  1.00  0.00    -0.027 C 
ATOM     12  C   UNL     1      -1.152  32.061  61.599  1.00  0.00    -0.065 C 
ATOM     13  C   UNL     1      -2.598  32.440  61.929  1.00  0.00    -0.008 C 
ATOM     14  C   UNL     1      -3.404  32.287  60.605  1.00  0.00     0.014 C 
ATOM     15  C   UNL     1      -3.197  30.913  59.917  1.00  0.00     0.033 C 
ATOM     16  C   UNL     1      -1.711  30.532  59.732  1.00  0.00     0.118 C 
ATOM     17  C   UNL     1      -0.916  30.672  61.047  1.00  0.00     0.063 C 
ATOM     18  C   UNL     1      -3.155  31.444  62.993  1.00  0.00     0.016 C 
ATOM     19  C   UNL     1      -2.471  37.676  63.819  1.00  0.00     0.012 C 
ENDROOT
BRANCH   1  20
ATOM     20  C   UNL     1      -3.601  39.356  61.779  1.00  0.00     0.133 C 
ATOM     21  C   UNL     1      -3.054  40.036  60.553  1.00  0.00     0.088 C 
ATOM     22  O   UNL     1      -3.634  39.992  62.821  1.00  0.00    -0.300 OA
ENDBRANCH   1  20
BRANCH  16  23
ATOM     23  O   UNL     1      -1.148  31.347  58.735  1.00  0.00    -0.393 OA
ATOM     24  H   UNL     1      -1.489  32.267  58.889  1.00  0.00     0.210 HD
ENDBRANCH  16  23
TORSDOF 2
ENDMDL
MODEL 6
REMARK VINA RESULT:    -3.851      3.686      7.053
REMARK INTER + INTRA:          -4.264
REMARK INTER:                  -4.160
REMARK INTRA:                  -0.104
REMARK UNBOUND:                -0.075
REMARK SMILES CC(=O)[C@H]1CC[C@@H]2[C@@H]3CC=C4C[C@H](O)CC[C@]4(C)[C@@H]3CC[C@]12C
REMARK SMILES IDX 4 1 5 2 6 3 7 4 22 5 21 6 20 7 19 8 8 9 9 10 10 11 11 12
REMARK SMILES IDX 17 13 16 14 15 15 13 16 12 17 18 18 23 19 2 20 1 21 3 22
REMARK SMILES IDX 14 23
REMARK H PARENT 14 24
REMARK Flexibility Score: inf
ROOT
ATOM      1  C   UNL     1      -3.727  38.549  58.115  1.00  0.00     0.062 C 
ATOM      2  C   UNL     1      -3.390  37.332  57.247  1.00  0.00     0.012 C 
ATOM      3  C   UNL     1      -2.168  36.657  57.868  1.00  0.00     0.005 C 
ATOM      4  C   UNL     1      -1.851  37.390  59.187  1.00  0.00    -0.001 C 
ATOM      5  C   UNL     1      -3.095  38.264  59.516  1.00  0.00    -0.020 C 
ATOM      6  C   UNL     1      -4.125  37.511  60.436  1.00  0.00     0.008 C 
ATOM      7  C   UNL     1      -3.923  35.993  60.493  1.00  0.00     0.005 C 
ATOM      8  C   UNL     1      -2.525  35.661  61.070  1.00  0.00     0.003 C 
ATOM      9  C   UNL     1      -1.384  36.470  60.358  1.00  0.00     0.000 C 
ATOM     10  C   UNL     1      -0.172  35.622  59.951  1.00  0.00     0.031 C 
ATOM     11  C   UNL     1       0.173  34.601  60.984  1.00  0.00    -0.027 C 
ATOM     12  C   UNL     1      -0.779  33.815  61.521  1.00  0.00    -0.065 C 
ATOM     13  C   UNL     1      -2.266  34.110  61.309  1.00  0.00    -0.008 C 
ATOM     14  C   UNL     1      -2.723  33.220  60.115  1.00  0.00     0.014 C 
ATOM     15  C   UNL     1      -2.339  31.726  60.282  1.00  0.00     0.033 C 
ATOM     16  C   UNL     1      -0.848  31.507  60.623  1.00  0.00     0.118 C 
ATOM     17  C   UNL     1      -0.399  32.380  61.814  1.00  0.00     0.063 C 
ATOM     18  C   UNL     1      -3.053  33.701  62.593  1.00  0.00     0.016 C 
ATOM     19  C   UNL     1      -2.664  39.562  60.251  1.00  0.00     0.012 C 
ENDROOT
BRANCH   1  20
ATOM     20  C   UNL     1      -3.283  39.854  57.459  1.00  0.00     0.133 C 
ATOM     21  C   UNL     1      -4.115  41.108  57.463  1.00  0.00     0.088 C 
ATOM     22  O   UNL     1      -2.214  39.877  56.868  1.00  0.00    -0.300 OA
ENDBRANCH   1  20
BRANCH  16  23
ATOM     23  O   UNL     1      -0.069  31.794  59.490  1.00  0.00    -0.393 OA
ATOM     24  H   UNL     1      -0.394  31.203  58.760  1.00  0.00     0.210 HD
ENDBRANCH  16  23
TORSDOF 2
ENDMDL
MODEL 7
REMARK VINA RESULT:    -3.656      2.054      6.725
REMARK INTER + INTRA:          -4.052
REMARK INTER:                  -4.005
REMARK INTRA:                  -0.047
REMARK UNBOUND:                -0.075
REMARK SMILES CC(=O)[C@H]1CC[C@@H]2[C@@H]3CC=C4C[C@H](O)CC[C@]4(C)[C@@H]3CC[C@]12C
REMARK SMILES IDX 4 1 5 2 6 3 7 4 22 5 21 6 20 7 19 8 8 9 9 10 10 11 11 12
REMARK SMILES IDX 17 13 16 14 15 15 13 16 12 17 18 18 23 19 2 20 1 21 3 22
REMARK SMILES IDX 14 23
REMARK H PARENT 14 24
REMARK Flexibility Score: inf
ROOT
ATOM      1  C   UNL     1      -2.355  34.989  66.248  1.00  0.00     0.062 C 
ATOM      2  C   UNL     1      -1.864  33.539  66.280  1.00  0.00     0.012 C 
ATOM      3  C   UNL     1      -2.642  32.772  65.212  1.00  0.00     0.005 C 
ATOM      4  C   UNL     1      -3.506  33.792  64.444  1.00  0.00    -0.001 C 
ATOM      5  C   UNL     1      -2.970  35.201  64.825  1.00  0.00    -0.020 C 
ATOM      6  C   UNL     1      -1.867  35.709  63.826  1.00  0.00     0.008 C 
ATOM      7  C   UNL     1      -1.259  34.610  62.949  1.00  0.00     0.005 C 
ATOM      8  C   UNL     1      -2.356  33.960  62.069  1.00  0.00     0.003 C 
ATOM      9  C   UNL     1      -3.615  33.541  62.907  1.00  0.00     0.000 C 
ATOM     10  C   UNL     1      -4.125  32.125  62.609  1.00  0.00     0.031 C 
ATOM     11  C   UNL     1      -4.056  31.797  61.154  1.00  0.00    -0.027 C 
ATOM     12  C   UNL     1      -2.939  32.042  60.444  1.00  0.00    -0.065 C 
ATOM     13  C   UNL     1      -1.809  32.903  61.014  1.00  0.00    -0.008 C 
ATOM     14  C   UNL     1      -0.767  31.916  61.617  1.00  0.00     0.014 C 
ATOM     15  C   UNL     1      -0.343  30.795  60.633  1.00  0.00     0.033 C 
ATOM     16  C   UNL     1      -1.536  30.050  59.994  1.00  0.00     0.118 C 
ATOM     17  C   UNL     1      -2.562  31.029  59.385  1.00  0.00     0.063 C 
ATOM     18  C   UNL     1      -1.148  33.709  59.851  1.00  0.00     0.016 C 
ATOM     19  C   UNL     1      -4.125  36.238  64.824  1.00  0.00     0.012 C 
ENDROOT
BRANCH   1  20
ATOM     20  C   UNL     1      -3.296  35.296  67.410  1.00  0.00     0.133 C 
ATOM     21  C   UNL     1      -3.408  36.655  68.048  1.00  0.00     0.088 C 
ATOM     22  O   UNL     1      -3.968  34.387  67.874  1.00  0.00    -0.300 OA
ENDBRANCH   1  20
BRANCH  16  23
ATOM     23  O   UNL     1      -2.151  29.246  60.968  1.00  0.00    -0.393 OA
ATOM     24  H   UNL     1      -1.426  28.751  61.432  1.00  0.00     0.210 HD
ENDBRANCH  16  23
TORSDOF 2
ENDMDL
MODEL 8
REMARK VINA RESULT:    -3.542      3.893      6.639
REMARK INTER + INTRA:          -3.927
REMARK INTER:                  -4.235
REMARK INTRA:                   0.308
REMARK UNBOUND:                -0.075
REMARK SMILES CC(=O)[C@H]1CC[C@@H]2[C@@H]3CC=C4C[C@H](O)CC[C@]4(C)[C@@H]3CC[C@]12C
REMARK SMILES IDX 4 1 5 2 6 3 7 4 22 5 21 6 20 7 19 8 8 9 9 10 10 11 11 12
REMARK SMILES IDX 17 13 16 14 15 15 13 16 12 17 18 18 23 19 2 20 1 21 3 22
REMARK SMILES IDX 14 23
REMARK H PARENT 14 24
REMARK Flexibility Score: inf
ROOT
ATOM      1  C   UNL     1      -2.335  39.196  58.508  1.00  0.00     0.062 C 
ATOM      2  C   UNL     1      -2.357  39.261  60.038  1.00  0.00     0.012 C 
ATOM      3  C   UNL     1      -3.097  38.020  60.535  1.00  0.00     0.005 C 
ATOM      4  C   UNL     1      -3.403  37.138  59.307  1.00  0.00    -0.001 C 
ATOM      5  C   UNL     1      -2.534  37.688  58.141  1.00  0.00    -0.020 C 
ATOM      6  C   UNL     1      -1.141  36.964  58.043  1.00  0.00     0.008 C 
ATOM      7  C   UNL     1      -0.750  36.182  59.300  1.00  0.00     0.005 C 
ATOM      8  C   UNL     1      -1.786  35.064  59.579  1.00  0.00     0.003 C 
ATOM      9  C   UNL     1      -3.260  35.602  59.546  1.00  0.00     0.000 C 
ATOM     10  C   UNL     1      -4.125  35.139  60.725  1.00  0.00     0.031 C 
ATOM     11  C   UNL     1      -3.860  33.716  61.092  1.00  0.00    -0.027 C 
ATOM     12  C   UNL     1      -2.601  33.265  61.240  1.00  0.00    -0.065 C 
ATOM     13  C   UNL     1      -1.400  34.096  60.780  1.00  0.00    -0.008 C 
ATOM     14  C   UNL     1      -0.884  34.856  62.038  1.00  0.00     0.014 C 
ATOM     15  C   UNL     1      -0.648  33.929  63.260  1.00  0.00     0.033 C 
ATOM     16  C   UNL     1      -1.855  33.022  63.590  1.00  0.00     0.118 C 
ATOM     17  C   UNL     1      -2.357  32.261  62.346  1.00  0.00     0.063 C 
ATOM     18  C   UNL     1      -0.286  33.135  60.262  1.00  0.00     0.016 C 
ATOM     19  C   UNL     1      -3.265  37.497  56.784  1.00  0.00     0.012 C 
ENDROOT
BRANCH   1  20
ATOM     20  C   UNL     1      -3.350  40.151  57.884  1.00  0.00     0.133 C 
ATOM     21  C   UNL     1      -3.421  40.435  56.407  1.00  0.00     0.088 C 
ATOM     22  O   UNL     1      -4.121  40.747  58.621  1.00  0.00    -0.300 OA
ENDBRANCH   1  20
BRANCH  16  23
ATOM     23  O   UNL     1      -2.887  33.809  64.128  1.00  0.00    -0.393 OA
ATOM     24  H   UNL     1      -3.421  33.217  64.721  1.00  0.00     0.210 HD
ENDBRANCH  16  23
TORSDOF 2
ENDMDL
MODEL 9
REMARK VINA RESULT:    -3.183      3.738      5.870
REMARK INTER + INTRA:          -3.537
REMARK INTER:                  -3.602
REMARK INTRA:                   0.065
REMARK UNBOUND:                -0.075
REMARK SMILES CC(=O)[C@H]1CC[C@@H]2[C@@H]3CC=C4C[C@H](O)CC[C@]4(C)[C@@H]3CC[C@]12C
REMARK SMILES IDX 4 1 5 2 6 3 7 4 22 5 21 6 20 7 19 8 8 9 9 10 10 11 11 12
REMARK SMILES IDX 17 13 16 14 15 15 13 16 12 17 18 18 23 19 2 20 1 21 3 22
REMARK SMILES IDX 14 23
REMARK H PARENT 14 24
REMARK Flexibility Score: inf
ROOT
ATOM      1  C   UNL     1      -1.367  34.620  63.104  1.00  0.00     0.062 C 
ATOM      2  C   UNL     1      -0.357  34.764  61.962  1.00  0.00     0.012 C 
ATOM      3  C   UNL     1      -1.142  34.704  60.652  1.00  0.00     0.005 C 
ATOM      4  C   UNL     1      -2.641  34.660  61.010  1.00  0.00    -0.001 C 
ATOM      5  C   UNL     1      -2.748  35.050  62.511  1.00  0.00    -0.020 C 
ATOM      6  C   UNL     1      -2.969  36.595  62.711  1.00  0.00     0.008 C 
ATOM      7  C   UNL     1      -2.639  37.441  61.477  1.00  0.00     0.005 C 
ATOM      8  C   UNL     1      -3.551  37.037  60.292  1.00  0.00     0.003 C 
ATOM      9  C   UNL     1      -3.570  35.484  60.064  1.00  0.00     0.000 C 
ATOM     10  C   UNL     1      -3.390  35.062  58.600  1.00  0.00     0.031 C 
ATOM     11  C   UNL     1      -4.124  35.962  57.661  1.00  0.00    -0.027 C 
ATOM     12  C   UNL     1      -4.024  37.300  57.769  1.00  0.00    -0.065 C 
ATOM     13  C   UNL     1      -3.392  37.952  59.001  1.00  0.00    -0.008 C 
ATOM     14  C   UNL     1      -1.907  38.241  58.632  1.00  0.00     0.014 C 
ATOM     15  C   UNL     1      -1.747  39.007  57.293  1.00  0.00     0.033 C 
ATOM     16  C   UNL     1      -2.517  38.366  56.117  1.00  0.00     0.118 C 
ATOM     17  C   UNL     1      -3.991  38.092  56.480  1.00  0.00     0.063 C 
ATOM     18  C   UNL     1      -4.125  39.299  59.295  1.00  0.00     0.016 C 
ATOM     19  C   UNL     1      -3.939  34.311  63.179  1.00  0.00     0.012 C 
ENDROOT
BRANCH   1  20
ATOM     20  C   UNL     1      -1.335  33.222  63.717  1.00  0.00     0.133 C 
ATOM     21  C   UNL     1      -1.823  32.916  65.108  1.00  0.00     0.088 C 
ATOM     22  O   UNL     1      -0.856  32.307  63.063  1.00  0.00    -0.300 OA
ENDBRANCH   1  20
BRANCH  16  23
ATOM     23  O   UNL     1      -1.878  37.170  55.746  1.00  0.00    -0.393 OA
ATOM     24  H   UNL     1      -1.506  36.773  56.577  1.00  0.00     0.210 HD
ENDBRANCH  16  23
TORSDOF 2
ENDMDL
