MODEL 1
REMARK VINA RESULT:    -5.030      0.000      0.000
REMARK INTER + INTRA:          -7.615
REMARK INTER:                  -6.795
REMARK INTRA:                  -0.821
REMARK UNBOUND:                -0.821
REMARK SMILES CC(=O)CCC=C(C)CCC=C(C)C
REMARK SMILES IDX 7 1 6 2 8 3 9 4 10 5 11 6 13 7 12 8 14 9 5 10 4 11 2 12 3 13
REMARK SMILES IDX 1 14
REMARK H PARENT
REMARK Flexibility Score: inf
ROOT
ATOM      1  C   UNL     1     -13.454   2.446 -14.681  1.00  0.00    -0.077 C 
ATOM      2  C   UNL     1     -14.741   2.167 -14.372  1.00  0.00    -0.028 C 
ATOM      3  C   UNL     1     -12.457   2.874 -13.628  1.00  0.00     0.039 C 
ENDROOT
BRANCH   1   4
ATOM      4  C   UNL     1     -13.006   2.347 -16.123  1.00  0.00     0.034 C 
BRANCH   4   5
ATOM      5  C   UNL     1     -12.266   3.620 -16.551  1.00  0.00     0.032 C 
BRANCH   5   6
ATOM      6  C   UNL     1     -13.231   4.745 -16.837  1.00  0.00    -0.028 C 
ATOM      7  C   UNL     1     -14.083   7.064 -16.654  1.00  0.00     0.039 C 
ATOM      8  C   UNL     1     -13.081   5.988 -16.329  1.00  0.00    -0.080 C 
ATOM      9  C   UNL     1     -11.925   6.337 -15.424  1.00  0.00     0.039 C 
ENDBRANCH   5   6
ENDBRANCH   4   5
ENDBRANCH   1   4
BRANCH   2  10
ATOM     10  C   UNL     1     -15.305   2.177 -12.973  1.00  0.00     0.035 C 
BRANCH  10  11
ATOM     11  C   UNL     1     -16.784   1.779 -12.984  1.00  0.00     0.079 C 
BRANCH  11  12
ATOM     12  C   UNL     1     -17.663   3.000 -12.990  1.00  0.00     0.130 C 
ATOM     13  O   UNL     1     -17.939   3.548 -11.934  1.00  0.00    -0.300 OA
ATOM     14  C   UNL     1     -18.202   3.568 -14.270  1.00  0.00     0.087 C 
ENDBRANCH  11  12
ENDBRANCH  10  11
ENDBRANCH   2  10
TORSDOF 6
ENDMDL
MODEL 2
REMARK VINA RESULT:    -4.673      3.510      5.084
REMARK INTER + INTRA:          -7.133
REMARK INTER:                  -6.140
REMARK INTRA:                  -0.994
REMARK UNBOUND:                -0.821
REMARK SMILES CC(=O)CCC=C(C)CCC=C(C)C
REMARK SMILES IDX 7 1 6 2 8 3 9 4 10 5 11 6 13 7 12 8 14 9 5 10 4 11 2 12 3 13
REMARK SMILES IDX 1 14
REMARK H PARENT
REMARK Flexibility Score: inf
ROOT
ATOM      1  C   UNL     1     -11.809   2.805 -14.510  1.00  0.00    -0.077 C 
ATOM      2  C   UNL     1     -10.468   2.880 -14.671  1.00  0.00    -0.028 C 
ATOM      3  C   UNL     1     -12.450   2.833 -13.141  1.00  0.00     0.039 C 
ENDROOT
BRANCH   1   4
ATOM      4  C   UNL     1     -12.689   2.666 -15.733  1.00  0.00     0.034 C 
BRANCH   4   5
ATOM      5  C   UNL     1     -12.331   3.724 -16.784  1.00  0.00     0.032 C 
BRANCH   5   6
ATOM      6  C   UNL     1     -13.361   4.826 -16.825  1.00  0.00    -0.028 C 
ATOM      7  C   UNL     1     -14.214   7.110 -16.385  1.00  0.00     0.039 C 
ATOM      8  C   UNL     1     -13.140   6.056 -16.311  1.00  0.00    -0.080 C 
ATOM      9  C   UNL     1     -11.833   6.412 -15.647  1.00  0.00     0.039 C 
ENDBRANCH   5   6
ENDBRANCH   4   5
ENDBRANCH   1   4
BRANCH   2  10
ATOM     10  C   UNL     1      -9.483   3.070 -13.545  1.00  0.00     0.035 C 
BRANCH  10  11
ATOM     11  C   UNL     1      -8.960   1.718 -13.050  1.00  0.00     0.079 C 
BRANCH  11  12
ATOM     12  C   UNL     1      -9.390   1.469 -11.629  1.00  0.00     0.130 C 
ATOM     13  O   UNL     1      -9.828   0.373 -11.316  1.00  0.00    -0.300 OA
ATOM     14  C   UNL     1      -9.283   2.539 -10.582  1.00  0.00     0.087 C 
ENDBRANCH  11  12
ENDBRANCH  10  11
ENDBRANCH   2  10
TORSDOF 6
ENDMDL
MODEL 3
REMARK VINA RESULT:    -4.668      1.256      1.874
REMARK INTER + INTRA:          -7.126
REMARK INTER:                  -6.498
REMARK INTRA:                  -0.628
REMARK UNBOUND:                -0.821
REMARK SMILES CC(=O)CCC=C(C)CCC=C(C)C
REMARK SMILES IDX 7 1 6 2 8 3 9 4 10 5 11 6 13 7 12 8 14 9 5 10 4 11 2 12 3 13
REMARK SMILES IDX 1 14
REMARK H PARENT
REMARK Flexibility Score: inf
ROOT
ATOM      1  C   UNL     1     -12.801   2.999 -15.549  1.00  0.00    -0.077 C 
ATOM      2  C   UNL     1     -14.130   2.842 -15.348  1.00  0.00    -0.028 C 
ATOM      3  C   UNL     1     -11.785   2.575 -14.513  1.00  0.00     0.039 C 
ENDROOT
BRANCH   1   4
ATOM      4  C   UNL     1     -12.323   3.637 -16.835  1.00  0.00     0.034 C 
BRANCH   4   5
ATOM      5  C   UNL     1     -13.078   4.943 -17.108  1.00  0.00     0.032 C 
BRANCH   5   6
ATOM      6  C   UNL     1     -12.473   6.096 -16.344  1.00  0.00    -0.028 C 
ATOM      7  C   UNL     1     -12.516   8.294 -15.203  1.00  0.00     0.039 C 
ATOM      8  C   UNL     1     -13.185   7.179 -15.963  1.00  0.00    -0.080 C 
ATOM      9  C   UNL     1     -14.653   7.312 -16.286  1.00  0.00     0.039 C 
ENDBRANCH   5   6
ENDBRANCH   4   5
ENDBRANCH   1   4
BRANCH   2  10
ATOM     10  C   UNL     1     -14.739   2.179 -14.138  1.00  0.00     0.035 C 
BRANCH  10  11
ATOM     11  C   UNL     1     -16.236   2.489 -14.048  1.00  0.00     0.079 C 
BRANCH  11  12
ATOM     12  C   UNL     1     -16.766   2.159 -12.678  1.00  0.00     0.130 C 
ATOM     13  O   UNL     1     -16.573   1.048 -12.210  1.00  0.00    -0.300 OA
ATOM     14  C   UNL     1     -17.520   3.172 -11.867  1.00  0.00     0.087 C 
ENDBRANCH  11  12
ENDBRANCH  10  11
ENDBRANCH   2  10
TORSDOF 6
ENDMDL
MODEL 4
REMARK VINA RESULT:    -4.557      4.150      6.654
REMARK INTER + INTRA:          -6.976
REMARK INTER:                  -6.226
REMARK INTRA:                  -0.750
REMARK UNBOUND:                -0.821
REMARK SMILES CC(=O)CCC=C(C)CCC=C(C)C
REMARK SMILES IDX 7 1 6 2 8 3 9 4 10 5 11 6 13 7 12 8 14 9 5 10 4 11 2 12 3 13
REMARK SMILES IDX 1 14
REMARK H PARENT
REMARK Flexibility Score: inf
ROOT
ATOM      1  C   UNL     1     -13.187   6.569 -16.397  1.00  0.00    -0.077 C 
ATOM      2  C   UNL     1     -12.270   7.250 -15.673  1.00  0.00    -0.028 C 
ATOM      3  C   UNL     1     -14.588   7.097 -16.605  1.00  0.00     0.039 C 
ENDROOT
BRANCH   1   4
ATOM      4  C   UNL     1     -12.807   5.232 -16.995  1.00  0.00     0.034 C 
BRANCH   4   5
ATOM      5  C   UNL     1     -12.861   4.125 -15.934  1.00  0.00     0.032 C 
BRANCH   5   6
ATOM      6  C   UNL     1     -11.524   3.440 -15.788  1.00  0.00    -0.028 C 
ATOM      7  C   UNL     1      -9.399   2.902 -14.635  1.00  0.00     0.039 C 
ATOM      8  C   UNL     1     -10.722   3.618 -14.716  1.00  0.00    -0.080 C 
ATOM      9  C   UNL     1     -11.111   4.532 -13.580  1.00  0.00     0.039 C 
ENDBRANCH   5   6
ENDBRANCH   4   5
ENDBRANCH   1   4
BRANCH   2  10
ATOM     10  C   UNL     1     -12.500   8.611 -15.066  1.00  0.00     0.035 C 
BRANCH  10  11
ATOM     11  C   UNL     1     -11.429   8.922 -14.015  1.00  0.00     0.079 C 
BRANCH  11  12
ATOM     12  C   UNL     1     -11.014  10.366 -14.092  1.00  0.00     0.130 C 
ATOM     13  O   UNL     1     -11.223  11.103 -13.140  1.00  0.00    -0.300 OA
ATOM     14  C   UNL     1     -10.337  10.921 -15.310  1.00  0.00     0.087 C 
ENDBRANCH  11  12
ENDBRANCH  10  11
ENDBRANCH   2  10
TORSDOF 6
ENDMDL
MODEL 5
REMARK VINA RESULT:    -4.552      2.755      3.613
REMARK INTER + INTRA:          -6.969
REMARK INTER:                  -5.859
REMARK INTRA:                  -1.111
REMARK UNBOUND:                -0.821
REMARK SMILES CC(=O)CCC=C(C)CCC=C(C)C
REMARK SMILES IDX 7 1 6 2 8 3 9 4 10 5 11 6 13 7 12 8 14 9 5 10 4 11 2 12 3 13
REMARK SMILES IDX 1 14
REMARK H PARENT
REMARK Flexibility Score: inf
ROOT
ATOM      1  C   UNL     1     -12.458   2.957 -15.530  1.00  0.00    -0.077 C 
ATOM      2  C   UNL     1     -11.352   3.084 -14.761  1.00  0.00    -0.028 C 
ATOM      3  C   UNL     1     -13.776   2.490 -14.957  1.00  0.00     0.039 C 
ENDROOT
BRANCH   1   4
ATOM      4  C   UNL     1     -12.365   3.269 -17.008  1.00  0.00     0.034 C 
BRANCH   4   5
ATOM      5  C   UNL     1     -12.034   4.750 -17.231  1.00  0.00     0.032 C 
BRANCH   5   6
ATOM      6  C   UNL     1     -13.259   5.616 -17.062  1.00  0.00    -0.028 C 
ATOM      7  C   UNL     1     -14.561   7.487 -16.093  1.00  0.00     0.039 C 
ATOM      8  C   UNL     1     -13.304   6.665 -16.212  1.00  0.00    -0.080 C 
ATOM      9  C   UNL     1     -12.120   7.041 -15.357  1.00  0.00     0.039 C 
ENDBRANCH   5   6
ENDBRANCH   4   5
ENDBRANCH   1   4
BRANCH   2  10
ATOM     10  C   UNL     1     -11.318   2.854 -13.271  1.00  0.00     0.035 C 
BRANCH  10  11
ATOM     11  C   UNL     1     -11.479   4.177 -12.516  1.00  0.00     0.079 C 
BRANCH  11  12
ATOM     12  C   UNL     1     -12.235   3.968 -11.231  1.00  0.00     0.130 C 
ATOM     13  O   UNL     1     -12.027   4.709 -10.284  1.00  0.00    -0.300 OA
ATOM     14  C   UNL     1     -13.249   2.870 -11.092  1.00  0.00     0.087 C 
ENDBRANCH  11  12
ENDBRANCH  10  11
ENDBRANCH   2  10
TORSDOF 6
ENDMDL
MODEL 6
REMARK VINA RESULT:    -4.499      2.239      2.586
REMARK INTER + INTRA:          -6.898
REMARK INTER:                  -6.112
REMARK INTRA:                  -0.786
REMARK UNBOUND:                -0.821
REMARK SMILES CC(=O)CCC=C(C)CCC=C(C)C
REMARK SMILES IDX 7 1 6 2 8 3 9 4 10 5 11 6 13 7 12 8 14 9 5 10 4 11 2 12 3 13
REMARK SMILES IDX 1 14
REMARK H PARENT
REMARK Flexibility Score: inf
ROOT
ATOM      1  C   UNL     1     -12.159   2.816 -14.479  1.00  0.00    -0.077 C 
ATOM      2  C   UNL     1     -12.898   2.577 -13.372  1.00  0.00    -0.028 C 
ATOM      3  C   UNL     1     -10.673   3.084 -14.402  1.00  0.00     0.039 C 
ENDROOT
BRANCH   1   4
ATOM      4  C   UNL     1     -12.843   2.836 -15.829  1.00  0.00     0.034 C 
BRANCH   4   5
ATOM      5  C   UNL     1     -12.345   4.015 -16.674  1.00  0.00     0.032 C 
BRANCH   5   6
ATOM      6  C   UNL     1     -13.416   5.067 -16.832  1.00  0.00    -0.028 C 
ATOM      7  C   UNL     1     -14.415   7.310 -16.510  1.00  0.00     0.039 C 
ATOM      8  C   UNL     1     -13.306   6.310 -16.315  1.00  0.00    -0.080 C 
ATOM      9  C   UNL     1     -12.090   6.734 -15.528  1.00  0.00     0.039 C 
ENDBRANCH   5   6
ENDBRANCH   4   5
ENDBRANCH   1   4
BRANCH   2  10
ATOM     10  C   UNL     1     -12.337   2.479 -11.975  1.00  0.00     0.035 C 
BRANCH  10  11
ATOM     11  C   UNL     1     -13.420   2.032 -10.988  1.00  0.00     0.079 C 
BRANCH  11  12
ATOM     12  C   UNL     1     -14.283   3.197 -10.583  1.00  0.00     0.130 C 
ATOM     13  O   UNL     1     -13.762   4.197 -10.113  1.00  0.00    -0.300 OA
ATOM     14  C   UNL     1     -15.774   3.160 -10.752  1.00  0.00     0.087 C 
ENDBRANCH  11  12
ENDBRANCH  10  11
ENDBRANCH   2  10
TORSDOF 6
ENDMDL
MODEL 7
REMARK VINA RESULT:    -4.488      3.228      5.667
REMARK INTER + INTRA:          -6.883
REMARK INTER:                  -6.399
REMARK INTRA:                  -0.485
REMARK UNBOUND:                -0.821
REMARK SMILES CC(=O)CCC=C(C)CCC=C(C)C
REMARK SMILES IDX 7 1 6 2 8 3 9 4 10 5 11 6 13 7 12 8 14 9 5 10 4 11 2 12 3 13
REMARK SMILES IDX 1 14
REMARK H PARENT
REMARK Flexibility Score: inf
ROOT
ATOM      1  C   UNL     1     -13.862   7.151 -16.079  1.00  0.00    -0.077 C 
ATOM      2  C   UNL     1     -12.864   6.245 -16.189  1.00  0.00    -0.028 C 
ATOM      3  C   UNL     1     -15.216   6.924 -16.712  1.00  0.00     0.039 C 
ENDROOT
BRANCH   1   4
ATOM      4  C   UNL     1     -13.608   8.436 -15.321  1.00  0.00     0.034 C 
BRANCH   4   5
ATOM      5  C   UNL     1     -12.123   8.575 -14.967  1.00  0.00     0.032 C 
BRANCH   5   6
ATOM      6  C   UNL     1     -11.915   9.577 -13.858  1.00  0.00    -0.028 C 
ATOM      7  C   UNL     1     -10.938  11.608 -12.830  1.00  0.00     0.039 C 
ATOM      8  C   UNL     1     -11.099  10.647 -13.979  1.00  0.00    -0.080 C 
ATOM      9  C   UNL     1     -10.326  10.912 -15.247  1.00  0.00     0.039 C 
ENDBRANCH   5   6
ENDBRANCH   4   5
ENDBRANCH   1   4
BRANCH   2  10
ATOM     10  C   UNL     1     -12.996   4.906 -16.871  1.00  0.00     0.035 C 
BRANCH  10  11
ATOM     11  C   UNL     1     -11.895   3.950 -16.403  1.00  0.00     0.079 C 
BRANCH  11  12
ATOM     12  C   UNL     1     -12.442   2.951 -15.418  1.00  0.00     0.130 C 
ATOM     13  O   UNL     1     -12.107   3.018 -14.245  1.00  0.00    -0.300 OA
ATOM     14  C   UNL     1     -13.400   1.878 -15.844  1.00  0.00     0.087 C 
ENDBRANCH  11  12
ENDBRANCH  10  11
ENDBRANCH   2  10
TORSDOF 6
ENDMDL
MODEL 8
REMARK VINA RESULT:    -4.483      1.510      2.753
REMARK INTER + INTRA:          -6.877
REMARK INTER:                  -6.068
REMARK INTRA:                  -0.809
REMARK UNBOUND:                -0.821
REMARK SMILES CC(=O)CCC=C(C)CCC=C(C)C
REMARK SMILES IDX 7 1 6 2 8 3 9 4 10 5 11 6 13 7 12 8 14 9 5 10 4 11 2 12 3 13
REMARK SMILES IDX 1 14
REMARK H PARENT
REMARK Flexibility Score: inf
ROOT
ATOM      1  C   UNL     1     -13.453   2.422 -11.662  1.00  0.00    -0.077 C 
ATOM      2  C   UNL     1     -14.618   2.471 -12.348  1.00  0.00    -0.028 C 
ATOM      3  C   UNL     1     -13.326   1.660 -10.363  1.00  0.00     0.039 C 
ENDROOT
BRANCH   1   4
ATOM      4  C   UNL     1     -12.252   3.169 -12.200  1.00  0.00     0.034 C 
BRANCH   4   5
ATOM      5  C   UNL     1     -11.727   2.507 -13.480  1.00  0.00     0.032 C 
BRANCH   5   6
ATOM      6  C   UNL     1     -11.869   3.425 -14.669  1.00  0.00    -0.028 C 
ATOM      7  C   UNL     1     -12.740   4.094 -16.889  1.00  0.00     0.039 C 
ATOM      8  C   UNL     1     -12.646   3.131 -15.735  1.00  0.00    -0.080 C 
ATOM      9  C   UNL     1     -13.429   1.844 -15.811  1.00  0.00     0.039 C 
ENDBRANCH   5   6
ENDBRANCH   4   5
ENDBRANCH   1   4
BRANCH   2  10
ATOM     10  C   UNL     1     -15.873   1.735 -11.952  1.00  0.00     0.035 C 
BRANCH  10  11
ATOM     11  C   UNL     1     -16.856   1.673 -13.126  1.00  0.00     0.079 C 
BRANCH  11  12
ATOM     12  C   UNL     1     -17.853   2.798 -13.044  1.00  0.00     0.130 C 
ATOM     13  O   UNL     1     -18.044   3.356 -11.975  1.00  0.00    -0.300 OA
ATOM     14  C   UNL     1     -18.613   3.257 -14.254  1.00  0.00     0.087 C 
ENDBRANCH  11  12
ENDBRANCH  10  11
ENDBRANCH   2  10
TORSDOF 6
ENDMDL
MODEL 9
REMARK VINA RESULT:    -4.456      3.682      6.017
REMARK INTER + INTRA:          -6.840
REMARK INTER:                  -6.004
REMARK INTRA:                  -0.835
REMARK UNBOUND:                -0.821
REMARK SMILES CC(=O)CCC=C(C)CCC=C(C)C
REMARK SMILES IDX 7 1 6 2 8 3 9 4 10 5 11 6 13 7 12 8 14 9 5 10 4 11 2 12 3 13
REMARK SMILES IDX 1 14
REMARK H PARENT
REMARK Flexibility Score: inf
ROOT
ATOM      1  C   UNL     1     -10.660   3.495 -14.670  1.00  0.00    -0.077 C 
ATOM      2  C   UNL     1     -11.668   3.153 -15.505  1.00  0.00    -0.028 C 
ATOM      3  C   UNL     1     -10.676   4.791 -13.893  1.00  0.00     0.039 C 
ENDROOT
BRANCH   1   4
ATOM      4  C   UNL     1      -9.476   2.564 -14.528  1.00  0.00     0.034 C 
BRANCH   4   5
ATOM      5  C   UNL     1      -8.875   2.658 -13.120  1.00  0.00     0.032 C 
BRANCH   5   6
ATOM      6  C   UNL     1      -9.078   1.375 -12.351  1.00  0.00    -0.028 C 
ATOM      7  C   UNL     1     -10.186  -0.084 -10.684  1.00  0.00     0.039 C 
ATOM      8  C   UNL     1     -10.040   1.225 -11.414  1.00  0.00    -0.080 C 
ATOM      9  C   UNL     1     -10.985   2.348 -11.065  1.00  0.00     0.039 C 
ENDBRANCH   5   6
ENDBRANCH   4   5
ENDBRANCH   1   4
BRANCH   2  10
ATOM     10  C   UNL     1     -12.925   3.962 -15.702  1.00  0.00     0.035 C 
BRANCH  10  11
ATOM     11  C   UNL     1     -12.832   4.805 -16.978  1.00  0.00     0.079 C 
BRANCH  11  12
ATOM     12  C   UNL     1     -13.083   6.258 -16.675  1.00  0.00     0.130 C 
ATOM     13  O   UNL     1     -12.208   6.920 -16.139  1.00  0.00    -0.300 OA
ATOM     14  C   UNL     1     -14.386   6.915 -17.026  1.00  0.00     0.087 C 
ENDBRANCH  11  12
ENDBRANCH  10  11
ENDBRANCH   2  10
TORSDOF 6
ENDMDL
