MODEL 1
REMARK VINA RESULT:    -3.859      0.000      0.000
REMARK INTER + INTRA:          -6.240
REMARK INTER:                  -5.664
REMARK INTRA:                  -0.576
REMARK UNBOUND:                -0.576
REMARK SMILES O=C([O-])CCCCCCCC(=O)[O-]
REMARK SMILES IDX 7 1 6 2 5 3 4 4 2 5 1 6 3 7 8 8 9 9 10 10 11 11 12 12 13 13
REMARK H PARENT
REMARK Flexibility Score: inf
ROOT
ATOM      1  C   UNL     1       7.240 -30.524  15.538  1.00  0.00     0.000 C 
ENDROOT
BRANCH   1   2
ATOM      2  C   UNL     1       6.274 -29.804  16.487  1.00  0.00     0.000 C 
BRANCH   2   3
ATOM      3  C   UNL     1       6.875 -29.685  17.896  1.00  0.00     0.006 C 
BRANCH   3   4
ATOM      4  C   UNL     1       8.339 -30.139  17.942  1.00  0.00     0.053 C 
BRANCH   4   5
ATOM      5  C   UNL     1       9.240 -29.056  18.452  1.00  0.00     0.041 C 
ATOM      6  O   UNL     1       9.332 -28.837  19.688  1.00  0.00    -0.550 OA
ATOM      7  O   UNL     1      10.001 -28.309  17.562  1.00  0.00    -0.550 OA
ENDBRANCH   4   5
ENDBRANCH   3   4
ENDBRANCH   2   3
ENDBRANCH   1   2
BRANCH   1   8
ATOM      8  C   UNL     1       6.940 -30.170  14.076  1.00  0.00     0.000 C 
BRANCH   8   9
ATOM      9  C   UNL     1       8.218 -29.748  13.339  1.00  0.00     0.006 C 
BRANCH   9  10
ATOM     10  C   UNL     1       9.356 -29.476  14.326  1.00  0.00     0.053 C 
BRANCH  10  11
ATOM     11  C   UNL     1      10.672 -29.446  13.613  1.00  0.00     0.041 C 
ATOM     12  O   UNL     1      10.839 -30.122  12.564  1.00  0.00    -0.550 OA
ATOM     13  O   UNL     1      11.728 -28.711  14.135  1.00  0.00    -0.550 OA
ENDBRANCH  10  11
ENDBRANCH   9  10
ENDBRANCH   8   9
ENDBRANCH   1   8
TORSDOF 8
ENDMDL
MODEL 2
REMARK VINA RESULT:    -3.804      0.215      4.571
REMARK INTER + INTRA:          -6.160
REMARK INTER:                  -5.591
REMARK INTRA:                  -0.569
REMARK UNBOUND:                -0.576
REMARK SMILES O=C([O-])CCCCCCCC(=O)[O-]
REMARK SMILES IDX 7 1 6 2 5 3 4 4 2 5 1 6 3 7 8 8 9 9 10 10 11 11 12 12 13 13
REMARK H PARENT
REMARK Flexibility Score: inf
ROOT
ATOM      1  C   UNL     1       7.155 -30.526  15.712  1.00  0.00     0.000 C 
ENDROOT
BRANCH   1   2
ATOM      2  C   UNL     1       6.866 -30.191  14.243  1.00  0.00     0.000 C 
BRANCH   2   3
ATOM      3  C   UNL     1       8.161 -29.847  13.492  1.00  0.00     0.006 C 
BRANCH   3   4
ATOM      4  C   UNL     1       9.308 -29.492  14.447  1.00  0.00     0.053 C 
BRANCH   4   5
ATOM      5  C   UNL     1      10.620 -29.404  13.730  1.00  0.00     0.041 C 
ATOM      6  O   UNL     1      11.535 -28.658  14.169  1.00  0.00    -0.550 OA
ATOM      7  O   UNL     1      10.844 -30.171  12.594  1.00  0.00    -0.550 OA
ENDBRANCH   4   5
ENDBRANCH   3   4
ENDBRANCH   2   3
ENDBRANCH   1   2
BRANCH   1   8
ATOM      8  C   UNL     1       6.137 -29.854  16.641  1.00  0.00     0.000 C 
BRANCH   8   9
ATOM      9  C   UNL     1       6.783 -29.463  17.975  1.00  0.00     0.006 C 
BRANCH   9  10
ATOM     10  C   UNL     1       8.153 -30.128  18.138  1.00  0.00     0.053 C 
BRANCH  10  11
ATOM     11  C   UNL     1       9.177 -29.122  18.561  1.00  0.00     0.041 C 
ATOM     12  O   UNL     1       9.750 -28.402  17.703  1.00  0.00    -0.550 OA
ATOM     13  O   UNL     1       9.533 -29.016  19.900  1.00  0.00    -0.550 OA
ENDBRANCH  10  11
ENDBRANCH   9  10
ENDBRANCH   8   9
ENDBRANCH   1   8
TORSDOF 8
ENDMDL
MODEL 3
REMARK VINA RESULT:    -3.599      1.382      4.733
REMARK INTER + INTRA:          -5.858
REMARK INTER:                  -5.134
REMARK INTRA:                  -0.725
REMARK UNBOUND:                -0.576
REMARK SMILES O=C([O-])CCCCCCCC(=O)[O-]
REMARK SMILES IDX 7 1 6 2 5 3 4 4 2 5 1 6 3 7 8 8 9 9 10 10 11 11 12 12 13 13
REMARK H PARENT
REMARK Flexibility Score: inf
ROOT
ATOM      1  C   UNL     1       6.319 -30.588  13.243  1.00  0.00     0.000 C 
ENDROOT
BRANCH   1   2
ATOM      2  C   UNL     1       7.106 -29.514  12.481  1.00  0.00     0.000 C 
BRANCH   2   3
ATOM      3  C   UNL     1       8.435 -30.077  11.953  1.00  0.00     0.006 C 
BRANCH   3   4
ATOM      4  C   UNL     1       9.614 -29.137  12.234  1.00  0.00     0.053 C 
BRANCH   4   5
ATOM      5  C   UNL     1      10.571 -29.729  13.223  1.00  0.00     0.041 C 
ATOM      6  O   UNL     1      11.397 -28.993  13.826  1.00  0.00    -0.550 OA
ATOM      7  O   UNL     1      10.530 -31.089  13.503  1.00  0.00    -0.550 OA
ENDBRANCH   4   5
ENDBRANCH   3   4
ENDBRANCH   2   3
ENDBRANCH   1   2
BRANCH   1   8
ATOM      8  C   UNL     1       7.056 -31.007  14.520  1.00  0.00     0.000 C 
BRANCH   8   9
ATOM      9  C   UNL     1       7.138 -29.843  15.516  1.00  0.00     0.006 C 
BRANCH   9  10
ATOM     10  C   UNL     1       8.506 -29.803  16.201  1.00  0.00     0.053 C 
BRANCH  10  11
ATOM     11  C   UNL     1       8.345 -29.762  17.689  1.00  0.00     0.041 C 
ATOM     12  O   UNL     1       7.439 -30.433  18.247  1.00  0.00    -0.550 OA
ATOM     13  O   UNL     1       9.166 -28.942  18.453  1.00  0.00    -0.550 OA
ENDBRANCH  10  11
ENDBRANCH   9  10
ENDBRANCH   8   9
ENDBRANCH   1   8
TORSDOF 8
ENDMDL
MODEL 4
REMARK VINA RESULT:    -3.542      1.709      4.831
REMARK INTER + INTRA:          -5.774
REMARK INTER:                  -4.985
REMARK INTRA:                  -0.789
REMARK UNBOUND:                -0.576
REMARK SMILES O=C([O-])CCCCCCCC(=O)[O-]
REMARK SMILES IDX 7 1 6 2 5 3 4 4 2 5 1 6 3 7 8 8 9 9 10 10 11 11 12 12 13 13
REMARK H PARENT
REMARK Flexibility Score: inf
ROOT
ATOM      1  C   UNL     1       8.515 -32.151  15.488  1.00  0.00     0.000 C 
ENDROOT
BRANCH   1   2
ATOM      2  C   UNL     1       9.595 -32.622  14.506  1.00  0.00     0.000 C 
BRANCH   2   3
ATOM      3  C   UNL     1       9.598 -31.758  13.236  1.00  0.00     0.006 C 
BRANCH   3   4
ATOM      4  C   UNL     1      10.888 -30.939  13.095  1.00  0.00     0.053 C 
BRANCH   4   5
ATOM      5  C   UNL     1      10.638 -29.474  13.286  1.00  0.00     0.041 C 
ATOM      6  O   UNL     1       9.653 -28.921  12.729  1.00  0.00    -0.550 OA
ATOM      7  O   UNL     1      11.475 -28.726  14.103  1.00  0.00    -0.550 OA
ENDBRANCH   4   5
ENDBRANCH   3   4
ENDBRANCH   2   3
ENDBRANCH   1   2
BRANCH   1   8
ATOM      8  C   UNL     1       7.609 -31.095  14.844  1.00  0.00     0.000 C 
BRANCH   8   9
ATOM      9  C   UNL     1       7.498 -29.849  15.732  1.00  0.00     0.006 C 
BRANCH   9  10
ATOM     10  C   UNL     1       8.782 -29.635  16.540  1.00  0.00     0.053 C 
BRANCH  10  11
ATOM     11  C   UNL     1       8.466 -29.494  17.996  1.00  0.00     0.041 C 
ATOM     12  O   UNL     1       9.212 -28.806  18.742  1.00  0.00    -0.550 OA
ATOM     13  O   UNL     1       7.376 -30.162  18.539  1.00  0.00    -0.550 OA
ENDBRANCH  10  11
ENDBRANCH   9  10
ENDBRANCH   8   9
ENDBRANCH   1   8
TORSDOF 8
ENDMDL
MODEL 5
REMARK VINA RESULT:    -3.537      1.749      2.189
REMARK INTER + INTRA:          -5.767
REMARK INTER:                  -5.011
REMARK INTRA:                  -0.756
REMARK UNBOUND:                -0.576
REMARK SMILES O=C([O-])CCCCCCCC(=O)[O-]
REMARK SMILES IDX 7 1 6 2 5 3 4 4 2 5 1 6 3 7 8 8 9 9 10 10 11 11 12 12 13 13
REMARK H PARENT
REMARK Flexibility Score: inf
ROOT
ATOM      1  C   UNL     1       8.834 -32.043  15.364  1.00  0.00     0.000 C 
ENDROOT
BRANCH   1   2
ATOM      2  C   UNL     1       7.792 -31.095  14.758  1.00  0.00     0.000 C 
BRANCH   2   3
ATOM      3  C   UNL     1       7.555 -29.882  15.671  1.00  0.00     0.006 C 
BRANCH   3   4
ATOM      4  C   UNL     1       8.810 -29.501  16.466  1.00  0.00     0.053 C 
BRANCH   4   5
ATOM      5  C   UNL     1       8.539 -29.448  17.938  1.00  0.00     0.041 C 
ATOM      6  O   UNL     1       9.402 -28.977  18.725  1.00  0.00    -0.550 OA
ATOM      7  O   UNL     1       7.321 -29.891  18.437  1.00  0.00    -0.550 OA
ENDBRANCH   4   5
ENDBRANCH   3   4
ENDBRANCH   2   3
ENDBRANCH   1   2
BRANCH   1   8
ATOM      8  C   UNL     1       9.718 -32.658  14.273  1.00  0.00     0.000 C 
BRANCH   8   9
ATOM      9  C   UNL     1       9.772 -31.755  13.034  1.00  0.00     0.006 C 
BRANCH   9  10
ATOM     10  C   UNL     1      11.055 -30.920  13.019  1.00  0.00     0.053 C 
BRANCH  10  11
ATOM     11  C   UNL     1      10.745 -29.480  13.285  1.00  0.00     0.041 C 
ATOM     12  O   UNL     1       9.790 -28.917  12.689  1.00  0.00    -0.550 OA
ATOM     13  O   UNL     1      11.543 -28.747  14.155  1.00  0.00    -0.550 OA
ENDBRANCH  10  11
ENDBRANCH   9  10
ENDBRANCH   8   9
ENDBRANCH   1   8
TORSDOF 8
ENDMDL
MODEL 6
REMARK VINA RESULT:    -3.408      2.218      3.125
REMARK INTER + INTRA:          -5.578
REMARK INTER:                  -5.064
REMARK INTRA:                  -0.513
REMARK UNBOUND:                -0.576
REMARK SMILES O=C([O-])CCCCCCCC(=O)[O-]
REMARK SMILES IDX 7 1 6 2 5 3 4 4 2 5 1 6 3 7 8 8 9 9 10 10 11 11 12 12 13 13
REMARK H PARENT
REMARK Flexibility Score: inf
ROOT
ATOM      1  C   UNL     1       9.802 -29.487  14.717  1.00  0.00     0.000 C 
ENDROOT
BRANCH   1   2
ATOM      2  C   UNL     1       8.369 -29.899  14.357  1.00  0.00     0.000 C 
BRANCH   2   3
ATOM      3  C   UNL     1       7.461 -29.869  15.596  1.00  0.00     0.006 C 
BRANCH   3   4
ATOM      4  C   UNL     1       8.167 -30.414  16.845  1.00  0.00     0.053 C 
BRANCH   4   5
ATOM      5  C   UNL     1       7.839 -29.607  18.064  1.00  0.00     0.041 C 
ATOM      6  O   UNL     1       8.762 -29.132  18.777  1.00  0.00    -0.550 OA
ATOM      7  O   UNL     1       6.514 -29.354  18.395  1.00  0.00    -0.550 OA
ENDBRANCH   4   5
ENDBRANCH   3   4
ENDBRANCH   2   3
ENDBRANCH   1   2
BRANCH   1   8
ATOM      8  C   UNL     1      10.705 -29.497  13.477  1.00  0.00     0.000 C 
BRANCH   8   9
ATOM      9  C   UNL     1      10.368 -30.681  12.562  1.00  0.00     0.006 C 
BRANCH   9  10
ATOM     10  C   UNL     1      11.465 -31.748  12.619  1.00  0.00     0.053 C 
BRANCH  10  11
ATOM     11  C   UNL     1      11.036 -32.895  13.479  1.00  0.00     0.041 C 
ATOM     12  O   UNL     1      11.891 -33.693  13.943  1.00  0.00    -0.550 OA
ATOM     13  O   UNL     1       9.686 -33.109  13.728  1.00  0.00    -0.550 OA
ENDBRANCH  10  11
ENDBRANCH   9  10
ENDBRANCH   8   9
ENDBRANCH   1   8
TORSDOF 8
ENDMDL
MODEL 7
REMARK VINA RESULT:    -3.348      2.236      5.415
REMARK INTER + INTRA:          -5.489
REMARK INTER:                  -4.905
REMARK INTRA:                  -0.584
REMARK UNBOUND:                -0.576
REMARK SMILES O=C([O-])CCCCCCCC(=O)[O-]
REMARK SMILES IDX 7 1 6 2 5 3 4 4 2 5 1 6 3 7 8 8 9 9 10 10 11 11 12 12 13 13
REMARK H PARENT
REMARK Flexibility Score: inf
ROOT
ATOM      1  C   UNL     1       9.644 -29.480  14.751  1.00  0.00     0.000 C 
ENDROOT
BRANCH   1   2
ATOM      2  C   UNL     1      10.473 -29.471  13.461  1.00  0.00     0.000 C 
BRANCH   2   3
ATOM      3  C   UNL     1      10.260 -30.766  12.662  1.00  0.00     0.006 C 
BRANCH   3   4
ATOM      4  C   UNL     1      11.420 -31.755  12.840  1.00  0.00     0.053 C 
BRANCH   4   5
ATOM      5  C   UNL     1      11.031 -32.916  13.703  1.00  0.00     0.041 C 
ATOM      6  O   UNL     1       9.886 -32.964  14.224  1.00  0.00    -0.550 OA
ATOM      7  O   UNL     1      11.924 -33.960  13.906  1.00  0.00    -0.550 OA
ENDBRANCH   4   5
ENDBRANCH   3   4
ENDBRANCH   2   3
ENDBRANCH   1   2
BRANCH   1   8
ATOM      8  C   UNL     1       8.183 -29.844  14.464  1.00  0.00     0.000 C 
BRANCH   8   9
ATOM      9  C   UNL     1       7.483 -30.354  15.731  1.00  0.00     0.006 C 
BRANCH   9  10
ATOM     10  C   UNL     1       8.467 -30.446  16.901  1.00  0.00     0.053 C 
BRANCH  10  11
ATOM     11  C   UNL     1       7.992 -29.614  18.051  1.00  0.00     0.041 C 
ATOM     12  O   UNL     1       8.816 -29.159  18.885  1.00  0.00    -0.550 OA
ATOM     13  O   UNL     1       6.633 -29.385  18.227  1.00  0.00    -0.550 OA
ENDBRANCH  10  11
ENDBRANCH   9  10
ENDBRANCH   8   9
ENDBRANCH   1   8
TORSDOF 8
ENDMDL
MODEL 8
REMARK VINA RESULT:    -3.301      1.677      2.384
REMARK INTER + INTRA:          -5.422
REMARK INTER:                  -4.824
REMARK INTRA:                  -0.598
REMARK UNBOUND:                -0.576
REMARK SMILES O=C([O-])CCCCCCCC(=O)[O-]
REMARK SMILES IDX 7 1 6 2 5 3 4 4 2 5 1 6 3 7 8 8 9 9 10 10 11 11 12 12 13 13
REMARK H PARENT
REMARK Flexibility Score: inf
ROOT
ATOM      1  C   UNL     1       6.669 -30.258  13.337  1.00  0.00     0.000 C 
ENDROOT
BRANCH   1   2
ATOM      2  C   UNL     1       6.802 -31.350  14.406  1.00  0.00     0.000 C 
BRANCH   2   3
ATOM      3  C   UNL     1       5.973 -31.005  15.652  1.00  0.00     0.006 C 
BRANCH   3   4
ATOM      4  C   UNL     1       6.356 -29.643  16.245  1.00  0.00     0.053 C 
BRANCH   4   5
ATOM      5  C   UNL     1       6.734 -29.755  17.690  1.00  0.00     0.041 C 
ATOM      6  O   UNL     1       6.032 -29.196  18.574  1.00  0.00    -0.550 OA
ATOM      7  O   UNL     1       7.844 -30.502  18.063  1.00  0.00    -0.550 OA
ENDBRANCH   4   5
ENDBRANCH   3   4
ENDBRANCH   2   3
ENDBRANCH   1   2
BRANCH   1   8
ATOM      8  C   UNL     1       7.563 -30.558  12.129  1.00  0.00     0.000 C 
BRANCH   8   9
ATOM      9  C   UNL     1       9.030 -30.705  12.553  1.00  0.00     0.006 C 
BRANCH   9  10
ATOM     10  C   UNL     1       9.702 -29.336  12.686  1.00  0.00     0.053 C 
BRANCH  10  11
ATOM     11  C   UNL     1      10.371 -29.208  14.020  1.00  0.00     0.041 C 
ATOM     12  O   UNL     1       9.731 -29.456  15.075  1.00  0.00    -0.550 OA
ATOM     13  O   UNL     1      11.686 -28.767  14.097  1.00  0.00    -0.550 OA
ENDBRANCH  10  11
ENDBRANCH   9  10
ENDBRANCH   8   9
ENDBRANCH   1   8
TORSDOF 8
ENDMDL
MODEL 9
REMARK VINA RESULT:    -3.266      1.745      4.715
REMARK INTER + INTRA:          -5.370
REMARK INTER:                  -4.835
REMARK INTRA:                  -0.534
REMARK UNBOUND:                -0.576
REMARK SMILES O=C([O-])CCCCCCCC(=O)[O-]
REMARK SMILES IDX 7 1 6 2 5 3 4 4 2 5 1 6 3 7 8 8 9 9 10 10 11 11 12 12 13 13
REMARK H PARENT
REMARK Flexibility Score: inf
ROOT
ATOM      1  C   UNL     1       7.867 -30.483  12.621  1.00  0.00     0.000 C 
ENDROOT
BRANCH   1   2
ATOM      2  C   UNL     1       8.983 -31.366  13.194  1.00  0.00     0.000 C 
BRANCH   2   3
ATOM      3  C   UNL     1      10.364 -30.741  12.938  1.00  0.00     0.006 C 
BRANCH   3   4
ATOM      4  C   UNL     1      10.352 -29.217  13.115  1.00  0.00     0.053 C 
BRANCH   4   5
ATOM      5  C   UNL     1      11.065 -28.799  14.365  1.00  0.00     0.041 C 
ATOM      6  O   UNL     1      10.461 -28.795  15.469  1.00  0.00    -0.550 OA
ATOM      7  O   UNL     1      12.407 -28.444  14.314  1.00  0.00    -0.550 OA
ENDBRANCH   4   5
ENDBRANCH   3   4
ENDBRANCH   2   3
ENDBRANCH   1   2
BRANCH   1   8
ATOM      8  C   UNL     1       6.764 -30.249  13.659  1.00  0.00     0.000 C 
BRANCH   8   9
ATOM      9  C   UNL     1       7.318 -30.358  15.085  1.00  0.00     0.006 C 
BRANCH   9  10
ATOM     10  C   UNL     1       6.285 -29.888  16.113  1.00  0.00     0.053 C 
BRANCH  10  11
ATOM     11  C   UNL     1       6.787 -30.119  17.504  1.00  0.00     0.041 C 
ATOM     12  O   UNL     1       6.443 -29.349  18.438  1.00  0.00    -0.550 OA
ATOM     13  O   UNL     1       7.677 -31.156  17.758  1.00  0.00    -0.550 OA
ENDBRANCH  10  11
ENDBRANCH   9  10
ENDBRANCH   8   9
ENDBRANCH   1   8
TORSDOF 8
ENDMDL
