MODEL 1
REMARK VINA RESULT:    -3.484      0.000      0.000
REMARK INTER + INTRA:          -8.910
REMARK INTER:                  -6.336
REMARK INTRA:                  -2.575
REMARK UNBOUND:                -2.575
REMARK SMILES CCCCCC=CCC=CCCCCCCCC(=O)[O-]
REMARK SMILES IDX 11 1 12 2 13 3 14 4 15 5 16 6 17 7 18 8 19 9 20 10 10 11
REMARK SMILES IDX 9 12 8 13 7 14 6 15 5 16 4 17 3 18 2 19 1 20
REMARK H PARENT
REMARK Flexibility Score: inf
ROOT
ATOM      1  C   UNL     1      56.585  27.330  51.391  1.00  0.00     0.027 C 
ENDROOT
BRANCH   1   2
ATOM      2  C   UNL     1      56.939  28.695  50.781  1.00  0.00     0.004 C 
BRANCH   2   3
ATOM      3  C   UNL     1      58.303  29.211  51.270  1.00  0.00     0.000 C 
BRANCH   3   4
ATOM      4  C   UNL     1      59.284  29.474  50.116  1.00  0.00     0.000 C 
BRANCH   4   5
ATOM      5  C   UNL     1      59.691  28.189  49.379  1.00  0.00     0.000 C 
BRANCH   5   6
ATOM      6  C   UNL     1      60.527  27.277  50.288  1.00  0.00     0.006 C 
BRANCH   6   7
ATOM      7  C   UNL     1      59.955  25.856  50.370  1.00  0.00     0.053 C 
BRANCH   7   8
ATOM      8  C   UNL     1      59.813  25.394  51.788  1.00  0.00     0.041 C 
ATOM      9  O   UNL     1      59.673  26.233  52.717  1.00  0.00    -0.550 OA
ATOM     10  O   UNL     1      59.800  24.035  52.080  1.00  0.00    -0.550 OA
ENDBRANCH   7   8
ENDBRANCH   6   7
ENDBRANCH   5   6
ENDBRANCH   4   5
ENDBRANCH   3   4
ENDBRANCH   2   3
ENDBRANCH   1   2
BRANCH   1  11
ATOM     11  C   UNL     1      56.224  26.312  50.338  1.00  0.00    -0.031 C 
ATOM     12  C   UNL     1      54.966  25.938  50.042  1.00  0.00    -0.027 C 
BRANCH  12  13
ATOM     13  C   UNL     1      53.742  26.530  50.695  1.00  0.00     0.054 C 
BRANCH  13  14
ATOM     14  C   UNL     1      53.239  27.729  49.932  1.00  0.00    -0.027 C 
ATOM     15  C   UNL     1      53.056  28.952  50.465  1.00  0.00    -0.031 C 
BRANCH  15  16
ATOM     16  C   UNL     1      53.379  29.330  51.891  1.00  0.00     0.027 C 
BRANCH  16  17
ATOM     17  C   UNL     1      54.002  30.733  51.984  1.00  0.00     0.004 C 
BRANCH  17  18
ATOM     18  C   UNL     1      54.503  31.097  53.394  1.00  0.00     0.000 C 
BRANCH  18  19
ATOM     19  C   UNL     1      55.706  30.255  53.841  1.00  0.00    -0.003 C 
ATOM     20  C   UNL     1      56.927  31.134  54.098  1.00  0.00     0.004 C 
ENDBRANCH  18  19
ENDBRANCH  17  18
ENDBRANCH  16  17
ENDBRANCH  15  16
ENDBRANCH  13  14
ENDBRANCH  12  13
ENDBRANCH   1  11
TORSDOF 14
ENDMDL
MODEL 2
REMARK VINA RESULT:    -3.451      3.440      6.047
REMARK INTER + INTRA:          -8.850
REMARK INTER:                  -7.560
REMARK INTRA:                  -1.290
REMARK UNBOUND:                -2.575
REMARK SMILES CCCCCC=CCC=CCCCCCCCC(=O)[O-]
REMARK SMILES IDX 11 1 12 2 13 3 14 4 15 5 16 6 17 7 18 8 19 9 20 10 10 11
REMARK SMILES IDX 9 12 8 13 7 14 6 15 5 16 4 17 3 18 2 19 1 20
REMARK H PARENT
REMARK Flexibility Score: inf
ROOT
ATOM      1  C   UNL     1      59.635  25.157  50.745  1.00  0.00     0.027 C 
ENDROOT
BRANCH   1   2
ATOM      2  C   UNL     1      59.962  23.812  51.412  1.00  0.00     0.004 C 
BRANCH   2   3
ATOM      3  C   UNL     1      61.339  23.275  50.985  1.00  0.00     0.000 C 
BRANCH   3   4
ATOM      4  C   UNL     1      61.283  22.483  49.670  1.00  0.00     0.000 C 
BRANCH   4   5
ATOM      5  C   UNL     1      60.418  21.218  49.776  1.00  0.00     0.000 C 
BRANCH   5   6
ATOM      6  C   UNL     1      61.190  20.080  50.460  1.00  0.00     0.006 C 
BRANCH   6   7
ATOM      7  C   UNL     1      60.431  18.748  50.409  1.00  0.00     0.053 C 
BRANCH   7   8
ATOM      8  C   UNL     1      59.098  18.840  51.084  1.00  0.00     0.041 C 
ATOM      9  O   UNL     1      58.039  18.798  50.403  1.00  0.00    -0.550 OA
ATOM     10  O   UNL     1      59.024  18.939  52.468  1.00  0.00    -0.550 OA
ENDBRANCH   7   8
ENDBRANCH   6   7
ENDBRANCH   5   6
ENDBRANCH   4   5
ENDBRANCH   3   4
ENDBRANCH   2   3
ENDBRANCH   1   2
BRANCH   1  11
ATOM     11  C   UNL     1      60.800  26.114  50.790  1.00  0.00    -0.031 C 
ATOM     12  C   UNL     1      60.829  27.308  50.172  1.00  0.00    -0.027 C 
BRANCH  12  13
ATOM     13  C   UNL     1      59.670  27.870  49.387  1.00  0.00     0.054 C 
BRANCH  13  14
ATOM     14  C   UNL     1      59.107  29.102  50.048  1.00  0.00    -0.027 C 
ATOM     15  C   UNL     1      58.020  29.113  50.844  1.00  0.00    -0.031 C 
BRANCH  15  16
ATOM     16  C   UNL     1      57.233  27.888  51.246  1.00  0.00     0.027 C 
BRANCH  16  17
ATOM     17  C   UNL     1      55.740  28.205  51.437  1.00  0.00     0.004 C 
BRANCH  17  18
ATOM     18  C   UNL     1      54.836  27.617  50.338  1.00  0.00     0.000 C 
BRANCH  18  19
ATOM     19  C   UNL     1      55.165  26.156  50.004  1.00  0.00    -0.003 C 
ATOM     20  C   UNL     1      53.898  25.361  49.703  1.00  0.00     0.004 C 
ENDBRANCH  18  19
ENDBRANCH  17  18
ENDBRANCH  16  17
ENDBRANCH  15  16
ENDBRANCH  13  14
ENDBRANCH  12  13
ENDBRANCH   1  11
TORSDOF 14
ENDMDL
MODEL 3
REMARK VINA RESULT:    -3.447     11.143     13.436
REMARK INTER + INTRA:          -8.844
REMARK INTER:                  -7.077
REMARK INTRA:                  -1.767
REMARK UNBOUND:                -2.575
REMARK SMILES CCCCCC=CCC=CCCCCCCCC(=O)[O-]
REMARK SMILES IDX 11 1 12 2 13 3 14 4 15 5 16 6 17 7 18 8 19 9 20 10 10 11
REMARK SMILES IDX 9 12 8 13 7 14 6 15 5 16 4 17 3 18 2 19 1 20
REMARK H PARENT
REMARK Flexibility Score: inf
ROOT
ATOM      1  C   UNL     1      62.795  32.216  59.887  1.00  0.00     0.027 C 
ENDROOT
BRANCH   1   2
ATOM      2  C   UNL     1      63.848  32.807  60.836  1.00  0.00     0.004 C 
BRANCH   2   3
ATOM      3  C   UNL     1      64.360  34.175  60.351  1.00  0.00     0.000 C 
BRANCH   3   4
ATOM      4  C   UNL     1      64.599  35.159  61.507  1.00  0.00     0.000 C 
BRANCH   4   5
ATOM      5  C   UNL     1      63.520  36.249  61.592  1.00  0.00     0.000 C 
BRANCH   5   6
ATOM      6  C   UNL     1      62.659  36.269  60.321  1.00  0.00     0.006 C 
BRANCH   6   7
ATOM      7  C   UNL     1      61.190  35.934  60.608  1.00  0.00     0.053 C 
BRANCH   7   8
ATOM      8  C   UNL     1      60.441  35.594  59.356  1.00  0.00     0.041 C 
ATOM      9  O   UNL     1      59.246  35.965  59.212  1.00  0.00    -0.550 OA
ATOM     10  O   UNL     1      61.073  34.898  58.334  1.00  0.00    -0.550 OA
ENDBRANCH   7   8
ENDBRANCH   6   7
ENDBRANCH   5   6
ENDBRANCH   4   5
ENDBRANCH   3   4
ENDBRANCH   2   3
ENDBRANCH   1   2
BRANCH   1  11
ATOM     11  C   UNL     1      61.431  32.137  60.529  1.00  0.00    -0.031 C 
ATOM     12  C   UNL     1      61.006  31.113  61.289  1.00  0.00    -0.027 C 
BRANCH  12  13
ATOM     13  C   UNL     1      61.863  29.922  61.642  1.00  0.00     0.054 C 
BRANCH  13  14
ATOM     14  C   UNL     1      61.882  28.910  60.525  1.00  0.00    -0.027 C 
ATOM     15  C   UNL     1      62.965  28.200  60.156  1.00  0.00    -0.031 C 
BRANCH  15  16
ATOM     16  C   UNL     1      64.311  28.261  60.838  1.00  0.00     0.027 C 
BRANCH  16  17
ATOM     17  C   UNL     1      65.188  29.392  60.274  1.00  0.00     0.004 C 
BRANCH  17  18
ATOM     18  C   UNL     1      66.594  28.930  59.845  1.00  0.00     0.000 C 
BRANCH  18  19
ATOM     19  C   UNL     1      67.120  27.751  60.674  1.00  0.00    -0.003 C 
ATOM     20  C   UNL     1      67.997  28.235  61.825  1.00  0.00     0.004 C 
ENDBRANCH  18  19
ENDBRANCH  17  18
ENDBRANCH  16  17
ENDBRANCH  15  16
ENDBRANCH  13  14
ENDBRANCH  12  13
ENDBRANCH   1  11
TORSDOF 14
ENDMDL
MODEL 4
REMARK VINA RESULT:    -3.402      2.923      5.157
REMARK INTER + INTRA:          -8.761
REMARK INTER:                  -6.545
REMARK INTRA:                  -2.216
REMARK UNBOUND:                -2.575
REMARK SMILES CCCCCC=CCC=CCCCCCCCC(=O)[O-]
REMARK SMILES IDX 11 1 12 2 13 3 14 4 15 5 16 6 17 7 18 8 19 9 20 10 10 11
REMARK SMILES IDX 9 12 8 13 7 14 6 15 5 16 4 17 3 18 2 19 1 20
REMARK H PARENT
REMARK Flexibility Score: inf
ROOT
ATOM      1  C   UNL     1      60.092  27.377  50.585  1.00  0.00     0.027 C 
ENDROOT
BRANCH   1   2
ATOM      2  C   UNL     1      61.615  27.422  50.779  1.00  0.00     0.004 C 
BRANCH   2   3
ATOM      3  C   UNL     1      62.252  26.025  50.676  1.00  0.00     0.000 C 
BRANCH   3   4
ATOM      4  C   UNL     1      61.215  24.920  50.419  1.00  0.00     0.000 C 
BRANCH   4   5
ATOM      5  C   UNL     1      61.755  23.516  50.730  1.00  0.00     0.000 C 
BRANCH   5   6
ATOM      6  C   UNL     1      60.665  22.453  50.528  1.00  0.00     0.006 C 
BRANCH   6   7
ATOM      7  C   UNL     1      61.099  21.352  49.552  1.00  0.00     0.053 C 
BRANCH   7   8
ATOM      8  C   UNL     1      61.073  19.998  50.191  1.00  0.00     0.041 C 
ATOM      9  O   UNL     1      60.098  19.224  49.996  1.00  0.00    -0.550 OA
ATOM     10  O   UNL     1      62.140  19.577  50.975  1.00  0.00    -0.550 OA
ENDBRANCH   7   8
ENDBRANCH   6   7
ENDBRANCH   5   6
ENDBRANCH   4   5
ENDBRANCH   3   4
ENDBRANCH   2   3
ENDBRANCH   1   2
BRANCH   1  11
ATOM     11  C   UNL     1      59.588  28.544  49.771  1.00  0.00    -0.031 C 
ATOM     12  C   UNL     1      58.491  29.262  50.070  1.00  0.00    -0.027 C 
BRANCH  12  13
ATOM     13  C   UNL     1      57.644  29.025  51.296  1.00  0.00     0.054 C 
BRANCH  13  14
ATOM     14  C   UNL     1      56.206  28.765  50.926  1.00  0.00    -0.027 C 
ATOM     15  C   UNL     1      55.708  27.557  50.601  1.00  0.00    -0.031 C 
BRANCH  15  16
ATOM     16  C   UNL     1      56.493  26.267  50.612  1.00  0.00     0.027 C 
BRANCH  16  17
ATOM     17  C   UNL     1      56.526  25.628  52.011  1.00  0.00     0.004 C 
BRANCH  17  18
ATOM     18  C   UNL     1      57.904  25.064  52.403  1.00  0.00     0.000 C 
BRANCH  18  19
ATOM     19  C   UNL     1      58.628  25.916  53.454  1.00  0.00    -0.003 C 
ATOM     20  C   UNL     1      59.961  25.288  53.849  1.00  0.00     0.004 C 
ENDBRANCH  18  19
ENDBRANCH  17  18
ENDBRANCH  16  17
ENDBRANCH  15  16
ENDBRANCH  13  14
ENDBRANCH  12  13
ENDBRANCH   1  11
TORSDOF 14
ENDMDL
MODEL 5
REMARK VINA RESULT:    -3.388      9.258     12.063
REMARK INTER + INTRA:          -8.736
REMARK INTER:                  -5.587
REMARK INTRA:                  -3.149
REMARK UNBOUND:                -2.575
REMARK SMILES CCCCCC=CCC=CCCCCCCCC(=O)[O-]
REMARK SMILES IDX 11 1 12 2 13 3 14 4 15 5 16 6 17 7 18 8 19 9 20 10 10 11
REMARK SMILES IDX 9 12 8 13 7 14 6 15 5 16 4 17 3 18 2 19 1 20
REMARK H PARENT
REMARK Flexibility Score: inf
ROOT
ATOM      1  C   UNL     1      63.593  33.638  60.878  1.00  0.00     0.027 C 
ENDROOT
BRANCH   1   2
ATOM      2  C   UNL     1      63.993  35.062  61.293  1.00  0.00     0.004 C 
BRANCH   2   3
ATOM      3  C   UNL     1      62.825  36.054  61.157  1.00  0.00     0.000 C 
BRANCH   3   4
ATOM      4  C   UNL     1      61.552  35.396  60.602  1.00  0.00     0.000 C 
BRANCH   4   5
ATOM      5  C   UNL     1      61.052  36.064  59.313  1.00  0.00     0.000 C 
BRANCH   5   6
ATOM      6  C   UNL     1      59.595  35.673  59.021  1.00  0.00     0.006 C 
BRANCH   6   7
ATOM      7  C   UNL     1      59.273  35.706  57.522  1.00  0.00     0.053 C 
BRANCH   7   8
ATOM      8  C   UNL     1      59.377  34.347  56.900  1.00  0.00     0.041 C 
ATOM      9  O   UNL     1      60.111  34.166  55.892  1.00  0.00    -0.550 OA
ATOM     10  O   UNL     1      58.690  33.274  57.453  1.00  0.00    -0.550 OA
ENDBRANCH   7   8
ENDBRANCH   6   7
ENDBRANCH   5   6
ENDBRANCH   4   5
ENDBRANCH   3   4
ENDBRANCH   2   3
ENDBRANCH   1   2
BRANCH   1  11
ATOM     11  C   UNL     1      64.474  33.097  59.779  1.00  0.00    -0.031 C 
ATOM     12  C   UNL     1      64.037  32.751  58.555  1.00  0.00    -0.027 C 
BRANCH  12  13
ATOM     13  C   UNL     1      62.606  32.908  58.104  1.00  0.00     0.054 C 
BRANCH  13  14
ATOM     14  C   UNL     1      61.924  31.570  57.971  1.00  0.00    -0.027 C 
ATOM     15  C   UNL     1      61.072  31.053  58.878  1.00  0.00    -0.031 C 
BRANCH  15  16
ATOM     16  C   UNL     1      60.621  31.756  60.136  1.00  0.00     0.027 C 
BRANCH  16  17
ATOM     17  C   UNL     1      60.975  30.951  61.399  1.00  0.00     0.004 C 
BRANCH  17  18
ATOM     18  C   UNL     1      61.833  29.704  61.119  1.00  0.00     0.000 C 
BRANCH  18  19
ATOM     19  C   UNL     1      63.323  29.917  61.418  1.00  0.00    -0.003 C 
ATOM     20  C   UNL     1      64.194  29.383  60.285  1.00  0.00     0.004 C 
ENDBRANCH  18  19
ENDBRANCH  17  18
ENDBRANCH  16  17
ENDBRANCH  15  16
ENDBRANCH  13  14
ENDBRANCH  12  13
ENDBRANCH   1  11
TORSDOF 14
ENDMDL
MODEL 6
REMARK VINA RESULT:    -3.370      2.598      5.973
REMARK INTER + INTRA:          -8.702
REMARK INTER:                  -6.166
REMARK INTRA:                  -2.537
REMARK UNBOUND:                -2.575
REMARK SMILES CCCCCC=CCC=CCCCCCCCC(=O)[O-]
REMARK SMILES IDX 11 1 12 2 13 3 14 4 15 5 16 6 17 7 18 8 19 9 20 10 10 11
REMARK SMILES IDX 9 12 8 13 7 14 6 15 5 16 4 17 3 18 2 19 1 20
REMARK H PARENT
REMARK Flexibility Score: inf
ROOT
ATOM      1  C   UNL     1      56.361  26.141  50.232  1.00  0.00     0.027 C 
ENDROOT
BRANCH   1   2
ATOM      2  C   UNL     1      54.858  25.912  50.011  1.00  0.00     0.004 C 
BRANCH   2   3
ATOM      3  C   UNL     1      54.000  26.973  50.721  1.00  0.00     0.000 C 
BRANCH   3   4
ATOM      4  C   UNL     1      54.468  28.406  50.424  1.00  0.00     0.000 C 
BRANCH   4   5
ATOM      5  C   UNL     1      53.486  29.470  50.939  1.00  0.00     0.000 C 
BRANCH   5   6
ATOM      6  C   UNL     1      53.373  29.417  52.470  1.00  0.00     0.006 C 
BRANCH   6   7
ATOM      7  C   UNL     1      54.720  29.659  53.161  1.00  0.00     0.053 C 
BRANCH   7   8
ATOM      8  C   UNL     1      54.928  31.106  53.486  1.00  0.00     0.041 C 
ATOM      9  O   UNL     1      56.010  31.490  54.004  1.00  0.00    -0.550 OA
ATOM     10  O   UNL     1      53.940  32.036  53.186  1.00  0.00    -0.550 OA
ENDBRANCH   7   8
ENDBRANCH   6   7
ENDBRANCH   5   6
ENDBRANCH   4   5
ENDBRANCH   3   4
ENDBRANCH   2   3
ENDBRANCH   1   2
BRANCH   1  11
ATOM     11  C   UNL     1      56.777  25.854  51.654  1.00  0.00    -0.031 C 
ATOM     12  C   UNL     1      57.978  25.365  52.011  1.00  0.00    -0.027 C 
BRANCH  12  13
ATOM     13  C   UNL     1      59.091  25.084  51.032  1.00  0.00     0.054 C 
BRANCH  13  14
ATOM     14  C   UNL     1      60.318  25.901  51.348  1.00  0.00    -0.027 C 
ATOM     15  C   UNL     1      60.684  27.017  50.688  1.00  0.00    -0.031 C 
BRANCH  15  16
ATOM     16  C   UNL     1      59.895  27.657  49.571  1.00  0.00     0.027 C 
BRANCH  16  17
ATOM     17  C   UNL     1      59.489  29.101  49.911  1.00  0.00     0.004 C 
BRANCH  17  18
ATOM     18  C   UNL     1      58.082  29.221  50.526  1.00  0.00     0.000 C 
BRANCH  18  19
ATOM     19  C   UNL     1      58.101  29.360  52.054  1.00  0.00    -0.003 C 
ATOM     20  C   UNL     1      59.376  30.053  52.527  1.00  0.00     0.004 C 
ENDBRANCH  18  19
ENDBRANCH  17  18
ENDBRANCH  16  17
ENDBRANCH  15  16
ENDBRANCH  13  14
ENDBRANCH  12  13
ENDBRANCH   1  11
TORSDOF 14
ENDMDL
MODEL 7
REMARK VINA RESULT:    -3.367      2.686      6.338
REMARK INTER + INTRA:          -8.697
REMARK INTER:                  -5.944
REMARK INTRA:                  -2.753
REMARK UNBOUND:                -2.575
REMARK SMILES CCCCCC=CCC=CCCCCCCCC(=O)[O-]
REMARK SMILES IDX 11 1 12 2 13 3 14 4 15 5 16 6 17 7 18 8 19 9 20 10 10 11
REMARK SMILES IDX 9 12 8 13 7 14 6 15 5 16 4 17 3 18 2 19 1 20
REMARK H PARENT
REMARK Flexibility Score: inf
ROOT
ATOM      1  C   UNL     1      59.713  29.469  52.228  1.00  0.00     0.027 C 
ENDROOT
BRANCH   1   2
ATOM      2  C   UNL     1      59.853  29.397  50.700  1.00  0.00     0.004 C 
BRANCH   2   3
ATOM      3  C   UNL     1      58.494  29.217  50.003  1.00  0.00     0.000 C 
BRANCH   3   4
ATOM      4  C   UNL     1      57.484  28.446  50.867  1.00  0.00     0.000 C 
BRANCH   4   5
ATOM      5  C   UNL     1      56.089  29.091  50.869  1.00  0.00     0.000 C 
BRANCH   5   6
ATOM      6  C   UNL     1      54.990  28.019  50.894  1.00  0.00     0.006 C 
BRANCH   6   7
ATOM      7  C   UNL     1      55.480  26.669  50.355  1.00  0.00     0.053 C 
BRANCH   7   8
ATOM      8  C   UNL     1      54.373  25.663  50.283  1.00  0.00     0.041 C 
ATOM      9  O   UNL     1      54.001  25.055  51.322  1.00  0.00    -0.550 OA
ATOM     10  O   UNL     1      53.729  25.422  49.076  1.00  0.00    -0.550 OA
ENDBRANCH   7   8
ENDBRANCH   6   7
ENDBRANCH   5   6
ENDBRANCH   4   5
ENDBRANCH   3   4
ENDBRANCH   2   3
ENDBRANCH   1   2
BRANCH   1  11
ATOM     11  C   UNL     1      60.775  28.663  52.935  1.00  0.00    -0.031 C 
ATOM     12  C   UNL     1      60.551  27.494  53.562  1.00  0.00    -0.027 C 
BRANCH  12  13
ATOM     13  C   UNL     1      59.207  26.809  53.597  1.00  0.00     0.054 C 
BRANCH  13  14
ATOM     14  C   UNL     1      59.347  25.319  53.414  1.00  0.00    -0.027 C 
ATOM     15  C   UNL     1      59.254  24.683  52.230  1.00  0.00    -0.031 C 
BRANCH  15  16
ATOM     16  C   UNL     1      59.055  25.364  50.897  1.00  0.00     0.027 C 
BRANCH  16  17
ATOM     17  C   UNL     1      60.395  25.736  50.239  1.00  0.00     0.004 C 
BRANCH  17  18
ATOM     18  C   UNL     1      61.594  24.931  50.775  1.00  0.00     0.000 C 
BRANCH  18  19
ATOM     19  C   UNL     1      62.847  25.789  50.991  1.00  0.00    -0.003 C 
ATOM     20  C   UNL     1      62.742  27.115  50.243  1.00  0.00     0.004 C 
ENDBRANCH  18  19
ENDBRANCH  17  18
ENDBRANCH  16  17
ENDBRANCH  15  16
ENDBRANCH  13  14
ENDBRANCH  12  13
ENDBRANCH   1  11
TORSDOF 14
ENDMDL
MODEL 8
REMARK VINA RESULT:    -3.357     10.201     12.198
REMARK INTER + INTRA:          -8.679
REMARK INTER:                  -6.025
REMARK INTRA:                  -2.655
REMARK UNBOUND:                -2.575
REMARK SMILES CCCCCC=CCC=CCCCCCCCC(=O)[O-]
REMARK SMILES IDX 11 1 12 2 13 3 14 4 15 5 16 6 17 7 18 8 19 9 20 10 10 11
REMARK SMILES IDX 9 12 8 13 7 14 6 15 5 16 4 17 3 18 2 19 1 20
REMARK H PARENT
REMARK Flexibility Score: inf
ROOT
ATOM      1  C   UNL     1      63.873  33.466  60.075  1.00  0.00     0.027 C 
ENDROOT
BRANCH   1   2
ATOM      2  C   UNL     1      63.169  32.177  60.524  1.00  0.00     0.004 C 
BRANCH   2   3
ATOM      3  C   UNL     1      61.639  32.333  60.552  1.00  0.00     0.000 C 
BRANCH   3   4
ATOM      4  C   UNL     1      60.926  31.077  61.077  1.00  0.00     0.000 C 
BRANCH   4   5
ATOM      5  C   UNL     1      61.901  30.034  61.643  1.00  0.00     0.000 C 
BRANCH   5   6
ATOM      6  C   UNL     1      61.717  28.676  60.949  1.00  0.00     0.006 C 
BRANCH   6   7
ATOM      7  C   UNL     1      63.034  27.900  60.830  1.00  0.00     0.053 C 
BRANCH   7   8
ATOM      8  C   UNL     1      64.052  28.651  60.028  1.00  0.00     0.041 C 
ATOM      9  O   UNL     1      63.808  28.971  58.834  1.00  0.00    -0.550 OA
ATOM     10  O   UNL     1      65.257  29.027  60.609  1.00  0.00    -0.550 OA
ENDBRANCH   7   8
ENDBRANCH   6   7
ENDBRANCH   5   6
ENDBRANCH   4   5
ENDBRANCH   3   4
ENDBRANCH   2   3
ENDBRANCH   1   2
BRANCH   1  11
ATOM     11  C   UNL     1      64.226  34.357  61.240  1.00  0.00    -0.031 C 
ATOM     12  C   UNL     1      63.778  35.616  61.398  1.00  0.00    -0.027 C 
BRANCH  12  13
ATOM     13  C   UNL     1      62.818  36.287  60.447  1.00  0.00     0.054 C 
BRANCH  13  14
ATOM     14  C   UNL     1      61.388  35.966  60.796  1.00  0.00    -0.027 C 
ATOM     15  C   UNL     1      60.398  35.811  59.895  1.00  0.00    -0.031 C 
BRANCH  15  16
ATOM     16  C   UNL     1      60.576  35.876  58.397  1.00  0.00     0.027 C 
BRANCH  16  17
ATOM     17  C   UNL     1      60.793  34.482  57.785  1.00  0.00     0.004 C 
BRANCH  17  18
ATOM     18  C   UNL     1      62.098  34.355  56.978  1.00  0.00     0.000 C 
BRANCH  18  19
ATOM     19  C   UNL     1      62.823  35.694  56.791  1.00  0.00    -0.003 C 
ATOM     20  C   UNL     1      64.315  35.558  57.083  1.00  0.00     0.004 C 
ENDBRANCH  18  19
ENDBRANCH  17  18
ENDBRANCH  16  17
ENDBRANCH  15  16
ENDBRANCH  13  14
ENDBRANCH  12  13
ENDBRANCH   1  11
TORSDOF 14
ENDMDL
MODEL 9
REMARK VINA RESULT:    -3.283      8.716     12.204
REMARK INTER + INTRA:          -8.544
REMARK INTER:                  -5.938
REMARK INTRA:                  -2.606
REMARK UNBOUND:                -2.575
REMARK SMILES CCCCCC=CCC=CCCCCCCCC(=O)[O-]
REMARK SMILES IDX 11 1 12 2 13 3 14 4 15 5 16 6 17 7 18 8 19 9 20 10 10 11
REMARK SMILES IDX 9 12 8 13 7 14 6 15 5 16 4 17 3 18 2 19 1 20
REMARK H PARENT
REMARK Flexibility Score: inf
ROOT
ATOM      1  C   UNL     1      64.597  34.508  60.009  1.00  0.00     0.027 C 
ENDROOT
BRANCH   1   2
ATOM      2  C   UNL     1      64.155  33.037  60.036  1.00  0.00     0.004 C 
BRANCH   2   3
ATOM      3  C   UNL     1      62.737  32.849  59.469  1.00  0.00     0.000 C 
BRANCH   3   4
ATOM      4  C   UNL     1      61.667  32.770  60.568  1.00  0.00     0.000 C 
BRANCH   4   5
ATOM      5  C   UNL     1      60.706  31.586  60.378  1.00  0.00     0.000 C 
BRANCH   5   6
ATOM      6  C   UNL     1      60.916  30.529  61.472  1.00  0.00     0.006 C 
BRANCH   6   7
ATOM      7  C   UNL     1      61.426  29.198  60.905  1.00  0.00     0.053 C 
BRANCH   7   8
ATOM      8  C   UNL     1      62.922  29.151  60.854  1.00  0.00     0.041 C 
ATOM      9  O   UNL     1      63.605  29.927  61.574  1.00  0.00    -0.550 OA
ATOM     10  O   UNL     1      63.562  28.228  60.037  1.00  0.00    -0.550 OA
ENDBRANCH   7   8
ENDBRANCH   6   7
ENDBRANCH   5   6
ENDBRANCH   4   5
ENDBRANCH   3   4
ENDBRANCH   2   3
ENDBRANCH   1   2
BRANCH   1  11
ATOM     11  C   UNL     1      64.594  35.128  61.385  1.00  0.00    -0.031 C 
ATOM     12  C   UNL     1      63.889  36.221  61.725  1.00  0.00    -0.027 C 
BRANCH  12  13
ATOM     13  C   UNL     1      62.962  36.946  60.780  1.00  0.00     0.054 C 
BRANCH  13  14
ATOM     14  C   UNL     1      61.547  36.444  60.909  1.00  0.00    -0.027 C 
ATOM     15  C   UNL     1      60.761  36.100  59.870  1.00  0.00    -0.031 C 
BRANCH  15  16
ATOM     16  C   UNL     1      61.191  36.107  58.423  1.00  0.00     0.027 C 
BRANCH  16  17
ATOM     17  C   UNL     1      60.044  35.700  57.483  1.00  0.00     0.004 C 
BRANCH  17  18
ATOM     18  C   UNL     1      59.357  34.379  57.877  1.00  0.00     0.000 C 
BRANCH  18  19
ATOM     19  C   UNL     1      59.869  33.173  57.080  1.00  0.00    -0.003 C 
ATOM     20  C   UNL     1      60.418  33.602  55.722  1.00  0.00     0.004 C 
ENDBRANCH  18  19
ENDBRANCH  17  18
ENDBRANCH  16  17
ENDBRANCH  15  16
ENDBRANCH  13  14
ENDBRANCH  12  13
ENDBRANCH   1  11
TORSDOF 14
ENDMDL
