MODEL 1
REMARK VINA RESULT:    -4.798      0.000      0.000
REMARK INTER + INTRA:          -6.434
REMARK INTER:                  -5.919
REMARK INTRA:                  -0.514
REMARK UNBOUND:                -0.514
REMARK SMILES CC(C)=CCC[C@H](C)c1ccc(C)cc1
REMARK SMILES IDX 6 1 7 2 8 3 9 4 13 5 12 6 11 7 14 8 10 9 15 10 5 11 4 12
REMARK SMILES IDX 2 13 1 14 3 15
REMARK H PARENT
REMARK Flexibility Score: inf
ROOT
ATOM      1  C   UNL     1       0.172  49.544  25.524  1.00  0.00     0.012 C 
ENDROOT
BRANCH   1   2
ATOM      2  C   UNL     1       1.122  48.362  25.842  1.00  0.00     0.016 C 
ATOM      3  C   UNL     1       0.875  47.150  24.932  1.00  0.00     0.013 C 
BRANCH   2   4
ATOM      4  C   UNL     1       0.993  47.966  27.302  1.00  0.00    -0.045 A 
ATOM      5  C   UNL     1       0.556  46.862  31.455  1.00  0.00     0.044 C 
ATOM      6  C   UNL     1       0.737  47.249  30.018  1.00  0.00    -0.051 A 
ATOM      7  C   UNL     1       0.585  48.585  29.621  1.00  0.00     0.004 A 
ATOM      8  C   UNL     1       0.990  46.268  29.049  1.00  0.00     0.004 A 
ATOM      9  C   UNL     1       0.716  48.941  28.275  1.00  0.00     0.004 A 
ATOM     10  C   UNL     1       1.121  46.622  27.703  1.00  0.00     0.004 A 
ENDBRANCH   2   4
ENDBRANCH   1   2
BRANCH   1  11
ATOM     11  C   UNL     1       0.867  50.761  24.888  1.00  0.00     0.028 C 
BRANCH  11  12
ATOM     12  C   UNL     1      -0.118  51.794  24.395  1.00  0.00    -0.028 C 
ATOM     13  C   UNL     1      -0.129  53.090  24.778  1.00  0.00    -0.080 C 
ATOM     14  C   UNL     1      -1.154  54.010  24.166  1.00  0.00     0.039 C 
ATOM     15  C   UNL     1       0.832  53.630  25.812  1.00  0.00     0.039 C 
ENDBRANCH  11  12
ENDBRANCH   1  11
TORSDOF 4
ENDMDL
MODEL 2
REMARK VINA RESULT:    -4.258      1.406      2.450
REMARK INTER + INTRA:          -5.768
REMARK INTER:                  -5.300
REMARK INTRA:                  -0.468
REMARK UNBOUND:                -0.514
REMARK SMILES CC(C)=CCC[C@H](C)c1ccc(C)cc1
REMARK SMILES IDX 6 1 7 2 8 3 9 4 13 5 12 6 11 7 14 8 10 9 15 10 5 11 4 12
REMARK SMILES IDX 2 13 1 14 3 15
REMARK H PARENT
REMARK Flexibility Score: inf
ROOT
ATOM      1  C   UNL     1       0.643  49.410  27.197  1.00  0.00     0.012 C 
ENDROOT
BRANCH   1   2
ATOM      2  C   UNL     1       0.314  49.338  28.709  1.00  0.00     0.016 C 
ATOM      3  C   UNL     1       1.123  50.351  29.533  1.00  0.00     0.013 C 
BRANCH   2   4
ATOM      4  C   UNL     1       0.543  47.929  29.227  1.00  0.00    -0.045 A 
ATOM      5  C   UNL     1       1.124  43.919  30.725  1.00  0.00     0.044 C 
ATOM      6  C   UNL     1       0.952  45.317  30.210  1.00  0.00    -0.051 A 
ATOM      7  C   UNL     1       0.589  46.353  31.082  1.00  0.00     0.004 A 
ATOM      8  C   UNL     1       1.083  45.586  28.839  1.00  0.00     0.004 A 
ATOM      9  C   UNL     1       0.390  47.648  30.596  1.00  0.00     0.004 A 
ATOM     10  C   UNL     1       0.885  46.881  28.352  1.00  0.00     0.004 A 
ENDBRANCH   2   4
ENDBRANCH   1   2
BRANCH   1  11
ATOM     11  C   UNL     1       1.125  50.791  26.718  1.00  0.00     0.028 C 
BRANCH  11  12
ATOM     12  C   UNL     1       0.816  51.035  25.260  1.00  0.00    -0.028 C 
ATOM     13  C   UNL     1       0.657  52.256  24.703  1.00  0.00    -0.080 C 
ATOM     14  C   UNL     1       0.389  52.339  23.222  1.00  0.00     0.039 C 
ATOM     15  C   UNL     1       0.715  53.526  25.521  1.00  0.00     0.039 C 
ENDBRANCH  11  12
ENDBRANCH   1  11
TORSDOF 4
ENDMDL
MODEL 3
REMARK VINA RESULT:    -3.183      1.870      6.011
REMARK INTER + INTRA:          -4.442
REMARK INTER:                  -4.862
REMARK INTRA:                   0.420
REMARK UNBOUND:                -0.514
REMARK SMILES CC(C)=CCC[C@H](C)c1ccc(C)cc1
REMARK SMILES IDX 6 1 7 2 8 3 9 4 13 5 12 6 11 7 14 8 10 9 15 10 5 11 4 12
REMARK SMILES IDX 2 13 1 14 3 15
REMARK H PARENT
REMARK Flexibility Score: inf
ROOT
ATOM      1  C   UNL     1       0.278  48.901  28.036  1.00  0.00     0.012 C 
ENDROOT
BRANCH   1   2
ATOM      2  C   UNL     1       1.089  49.282  26.773  1.00  0.00     0.016 C 
ATOM      3  C   UNL     1       0.584  50.577  26.120  1.00  0.00     0.013 C 
BRANCH   2   4
ATOM      4  C   UNL     1       1.067  48.140  25.773  1.00  0.00    -0.045 A 
ATOM      5  C   UNL     1       1.070  44.911  22.903  1.00  0.00     0.044 C 
ATOM      6  C   UNL     1       1.039  46.032  23.898  1.00  0.00    -0.051 A 
ATOM      7  C   UNL     1       1.114  47.364  23.466  1.00  0.00     0.004 A 
ATOM      8  C   UNL     1       1.005  45.756  25.273  1.00  0.00     0.004 A 
ATOM      9  C   UNL     1       1.124  48.409  24.394  1.00  0.00     0.004 A 
ATOM     10  C   UNL     1       1.015  46.800  26.203  1.00  0.00     0.004 A 
ENDBRANCH   2   4
ENDBRANCH   1   2
BRANCH   1  11
ATOM     11  C   UNL     1       1.018  49.146  29.363  1.00  0.00     0.028 C 
BRANCH  11  12
ATOM     12  C   UNL     1       0.651  48.135  30.423  1.00  0.00    -0.028 C 
ATOM     13  C   UNL     1       0.720  46.795  30.263  1.00  0.00    -0.080 C 
ATOM     14  C   UNL     1       0.355  45.914  31.430  1.00  0.00     0.039 C 
ATOM     15  C   UNL     1       1.125  46.162  28.951  1.00  0.00     0.039 C 
ENDBRANCH  11  12
ENDBRANCH   1  11
TORSDOF 4
ENDMDL
MODEL 4
REMARK VINA RESULT:    -2.809      1.718      6.336
REMARK INTER + INTRA:          -3.980
REMARK INTER:                  -3.596
REMARK INTRA:                  -0.384
REMARK UNBOUND:                -0.514
REMARK SMILES CC(C)=CCC[C@H](C)c1ccc(C)cc1
REMARK SMILES IDX 6 1 7 2 8 3 9 4 13 5 12 6 11 7 14 8 10 9 15 10 5 11 4 12
REMARK SMILES IDX 2 13 1 14 3 15
REMARK H PARENT
REMARK Flexibility Score: inf
ROOT
ATOM      1  C   UNL     1       0.177  47.795  27.464  1.00  0.00     0.012 C 
ENDROOT
BRANCH   1   2
ATOM      2  C   UNL     1       1.123  49.004  27.670  1.00  0.00     0.016 C 
ATOM      3  C   UNL     1       0.862  49.733  28.997  1.00  0.00     0.013 C 
BRANCH   2   4
ATOM      4  C   UNL     1       1.001  49.968  26.502  1.00  0.00    -0.045 A 
ATOM      5  C   UNL     1       0.586  52.685  23.170  1.00  0.00     0.044 C 
ATOM      6  C   UNL     1       0.759  51.740  24.322  1.00  0.00    -0.051 A 
ATOM      7  C   UNL     1       0.613  50.359  24.131  1.00  0.00     0.004 A 
ATOM      8  C   UNL     1       1.000  52.235  25.612  1.00  0.00     0.004 A 
ATOM      9  C   UNL     1       0.737  49.480  25.211  1.00  0.00     0.004 A 
ATOM     10  C   UNL     1       1.124  51.357  26.692  1.00  0.00     0.004 A 
ENDBRANCH   2   4
ENDBRANCH   1   2
BRANCH   1  11
ATOM     11  C   UNL     1       0.896  46.485  27.096  1.00  0.00     0.028 C 
BRANCH  11  12
ATOM     12  C   UNL     1       1.124  46.350  25.609  1.00  0.00    -0.028 C 
ATOM     13  C   UNL     1       0.881  45.231  24.893  1.00  0.00    -0.080 C 
ATOM     14  C   UNL     1       1.122  45.264  23.406  1.00  0.00     0.039 C 
ATOM     15  C   UNL     1       0.401  43.951  25.540  1.00  0.00     0.039 C 
ENDBRANCH  11  12
ENDBRANCH   1  11
TORSDOF 4
ENDMDL
MODEL 5
REMARK VINA RESULT:    -2.701      1.028      2.147
REMARK INTER + INTRA:          -3.847
REMARK INTER:                  -5.312
REMARK INTRA:                   1.465
REMARK UNBOUND:                -0.514
REMARK SMILES CC(C)=CCC[C@H](C)c1ccc(C)cc1
REMARK SMILES IDX 6 1 7 2 8 3 9 4 13 5 12 6 11 7 14 8 10 9 15 10 5 11 4 12
REMARK SMILES IDX 2 13 1 14 3 15
REMARK H PARENT
REMARK Flexibility Score: inf
ROOT
ATOM      1  C   UNL     1       0.681  49.812  23.304  1.00  0.00     0.012 C 
ENDROOT
BRANCH   1   2
ATOM      2  C   UNL     1       1.125  48.385  23.711  1.00  0.00     0.016 C 
ATOM      3  C   UNL     1       0.378  47.293  22.931  1.00  0.00     0.013 C 
BRANCH   2   4
ATOM      4  C   UNL     1       0.943  48.187  25.206  1.00  0.00    -0.045 A 
ATOM      5  C   UNL     1       0.490  47.590  29.460  1.00  0.00     0.044 C 
ATOM      6  C   UNL     1       0.617  47.798  27.980  1.00  0.00    -0.051 A 
ATOM      7  C   UNL     1       0.727  46.697  27.119  1.00  0.00     0.004 A 
ATOM      8  C   UNL     1       0.699  49.095  27.453  1.00  0.00     0.004 A 
ATOM      9  C   UNL     1       0.884  46.890  25.744  1.00  0.00     0.004 A 
ATOM     10  C   UNL     1       0.856  49.289  26.078  1.00  0.00     0.004 A 
ENDBRANCH   2   4
ENDBRANCH   1   2
BRANCH   1  11
ATOM     11  C   UNL     1       0.445  50.763  24.490  1.00  0.00     0.028 C 
BRANCH  11  12
ATOM     12  C   UNL     1      -0.428  51.939  24.120  1.00  0.00    -0.028 C 
ATOM     13  C   UNL     1      -0.294  53.185  24.626  1.00  0.00    -0.080 C 
ATOM     14  C   UNL     1      -1.220  54.265  24.128  1.00  0.00     0.039 C 
ATOM     15  C   UNL     1       0.733  53.516  25.684  1.00  0.00     0.039 C 
ENDBRANCH  11  12
ENDBRANCH   1  11
TORSDOF 4
ENDMDL
