MODEL 1
REMARK VINA RESULT:    -4.118      0.000      0.000
REMARK INTER + INTRA:          -9.527
REMARK INTER:                  -7.730
REMARK INTRA:                  -1.797
REMARK UNBOUND:                -1.797
REMARK SMILES O=C([O-])CCCCCCCCCCCCCCC(=O)[O-]
REMARK SMILES IDX 10 1 9 2 8 3 7 4 6 5 5 6 4 7 2 8 1 9 3 10 11 11 12 12 13 13
REMARK SMILES IDX 14 14 15 15 16 16 17 17 18 18 19 19 20 20
REMARK H PARENT
REMARK Flexibility Score: inf
ROOT
ATOM      1  C   UNL     1      13.085  27.835  35.498  1.00  0.00     0.000 C 
ENDROOT
BRANCH   1   2
ATOM      2  C   UNL     1      14.484  28.419  35.233  1.00  0.00     0.000 C 
BRANCH   2   3
ATOM      3  C   UNL     1      15.606  27.391  35.454  1.00  0.00     0.000 C 
BRANCH   3   4
ATOM      4  C   UNL     1      16.678  27.437  34.356  1.00  0.00     0.000 C 
BRANCH   4   5
ATOM      5  C   UNL     1      16.034  27.481  32.962  1.00  0.00     0.000 C 
BRANCH   5   6
ATOM      6  C   UNL     1      16.875  28.270  31.946  1.00  0.00     0.006 C 
BRANCH   6   7
ATOM      7  C   UNL     1      16.723  29.788  32.105  1.00  0.00     0.053 C 
BRANCH   7   8
ATOM      8  C   UNL     1      16.651  30.448  30.764  1.00  0.00     0.041 C 
ATOM      9  O   UNL     1      16.673  29.753  29.714  1.00  0.00    -0.550 OA
ATOM     10  O   UNL     1      16.511  31.827  30.674  1.00  0.00    -0.550 OA
ENDBRANCH   7   8
ENDBRANCH   6   7
ENDBRANCH   5   6
ENDBRANCH   4   5
ENDBRANCH   3   4
ENDBRANCH   2   3
ENDBRANCH   1   2
BRANCH   1  11
ATOM     11  C   UNL     1      13.029  26.315  35.266  1.00  0.00     0.000 C 
BRANCH  11  12
ATOM     12  C   UNL     1      12.480  25.951  33.876  1.00  0.00     0.000 C 
BRANCH  12  13
ATOM     13  C   UNL     1      13.447  25.074  33.060  1.00  0.00     0.000 C 
BRANCH  13  14
ATOM     14  C   UNL     1      14.440  24.245  33.897  1.00  0.00     0.000 C 
BRANCH  14  15
ATOM     15  C   UNL     1      15.580  23.648  33.058  1.00  0.00     0.000 C 
BRANCH  15  16
ATOM     16  C   UNL     1      16.485  22.754  33.918  1.00  0.00     0.006 C 
BRANCH  16  17
ATOM     17  C   UNL     1      16.114  21.270  33.804  1.00  0.00     0.053 C 
BRANCH  17  18
ATOM     18  C   UNL     1      15.758  20.683  35.135  1.00  0.00     0.041 C 
ATOM     19  O   UNL     1      15.973  21.332  36.193  1.00  0.00    -0.550 OA
ATOM     20  O   UNL     1      15.157  19.433  35.205  1.00  0.00    -0.550 OA
ENDBRANCH  17  18
ENDBRANCH  16  17
ENDBRANCH  15  16
ENDBRANCH  14  15
ENDBRANCH  13  14
ENDBRANCH  12  13
ENDBRANCH  11  12
ENDBRANCH   1  11
TORSDOF 15
ENDMDL
MODEL 2
REMARK VINA RESULT:    -4.035      3.592      4.989
REMARK INTER + INTRA:          -9.371
REMARK INTER:                  -7.913
REMARK INTRA:                  -1.459
REMARK UNBOUND:                -1.797
REMARK SMILES O=C([O-])CCCCCCCCCCCCCCC(=O)[O-]
REMARK SMILES IDX 10 1 9 2 8 3 7 4 6 5 5 6 4 7 2 8 1 9 3 10 11 11 12 12 13 13
REMARK SMILES IDX 14 14 15 15 16 16 17 17 18 18 19 19 20 20
REMARK H PARENT
REMARK Flexibility Score: inf
ROOT
ATOM      1  C   UNL     1      15.922  27.885  33.134  1.00  0.00     0.000 C 
ENDROOT
BRANCH   1   2
ATOM      2  C   UNL     1      16.099  28.675  34.443  1.00  0.00     0.000 C 
BRANCH   2   3
ATOM      3  C   UNL     1      16.038  30.197  34.228  1.00  0.00     0.000 C 
BRANCH   3   4
ATOM      4  C   UNL     1      16.859  30.658  33.014  1.00  0.00     0.000 C 
BRANCH   4   5
ATOM      5  C   UNL     1      16.203  31.871  32.337  1.00  0.00     0.000 C 
BRANCH   5   6
ATOM      6  C   UNL     1      16.845  32.213  30.983  1.00  0.00     0.006 C 
BRANCH   6   7
ATOM      7  C   UNL     1      16.688  31.087  29.953  1.00  0.00     0.053 C 
BRANCH   7   8
ATOM      8  C   UNL     1      16.294  31.648  28.623  1.00  0.00     0.041 C 
ATOM      9  O   UNL     1      16.608  31.045  27.563  1.00  0.00    -0.550 OA
ATOM     10  O   UNL     1      15.538  32.811  28.555  1.00  0.00    -0.550 OA
ENDBRANCH   7   8
ENDBRANCH   6   7
ENDBRANCH   5   6
ENDBRANCH   4   5
ENDBRANCH   3   4
ENDBRANCH   2   3
ENDBRANCH   1   2
BRANCH   1  11
ATOM     11  C   UNL     1      16.753  26.592  33.111  1.00  0.00     0.000 C 
BRANCH  11  12
ATOM     12  C   UNL     1      15.956  25.370  33.600  1.00  0.00     0.000 C 
BRANCH  12  13
ATOM     13  C   UNL     1      14.671  25.129  32.788  1.00  0.00     0.000 C 
BRANCH  13  14
ATOM     14  C   UNL     1      13.378  25.048  33.621  1.00  0.00     0.000 C 
BRANCH  14  15
ATOM     15  C   UNL     1      13.613  25.292  35.119  1.00  0.00     0.000 C 
BRANCH  15  16
ATOM     16  C   UNL     1      13.121  26.686  35.533  1.00  0.00     0.006 C 
BRANCH  16  17
ATOM     17  C   UNL     1      12.055  27.235  34.575  1.00  0.00     0.053 C 
BRANCH  17  18
ATOM     18  C   UNL     1      11.301  28.379  35.181  1.00  0.00     0.041 C 
ATOM     19  O   UNL     1      11.482  28.692  36.387  1.00  0.00    -0.550 OA
ATOM     20  O   UNL     1      10.424  29.122  34.401  1.00  0.00    -0.550 OA
ENDBRANCH  17  18
ENDBRANCH  16  17
ENDBRANCH  15  16
ENDBRANCH  14  15
ENDBRANCH  13  14
ENDBRANCH  12  13
ENDBRANCH  11  12
ENDBRANCH   1  11
TORSDOF 15
ENDMDL
MODEL 3
REMARK VINA RESULT:    -4.029      1.543      7.061
REMARK INTER + INTRA:          -9.359
REMARK INTER:                  -7.872
REMARK INTRA:                  -1.487
REMARK UNBOUND:                -1.797
REMARK SMILES O=C([O-])CCCCCCCCCCCCCCC(=O)[O-]
REMARK SMILES IDX 10 1 9 2 8 3 7 4 6 5 5 6 4 7 2 8 1 9 3 10 11 11 12 12 13 13
REMARK SMILES IDX 14 14 15 15 16 16 17 17 18 18 19 19 20 20
REMARK H PARENT
REMARK Flexibility Score: inf
ROOT
ATOM      1  C   UNL     1      12.631  26.238  34.821  1.00  0.00     0.000 C 
ENDROOT
BRANCH   1   2
ATOM      2  C   UNL     1      12.626  25.575  33.432  1.00  0.00     0.000 C 
BRANCH   2   3
ATOM      3  C   UNL     1      13.988  24.960  33.067  1.00  0.00     0.000 C 
BRANCH   3   4
ATOM      4  C   UNL     1      14.776  24.488  34.298  1.00  0.00     0.000 C 
BRANCH   4   5
ATOM      5  C   UNL     1      16.192  24.041  33.905  1.00  0.00     0.000 C 
BRANCH   5   6
ATOM      6  C   UNL     1      16.206  22.686  33.179  1.00  0.00     0.006 C 
BRANCH   6   7
ATOM      7  C   UNL     1      16.862  21.577  34.011  1.00  0.00     0.053 C 
BRANCH   7   8
ATOM      8  C   UNL     1      15.818  20.729  34.666  1.00  0.00     0.041 C 
ATOM      9  O   UNL     1      15.414  19.676  34.105  1.00  0.00    -0.550 OA
ATOM     10  O   UNL     1      15.325  21.074  35.917  1.00  0.00    -0.550 OA
ENDBRANCH   7   8
ENDBRANCH   6   7
ENDBRANCH   5   6
ENDBRANCH   4   5
ENDBRANCH   3   4
ENDBRANCH   2   3
ENDBRANCH   1   2
BRANCH   1  11
ATOM     11  C   UNL     1      11.707  27.466  34.888  1.00  0.00     0.000 C 
BRANCH  11  12
ATOM     12  C   UNL     1      11.845  28.236  36.213  1.00  0.00     0.000 C 
BRANCH  12  13
ATOM     13  C   UNL     1      12.030  29.750  36.010  1.00  0.00     0.000 C 
BRANCH  13  14
ATOM     14  C   UNL     1      13.440  30.285  36.327  1.00  0.00     0.000 C 
BRANCH  14  15
ATOM     15  C   UNL     1      14.523  29.197  36.258  1.00  0.00     0.000 C 
BRANCH  15  16
ATOM     16  C   UNL     1      15.436  29.408  35.042  1.00  0.00     0.006 C 
BRANCH  16  17
ATOM     17  C   UNL     1      15.560  28.143  34.182  1.00  0.00     0.053 C 
BRANCH  17  18
ATOM     18  C   UNL     1      16.372  28.390  32.947  1.00  0.00     0.041 C 
ATOM     19  O   UNL     1      16.988  27.442  32.392  1.00  0.00    -0.550 OA
ATOM     20  O   UNL     1      16.421  29.662  32.392  1.00  0.00    -0.550 OA
ENDBRANCH  17  18
ENDBRANCH  16  17
ENDBRANCH  15  16
ENDBRANCH  14  15
ENDBRANCH  13  14
ENDBRANCH  12  13
ENDBRANCH  11  12
ENDBRANCH   1  11
TORSDOF 15
ENDMDL
MODEL 4
REMARK VINA RESULT:    -4.022      1.490      2.440
REMARK INTER + INTRA:          -9.346
REMARK INTER:                  -7.993
REMARK INTRA:                  -1.353
REMARK UNBOUND:                -1.797
REMARK SMILES O=C([O-])CCCCCCCCCCCCCCC(=O)[O-]
REMARK SMILES IDX 10 1 9 2 8 3 7 4 6 5 5 6 4 7 2 8 1 9 3 10 11 11 12 12 13 13
REMARK SMILES IDX 14 14 15 15 16 16 17 17 18 18 19 19 20 20
REMARK H PARENT
REMARK Flexibility Score: inf
ROOT
ATOM      1  C   UNL     1      11.538  27.494  34.139  1.00  0.00     0.000 C 
ENDROOT
BRANCH   1   2
ATOM      2  C   UNL     1      11.205  28.540  35.219  1.00  0.00     0.000 C 
BRANCH   2   3
ATOM      3  C   UNL     1      12.244  28.572  36.352  1.00  0.00     0.000 C 
BRANCH   3   4
ATOM      4  C   UNL     1      13.207  29.763  36.241  1.00  0.00     0.000 C 
BRANCH   4   5
ATOM      5  C   UNL     1      14.667  29.287  36.213  1.00  0.00     0.000 C 
BRANCH   5   6
ATOM      6  C   UNL     1      15.348  29.542  34.859  1.00  0.00     0.006 C 
BRANCH   6   7
ATOM      7  C   UNL     1      15.849  28.252  34.196  1.00  0.00     0.053 C 
BRANCH   7   8
ATOM      8  C   UNL     1      16.461  28.553  32.865  1.00  0.00     0.041 C 
ATOM      9  O   UNL     1      16.945  27.623  32.165  1.00  0.00    -0.550 OA
ATOM     10  O   UNL     1      16.456  29.852  32.374  1.00  0.00    -0.550 OA
ENDBRANCH   7   8
ENDBRANCH   6   7
ENDBRANCH   5   6
ENDBRANCH   4   5
ENDBRANCH   3   4
ENDBRANCH   2   3
ENDBRANCH   1   2
BRANCH   1  11
ATOM     11  C   UNL     1      12.632  26.511  34.591  1.00  0.00     0.000 C 
BRANCH  11  12
ATOM     12  C   UNL     1      12.810  25.337  33.613  1.00  0.00     0.000 C 
BRANCH  12  13
ATOM     13  C   UNL     1      14.192  25.326  32.936  1.00  0.00     0.000 C 
BRANCH  13  14
ATOM     14  C   UNL     1      14.997  24.025  33.116  1.00  0.00     0.000 C 
BRANCH  14  15
ATOM     15  C   UNL     1      15.259  23.682  34.591  1.00  0.00     0.000 C 
BRANCH  15  16
ATOM     16  C   UNL     1      16.298  22.558  34.716  1.00  0.00     0.006 C 
BRANCH  16  17
ATOM     17  C   UNL     1      15.875  21.288  33.966  1.00  0.00     0.053 C 
BRANCH  17  18
ATOM     18  C   UNL     1      15.566  20.165  34.908  1.00  0.00     0.041 C 
ATOM     19  O   UNL     1      15.689  20.326  36.151  1.00  0.00    -0.550 OA
ATOM     20  O   UNL     1      15.109  18.950  34.413  1.00  0.00    -0.550 OA
ENDBRANCH  17  18
ENDBRANCH  16  17
ENDBRANCH  15  16
ENDBRANCH  14  15
ENDBRANCH  13  14
ENDBRANCH  12  13
ENDBRANCH  11  12
ENDBRANCH   1  11
TORSDOF 15
ENDMDL
MODEL 5
REMARK VINA RESULT:    -4.018      1.629      2.930
REMARK INTER + INTRA:          -9.338
REMARK INTER:                  -7.068
REMARK INTRA:                  -2.270
REMARK UNBOUND:                -1.797
REMARK SMILES O=C([O-])CCCCCCCCCCCCCCC(=O)[O-]
REMARK SMILES IDX 10 1 9 2 8 3 7 4 6 5 5 6 4 7 2 8 1 9 3 10 11 11 12 12 13 13
REMARK SMILES IDX 14 14 15 15 16 16 17 17 18 18 19 19 20 20
REMARK H PARENT
REMARK Flexibility Score: inf
ROOT
ATOM      1  C   UNL     1      12.707  25.283  33.415  1.00  0.00     0.000 C 
ENDROOT
BRANCH   1   2
ATOM      2  C   UNL     1      12.399  26.529  34.266  1.00  0.00     0.000 C 
BRANCH   2   3
ATOM      3  C   UNL     1      12.751  26.333  35.750  1.00  0.00     0.000 C 
BRANCH   3   4
ATOM      4  C   UNL     1      13.980  27.146  36.182  1.00  0.00     0.000 C 
BRANCH   4   5
ATOM      5  C   UNL     1      13.905  28.582  35.640  1.00  0.00     0.000 C 
BRANCH   5   6
ATOM      6  C   UNL     1      15.251  29.077  35.087  1.00  0.00     0.006 C 
BRANCH   6   7
ATOM      7  C   UNL     1      16.105  27.944  34.504  1.00  0.00     0.053 C 
BRANCH   7   8
ATOM      8  C   UNL     1      16.505  28.263  33.098  1.00  0.00     0.041 C 
ATOM      9  O   UNL     1      16.981  27.363  32.356  1.00  0.00    -0.550 OA
ATOM     10  O   UNL     1      16.308  29.540  32.591  1.00  0.00    -0.550 OA
ENDBRANCH   7   8
ENDBRANCH   6   7
ENDBRANCH   5   6
ENDBRANCH   4   5
ENDBRANCH   3   4
ENDBRANCH   2   3
ENDBRANCH   1   2
BRANCH   1  11
ATOM     11  C   UNL     1      14.145  25.285  32.871  1.00  0.00     0.000 C 
BRANCH  11  12
ATOM     12  C   UNL     1      14.879  23.959  33.141  1.00  0.00     0.000 C 
BRANCH  12  13
ATOM     13  C   UNL     1      16.300  24.163  33.693  1.00  0.00     0.000 C 
BRANCH  13  14
ATOM     14  C   UNL     1      16.384  24.380  35.216  1.00  0.00     0.000 C 
BRANCH  14  15
ATOM     15  C   UNL     1      15.359  23.546  35.998  1.00  0.00     0.000 C 
BRANCH  15  16
ATOM     16  C   UNL     1      15.980  22.230  36.487  1.00  0.00     0.006 C 
BRANCH  16  17
ATOM     17  C   UNL     1      15.134  21.009  36.104  1.00  0.00     0.053 C 
BRANCH  17  18
ATOM     18  C   UNL     1      15.772  20.214  35.007  1.00  0.00     0.041 C 
ATOM     19  O   UNL     1      15.606  20.545  33.803  1.00  0.00    -0.550 OA
ATOM     20  O   UNL     1      16.578  19.126  35.317  1.00  0.00    -0.550 OA
ENDBRANCH  17  18
ENDBRANCH  16  17
ENDBRANCH  15  16
ENDBRANCH  14  15
ENDBRANCH  13  14
ENDBRANCH  12  13
ENDBRANCH  11  12
ENDBRANCH   1  11
TORSDOF 15
ENDMDL
MODEL 6
REMARK VINA RESULT:    -3.964      3.032      4.499
REMARK INTER + INTRA:          -9.238
REMARK INTER:                  -7.154
REMARK INTRA:                  -2.084
REMARK UNBOUND:                -1.797
REMARK SMILES O=C([O-])CCCCCCCCCCCCCCC(=O)[O-]
REMARK SMILES IDX 10 1 9 2 8 3 7 4 6 5 5 6 4 7 2 8 1 9 3 10 11 11 12 12 13 13
REMARK SMILES IDX 14 14 15 15 16 16 17 17 18 18 19 19 20 20
REMARK H PARENT
REMARK Flexibility Score: inf
ROOT
ATOM      1  C   UNL     1      14.438  25.216  32.967  1.00  0.00     0.000 C 
ENDROOT
BRANCH   1   2
ATOM      2  C   UNL     1      15.520  26.273  33.258  1.00  0.00     0.000 C 
BRANCH   2   3
ATOM      3  C   UNL     1      15.000  27.426  34.132  1.00  0.00     0.000 C 
BRANCH   3   4
ATOM      4  C   UNL     1      15.548  27.376  35.567  1.00  0.00     0.000 C 
BRANCH   4   5
ATOM      5  C   UNL     1      14.403  27.371  36.591  1.00  0.00     0.000 C 
BRANCH   5   6
ATOM      6  C   UNL     1      13.219  26.494  36.152  1.00  0.00     0.006 C 
BRANCH   6   7
ATOM      7  C   UNL     1      11.863  27.169  36.388  1.00  0.00     0.053 C 
BRANCH   7   8
ATOM      8  C   UNL     1      11.416  27.889  35.155  1.00  0.00     0.041 C 
ATOM      9  O   UNL     1      10.989  29.072  35.232  1.00  0.00    -0.550 OA
ATOM     10  O   UNL     1      11.516  27.273  33.915  1.00  0.00    -0.550 OA
ENDBRANCH   7   8
ENDBRANCH   6   7
ENDBRANCH   5   6
ENDBRANCH   4   5
ENDBRANCH   3   4
ENDBRANCH   2   3
ENDBRANCH   1   2
BRANCH   1  11
ATOM     11  C   UNL     1      14.882  23.798  33.361  1.00  0.00     0.000 C 
BRANCH  11  12
ATOM     12  C   UNL     1      16.374  23.728  33.729  1.00  0.00     0.000 C 
BRANCH  12  13
ATOM     13  C   UNL     1      16.611  23.396  35.213  1.00  0.00     0.000 C 
BRANCH  13  14
ATOM     14  C   UNL     1      15.388  23.591  36.129  1.00  0.00     0.000 C 
BRANCH  14  15
ATOM     15  C   UNL     1      15.007  22.319  36.901  1.00  0.00     0.000 C 
BRANCH  15  16
ATOM     16  C   UNL     1      16.008  21.188  36.623  1.00  0.00     0.006 C 
BRANCH  16  17
ATOM     17  C   UNL     1      15.320  19.912  36.119  1.00  0.00     0.053 C 
BRANCH  17  18
ATOM     18  C   UNL     1      15.753  19.560  34.729  1.00  0.00     0.041 C 
ATOM     19  O   UNL     1      15.534  20.352  33.776  1.00  0.00    -0.550 OA
ATOM     20  O   UNL     1      16.429  18.369  34.494  1.00  0.00    -0.550 OA
ENDBRANCH  17  18
ENDBRANCH  16  17
ENDBRANCH  15  16
ENDBRANCH  14  15
ENDBRANCH  13  14
ENDBRANCH  12  13
ENDBRANCH  11  12
ENDBRANCH   1  11
TORSDOF 15
ENDMDL
MODEL 7
REMARK VINA RESULT:    -3.934      3.987      6.232
REMARK INTER + INTRA:          -9.180
REMARK INTER:                  -8.376
REMARK INTRA:                  -0.805
REMARK UNBOUND:                -1.797
REMARK SMILES O=C([O-])CCCCCCCCCCCCCCC(=O)[O-]
REMARK SMILES IDX 10 1 9 2 8 3 7 4 6 5 5 6 4 7 2 8 1 9 3 10 11 11 12 12 13 13
REMARK SMILES IDX 14 14 15 15 16 16 17 17 18 18 19 19 20 20
REMARK H PARENT
REMARK Flexibility Score: inf
ROOT
ATOM      1  C   UNL     1      16.025  23.371  35.447  1.00  0.00     0.000 C 
ENDROOT
BRANCH   1   2
ATOM      2  C   UNL     1      16.537  23.645  34.022  1.00  0.00     0.000 C 
BRANCH   2   3
ATOM      3  C   UNL     1      16.667  25.147  33.720  1.00  0.00     0.000 C 
BRANCH   3   4
ATOM      4  C   UNL     1      15.328  25.892  33.823  1.00  0.00     0.000 C 
BRANCH   4   5
ATOM      5  C   UNL     1      14.244  25.188  32.993  1.00  0.00     0.000 C 
BRANCH   5   6
ATOM      6  C   UNL     1      12.832  25.390  33.568  1.00  0.00     0.006 C 
BRANCH   6   7
ATOM      7  C   UNL     1      12.597  26.819  34.071  1.00  0.00     0.053 C 
BRANCH   7   8
ATOM      8  C   UNL     1      12.271  26.812  35.531  1.00  0.00     0.041 C 
ATOM      9  O   UNL     1      11.456  27.649  36.002  1.00  0.00    -0.550 OA
ATOM     10  O   UNL     1      12.829  25.851  36.363  1.00  0.00    -0.550 OA
ENDBRANCH   7   8
ENDBRANCH   6   7
ENDBRANCH   5   6
ENDBRANCH   4   5
ENDBRANCH   3   4
ENDBRANCH   2   3
ENDBRANCH   1   2
BRANCH   1  11
ATOM     11  C   UNL     1      15.594  21.908  35.646  1.00  0.00     0.000 C 
BRANCH  11  12
ATOM     12  C   UNL     1      15.593  21.110  34.330  1.00  0.00     0.000 C 
BRANCH  12  13
ATOM     13  C   UNL     1      16.362  19.781  34.435  1.00  0.00     0.000 C 
BRANCH  13  14
ATOM     14  C   UNL     1      15.498  18.551  34.769  1.00  0.00     0.000 C 
BRANCH  14  15
ATOM     15  C   UNL     1      16.222  17.221  34.513  1.00  0.00     0.000 C 
BRANCH  15  16
ATOM     16  C   UNL     1      15.230  16.049  34.498  1.00  0.00     0.006 C 
BRANCH  16  17
ATOM     17  C   UNL     1      15.599  14.987  33.454  1.00  0.00     0.053 C 
BRANCH  17  18
ATOM     18  C   UNL     1      14.575  13.896  33.388  1.00  0.00     0.041 C 
ATOM     19  O   UNL     1      14.288  13.360  32.285  1.00  0.00    -0.550 OA
ATOM     20  O   UNL     1      13.961  13.448  34.551  1.00  0.00    -0.550 OA
ENDBRANCH  17  18
ENDBRANCH  16  17
ENDBRANCH  15  16
ENDBRANCH  14  15
ENDBRANCH  13  14
ENDBRANCH  12  13
ENDBRANCH  11  12
ENDBRANCH   1  11
TORSDOF 15
ENDMDL
MODEL 8
REMARK VINA RESULT:    -3.926      1.587      2.442
REMARK INTER + INTRA:          -9.166
REMARK INTER:                  -7.519
REMARK INTRA:                  -1.647
REMARK UNBOUND:                -1.797
REMARK SMILES O=C([O-])CCCCCCCCCCCCCCC(=O)[O-]
REMARK SMILES IDX 10 1 9 2 8 3 7 4 6 5 5 6 4 7 2 8 1 9 3 10 11 11 12 12 13 13
REMARK SMILES IDX 14 14 15 15 16 16 17 17 18 18 19 19 20 20
REMARK H PARENT
REMARK Flexibility Score: inf
ROOT
ATOM      1  C   UNL     1      11.623  28.152  35.479  1.00  0.00     0.000 C 
ENDROOT
BRANCH   1   2
ATOM      2  C   UNL     1      11.920  29.577  35.979  1.00  0.00     0.000 C 
BRANCH   2   3
ATOM      3  C   UNL     1      13.249  29.669  36.748  1.00  0.00     0.000 C 
BRANCH   3   4
ATOM      4  C   UNL     1      14.378  30.285  35.909  1.00  0.00     0.000 C 
BRANCH   4   5
ATOM      5  C   UNL     1      15.203  29.193  35.213  1.00  0.00     0.000 C 
BRANCH   5   6
ATOM      6  C   UNL     1      16.504  29.733  34.597  1.00  0.00     0.006 C 
BRANCH   6   7
ATOM      7  C   UNL     1      16.271  30.960  33.707  1.00  0.00     0.053 C 
BRANCH   7   8
ATOM      8  C   UNL     1      16.468  30.604  32.267  1.00  0.00     0.041 C 
ATOM      9  O   UNL     1      16.401  31.496  31.379  1.00  0.00    -0.550 OA
ATOM     10  O   UNL     1      16.773  29.298  31.908  1.00  0.00    -0.550 OA
ENDBRANCH   7   8
ENDBRANCH   6   7
ENDBRANCH   5   6
ENDBRANCH   4   5
ENDBRANCH   3   4
ENDBRANCH   2   3
ENDBRANCH   1   2
BRANCH   1  11
ATOM     11  C   UNL     1      12.246  27.072  36.379  1.00  0.00     0.000 C 
BRANCH  11  12
ATOM     12  C   UNL     1      12.963  25.975  35.572  1.00  0.00     0.000 C 
BRANCH  12  13
ATOM     13  C   UNL     1      12.555  25.959  34.088  1.00  0.00     0.000 C 
BRANCH  13  14
ATOM     14  C   UNL     1      13.671  25.548  33.109  1.00  0.00     0.000 C 
BRANCH  14  15
ATOM     15  C   UNL     1      15.065  26.008  33.561  1.00  0.00     0.000 C 
BRANCH  15  16
ATOM     16  C   UNL     1      16.078  24.858  33.474  1.00  0.00     0.006 C 
BRANCH  16  17
ATOM     17  C   UNL     1      15.414  23.523  33.112  1.00  0.00     0.053 C 
BRANCH  17  18
ATOM     18  C   UNL     1      15.658  22.479  34.158  1.00  0.00     0.041 C 
ATOM     19  O   UNL     1      15.233  22.644  35.332  1.00  0.00    -0.550 OA
ATOM     20  O   UNL     1      16.328  21.308  33.827  1.00  0.00    -0.550 OA
ENDBRANCH  17  18
ENDBRANCH  16  17
ENDBRANCH  15  16
ENDBRANCH  14  15
ENDBRANCH  13  14
ENDBRANCH  12  13
ENDBRANCH  11  12
ENDBRANCH   1  11
TORSDOF 15
ENDMDL
MODEL 9
REMARK VINA RESULT:    -3.871      4.079      9.809
REMARK INTER + INTRA:          -9.063
REMARK INTER:                  -8.214
REMARK INTRA:                  -0.849
REMARK UNBOUND:                -1.797
REMARK SMILES O=C([O-])CCCCCCCCCCCCCCC(=O)[O-]
REMARK SMILES IDX 10 1 9 2 8 3 7 4 6 5 5 6 4 7 2 8 1 9 3 10 11 11 12 12 13 13
REMARK SMILES IDX 14 14 15 15 16 16 17 17 18 18 19 19 20 20
REMARK H PARENT
REMARK Flexibility Score: inf
ROOT
ATOM      1  C   UNL     1      15.627  21.696  34.345  1.00  0.00     0.000 C 
ENDROOT
BRANCH   1   2
ATOM      2  C   UNL     1      16.930  20.935  34.038  1.00  0.00     0.000 C 
BRANCH   2   3
ATOM      3  C   UNL     1      16.904  19.487  34.554  1.00  0.00     0.000 C 
BRANCH   3   4
ATOM      4  C   UNL     1      15.479  18.926  34.677  1.00  0.00     0.000 C 
BRANCH   4   5
ATOM      5  C   UNL     1      15.505  17.454  35.116  1.00  0.00     0.000 C 
BRANCH   5   6
ATOM      6  C   UNL     1      16.244  16.551  34.116  1.00  0.00     0.006 C 
BRANCH   6   7
ATOM      7  C   UNL     1      15.953  15.061  34.339  1.00  0.00     0.053 C 
BRANCH   7   8
ATOM      8  C   UNL     1      15.458  14.432  33.075  1.00  0.00     0.041 C 
ATOM      9  O   UNL     1      16.220  14.333  32.076  1.00  0.00    -0.550 OA
ATOM     10  O   UNL     1      14.173  13.911  33.014  1.00  0.00    -0.550 OA
ENDBRANCH   7   8
ENDBRANCH   6   7
ENDBRANCH   5   6
ENDBRANCH   4   5
ENDBRANCH   3   4
ENDBRANCH   2   3
ENDBRANCH   1   2
BRANCH   1  11
ATOM     11  C   UNL     1      15.879  23.010  35.103  1.00  0.00     0.000 C 
BRANCH  11  12
ATOM     12  C   UNL     1      16.103  24.203  34.158  1.00  0.00     0.000 C 
BRANCH  12  13
ATOM     13  C   UNL     1      15.118  24.224  32.976  1.00  0.00     0.000 C 
BRANCH  13  14
ATOM     14  C   UNL     1      14.256  25.496  32.867  1.00  0.00     0.000 C 
BRANCH  14  15
ATOM     15  C   UNL     1      12.897  25.362  33.572  1.00  0.00     0.000 C 
BRANCH  15  16
ATOM     16  C   UNL     1      12.945  25.979  34.977  1.00  0.00     0.006 C 
BRANCH  16  17
ATOM     17  C   UNL     1      12.997  27.512  34.939  1.00  0.00     0.053 C 
BRANCH  17  18
ATOM     18  C   UNL     1      11.810  28.124  35.618  1.00  0.00     0.041 C 
ATOM     19  O   UNL     1      11.708  28.089  36.872  1.00  0.00    -0.550 OA
ATOM     20  O   UNL     1      10.833  28.763  34.865  1.00  0.00    -0.550 OA
ENDBRANCH  17  18
ENDBRANCH  16  17
ENDBRANCH  15  16
ENDBRANCH  14  15
ENDBRANCH  13  14
ENDBRANCH  12  13
ENDBRANCH  11  12
ENDBRANCH   1  11
TORSDOF 15
ENDMDL
