MODEL 1
REMARK VINA RESULT:    -6.361      0.000      0.000
REMARK INTER + INTRA:          -6.547
REMARK INTER:                  -6.547
REMARK INTRA:                   0.000
REMARK UNBOUND:                 0.000
REMARK SMILES C=C1CCC[C@@]2(C)C[C@]3(O)OC(=O)C(C)=C3C[C@@H]12
REMARK SMILES IDX 15 1 14 2 16 3 17 4 18 5 2 6 1 7 3 8 4 9 5 10 6 11 8 12 9 13
REMARK SMILES IDX 11 14 12 15 13 16 7 17 10 18
REMARK H PARENT 10 19
REMARK Flexibility Score: inf
ROOT
ATOM      1  C   UNL     1     135.303 131.085 122.389  1.00  0.00     0.052 C 
ATOM      2  C   UNL     1     135.229 129.797 123.148  1.00  0.00     0.040 C 
ATOM      3  C   UNL     1     135.955 129.465 124.215  1.00  0.00     0.012 C 
ATOM      4  C   UNL     1     137.031 130.315 124.828  1.00  0.00     0.047 C 
ATOM      5  C   UNL     1     137.911 129.480 125.794  1.00  0.00     0.025 C 
ATOM      6  C   UNL     1     137.342 129.276 127.205  1.00  0.00    -0.073 C 
ATOM      7  C   UNL     1     136.226 129.871 127.671  1.00  0.00     0.008 C 
ATOM      8  C   UNL     1     138.175 128.449 128.153  1.00  0.00     0.031 C 
ATOM      9  C   UNL     1     138.495 127.099 127.520  1.00  0.00     0.005 C 
ATOM     10  C   UNL     1     139.177 127.274 126.156  1.00  0.00     0.008 C 
ATOM     11  C   UNL     1     138.332 128.105 125.141  1.00  0.00    -0.019 C 
ATOM     12  C   UNL     1     137.098 127.257 124.635  1.00  0.00     0.092 C 
ATOM     13  C   UNL     1     135.751 128.016 124.578  1.00  0.00     0.235 C 
ATOM     14  O   UNL     1     134.919 127.530 123.523  1.00  0.00    -0.426 OA
ATOM     15  C   UNL     1     134.585 128.585 122.696  1.00  0.00     0.336 C 
ATOM     16  O   UNL     1     133.853 128.476 121.677  1.00  0.00    -0.246 OA
ATOM     17  C   UNL     1     139.255 128.386 123.925  1.00  0.00     0.012 C 
ENDROOT
BRANCH  13  18
ATOM     18  O   UNL     1     135.064 127.925 125.798  1.00  0.00    -0.353 OA
ATOM     19  H   UNL     1     134.100 128.053 125.600  1.00  0.00     0.215 HD
ENDBRANCH  13  18
TORSDOF 1
ENDMDL
MODEL 2
REMARK VINA RESULT:    -6.247      2.273      3.163
REMARK INTER + INTRA:          -6.429
REMARK INTER:                  -6.429
REMARK INTRA:                   0.000
REMARK UNBOUND:                 0.000
REMARK SMILES C=C1CCC[C@@]2(C)C[C@]3(O)OC(=O)C(C)=C3C[C@@H]12
REMARK SMILES IDX 15 1 14 2 16 3 17 4 18 5 2 6 1 7 3 8 4 9 5 10 6 11 8 12 9 13
REMARK SMILES IDX 11 14 12 15 13 16 7 17 10 18
REMARK H PARENT 10 19
REMARK Flexibility Score: inf
ROOT
ATOM      1  C   UNL     1     137.745 130.204 120.886  1.00  0.00     0.052 C 
ATOM      2  C   UNL     1     137.564 130.528 122.337  1.00  0.00     0.040 C 
ATOM      3  C   UNL     1     137.898 129.754 123.368  1.00  0.00     0.012 C 
ATOM      4  C   UNL     1     138.479 128.373 123.261  1.00  0.00     0.047 C 
ATOM      5  C   UNL     1     138.389 127.629 124.619  1.00  0.00     0.025 C 
ATOM      6  C   UNL     1     139.495 127.957 125.632  1.00  0.00    -0.073 C 
ATOM      7  C   UNL     1     140.569 128.726 125.367  1.00  0.00     0.008 C 
ATOM      8  C   UNL     1     139.413 127.259 126.966  1.00  0.00     0.031 C 
ATOM      9  C   UNL     1     138.043 127.497 127.594  1.00  0.00     0.005 C 
ATOM     10  C   UNL     1     136.916 127.063 126.646  1.00  0.00     0.008 C 
ATOM     11  C   UNL     1     136.956 127.784 125.263  1.00  0.00    -0.019 C 
ATOM     12  C   UNL     1     136.508 129.292 125.421  1.00  0.00     0.092 C 
ATOM     13  C   UNL     1     137.377 130.324 124.663  1.00  0.00     0.235 C 
ATOM     14  O   UNL     1     136.605 131.447 124.237  1.00  0.00    -0.426 OA
ATOM     15  C   UNL     1     136.739 131.589 122.869  1.00  0.00     0.336 C 
ATOM     16  O   UNL     1     136.181 132.496 122.197  1.00  0.00    -0.246 OA
ATOM     17  C   UNL     1     135.917 127.065 124.361  1.00  0.00     0.012 C 
ENDROOT
BRANCH  13  18
ATOM     18  O   UNL     1     138.450 130.763 125.454  1.00  0.00    -0.353 OA
ATOM     19  H   UNL     1     138.626 131.708 125.206  1.00  0.00     0.215 HD
ENDBRANCH  13  18
TORSDOF 1
ENDMDL
MODEL 3
REMARK VINA RESULT:    -6.138      7.213      9.047
REMARK INTER + INTRA:          -6.317
REMARK INTER:                  -6.317
REMARK INTRA:                   0.000
REMARK UNBOUND:                 0.000
REMARK SMILES C=C1CCC[C@@]2(C)C[C@]3(O)OC(=O)C(C)=C3C[C@@H]12
REMARK SMILES IDX 15 1 14 2 16 3 17 4 18 5 2 6 1 7 3 8 4 9 5 10 6 11 8 12 9 13
REMARK SMILES IDX 11 14 12 15 13 16 7 17 10 18
REMARK H PARENT 10 19
REMARK Flexibility Score: inf
ROOT
ATOM      1  C   UNL     1     138.768 133.342 124.631  1.00  0.00     0.052 C 
ATOM      2  C   UNL     1     137.860 134.360 124.015  1.00  0.00     0.040 C 
ATOM      3  C   UNL     1     137.848 135.668 124.272  1.00  0.00     0.012 C 
ATOM      4  C   UNL     1     138.721 136.360 125.278  1.00  0.00     0.047 C 
ATOM      5  C   UNL     1     138.188 137.783 125.586  1.00  0.00     0.025 C 
ATOM      6  C   UNL     1     138.578 138.873 124.578  1.00  0.00    -0.073 C 
ATOM      7  C   UNL     1     139.435 138.692 123.553  1.00  0.00     0.008 C 
ATOM      8  C   UNL     1     138.052 140.260 124.849  1.00  0.00     0.031 C 
ATOM      9  C   UNL     1     136.537 140.218 125.010  1.00  0.00     0.005 C 
ATOM     10  C   UNL     1     136.122 139.221 126.101  1.00  0.00     0.008 C 
ATOM     11  C   UNL     1     136.629 137.768 125.840  1.00  0.00    -0.019 C 
ATOM     12  C   UNL     1     135.815 137.111 124.655  1.00  0.00     0.092 C 
ATOM     13  C   UNL     1     136.664 136.335 123.619  1.00  0.00     0.235 C 
ATOM     14  O   UNL     1     135.937 135.239 123.062  1.00  0.00    -0.426 OA
ATOM     15  C   UNL     1     136.656 134.077 123.266  1.00  0.00     0.336 C 
ATOM     16  O   UNL     1     136.279 132.939 122.882  1.00  0.00    -0.246 OA
ATOM     17  C   UNL     1     136.337 136.960 127.133  1.00  0.00     0.012 C 
ENDROOT
BRANCH  13  18
ATOM     18  O   UNL     1     137.104 137.180 122.589  1.00  0.00    -0.353 OA
ATOM     19  H   UNL     1     136.623 138.042 122.694  1.00  0.00     0.215 HD
ENDBRANCH  13  18
TORSDOF 1
ENDMDL
MODEL 4
REMARK VINA RESULT:    -6.131      2.075      2.382
REMARK INTER + INTRA:          -6.310
REMARK INTER:                  -6.310
REMARK INTRA:                   0.000
REMARK UNBOUND:                 0.000
REMARK SMILES C=C1CCC[C@@]2(C)C[C@]3(O)OC(=O)C(C)=C3C[C@@H]12
REMARK SMILES IDX 15 1 14 2 16 3 17 4 18 5 2 6 1 7 3 8 4 9 5 10 6 11 8 12 9 13
REMARK SMILES IDX 11 14 12 15 13 16 7 17 10 18
REMARK H PARENT 10 19
REMARK Flexibility Score: inf
ROOT
ATOM      1  C   UNL     1     138.711 132.696 122.915  1.00  0.00     0.052 C 
ATOM      2  C   UNL     1     138.103 131.330 122.999  1.00  0.00     0.040 C 
ATOM      3  C   UNL     1     138.021 130.567 124.088  1.00  0.00     0.012 C 
ATOM      4  C   UNL     1     138.578 130.920 125.437  1.00  0.00     0.047 C 
ATOM      5  C   UNL     1     138.642 129.671 126.353  1.00  0.00     0.025 C 
ATOM      6  C   UNL     1     137.330 129.290 127.053  1.00  0.00    -0.073 C 
ATOM      7  C   UNL     1     136.205 130.031 127.020  1.00  0.00     0.008 C 
ATOM      8  C   UNL     1     137.369 128.065 127.933  1.00  0.00     0.031 C 
ATOM      9  C   UNL     1     137.901 126.875 127.143  1.00  0.00     0.005 C 
ATOM     10  C   UNL     1     139.273 127.186 126.529  1.00  0.00     0.008 C 
ATOM     11  C   UNL     1     139.266 128.435 125.593  1.00  0.00    -0.019 C 
ATOM     12  C   UNL     1     138.519 128.099 124.240  1.00  0.00     0.092 C 
ATOM     13  C   UNL     1     137.534 129.182 123.741  1.00  0.00     0.235 C 
ATOM     14  O   UNL     1     137.463 129.209 122.315  1.00  0.00    -0.426 OA
ATOM     15  C   UNL     1     137.768 130.484 121.877  1.00  0.00     0.336 C 
ATOM     16  O   UNL     1     137.783 130.826 120.665  1.00  0.00    -0.246 OA
ATOM     17  C   UNL     1     140.751 128.745 125.260  1.00  0.00     0.012 C 
ENDROOT
BRANCH  13  18
ATOM     18  O   UNL     1     136.250 128.985 124.273  1.00  0.00    -0.353 OA
ATOM     19  H   UNL     1     136.189 129.534 125.097  1.00  0.00     0.215 HD
ENDBRANCH  13  18
TORSDOF 1
ENDMDL
MODEL 5
REMARK VINA RESULT:    -6.120      8.635     10.087
REMARK INTER + INTRA:          -6.299
REMARK INTER:                  -6.299
REMARK INTRA:                   0.000
REMARK UNBOUND:                 0.000
REMARK SMILES C=C1CCC[C@@]2(C)C[C@]3(O)OC(=O)C(C)=C3C[C@@H]12
REMARK SMILES IDX 15 1 14 2 16 3 17 4 18 5 2 6 1 7 3 8 4 9 5 10 6 11 8 12 9 13
REMARK SMILES IDX 11 14 12 15 13 16 7 17 10 18
REMARK H PARENT 10 19
REMARK Flexibility Score: inf
ROOT
ATOM      1  C   UNL     1     135.875 141.581 124.996  1.00  0.00     0.052 C 
ATOM      2  C   UNL     1     136.762 140.603 124.289  1.00  0.00     0.040 C 
ATOM      3  C   UNL     1     136.806 139.287 124.490  1.00  0.00     0.012 C 
ATOM      4  C   UNL     1     135.998 138.539 125.512  1.00  0.00     0.047 C 
ATOM      5  C   UNL     1     136.566 137.113 125.729  1.00  0.00     0.025 C 
ATOM      6  C   UNL     1     136.137 136.060 124.698  1.00  0.00    -0.073 C 
ATOM      7  C   UNL     1     135.224 136.270 123.729  1.00  0.00     0.008 C 
ATOM      8  C   UNL     1     136.696 134.672 124.882  1.00  0.00     0.031 C 
ATOM      9  C   UNL     1     138.217 134.731 124.963  1.00  0.00     0.005 C 
ATOM     10  C   UNL     1     138.677 135.688 126.071  1.00  0.00     0.008 C 
ATOM     11  C   UNL     1     138.137 137.142 125.900  1.00  0.00    -0.019 C 
ATOM     12  C   UNL     1     138.876 137.861 124.702  1.00  0.00     0.092 C 
ATOM     13  C   UNL     1     137.962 138.666 123.747  1.00  0.00     0.235 C 
ATOM     14  O   UNL     1     138.643 139.796 123.199  1.00  0.00    -0.426 OA
ATOM     15  C   UNL     1     137.920 140.937 123.491  1.00  0.00     0.336 C 
ATOM     16  O   UNL     1     138.261 142.095 123.135  1.00  0.00    -0.246 OA
ATOM     17  C   UNL     1     138.487 137.900 127.209  1.00  0.00     0.012 C 
ENDROOT
BRANCH  13  18
ATOM     18  O   UNL     1     137.478 137.858 122.707  1.00  0.00    -0.353 OA
ATOM     19  H   UNL     1     138.268 137.511 122.216  1.00  0.00     0.215 HD
ENDBRANCH  13  18
TORSDOF 1
ENDMDL
MODEL 6
REMARK VINA RESULT:    -6.021     14.865     16.543
REMARK INTER + INTRA:          -6.197
REMARK INTER:                  -6.197
REMARK INTRA:                   0.000
REMARK UNBOUND:                 0.000
REMARK SMILES C=C1CCC[C@@]2(C)C[C@]3(O)OC(=O)C(C)=C3C[C@@H]12
REMARK SMILES IDX 15 1 14 2 16 3 17 4 18 5 2 6 1 7 3 8 4 9 5 10 6 11 8 12 9 13
REMARK SMILES IDX 11 14 12 15 13 16 7 17 10 18
REMARK H PARENT 10 19
REMARK Flexibility Score: inf
ROOT
ATOM      1  C   UNL     1     137.460 144.874 120.869  1.00  0.00     0.052 C 
ATOM      2  C   UNL     1     137.008 144.240 122.147  1.00  0.00     0.040 C 
ATOM      3  C   UNL     1     136.762 144.867 123.297  1.00  0.00     0.012 C 
ATOM      4  C   UNL     1     136.944 146.338 123.537  1.00  0.00     0.047 C 
ATOM      5  C   UNL     1     136.934 146.656 125.055  1.00  0.00     0.025 C 
ATOM      6  C   UNL     1     135.547 146.777 125.701  1.00  0.00    -0.073 C 
ATOM      7  C   UNL     1     134.384 146.753 125.020  1.00  0.00     0.008 C 
ATOM      8  C   UNL     1     135.518 147.065 127.181  1.00  0.00     0.031 C 
ATOM      9  C   UNL     1     136.352 146.031 127.928  1.00  0.00     0.005 C 
ATOM     10  C   UNL     1     137.785 145.974 127.381  1.00  0.00     0.008 C 
ATOM     11  C   UNL     1     137.855 145.653 125.856  1.00  0.00    -0.019 C 
ATOM     12  C   UNL     1     137.488 144.137 125.599  1.00  0.00     0.092 C 
ATOM     13  C   UNL     1     136.530 143.879 124.412  1.00  0.00     0.235 C 
ATOM     14  O   UNL     1     136.792 142.619 123.791  1.00  0.00    -0.426 OA
ATOM     15  C   UNL     1     137.043 142.827 122.449  1.00  0.00     0.336 C 
ATOM     16  O   UNL     1     137.302 141.905 121.631  1.00  0.00    -0.246 OA
ATOM     17  C   UNL     1     139.331 145.871 125.426  1.00  0.00     0.012 C 
ENDROOT
BRANCH  13  18
ATOM     18  O   UNL     1     135.188 143.932 124.821  1.00  0.00    -0.353 OA
ATOM     19  H   UNL     1     134.641 143.593 124.066  1.00  0.00     0.215 HD
ENDBRANCH  13  18
TORSDOF 1
ENDMDL
MODEL 7
REMARK VINA RESULT:    -5.972      2.636      5.112
REMARK INTER + INTRA:          -6.147
REMARK INTER:                  -6.147
REMARK INTRA:                   0.000
REMARK UNBOUND:                 0.000
REMARK SMILES C=C1CCC[C@@]2(C)C[C@]3(O)OC(=O)C(C)=C3C[C@@H]12
REMARK SMILES IDX 15 1 14 2 16 3 17 4 18 5 2 6 1 7 3 8 4 9 5 10 6 11 8 12 9 13
REMARK SMILES IDX 11 14 12 15 13 16 7 17 10 18
REMARK H PARENT 10 19
REMARK Flexibility Score: inf
ROOT
ATOM      1  C   UNL     1     137.234 129.059 127.828  1.00  0.00     0.052 C 
ATOM      2  C   UNL     1     138.109 128.966 126.617  1.00  0.00     0.040 C 
ATOM      3  C   UNL     1     138.046 129.739 125.534  1.00  0.00     0.012 C 
ATOM      4  C   UNL     1     137.038 130.829 125.306  1.00  0.00     0.047 C 
ATOM      5  C   UNL     1     137.014 131.256 123.815  1.00  0.00     0.025 C 
ATOM      6  C   UNL     1     138.104 132.249 123.390  1.00  0.00    -0.073 C 
ATOM      7  C   UNL     1     138.965 132.847 124.238  1.00  0.00     0.008 C 
ATOM      8  C   UNL     1     138.109 132.661 121.939  1.00  0.00     0.031 C 
ATOM      9  C   UNL     1     138.155 131.425 121.048  1.00  0.00     0.005 C 
ATOM     10  C   UNL     1     137.000 130.466 121.371  1.00  0.00     0.008 C 
ATOM     11  C   UNL     1     136.978 129.999 122.860  1.00  0.00    -0.019 C 
ATOM     12  C   UNL     1     138.158 128.982 123.131  1.00  0.00     0.092 C 
ATOM     13  C   UNL     1     138.945 129.215 124.442  1.00  0.00     0.235 C 
ATOM     14  O   UNL     1     139.434 127.987 124.985  1.00  0.00    -0.426 OA
ATOM     15  C   UNL     1     138.968 127.854 126.279  1.00  0.00     0.336 C 
ATOM     16  O   UNL     1     139.234 126.875 127.025  1.00  0.00    -0.246 OA
ATOM     17  C   UNL     1     135.636 129.247 123.066  1.00  0.00     0.012 C 
ENDROOT
BRANCH  13  18
ATOM     18  O   UNL     1     140.015 130.101 124.243  1.00  0.00    -0.353 OA
ATOM     19  H   UNL     1     140.780 129.757 124.773  1.00  0.00     0.215 HD
ENDBRANCH  13  18
TORSDOF 1
ENDMDL
MODEL 8
REMARK VINA RESULT:    -5.824      6.500      8.240
REMARK INTER + INTRA:          -5.994
REMARK INTER:                  -5.994
REMARK INTRA:                   0.000
REMARK UNBOUND:                 0.000
REMARK SMILES C=C1CCC[C@@]2(C)C[C@]3(O)OC(=O)C(C)=C3C[C@@H]12
REMARK SMILES IDX 15 1 14 2 16 3 17 4 18 5 2 6 1 7 3 8 4 9 5 10 6 11 8 12 9 13
REMARK SMILES IDX 11 14 12 15 13 16 7 17 10 18
REMARK H PARENT 10 19
REMARK Flexibility Score: inf
ROOT
ATOM      1  C   UNL     1     138.853 134.365 121.320  1.00  0.00     0.052 C 
ATOM      2  C   UNL     1     137.624 134.613 122.138  1.00  0.00     0.040 C 
ATOM      3  C   UNL     1     137.408 135.650 122.946  1.00  0.00     0.012 C 
ATOM      4  C   UNL     1     138.392 136.749 123.225  1.00  0.00     0.047 C 
ATOM      5  C   UNL     1     137.970 137.565 124.475  1.00  0.00     0.025 C 
ATOM      6  C   UNL     1     136.909 138.648 124.236  1.00  0.00    -0.073 C 
ATOM      7  C   UNL     1     136.441 139.003 123.023  1.00  0.00     0.008 C 
ATOM      8  C   UNL     1     136.471 139.438 125.443  1.00  0.00     0.031 C 
ATOM      9  C   UNL     1     136.009 138.490 126.544  1.00  0.00     0.005 C 
ATOM     10  C   UNL     1     137.100 137.468 126.890  1.00  0.00     0.008 C 
ATOM     11  C   UNL     1     137.561 136.614 125.667  1.00  0.00    -0.019 C 
ATOM     12  C   UNL     1     136.437 135.575 125.272  1.00  0.00     0.092 C 
ATOM     13  C   UNL     1     136.152 135.451 123.757  1.00  0.00     0.235 C 
ATOM     14  O   UNL     1     135.744 134.128 123.406  1.00  0.00    -0.426 OA
ATOM     15  C   UNL     1     136.592 133.643 122.429  1.00  0.00     0.336 C 
ATOM     16  O   UNL     1     136.486 132.502 121.908  1.00  0.00    -0.246 OA
ATOM     17  C   UNL     1     138.812 135.820 126.131  1.00  0.00     0.012 C 
ENDROOT
BRANCH  13  18
ATOM     18  O   UNL     1     135.173 136.370 123.347  1.00  0.00    -0.353 OA
ATOM     19  H   UNL     1     134.672 136.641 124.160  1.00  0.00     0.215 HD
ENDBRANCH  13  18
TORSDOF 1
ENDMDL
MODEL 9
REMARK VINA RESULT:    -5.736      9.059     10.638
REMARK INTER + INTRA:          -5.904
REMARK INTER:                  -5.904
REMARK INTRA:                   0.000
REMARK UNBOUND:                 0.000
REMARK SMILES C=C1CCC[C@@]2(C)C[C@]3(O)OC(=O)C(C)=C3C[C@@H]12
REMARK SMILES IDX 15 1 14 2 16 3 17 4 18 5 2 6 1 7 3 8 4 9 5 10 6 11 8 12 9 13
REMARK SMILES IDX 11 14 12 15 13 16 7 17 10 18
REMARK H PARENT 10 19
REMARK Flexibility Score: inf
ROOT
ATOM      1  C   UNL     1     135.894 140.671 121.321  1.00  0.00     0.052 C 
ATOM      2  C   UNL     1     137.137 140.344 122.088  1.00  0.00     0.040 C 
ATOM      3  C   UNL     1     137.340 139.265 122.843  1.00  0.00     0.012 C 
ATOM      4  C   UNL     1     136.325 138.189 123.106  1.00  0.00     0.047 C 
ATOM      5  C   UNL     1     136.755 137.305 124.305  1.00  0.00     0.025 C 
ATOM      6  C   UNL     1     137.768 136.197 123.985  1.00  0.00    -0.073 C 
ATOM      7  C   UNL     1     138.185 135.880 122.743  1.00  0.00     0.008 C 
ATOM      8  C   UNL     1     138.213 135.339 125.143  1.00  0.00     0.031 C 
ATOM      9  C   UNL     1     138.744 136.220 126.268  1.00  0.00     0.005 C 
ATOM     10  C   UNL     1     137.702 137.265 126.693  1.00  0.00     0.008 C 
ATOM     11  C   UNL     1     137.235 138.187 125.524  1.00  0.00    -0.019 C 
ATOM     12  C   UNL     1     138.384 139.203 125.138  1.00  0.00     0.092 C 
ATOM     13  C   UNL     1     138.626 139.383 123.621  1.00  0.00     0.235 C 
ATOM     14  O   UNL     1     139.071 140.705 123.314  1.00  0.00    -0.426 OA
ATOM     15  C   UNL     1     138.212 141.262 122.387  1.00  0.00     0.336 C 
ATOM     16  O   UNL     1     138.344 142.421 121.913  1.00  0.00    -0.246 OA
ATOM     17  C   UNL     1     136.029 139.004 126.061  1.00  0.00     0.012 C 
ENDROOT
BRANCH  13  18
ATOM     18  O   UNL     1     139.558 138.449 123.140  1.00  0.00    -0.353 OA
ATOM     19  H   UNL     1     139.428 138.388 122.158  1.00  0.00     0.215 HD
ENDBRANCH  13  18
TORSDOF 1
ENDMDL
