MODEL 1
REMARK VINA RESULT:    -4.092      0.000      0.000
REMARK INTER + INTRA:          -9.115
REMARK INTER:                  -7.441
REMARK INTRA:                  -1.674
REMARK UNBOUND:                -1.674
REMARK SMILES CCCCCCCCCCCCCCCC(=O)[O-]
REMARK SMILES IDX 9 1 10 2 11 3 12 4 13 5 14 6 15 7 16 8 17 9 18 10 8 11 7 12
REMARK SMILES IDX 6 13 5 14 4 15 3 16 2 17 1 18
REMARK H PARENT
REMARK Flexibility Score: inf
ROOT
ATOM      1  C   UNL     1     173.262 176.082 151.250  1.00  0.00     0.000 C 
ENDROOT
BRANCH   1   2
ATOM      2  C   UNL     1     174.021 177.317 150.720  1.00  0.00     0.000 C 
BRANCH   2   3
ATOM      3  C   UNL     1     174.721 178.100 151.846  1.00  0.00     0.000 C 
BRANCH   3   4
ATOM      4  C   UNL     1     174.358 177.580 153.247  1.00  0.00     0.000 C 
BRANCH   4   5
ATOM      5  C   UNL     1     175.582 177.471 154.173  1.00  0.00     0.000 C 
BRANCH   5   6
ATOM      6  C   UNL     1     175.897 176.018 154.575  1.00  0.00     0.006 C 
BRANCH   6   7
ATOM      7  C   UNL     1     175.444 175.640 155.994  1.00  0.00     0.053 C 
BRANCH   7   8
ATOM      8  C   UNL     1     176.434 174.751 156.683  1.00  0.00     0.041 C 
ATOM      9  O   UNL     1     176.397 174.609 157.933  1.00  0.00    -0.550 OA
ATOM     10  O   UNL     1     177.378 174.053 155.939  1.00  0.00    -0.550 OA
ENDBRANCH   7   8
ENDBRANCH   6   7
ENDBRANCH   5   6
ENDBRANCH   4   5
ENDBRANCH   3   4
ENDBRANCH   2   3
ENDBRANCH   1   2
BRANCH   1  11
ATOM     11  C   UNL     1     173.831 174.741 150.747  1.00  0.00     0.000 C 
BRANCH  11  12
ATOM     12  C   UNL     1     174.865 174.083 151.680  1.00  0.00    -0.000 C 
BRANCH  12  13
ATOM     13  C   UNL     1     176.328 174.483 151.412  1.00  0.00    -0.000 C 
BRANCH  13  14
ATOM     14  C   UNL     1     177.029 173.549 150.413  1.00  0.00    -0.000 C 
BRANCH  14  15
ATOM     15  C   UNL     1     176.636 172.088 150.659  1.00  0.00    -0.000 C 
BRANCH  15  16
ATOM     16  C   UNL     1     175.986 171.475 149.413  1.00  0.00    -0.000 C 
BRANCH  16  17
ATOM     17  C   UNL     1     174.684 170.748 149.772  1.00  0.00    -0.003 C 
ATOM     18  C   UNL     1     173.536 171.200 148.875  1.00  0.00     0.004 C 
ENDBRANCH  16  17
ENDBRANCH  15  16
ENDBRANCH  14  15
ENDBRANCH  13  14
ENDBRANCH  12  13
ENDBRANCH  11  12
ENDBRANCH   1  11
TORSDOF 14
ENDMDL
MODEL 2
REMARK VINA RESULT:    -4.051      2.071      5.465
REMARK INTER + INTRA:          -9.041
REMARK INTER:                  -7.429
REMARK INTRA:                  -1.612
REMARK UNBOUND:                -1.674
REMARK SMILES CCCCCCCCCCCCCCCC(=O)[O-]
REMARK SMILES IDX 9 1 10 2 11 3 12 4 13 5 14 6 15 7 16 8 17 9 18 10 8 11 7 12
REMARK SMILES IDX 6 13 5 14 4 15 3 16 2 17 1 18
REMARK H PARENT
REMARK Flexibility Score: inf
ROOT
ATOM      1  C   UNL     1     175.705 174.706 151.118  1.00  0.00     0.000 C 
ENDROOT
BRANCH   1   2
ATOM      2  C   UNL     1     177.127 174.214 150.774  1.00  0.00     0.000 C 
BRANCH   2   3
ATOM      3  C   UNL     1     177.113 172.928 149.928  1.00  0.00     0.000 C 
BRANCH   3   4
ATOM      4  C   UNL     1     175.849 172.082 150.153  1.00  0.00     0.000 C 
BRANCH   4   5
ATOM      5  C   UNL     1     176.172 170.642 150.588  1.00  0.00     0.000 C 
BRANCH   5   6
ATOM      6  C   UNL     1     176.590 170.546 152.068  1.00  0.00     0.006 C 
BRANCH   6   7
ATOM      7  C   UNL     1     175.677 171.313 153.037  1.00  0.00     0.053 C 
BRANCH   7   8
ATOM      8  C   UNL     1     176.455 172.192 153.967  1.00  0.00     0.041 C 
ATOM      9  O   UNL     1     175.923 172.630 155.021  1.00  0.00    -0.550 OA
ATOM     10  O   UNL     1     177.782 172.499 153.688  1.00  0.00    -0.550 OA
ENDBRANCH   7   8
ENDBRANCH   6   7
ENDBRANCH   5   6
ENDBRANCH   4   5
ENDBRANCH   3   4
ENDBRANCH   2   3
ENDBRANCH   1   2
BRANCH   1  11
ATOM     11  C   UNL     1     175.610 175.430 152.474  1.00  0.00     0.000 C 
BRANCH  11  12
ATOM     12  C   UNL     1     175.409 176.954 152.386  1.00  0.00    -0.000 C 
BRANCH  12  13
ATOM     13  C   UNL     1     175.311 177.514 150.955  1.00  0.00    -0.000 C 
BRANCH  13  14
ATOM     14  C   UNL     1     173.867 177.824 150.532  1.00  0.00    -0.000 C 
BRANCH  14  15
ATOM     15  C   UNL     1     172.923 177.792 151.741  1.00  0.00    -0.000 C 
BRANCH  15  16
ATOM     16  C   UNL     1     171.923 176.637 151.628  1.00  0.00    -0.000 C 
BRANCH  16  17
ATOM     17  C   UNL     1     170.691 176.888 152.506  1.00  0.00    -0.003 C 
ATOM     18  C   UNL     1     171.025 176.721 153.984  1.00  0.00     0.004 C 
ENDBRANCH  16  17
ENDBRANCH  15  16
ENDBRANCH  14  15
ENDBRANCH  13  14
ENDBRANCH  12  13
ENDBRANCH  11  12
ENDBRANCH   1  11
TORSDOF 14
ENDMDL
MODEL 3
REMARK VINA RESULT:    -4.049      3.148      6.345
REMARK INTER + INTRA:          -9.037
REMARK INTER:                  -7.084
REMARK INTRA:                  -1.952
REMARK UNBOUND:                -1.674
REMARK SMILES CCCCCCCCCCCCCCCC(=O)[O-]
REMARK SMILES IDX 9 1 10 2 11 3 12 4 13 5 14 6 15 7 16 8 17 9 18 10 8 11 7 12
REMARK SMILES IDX 6 13 5 14 4 15 3 16 2 17 1 18
REMARK H PARENT
REMARK Flexibility Score: inf
ROOT
ATOM      1  C   UNL     1     174.209 174.257 151.766  1.00  0.00     0.000 C 
ENDROOT
BRANCH   1   2
ATOM      2  C   UNL     1     175.514 174.464 152.564  1.00  0.00     0.000 C 
BRANCH   2   3
ATOM      3  C   UNL     1     176.574 173.397 152.236  1.00  0.00     0.000 C 
BRANCH   3   4
ATOM      4  C   UNL     1     177.430 173.765 151.013  1.00  0.00     0.000 C 
BRANCH   4   5
ATOM      5  C   UNL     1     177.106 172.900 149.782  1.00  0.00     0.000 C 
BRANCH   5   6
ATOM      6  C   UNL     1     176.386 171.588 150.150  1.00  0.00     0.006 C 
BRANCH   6   7
ATOM      7  C   UNL     1     175.182 171.253 149.256  1.00  0.00     0.053 C 
BRANCH   7   8
ATOM      8  C   UNL     1     173.986 170.834 150.055  1.00  0.00     0.041 C 
ATOM      9  O   UNL     1     172.849 171.304 149.790  1.00  0.00    -0.550 OA
ATOM     10  O   UNL     1     174.124 169.897 151.073  1.00  0.00    -0.550 OA
ENDBRANCH   7   8
ENDBRANCH   6   7
ENDBRANCH   5   6
ENDBRANCH   4   5
ENDBRANCH   3   4
ENDBRANCH   2   3
ENDBRANCH   1   2
BRANCH   1  11
ATOM     11  C   UNL     1     173.960 175.336 150.694  1.00  0.00     0.000 C 
BRANCH  11  12
ATOM     12  C   UNL     1     174.950 176.515 150.716  1.00  0.00    -0.000 C 
BRANCH  12  13
ATOM     13  C   UNL     1     174.335 177.872 151.108  1.00  0.00    -0.000 C 
BRANCH  13  14
ATOM     14  C   UNL     1     174.222 178.059 152.628  1.00  0.00    -0.000 C 
BRANCH  14  15
ATOM     15  C   UNL     1     172.780 177.836 153.102  1.00  0.00    -0.000 C 
BRANCH  15  16
ATOM     16  C   UNL     1     171.780 178.122 151.976  1.00  0.00    -0.000 C 
BRANCH  16  17
ATOM     17  C   UNL     1     170.780 176.969 151.822  1.00  0.00    -0.003 C 
ATOM     18  C   UNL     1     169.934 176.803 153.080  1.00  0.00     0.004 C 
ENDBRANCH  16  17
ENDBRANCH  15  16
ENDBRANCH  14  15
ENDBRANCH  13  14
ENDBRANCH  12  13
ENDBRANCH  11  12
ENDBRANCH   1  11
TORSDOF 14
ENDMDL
MODEL 4
REMARK VINA RESULT:    -4.017      3.479      4.683
REMARK INTER + INTRA:          -8.979
REMARK INTER:                  -7.323
REMARK INTRA:                  -1.656
REMARK UNBOUND:                -1.674
REMARK SMILES CCCCCCCCCCCCCCCC(=O)[O-]
REMARK SMILES IDX 9 1 10 2 11 3 12 4 13 5 14 6 15 7 16 8 17 9 18 10 8 11 7 12
REMARK SMILES IDX 6 13 5 14 4 15 3 16 2 17 1 18
REMARK H PARENT
REMARK Flexibility Score: inf
ROOT
ATOM      1  C   UNL     1     175.877 175.032 152.317  1.00  0.00     0.000 C 
ENDROOT
BRANCH   1   2
ATOM      2  C   UNL     1     175.260 176.433 152.523  1.00  0.00     0.000 C 
BRANCH   2   3
ATOM      3  C   UNL     1     175.171 177.230 151.209  1.00  0.00     0.000 C 
BRANCH   3   4
ATOM      4  C   UNL     1     173.721 177.505 150.776  1.00  0.00     0.000 C 
BRANCH   4   5
ATOM      5  C   UNL     1     172.865 178.089 151.913  1.00  0.00     0.000 C 
BRANCH   5   6
ATOM      6  C   UNL     1     171.816 177.092 152.442  1.00  0.00     0.006 C 
BRANCH   6   7
ATOM      7  C   UNL     1     170.382 177.365 151.963  1.00  0.00     0.053 C 
BRANCH   7   8
ATOM      8  C   UNL     1     169.368 177.073 153.026  1.00  0.00     0.041 C 
ATOM      9  O   UNL     1     168.164 177.402 152.862  1.00  0.00    -0.550 OA
ATOM     10  O   UNL     1     169.748 176.404 154.184  1.00  0.00    -0.550 OA
ENDBRANCH   7   8
ENDBRANCH   6   7
ENDBRANCH   5   6
ENDBRANCH   4   5
ENDBRANCH   3   4
ENDBRANCH   2   3
ENDBRANCH   1   2
BRANCH   1  11
ATOM     11  C   UNL     1     176.321 174.757 150.868  1.00  0.00     0.000 C 
BRANCH  11  12
ATOM     12  C   UNL     1     177.310 173.589 150.701  1.00  0.00    -0.000 C 
BRANCH  12  13
ATOM     13  C   UNL     1     176.869 172.502 149.702  1.00  0.00    -0.000 C 
BRANCH  13  14
ATOM     14  C   UNL     1     176.126 171.338 150.375  1.00  0.00    -0.000 C 
BRANCH  14  15
ATOM     15  C   UNL     1     174.850 170.983 149.604  1.00  0.00    -0.000 C 
BRANCH  15  16
ATOM     16  C   UNL     1     173.863 172.156 149.603  1.00  0.00    -0.000 C 
BRANCH  16  17
ATOM     17  C   UNL     1     173.359 172.452 151.021  1.00  0.00    -0.003 C 
ATOM     18  C   UNL     1     172.663 173.808 151.086  1.00  0.00     0.004 C 
ENDBRANCH  16  17
ENDBRANCH  15  16
ENDBRANCH  14  15
ENDBRANCH  13  14
ENDBRANCH  12  13
ENDBRANCH  11  12
ENDBRANCH   1  11
TORSDOF 14
ENDMDL
MODEL 5
REMARK VINA RESULT:    -4.007      9.991     12.460
REMARK INTER + INTRA:          -8.960
REMARK INTER:                  -6.864
REMARK INTRA:                  -2.096
REMARK UNBOUND:                -1.674
REMARK SMILES CCCCCCCCCCCCCCCC(=O)[O-]
REMARK SMILES IDX 9 1 10 2 11 3 12 4 13 5 14 6 15 7 16 8 17 9 18 10 8 11 7 12
REMARK SMILES IDX 6 13 5 14 4 15 3 16 2 17 1 18
REMARK H PARENT
REMARK Flexibility Score: inf
ROOT
ATOM      1  C   UNL     1     164.384 176.027 152.063  1.00  0.00     0.000 C 
ENDROOT
BRANCH   1   2
ATOM      2  C   UNL     1     164.836 177.470 152.374  1.00  0.00     0.000 C 
BRANCH   2   3
ATOM      3  C   UNL     1     166.253 177.764 151.851  1.00  0.00     0.000 C 
BRANCH   3   4
ATOM      4  C   UNL     1     166.361 177.642 150.322  1.00  0.00     0.000 C 
BRANCH   4   5
ATOM      5  C   UNL     1     167.560 176.784 149.880  1.00  0.00     0.000 C 
BRANCH   5   6
ATOM      6  C   UNL     1     167.136 175.530 149.092  1.00  0.00     0.006 C 
BRANCH   6   7
ATOM      7  C   UNL     1     166.846 174.299 149.964  1.00  0.00     0.053 C 
BRANCH   7   8
ATOM      8  C   UNL     1     167.865 174.124 151.048  1.00  0.00     0.041 C 
ATOM      9  O   UNL     1     169.018 173.701 150.772  1.00  0.00    -0.550 OA
ATOM     10  O   UNL     1     167.551 174.462 152.359  1.00  0.00    -0.550 OA
ENDBRANCH   7   8
ENDBRANCH   6   7
ENDBRANCH   5   6
ENDBRANCH   4   5
ENDBRANCH   3   4
ENDBRANCH   2   3
ENDBRANCH   1   2
BRANCH   1  11
ATOM     11  C   UNL     1     163.192 175.947 151.089  1.00  0.00     0.000 C 
BRANCH  11  12
ATOM     12  C   UNL     1     162.565 177.303 150.716  1.00  0.00    -0.000 C 
BRANCH  12  13
ATOM     13  C   UNL     1     161.041 177.274 150.494  1.00  0.00    -0.000 C 
BRANCH  13  14
ATOM     14  C   UNL     1     160.269 178.086 151.545  1.00  0.00    -0.000 C 
BRANCH  14  15
ATOM     15  C   UNL     1     160.127 177.296 152.852  1.00  0.00    -0.000 C 
BRANCH  15  16
ATOM     16  C   UNL     1     160.602 178.125 154.050  1.00  0.00    -0.000 C 
BRANCH  16  17
ATOM     17  C   UNL     1     161.901 177.556 154.633  1.00  0.00    -0.003 C 
ATOM     18  C   UNL     1     161.799 176.048 154.839  1.00  0.00     0.004 C 
ENDBRANCH  16  17
ENDBRANCH  15  16
ENDBRANCH  14  15
ENDBRANCH  13  14
ENDBRANCH  12  13
ENDBRANCH  11  12
ENDBRANCH   1  11
TORSDOF 14
ENDMDL
MODEL 6
REMARK VINA RESULT:    -4.003      2.032      5.319
REMARK INTER + INTRA:          -8.953
REMARK INTER:                  -6.750
REMARK INTRA:                  -2.203
REMARK UNBOUND:                -1.674
REMARK SMILES CCCCCCCCCCCCCCCC(=O)[O-]
REMARK SMILES IDX 9 1 10 2 11 3 12 4 13 5 14 6 15 7 16 8 17 9 18 10 8 11 7 12
REMARK SMILES IDX 6 13 5 14 4 15 3 16 2 17 1 18
REMARK H PARENT
REMARK Flexibility Score: inf
ROOT
ATOM      1  C   UNL     1     173.647 178.120 151.683  1.00  0.00     0.000 C 
ENDROOT
BRANCH   1   2
ATOM      2  C   UNL     1     174.311 177.088 150.746  1.00  0.00     0.000 C 
BRANCH   2   3
ATOM      3  C   UNL     1     173.606 175.720 150.790  1.00  0.00     0.000 C 
BRANCH   3   4
ATOM      4  C   UNL     1     174.559 174.571 151.159  1.00  0.00     0.000 C 
BRANCH   4   5
ATOM      5  C   UNL     1     176.040 174.977 151.061  1.00  0.00     0.000 C 
BRANCH   5   6
ATOM      6  C   UNL     1     176.999 173.800 151.322  1.00  0.00     0.006 C 
BRANCH   6   7
ATOM      7  C   UNL     1     176.382 172.413 151.085  1.00  0.00     0.053 C 
BRANCH   7   8
ATOM      8  C   UNL     1     176.451 171.550 152.307  1.00  0.00     0.041 C 
ATOM      9  O   UNL     1     177.025 170.430 152.262  1.00  0.00    -0.550 OA
ATOM     10  O   UNL     1     175.911 171.998 153.507  1.00  0.00    -0.550 OA
ENDBRANCH   7   8
ENDBRANCH   6   7
ENDBRANCH   5   6
ENDBRANCH   4   5
ENDBRANCH   3   4
ENDBRANCH   2   3
ENDBRANCH   1   2
BRANCH   1  11
ATOM     11  C   UNL     1     172.727 177.490 152.745  1.00  0.00     0.000 C 
BRANCH  11  12
ATOM     12  C   UNL     1     173.368 177.302 154.133  1.00  0.00    -0.000 C 
BRANCH  12  13
ATOM     13  C   UNL     1     174.788 177.882 154.276  1.00  0.00    -0.000 C 
BRANCH  13  14
ATOM     14  C   UNL     1     175.870 176.795 154.372  1.00  0.00    -0.000 C 
BRANCH  14  15
ATOM     15  C   UNL     1     175.246 175.425 154.663  1.00  0.00    -0.000 C 
BRANCH  15  16
ATOM     16  C   UNL     1     176.040 174.676 155.740  1.00  0.00    -0.000 C 
BRANCH  16  17
ATOM     17  C   UNL     1     175.666 175.170 157.143  1.00  0.00    -0.003 C 
ATOM     18  C   UNL     1     174.153 175.193 157.332  1.00  0.00     0.004 C 
ENDBRANCH  16  17
ENDBRANCH  15  16
ENDBRANCH  14  15
ENDBRANCH  13  14
ENDBRANCH  12  13
ENDBRANCH  11  12
ENDBRANCH   1  11
TORSDOF 14
ENDMDL
MODEL 7
REMARK VINA RESULT:    -3.994      2.474      5.746
REMARK INTER + INTRA:          -8.937
REMARK INTER:                  -6.874
REMARK INTRA:                  -2.063
REMARK UNBOUND:                -1.674
REMARK SMILES CCCCCCCCCCCCCCCC(=O)[O-]
REMARK SMILES IDX 9 1 10 2 11 3 12 4 13 5 14 6 15 7 16 8 17 9 18 10 8 11 7 12
REMARK SMILES IDX 6 13 5 14 4 15 3 16 2 17 1 18
REMARK H PARENT
REMARK Flexibility Score: inf
ROOT
ATOM      1  C   UNL     1     173.690 175.673 150.754  1.00  0.00     0.000 C 
ENDROOT
BRANCH   1   2
ATOM      2  C   UNL     1     174.576 174.468 151.139  1.00  0.00     0.000 C 
BRANCH   2   3
ATOM      3  C   UNL     1     176.072 174.827 151.161  1.00  0.00     0.000 C 
BRANCH   3   4
ATOM      4  C   UNL     1     176.982 173.587 151.141  1.00  0.00     0.000 C 
BRANCH   4   5
ATOM      5  C   UNL     1     177.020 172.904 149.762  1.00  0.00     0.000 C 
BRANCH   5   6
ATOM      6  C   UNL     1     176.452 171.472 149.791  1.00  0.00     0.006 C 
BRANCH   6   7
ATOM      7  C   UNL     1     176.163 170.932 151.200  1.00  0.00     0.053 C 
BRANCH   7   8
ATOM      8  C   UNL     1     174.722 170.564 151.377  1.00  0.00     0.041 C 
ATOM      9  O   UNL     1     174.047 171.072 152.310  1.00  0.00    -0.550 OA
ATOM     10  O   UNL     1     174.114 169.685 150.488  1.00  0.00    -0.550 OA
ENDBRANCH   7   8
ENDBRANCH   6   7
ENDBRANCH   5   6
ENDBRANCH   4   5
ENDBRANCH   3   4
ENDBRANCH   2   3
ENDBRANCH   1   2
BRANCH   1  11
ATOM     11  C   UNL     1     174.481 176.974 150.518  1.00  0.00     0.000 C 
BRANCH  11  12
ATOM     12  C   UNL     1     174.144 178.125 151.484  1.00  0.00    -0.000 C 
BRANCH  12  13
ATOM     13  C   UNL     1     173.960 177.706 152.955  1.00  0.00    -0.000 C 
BRANCH  13  14
ATOM     14  C   UNL     1     175.168 178.063 153.833  1.00  0.00    -0.000 C 
BRANCH  14  15
ATOM     15  C   UNL     1     175.929 176.801 154.258  1.00  0.00    -0.000 C 
BRANCH  15  16
ATOM     16  C   UNL     1     174.962 175.696 154.697  1.00  0.00    -0.000 C 
BRANCH  16  17
ATOM     17  C   UNL     1     175.678 174.648 155.557  1.00  0.00    -0.003 C 
ATOM     18  C   UNL     1     176.269 173.538 154.694  1.00  0.00     0.004 C 
ENDBRANCH  16  17
ENDBRANCH  15  16
ENDBRANCH  14  15
ENDBRANCH  13  14
ENDBRANCH  12  13
ENDBRANCH  11  12
ENDBRANCH   1  11
TORSDOF 14
ENDMDL
MODEL 8
REMARK VINA RESULT:    -3.973      3.459      5.038
REMARK INTER + INTRA:          -8.899
REMARK INTER:                  -6.630
REMARK INTRA:                  -2.269
REMARK UNBOUND:                -1.674
REMARK SMILES CCCCCCCCCCCCCCCC(=O)[O-]
REMARK SMILES IDX 9 1 10 2 11 3 12 4 13 5 14 6 15 7 16 8 17 9 18 10 8 11 7 12
REMARK SMILES IDX 6 13 5 14 4 15 3 16 2 17 1 18
REMARK H PARENT
REMARK Flexibility Score: inf
ROOT
ATOM      1  C   UNL     1     175.874 176.972 153.573  1.00  0.00     0.000 C 
ENDROOT
BRANCH   1   2
ATOM      2  C   UNL     1     175.421 178.125 152.651  1.00  0.00     0.000 C 
BRANCH   2   3
ATOM      3  C   UNL     1     175.343 177.696 151.175  1.00  0.00     0.000 C 
BRANCH   3   4
ATOM      4  C   UNL     1     173.904 177.409 150.714  1.00  0.00     0.000 C 
BRANCH   4   5
ATOM      5  C   UNL     1     173.515 175.929 150.876  1.00  0.00     0.000 C 
BRANCH   5   6
ATOM      6  C   UNL     1     172.298 175.731 151.799  1.00  0.00     0.006 C 
BRANCH   6   7
ATOM      7  C   UNL     1     171.751 177.027 152.417  1.00  0.00     0.053 C 
BRANCH   7   8
ATOM      8  C   UNL     1     170.270 177.156 152.234  1.00  0.00     0.041 C 
ATOM      9  O   UNL     1     169.756 177.015 151.094  1.00  0.00    -0.550 OA
ATOM     10  O   UNL     1     169.453 177.399 153.332  1.00  0.00    -0.550 OA
ENDBRANCH   7   8
ENDBRANCH   6   7
ENDBRANCH   5   6
ENDBRANCH   4   5
ENDBRANCH   3   4
ENDBRANCH   2   3
ENDBRANCH   1   2
BRANCH   1  11
ATOM     11  C   UNL     1     174.973 176.776 154.808  1.00  0.00     0.000 C 
BRANCH  11  12
ATOM     12  C   UNL     1     174.793 175.314 155.256  1.00  0.00    -0.000 C 
BRANCH  12  13
ATOM     13  C   UNL     1     174.681 174.292 154.110  1.00  0.00    -0.000 C 
BRANCH  13  14
ATOM     14  C   UNL     1     175.552 173.046 154.333  1.00  0.00    -0.000 C 
BRANCH  14  15
ATOM     15  C   UNL     1     176.606 172.908 153.228  1.00  0.00    -0.000 C 
BRANCH  15  16
ATOM     16  C   UNL     1     176.001 173.201 151.850  1.00  0.00    -0.000 C 
BRANCH  16  17
ATOM     17  C   UNL     1     176.823 174.257 151.101  1.00  0.00    -0.003 C 
ATOM     18  C   UNL     1     177.560 173.643 149.916  1.00  0.00     0.004 C 
ENDBRANCH  16  17
ENDBRANCH  15  16
ENDBRANCH  14  15
ENDBRANCH  13  14
ENDBRANCH  12  13
ENDBRANCH  11  12
ENDBRANCH   1  11
TORSDOF 14
ENDMDL
MODEL 9
REMARK VINA RESULT:    -3.959     10.016     12.035
REMARK INTER + INTRA:          -8.874
REMARK INTER:                  -6.941
REMARK INTRA:                  -1.933
REMARK UNBOUND:                -1.674
REMARK SMILES CCCCCCCCCCCCCCCC(=O)[O-]
REMARK SMILES IDX 9 1 10 2 11 3 12 4 13 5 14 6 15 7 16 8 17 9 18 10 8 11 7 12
REMARK SMILES IDX 6 13 5 14 4 15 3 16 2 17 1 18
REMARK H PARENT
REMARK Flexibility Score: inf
ROOT
ATOM      1  C   UNL     1     165.174 174.527 150.872  1.00  0.00     0.000 C 
ENDROOT
BRANCH   1   2
ATOM      2  C   UNL     1     163.889 175.383 150.890  1.00  0.00     0.000 C 
BRANCH   2   3
ATOM      3  C   UNL     1     164.187 176.879 151.102  1.00  0.00     0.000 C 
BRANCH   3   4
ATOM      4  C   UNL     1     162.915 177.742 151.113  1.00  0.00     0.000 C 
BRANCH   4   5
ATOM      5  C   UNL     1     161.661 176.954 150.697  1.00  0.00     0.000 C 
BRANCH   5   6
ATOM      6  C   UNL     1     160.469 177.185 151.646  1.00  0.00     0.006 C 
BRANCH   6   7
ATOM      7  C   UNL     1     160.117 175.979 152.530  1.00  0.00     0.053 C 
BRANCH   7   8
ATOM      8  C   UNL     1     160.734 176.080 153.891  1.00  0.00     0.041 C 
ATOM      9  O   UNL     1     160.005 176.188 154.912  1.00  0.00    -0.550 OA
ATOM     10  O   UNL     1     162.115 176.019 154.035  1.00  0.00    -0.550 OA
ENDBRANCH   7   8
ENDBRANCH   6   7
ENDBRANCH   5   6
ENDBRANCH   4   5
ENDBRANCH   3   4
ENDBRANCH   2   3
ENDBRANCH   1   2
BRANCH   1  11
ATOM     11  C   UNL     1     165.843 174.444 149.487  1.00  0.00     0.000 C 
BRANCH  11  12
ATOM     12  C   UNL     1     167.273 175.012 149.420  1.00  0.00    -0.000 C 
BRANCH  12  13
ATOM     13  C   UNL     1     167.358 176.545 149.298  1.00  0.00    -0.000 C 
BRANCH  13  14
ATOM     14  C   UNL     1     168.103 177.197 150.472  1.00  0.00    -0.000 C 
BRANCH  14  15
ATOM     15  C   UNL     1     168.469 176.155 151.536  1.00  0.00    -0.000 C 
BRANCH  15  16
ATOM     16  C   UNL     1     168.534 176.791 152.930  1.00  0.00    -0.000 C 
BRANCH  16  17
ATOM     17  C   UNL     1     167.150 177.274 153.380  1.00  0.00    -0.003 C 
ATOM     18  C   UNL     1     166.353 176.143 154.020  1.00  0.00     0.004 C 
ENDBRANCH  16  17
ENDBRANCH  15  16
ENDBRANCH  14  15
ENDBRANCH  13  14
ENDBRANCH  12  13
ENDBRANCH  11  12
ENDBRANCH   1  11
TORSDOF 14
ENDMDL
