MODEL 1
REMARK VINA RESULT:    -4.243      0.000      0.000
REMARK INTER + INTRA:          -6.898
REMARK INTER:                  -6.475
REMARK INTRA:                  -0.423
REMARK UNBOUND:                -0.423
REMARK SMILES O=C([O-])CCCCCCCCC(=O)[O-]
REMARK SMILES IDX 7 1 6 2 5 3 4 4 2 5 1 6 3 7 8 8 9 9 10 10 11 11 12 12 13 13
REMARK SMILES IDX 14 14
REMARK H PARENT
REMARK Flexibility Score: inf
ROOT
ATOM      1  C   UNL     1      58.143  33.049  76.898  1.00  0.00     0.000 C 
ENDROOT
BRANCH   1   2
ATOM      2  C   UNL     1      58.236  31.557  77.271  1.00  0.00     0.000 C 
BRANCH   2   3
ATOM      3  C   UNL     1      58.435  30.624  76.057  1.00  0.00     0.006 C 
BRANCH   3   4
ATOM      4  C   UNL     1      57.256  29.665  75.854  1.00  0.00     0.053 C 
BRANCH   4   5
ATOM      5  C   UNL     1      56.523  29.997  74.592  1.00  0.00     0.041 C 
ATOM      6  O   UNL     1      55.696  29.182  74.106  1.00  0.00    -0.550 OA
ATOM      7  O   UNL     1      56.791  31.187  73.927  1.00  0.00    -0.550 OA
ENDBRANCH   4   5
ENDBRANCH   3   4
ENDBRANCH   2   3
ENDBRANCH   1   2
BRANCH   1   8
ATOM      8  C   UNL     1      57.705  33.983  78.042  1.00  0.00     0.000 C 
BRANCH   8   9
ATOM      9  C   UNL     1      58.078  33.501  79.456  1.00  0.00     0.000 C 
BRANCH   9  10
ATOM     10  C   UNL     1      58.659  34.622  80.336  1.00  0.00     0.006 C 
BRANCH  10  11
ATOM     11  C   UNL     1      59.061  35.854  79.515  1.00  0.00     0.053 C 
BRANCH  11  12
ATOM     12  C   UNL     1      58.293  37.073  79.927  1.00  0.00     0.041 C 
ATOM     13  O   UNL     1      57.992  37.253  81.136  1.00  0.00    -0.550 OA
ATOM     14  O   UNL     1      57.936  38.025  78.979  1.00  0.00    -0.550 OA
ENDBRANCH  11  12
ENDBRANCH  10  11
ENDBRANCH   9  10
ENDBRANCH   8   9
ENDBRANCH   1   8
TORSDOF 9
ENDMDL
MODEL 2
REMARK VINA RESULT:    -4.235      1.220      1.633
REMARK INTER + INTRA:          -6.886
REMARK INTER:                  -6.613
REMARK INTRA:                  -0.273
REMARK UNBOUND:                -0.423
REMARK SMILES O=C([O-])CCCCCCCCC(=O)[O-]
REMARK SMILES IDX 7 1 6 2 5 3 4 4 2 5 1 6 3 7 8 8 9 9 10 10 11 11 12 12 13 13
REMARK SMILES IDX 14 14
REMARK H PARENT
REMARK Flexibility Score: inf
ROOT
ATOM      1  C   UNL     1      58.009  32.730  78.336  1.00  0.00     0.000 C 
ENDROOT
BRANCH   1   2
ATOM      2  C   UNL     1      58.752  32.063  77.163  1.00  0.00     0.000 C 
BRANCH   2   3
ATOM      3  C   UNL     1      58.005  30.853  76.562  1.00  0.00     0.006 C 
BRANCH   3   4
ATOM      4  C   UNL     1      57.472  31.133  75.151  1.00  0.00     0.053 C 
BRANCH   4   5
ATOM      5  C   UNL     1      56.742  29.940  74.622  1.00  0.00     0.041 C 
ATOM      6  O   UNL     1      55.725  30.090  73.895  1.00  0.00    -0.550 OA
ATOM      7  O   UNL     1      57.156  28.661  74.971  1.00  0.00    -0.550 OA
ENDBRANCH   4   5
ENDBRANCH   3   4
ENDBRANCH   2   3
ENDBRANCH   1   2
BRANCH   1   8
ATOM      8  C   UNL     1      58.893  33.580  79.270  1.00  0.00     0.000 C 
BRANCH   8   9
ATOM      9  C   UNL     1      58.128  34.384  80.337  1.00  0.00     0.000 C 
BRANCH   9  10
ATOM     10  C   UNL     1      58.914  35.606  80.842  1.00  0.00     0.006 C 
BRANCH  10  11
ATOM     11  C   UNL     1      58.244  36.930  80.448  1.00  0.00     0.053 C 
BRANCH  11  12
ATOM     12  C   UNL     1      58.817  37.488  79.180  1.00  0.00     0.041 C 
ATOM     13  O   UNL     1      58.304  38.509  78.649  1.00  0.00    -0.550 OA
ATOM     14  O   UNL     1      59.934  36.899  78.602  1.00  0.00    -0.550 OA
ENDBRANCH  11  12
ENDBRANCH  10  11
ENDBRANCH   9  10
ENDBRANCH   8   9
ENDBRANCH   1   8
TORSDOF 9
ENDMDL
MODEL 3
REMARK VINA RESULT:    -4.234      0.596      7.220
REMARK INTER + INTRA:          -6.884
REMARK INTER:                  -6.416
REMARK INTRA:                  -0.468
REMARK UNBOUND:                -0.423
REMARK SMILES O=C([O-])CCCCCCCCC(=O)[O-]
REMARK SMILES IDX 7 1 6 2 5 3 4 4 2 5 1 6 3 7 8 8 9 9 10 10 11 11 12 12 13 13
REMARK SMILES IDX 14 14
REMARK H PARENT
REMARK Flexibility Score: inf
ROOT
ATOM      1  C   UNL     1      57.813  34.068  77.854  1.00  0.00     0.000 C 
ENDROOT
BRANCH   1   2
ATOM      2  C   UNL     1      57.991  33.562  79.298  1.00  0.00     0.000 C 
BRANCH   2   3
ATOM      3  C   UNL     1      58.726  34.559  80.221  1.00  0.00     0.006 C 
BRANCH   3   4
ATOM      4  C   UNL     1      59.125  35.848  79.492  1.00  0.00     0.053 C 
BRANCH   4   5
ATOM      5  C   UNL     1      58.317  37.003  79.994  1.00  0.00     0.041 C 
ATOM      6  O   UNL     1      58.087  37.128  81.226  1.00  0.00    -0.550 OA
ATOM      7  O   UNL     1      57.778  37.916  79.097  1.00  0.00    -0.550 OA
ENDBRANCH   4   5
ENDBRANCH   3   4
ENDBRANCH   2   3
ENDBRANCH   1   2
BRANCH   1   8
ATOM      8  C   UNL     1      58.017  33.003  76.759  1.00  0.00     0.000 C 
BRANCH   8   9
ATOM      9  C   UNL     1      58.352  31.592  77.276  1.00  0.00     0.000 C 
BRANCH   9  10
ATOM     10  C   UNL     1      58.342  30.529  76.164  1.00  0.00     0.006 C 
BRANCH  10  11
ATOM     11  C   UNL     1      57.867  31.100  74.821  1.00  0.00     0.053 C 
BRANCH  11  12
ATOM     12  C   UNL     1      56.593  30.458  74.362  1.00  0.00     0.041 C 
ATOM     13  O   UNL     1      56.102  29.493  75.005  1.00  0.00    -0.550 OA
ATOM     14  O   UNL     1      55.933  30.943  73.240  1.00  0.00    -0.550 OA
ENDBRANCH  11  12
ENDBRANCH  10  11
ENDBRANCH   9  10
ENDBRANCH   8   9
ENDBRANCH   1   8
TORSDOF 9
ENDMDL
MODEL 4
REMARK VINA RESULT:    -4.211      2.383      3.591
REMARK INTER + INTRA:          -6.849
REMARK INTER:                  -6.029
REMARK INTRA:                  -0.820
REMARK UNBOUND:                -0.423
REMARK SMILES O=C([O-])CCCCCCCCC(=O)[O-]
REMARK SMILES IDX 7 1 6 2 5 3 4 4 2 5 1 6 3 7 8 8 9 9 10 10 11 11 12 12 13 13
REMARK SMILES IDX 14 14
REMARK H PARENT
REMARK Flexibility Score: inf
ROOT
ATOM      1  C   UNL     1      59.005  34.231  80.720  1.00  0.00     0.000 C 
ENDROOT
BRANCH   1   2
ATOM      2  C   UNL     1      57.846  33.627  79.904  1.00  0.00     0.000 C 
BRANCH   2   3
ATOM      3  C   UNL     1      58.275  33.075  78.528  1.00  0.00     0.006 C 
BRANCH   3   4
ATOM      4  C   UNL     1      57.735  33.915  77.364  1.00  0.00     0.053 C 
BRANCH   4   5
ATOM      5  C   UNL     1      57.841  33.156  76.079  1.00  0.00     0.041 C 
ATOM      6  O   UNL     1      58.050  33.767  74.997  1.00  0.00    -0.550 OA
ATOM      7  O   UNL     1      57.659  31.779  76.068  1.00  0.00    -0.550 OA
ENDBRANCH   4   5
ENDBRANCH   3   4
ENDBRANCH   2   3
ENDBRANCH   1   2
BRANCH   1   8
ATOM      8  C   UNL     1      58.822  35.708  81.120  1.00  0.00     0.000 C 
BRANCH   8   9
ATOM      9  C   UNL     1      58.579  36.675  79.948  1.00  0.00     0.000 C 
BRANCH   9  10
ATOM     10  C   UNL     1      57.147  37.236  79.921  1.00  0.00     0.006 C 
BRANCH  10  11
ATOM     11  C   UNL     1      56.543  37.216  78.510  1.00  0.00     0.053 C 
BRANCH  11  12
ATOM     12  C   UNL     1      57.342  38.042  77.549  1.00  0.00     0.041 C 
ATOM     13  O   UNL     1      57.508  39.273  77.758  1.00  0.00    -0.550 OA
ATOM     14  O   UNL     1      57.928  37.447  76.439  1.00  0.00    -0.550 OA
ENDBRANCH  11  12
ENDBRANCH  10  11
ENDBRANCH   9  10
ENDBRANCH   8   9
ENDBRANCH   1   8
TORSDOF 9
ENDMDL
MODEL 5
REMARK VINA RESULT:    -4.197      1.219      7.060
REMARK INTER + INTRA:          -6.828
REMARK INTER:                  -6.303
REMARK INTRA:                  -0.525
REMARK UNBOUND:                -0.423
REMARK SMILES O=C([O-])CCCCCCCCC(=O)[O-]
REMARK SMILES IDX 7 1 6 2 5 3 4 4 2 5 1 6 3 7 8 8 9 9 10 10 11 11 12 12 13 13
REMARK SMILES IDX 14 14
REMARK H PARENT
REMARK Flexibility Score: inf
ROOT
ATOM      1  C   UNL     1      59.036  33.620  79.320  1.00  0.00     0.000 C 
ENDROOT
BRANCH   1   2
ATOM      2  C   UNL     1      58.576  34.190  80.675  1.00  0.00     0.000 C 
BRANCH   2   3
ATOM      3  C   UNL     1      58.845  35.702  80.837  1.00  0.00     0.006 C 
BRANCH   3   4
ATOM      4  C   UNL     1      57.901  36.562  79.987  1.00  0.00     0.053 C 
BRANCH   4   5
ATOM      5  C   UNL     1      58.683  37.423  79.047  1.00  0.00     0.041 C 
ATOM      6  O   UNL     1      58.221  38.532  78.670  1.00  0.00    -0.550 OA
ATOM      7  O   UNL     1      59.901  36.978  78.547  1.00  0.00    -0.550 OA
ENDBRANCH   4   5
ENDBRANCH   3   4
ENDBRANCH   2   3
ENDBRANCH   1   2
BRANCH   1   8
ATOM      8  C   UNL     1      57.928  32.954  78.482  1.00  0.00     0.000 C 
BRANCH   8   9
ATOM      9  C   UNL     1      57.758  33.518  77.060  1.00  0.00     0.000 C 
BRANCH   9  10
ATOM     10  C   UNL     1      58.219  32.537  75.968  1.00  0.00     0.006 C 
BRANCH  10  11
ATOM     11  C   UNL     1      58.223  31.083  76.458  1.00  0.00     0.053 C 
BRANCH  11  12
ATOM     12  C   UNL     1      57.316  30.216  75.640  1.00  0.00     0.041 C 
ATOM     13  O   UNL     1      57.022  29.056  76.035  1.00  0.00    -0.550 OA
ATOM     14  O   UNL     1      56.770  30.699  74.457  1.00  0.00    -0.550 OA
ENDBRANCH  11  12
ENDBRANCH  10  11
ENDBRANCH   9  10
ENDBRANCH   8   9
ENDBRANCH   1   8
TORSDOF 9
ENDMDL
MODEL 6
REMARK VINA RESULT:    -4.176      2.360      6.524
REMARK INTER + INTRA:          -6.795
REMARK INTER:                  -5.908
REMARK INTRA:                  -0.887
REMARK UNBOUND:                -0.423
REMARK SMILES O=C([O-])CCCCCCCCC(=O)[O-]
REMARK SMILES IDX 7 1 6 2 5 3 4 4 2 5 1 6 3 7 8 8 9 9 10 10 11 11 12 12 13 13
REMARK SMILES IDX 14 14
REMARK H PARENT
REMARK Flexibility Score: inf
ROOT
ATOM      1  C   UNL     1      58.539  36.481  80.409  1.00  0.00     0.000 C 
ENDROOT
BRANCH   1   2
ATOM      2  C   UNL     1      57.082  36.894  80.129  1.00  0.00     0.000 C 
BRANCH   2   3
ATOM      3  C   UNL     1      56.741  36.989  78.626  1.00  0.00     0.006 C 
BRANCH   3   4
ATOM      4  C   UNL     1      57.956  37.365  77.770  1.00  0.00     0.053 C 
BRANCH   4   5
ATOM      5  C   UNL     1      57.705  38.648  77.042  1.00  0.00     0.041 C 
ATOM      6  O   UNL     1      57.577  39.725  77.681  1.00  0.00    -0.550 OA
ATOM      7  O   UNL     1      57.565  38.646  75.660  1.00  0.00    -0.550 OA
ENDBRANCH   4   5
ENDBRANCH   3   4
ENDBRANCH   2   3
ENDBRANCH   1   2
BRANCH   1   8
ATOM      8  C   UNL     1      58.731  35.013  80.837  1.00  0.00     0.000 C 
BRANCH   8   9
ATOM      9  C   UNL     1      59.122  34.049  79.703  1.00  0.00     0.000 C 
BRANCH   9  10
ATOM     10  C   UNL     1      57.909  33.340  79.076  1.00  0.00     0.006 C 
BRANCH  10  11
ATOM     11  C   UNL     1      57.783  33.627  77.573  1.00  0.00     0.053 C 
BRANCH  11  12
ATOM     12  C   UNL     1      58.073  32.412  76.747  1.00  0.00     0.041 C 
ATOM     13  O   UNL     1      58.177  31.283  77.296  1.00  0.00    -0.550 OA
ATOM     14  O   UNL     1      58.199  32.521  75.367  1.00  0.00    -0.550 OA
ENDBRANCH  11  12
ENDBRANCH  10  11
ENDBRANCH   9  10
ENDBRANCH   8   9
ENDBRANCH   1   8
TORSDOF 9
ENDMDL
MODEL 7
REMARK VINA RESULT:    -4.154      4.024      5.184
REMARK INTER + INTRA:          -6.762
REMARK INTER:                  -5.875
REMARK INTRA:                  -0.886
REMARK UNBOUND:                -0.423
REMARK SMILES O=C([O-])CCCCCCCCC(=O)[O-]
REMARK SMILES IDX 7 1 6 2 5 3 4 4 2 5 1 6 3 7 8 8 9 9 10 10 11 11 12 12 13 13
REMARK SMILES IDX 14 14
REMARK H PARENT
REMARK Flexibility Score: inf
ROOT
ATOM      1  C   UNL     1      58.261  34.313  77.417  1.00  0.00     0.000 C 
ENDROOT
BRANCH   1   2
ATOM      2  C   UNL     1      57.124  34.922  76.574  1.00  0.00     0.000 C 
BRANCH   2   3
ATOM      3  C   UNL     1      56.464  36.159  77.221  1.00  0.00     0.006 C 
BRANCH   3   4
ATOM      4  C   UNL     1      56.541  37.401  76.326  1.00  0.00     0.053 C 
BRANCH   4   5
ATOM      5  C   UNL     1      57.612  38.327  76.808  1.00  0.00     0.041 C 
ATOM      6  O   UNL     1      57.341  39.228  77.646  1.00  0.00    -0.550 OA
ATOM      7  O   UNL     1      58.899  38.228  76.297  1.00  0.00    -0.550 OA
ENDBRANCH   4   5
ENDBRANCH   3   4
ENDBRANCH   2   3
ENDBRANCH   1   2
BRANCH   1   8
ATOM      8  C   UNL     1      57.836  33.170  78.358  1.00  0.00     0.000 C 
BRANCH   8   9
ATOM      9  C   UNL     1      57.791  33.538  79.852  1.00  0.00     0.000 C 
BRANCH   9  10
ATOM     10  C   UNL     1      59.116  34.128  80.364  1.00  0.00     0.006 C 
BRANCH  10  11
ATOM     11  C   UNL     1      58.899  35.376  81.230  1.00  0.00     0.053 C 
BRANCH  11  12
ATOM     12  C   UNL     1      58.512  36.566  80.406  1.00  0.00     0.041 C 
ATOM     13  O   UNL     1      59.248  36.946  79.457  1.00  0.00    -0.550 OA
ATOM     14  O   UNL     1      57.324  37.238  80.666  1.00  0.00    -0.550 OA
ENDBRANCH  11  12
ENDBRANCH  10  11
ENDBRANCH   9  10
ENDBRANCH   8   9
ENDBRANCH   1   8
TORSDOF 9
ENDMDL
MODEL 8
REMARK VINA RESULT:    -4.135      2.376      6.662
REMARK INTER + INTRA:          -6.733
REMARK INTER:                  -5.958
REMARK INTRA:                  -0.775
REMARK UNBOUND:                -0.423
REMARK SMILES O=C([O-])CCCCCCCCC(=O)[O-]
REMARK SMILES IDX 7 1 6 2 5 3 4 4 2 5 1 6 3 7 8 8 9 9 10 10 11 11 12 12 13 13
REMARK SMILES IDX 14 14
REMARK H PARENT
REMARK Flexibility Score: inf
ROOT
ATOM      1  C   UNL     1      57.246  38.223  77.874  1.00  0.00     0.000 C 
ENDROOT
BRANCH   1   2
ATOM      2  C   UNL     1      56.587  37.580  79.109  1.00  0.00     0.000 C 
BRANCH   2   3
ATOM      3  C   UNL     1      57.590  37.195  80.219  1.00  0.00     0.006 C 
BRANCH   3   4
ATOM      4  C   UNL     1      58.743  36.331  79.694  1.00  0.00     0.053 C 
BRANCH   4   5
ATOM      5  C   UNL     1      58.992  35.177  80.613  1.00  0.00     0.041 C 
ATOM      6  O   UNL     1      59.063  35.362  81.857  1.00  0.00    -0.550 OA
ATOM      7  O   UNL     1      59.195  33.906  80.093  1.00  0.00    -0.550 OA
ENDBRANCH   4   5
ENDBRANCH   3   4
ENDBRANCH   2   3
ENDBRANCH   1   2
BRANCH   1   8
ATOM      8  C   UNL     1      56.927  37.537  76.532  1.00  0.00     0.000 C 
BRANCH   8   9
ATOM      9  C   UNL     1      56.249  36.160  76.648  1.00  0.00     0.000 C 
BRANCH   9  10
ATOM     10  C   UNL     1      57.077  35.029  76.016  1.00  0.00     0.006 C 
BRANCH  10  11
ATOM     11  C   UNL     1      57.643  34.066  77.069  1.00  0.00     0.053 C 
BRANCH  11  12
ATOM     12  C   UNL     1      57.839  32.687  76.516  1.00  0.00     0.041 C 
ATOM     13  O   UNL     1      57.615  32.455  75.299  1.00  0.00    -0.550 OA
ATOM     14  O   UNL     1      58.297  31.665  77.339  1.00  0.00    -0.550 OA
ENDBRANCH  11  12
ENDBRANCH  10  11
ENDBRANCH   9  10
ENDBRANCH   8   9
ENDBRANCH   1   8
TORSDOF 9
ENDMDL
MODEL 9
REMARK VINA RESULT:    -4.103      1.761      2.707
REMARK INTER + INTRA:          -6.684
REMARK INTER:                  -6.053
REMARK INTRA:                  -0.631
REMARK UNBOUND:                -0.423
REMARK SMILES O=C([O-])CCCCCCCCC(=O)[O-]
REMARK SMILES IDX 7 1 6 2 5 3 4 4 2 5 1 6 3 7 8 8 9 9 10 10 11 11 12 12 13 13
REMARK SMILES IDX 14 14
REMARK H PARENT
REMARK Flexibility Score: inf
ROOT
ATOM      1  C   UNL     1      59.092  33.872  79.573  1.00  0.00     0.000 C 
ENDROOT
BRANCH   1   2
ATOM      2  C   UNL     1      57.950  33.107  78.878  1.00  0.00     0.000 C 
BRANCH   2   3
ATOM      3  C   UNL     1      58.191  32.864  77.372  1.00  0.00     0.006 C 
BRANCH   3   4
ATOM      4  C   UNL     1      58.531  31.401  77.060  1.00  0.00     0.053 C 
BRANCH   4   5
ATOM      5  C   UNL     1      57.655  30.884  75.963  1.00  0.00     0.041 C 
ATOM      6  O   UNL     1      57.222  29.702  76.002  1.00  0.00    -0.550 OA
ATOM      7  O   UNL     1      57.358  31.690  74.873  1.00  0.00    -0.550 OA
ENDBRANCH   4   5
ENDBRANCH   3   4
ENDBRANCH   2   3
ENDBRANCH   1   2
BRANCH   1   8
ATOM      8  C   UNL     1      58.714  34.534  80.912  1.00  0.00     0.000 C 
BRANCH   8   9
ATOM      9  C   UNL     1      58.711  36.073  80.900  1.00  0.00     0.000 C 
BRANCH   9  10
ATOM     10  C   UNL     1      57.581  36.663  80.038  1.00  0.00     0.006 C 
BRANCH  10  11
ATOM     11  C   UNL     1      58.120  37.440  78.829  1.00  0.00     0.053 C 
BRANCH  11  12
ATOM     12  C   UNL     1      57.610  36.883  77.535  1.00  0.00     0.041 C 
ATOM     13  O   UNL     1      58.189  37.163  76.452  1.00  0.00    -0.550 OA
ATOM     14  O   UNL     1      56.512  36.030  77.528  1.00  0.00    -0.550 OA
ENDBRANCH  11  12
ENDBRANCH  10  11
ENDBRANCH   9  10
ENDBRANCH   8   9
ENDBRANCH   1   8
TORSDOF 9
ENDMDL
