MODEL 1
REMARK VINA RESULT:    -6.685      0.000      0.000
REMARK INTER + INTRA:          -8.463
REMARK INTER:                  -8.052
REMARK INTRA:                  -0.411
REMARK UNBOUND:                -0.411
REMARK SMILES O=c1c(O)c(-c2ccc(O)cc2O)oc2cc(O)cc(O)c12
REMARK SMILES IDX 5 1 3 2 2 3 1 4 22 5 20 6 19 7 17 8 16 9 15 10 14 11 6 12
REMARK SMILES IDX 8 13 7 14 9 15 11 16 12 17 10 18 13 20 4 22 21 24 18 26
REMARK H PARENT 10 19 13 21 4 23 21 25 18 27
REMARK Flexibility Score: inf
ROOT
ATOM      1  C   UNL     1     135.493 101.635  94.193  1.00  0.00     0.184 A 
ATOM      2  C   UNL     1     136.116 102.808  93.731  1.00  0.00     0.208 A 
ATOM      3  C   UNL     1     135.390 104.008  93.742  1.00  0.00     0.238 A 
ATOM      4  O   UNL     1     135.941 105.070  93.340  1.00  0.00    -0.285 OA
ATOM      5  C   UNL     1     134.055 104.011  94.194  1.00  0.00     0.111 A 
ATOM      6  C   UNL     1     133.253 105.177  94.232  1.00  0.00     0.134 A 
ATOM      7  C   UNL     1     131.928 105.096  94.687  1.00  0.00     0.093 A 
ATOM      8  C   UNL     1     131.391 103.872  95.102  1.00  0.00     0.123 A 
ATOM      9  C   UNL     1     132.177 102.720  95.065  1.00  0.00     0.094 A 
ATOM     10  C   UNL     1     133.500 102.780  94.617  1.00  0.00     0.146 A 
ATOM     11  O   UNL     1     134.228 101.669  94.598  1.00  0.00    -0.451 OA
ENDROOT
BRANCH   1  12
ATOM     12  C   UNL     1     136.203 100.339  94.220  1.00  0.00     0.063 A 
ATOM     13  C   UNL     1     137.807  98.871  95.306  1.00  0.00     0.047 A 
ATOM     14  C   UNL     1     137.116 100.083  95.255  1.00  0.00     0.020 A 
ATOM     15  C   UNL     1     137.605  97.903  94.315  1.00  0.00     0.119 A 
ATOM     16  C   UNL     1     136.716  98.158  93.267  1.00  0.00     0.093 A 
ATOM     17  C   UNL     1     136.021  99.376  93.205  1.00  0.00     0.130 A 
BRANCH  15  18
ATOM     18  O   UNL     1     138.286  96.689  94.359  1.00  0.00    -0.508 OA
ATOM     19  H   UNL     1     138.254  96.092  95.177  1.00  0.00     0.293 HD
ENDBRANCH  15  18
BRANCH  17  20
ATOM     20  O   UNL     1     135.174  99.636  92.128  1.00  0.00    -0.507 OA
ATOM     21  H   UNL     1     134.431  98.999  91.870  1.00  0.00     0.293 HD
ENDBRANCH  17  20
ENDBRANCH   1  12
BRANCH   2  22
ATOM     22  O   UNL     1     137.426 102.764  93.248  1.00  0.00    -0.502 OA
ATOM     23  H   UNL     1     137.643 102.503  92.294  1.00  0.00     0.293 HD
ENDBRANCH   2  22
BRANCH   6  24
ATOM     24  O   UNL     1     133.760 106.412  93.825  1.00  0.00    -0.507 OA
ATOM     25  H   UNL     1     134.710 106.695  94.037  1.00  0.00     0.293 HD
ENDBRANCH   6  24
BRANCH   8  26
ATOM     26  O   UNL     1     130.075 103.791  95.553  1.00  0.00    -0.508 OA
ATOM     27  H   UNL     1     129.857 103.528  96.506  1.00  0.00     0.293 HD
ENDBRANCH   8  26
TORSDOF 6
ENDMDL
MODEL 2
REMARK VINA RESULT:    -6.452      1.564      6.391
REMARK INTER + INTRA:          -8.183
REMARK INTER:                  -7.878
REMARK INTRA:                  -0.305
REMARK UNBOUND:                -0.411
REMARK SMILES O=c1c(O)c(-c2ccc(O)cc2O)oc2cc(O)cc(O)c12
REMARK SMILES IDX 5 1 3 2 2 3 1 4 22 5 20 6 19 7 17 8 16 9 15 10 14 11 6 12
REMARK SMILES IDX 8 13 7 14 9 15 11 16 12 17 10 18 13 20 4 22 21 24 18 26
REMARK H PARENT 10 19 13 21 4 23 21 25 18 27
REMARK Flexibility Score: inf
ROOT
ATOM      1  C   UNL     1     134.851 102.674  94.600  1.00  0.00     0.184 A 
ATOM      2  C   UNL     1     135.812 103.676  94.379  1.00  0.00     0.208 A 
ATOM      3  C   UNL     1     137.165 103.310  94.301  1.00  0.00     0.238 A 
ATOM      4  O   UNL     1     138.036 104.199  94.092  1.00  0.00    -0.285 OA
ATOM      5  C   UNL     1     137.532 101.959  94.464  1.00  0.00     0.111 A 
ATOM      6  C   UNL     1     138.873 101.508  94.403  1.00  0.00     0.134 A 
ATOM      7  C   UNL     1     139.158 100.146  94.585  1.00  0.00     0.093 A 
ATOM      8  C   UNL     1     138.129  99.229  94.827  1.00  0.00     0.123 A 
ATOM      9  C   UNL     1     136.806  99.668  94.888  1.00  0.00     0.094 A 
ATOM     10  C   UNL     1     136.501 101.021  94.708  1.00  0.00     0.146 A 
ATOM     11  O   UNL     1     135.232 101.411  94.765  1.00  0.00    -0.451 OA
ENDROOT
BRANCH   1  12
ATOM     12  C   UNL     1     133.409 102.987  94.683  1.00  0.00     0.063 A 
ATOM     13  C   UNL     1     131.194 102.851  93.692  1.00  0.00     0.047 A 
ATOM     14  C   UNL     1     132.561 102.566  93.647  1.00  0.00     0.020 A 
ATOM     15  C   UNL     1     130.660 103.573  94.766  1.00  0.00     0.119 A 
ATOM     16  C   UNL     1     131.502 104.017  95.790  1.00  0.00     0.093 A 
ATOM     17  C   UNL     1     132.876 103.740  95.751  1.00  0.00     0.130 A 
BRANCH  15  18
ATOM     18  O   UNL     1     129.298 103.858  94.823  1.00  0.00    -0.508 OA
ATOM     19  H   UNL     1     128.772 103.761  95.683  1.00  0.00     0.293 HD
ENDBRANCH  15  18
BRANCH  17  20
ATOM     20  O   UNL     1     133.711 104.231  96.754  1.00  0.00    -0.507 OA
ATOM     21  H   UNL     1     133.657 105.192  97.068  1.00  0.00     0.293 HD
ENDBRANCH  17  20
ENDBRANCH   1  12
BRANCH   2  22
ATOM     22  O   UNL     1     135.421 105.012  94.267  1.00  0.00    -0.502 OA
ATOM     23  H   UNL     1     134.483 105.281  93.995  1.00  0.00     0.293 HD
ENDBRANCH   2  22
BRANCH   6  24
ATOM     24  O   UNL     1     139.920 102.398  94.164  1.00  0.00    -0.507 OA
ATOM     25  H   UNL     1     139.803 103.214  93.573  1.00  0.00     0.293 HD
ENDBRANCH   6  24
BRANCH   8  26
ATOM     26  O   UNL     1     138.412  97.877  95.009  1.00  0.00    -0.508 OA
ATOM     27  H   UNL     1     139.095  97.565  95.689  1.00  0.00     0.293 HD
ENDBRANCH   8  26
TORSDOF 6
ENDMDL
MODEL 3
REMARK VINA RESULT:    -5.962      1.937      2.598
REMARK INTER + INTRA:          -7.593
REMARK INTER:                  -7.170
REMARK INTRA:                  -0.423
REMARK UNBOUND:                -0.411
REMARK SMILES O=c1c(O)c(-c2ccc(O)cc2O)oc2cc(O)cc(O)c12
REMARK SMILES IDX 5 1 3 2 2 3 1 4 22 5 20 6 19 7 17 8 16 9 15 10 14 11 6 12
REMARK SMILES IDX 8 13 7 14 9 15 11 16 12 17 10 18 13 20 4 22 21 24 18 26
REMARK H PARENT 10 19 13 21 4 23 21 25 18 27
REMARK Flexibility Score: inf
ROOT
ATOM      1  C   UNL     1     135.248 101.258  93.711  1.00  0.00     0.184 A 
ATOM      2  C   UNL     1     135.084 101.396  92.322  1.00  0.00     0.208 A 
ATOM      3  C   UNL     1     133.937 102.044  91.837  1.00  0.00     0.238 A 
ATOM      4  O   UNL     1     133.783 102.184  90.593  1.00  0.00    -0.285 OA
ATOM      5  C   UNL     1     132.971 102.523  92.746  1.00  0.00     0.111 A 
ATOM      6  C   UNL     1     131.787 103.184  92.339  1.00  0.00     0.134 A 
ATOM      7  C   UNL     1     130.869 103.624  93.305  1.00  0.00     0.093 A 
ATOM      8  C   UNL     1     131.113 103.414  94.667  1.00  0.00     0.123 A 
ATOM      9  C   UNL     1     132.278 102.763  95.073  1.00  0.00     0.094 A 
ATOM     10  C   UNL     1     133.207 102.319  94.126  1.00  0.00     0.146 A 
ATOM     11  O   UNL     1     134.311 101.707  94.540  1.00  0.00    -0.451 OA
ENDROOT
BRANCH   1  12
ATOM     12  C   UNL     1     136.436 100.596  94.290  1.00  0.00     0.063 A 
ATOM     13  C   UNL     1     137.586  98.537  94.878  1.00  0.00     0.047 A 
ATOM     14  C   UNL     1     136.481  99.194  94.332  1.00  0.00     0.020 A 
ATOM     15  C   UNL     1     138.655  99.274  95.401  1.00  0.00     0.119 A 
ATOM     16  C   UNL     1     138.609 100.671  95.384  1.00  0.00     0.093 A 
ATOM     17  C   UNL     1     137.500 101.339  94.843  1.00  0.00     0.130 A 
BRANCH  15  18
ATOM     18  O   UNL     1     139.765  98.629  95.943  1.00  0.00    -0.508 OA
ATOM     19  H   UNL     1     140.016  97.687  95.667  1.00  0.00     0.293 HD
ENDBRANCH  15  18
BRANCH  17  20
ATOM     20  O   UNL     1     137.445 102.732  94.878  1.00  0.00    -0.507 OA
ATOM     21  H   UNL     1     136.839 103.256  94.259  1.00  0.00     0.293 HD
ENDBRANCH  17  20
ENDBRANCH   1  12
BRANCH   2  22
ATOM     22  O   UNL     1     136.037 100.871  91.446  1.00  0.00    -0.502 OA
ATOM     23  H   UNL     1     136.396  99.928  91.538  1.00  0.00     0.293 HD
ENDBRANCH   2  22
BRANCH   6  24
ATOM     24  O   UNL     1     131.516 103.407  90.989  1.00  0.00    -0.507 OA
ATOM     25  H   UNL     1     132.212 103.793  90.361  1.00  0.00     0.293 HD
ENDBRANCH   6  24
BRANCH   8  26
ATOM     26  O   UNL     1     130.201 103.850  95.626  1.00  0.00    -0.508 OA
ATOM     27  H   UNL     1     130.503 104.328  96.466  1.00  0.00     0.293 HD
ENDBRANCH   8  26
TORSDOF 6
ENDMDL
MODEL 4
REMARK VINA RESULT:    -5.632      1.665      6.575
REMARK INTER + INTRA:          -7.195
REMARK INTER:                  -6.883
REMARK INTRA:                  -0.312
REMARK UNBOUND:                -0.411
REMARK SMILES O=c1c(O)c(-c2ccc(O)cc2O)oc2cc(O)cc(O)c12
REMARK SMILES IDX 5 1 3 2 2 3 1 4 22 5 20 6 19 7 17 8 16 9 15 10 14 11 6 12
REMARK SMILES IDX 8 13 7 14 9 15 11 16 12 17 10 18 13 20 4 22 21 24 18 26
REMARK H PARENT 10 19 13 21 4 23 21 25 18 27
REMARK Flexibility Score: inf
ROOT
ATOM      1  C   UNL     1     134.257 102.621  94.117  1.00  0.00     0.184 A 
ATOM      2  C   UNL     1     135.486 102.781  94.781  1.00  0.00     0.208 A 
ATOM      3  C   UNL     1     136.539 101.904  94.476  1.00  0.00     0.238 A 
ATOM      4  O   UNL     1     137.650 102.044  95.057  1.00  0.00    -0.285 OA
ATOM      5  C   UNL     1     136.339 100.877  93.531  1.00  0.00     0.111 A 
ATOM      6  C   UNL     1     137.346  99.951  93.170  1.00  0.00     0.134 A 
ATOM      7  C   UNL     1     137.066  98.950  92.226  1.00  0.00     0.093 A 
ATOM      8  C   UNL     1     135.799  98.859  91.640  1.00  0.00     0.123 A 
ATOM      9  C   UNL     1     134.802  99.770  91.992  1.00  0.00     0.094 A 
ATOM     10  C   UNL     1     135.062 100.776  92.929  1.00  0.00     0.146 A 
ATOM     11  O   UNL     1     134.097 101.633  93.242  1.00  0.00    -0.451 OA
ENDROOT
BRANCH   1  12
ATOM     12  C   UNL     1     133.111 103.515  94.382  1.00  0.00     0.063 A 
ATOM     13  C   UNL     1     130.864 103.806  95.262  1.00  0.00     0.047 A 
ATOM     14  C   UNL     1     131.967 102.990  95.002  1.00  0.00     0.020 A 
ATOM     15  C   UNL     1     130.885 105.156  94.891  1.00  0.00     0.119 A 
ATOM     16  C   UNL     1     132.011 105.683  94.252  1.00  0.00     0.093 A 
ATOM     17  C   UNL     1     133.121 104.869  93.982  1.00  0.00     0.130 A 
BRANCH  15  18
ATOM     18  O   UNL     1     129.792 105.981  95.150  1.00  0.00    -0.508 OA
ATOM     19  H   UNL     1     129.036 106.082  94.482  1.00  0.00     0.293 HD
ENDBRANCH  15  18
BRANCH  17  20
ATOM     20  O   UNL     1     134.217 105.395  93.300  1.00  0.00    -0.507 OA
ATOM     21  H   UNL     1     134.555 106.333  93.479  1.00  0.00     0.293 HD
ENDBRANCH  17  20
ENDBRANCH   1  12
BRANCH   2  22
ATOM     22  O   UNL     1     135.639 103.779  95.745  1.00  0.00    -0.502 OA
ATOM     23  H   UNL     1     135.778 103.569  96.726  1.00  0.00     0.293 HD
ENDBRANCH   2  22
BRANCH   6  24
ATOM     24  O   UNL     1     138.619 100.015  93.737  1.00  0.00    -0.507 OA
ATOM     25  H   UNL     1     139.239 100.800  93.571  1.00  0.00     0.293 HD
ENDBRANCH   6  24
BRANCH   8  26
ATOM     26  O   UNL     1     135.520  97.865  90.704  1.00  0.00    -0.508 OA
ATOM     27  H   UNL     1     136.259  97.348  90.244  1.00  0.00     0.293 HD
ENDBRANCH   8  26
TORSDOF 6
ENDMDL
MODEL 5
REMARK VINA RESULT:    -5.598      1.530      6.781
REMARK INTER + INTRA:          -7.155
REMARK INTER:                  -6.753
REMARK INTRA:                  -0.401
REMARK UNBOUND:                -0.411
REMARK SMILES O=c1c(O)c(-c2ccc(O)cc2O)oc2cc(O)cc(O)c12
REMARK SMILES IDX 5 1 3 2 2 3 1 4 22 5 20 6 19 7 17 8 16 9 15 10 14 11 6 12
REMARK SMILES IDX 8 13 7 14 9 15 11 16 12 17 10 18 13 20 4 22 21 24 18 26
REMARK H PARENT 10 19 13 21 4 23 21 25 18 27
REMARK Flexibility Score: inf
ROOT
ATOM      1  C   UNL     1     134.029 101.853  93.552  1.00  0.00     0.184 A 
ATOM      2  C   UNL     1     133.927 101.266  92.279  1.00  0.00     0.208 A 
ATOM      3  C   UNL     1     134.857 100.283  91.910  1.00  0.00     0.238 A 
ATOM      4  O   UNL     1     134.769  99.740  90.774  1.00  0.00    -0.285 OA
ATOM      5  C   UNL     1     135.881  99.920  92.810  1.00  0.00     0.111 A 
ATOM      6  C   UNL     1     136.860  98.941  92.514  1.00  0.00     0.134 A 
ATOM      7  C   UNL     1     137.853  98.643  93.459  1.00  0.00     0.093 A 
ATOM      8  C   UNL     1     137.885  99.304  94.692  1.00  0.00     0.123 A 
ATOM      9  C   UNL     1     136.922 100.270  94.988  1.00  0.00     0.094 A 
ATOM     10  C   UNL     1     135.923 100.581  94.061  1.00  0.00     0.146 A 
ATOM     11  O   UNL     1     135.015 101.500  94.370  1.00  0.00    -0.451 OA
ENDROOT
BRANCH   1  12
ATOM     12  C   UNL     1     133.077 102.886  94.009  1.00  0.00     0.063 A 
ATOM     13  C   UNL     1     131.013 103.443  95.166  1.00  0.00     0.047 A 
ATOM     14  C   UNL     1     131.936 102.492  94.725  1.00  0.00     0.020 A 
ATOM     15  C   UNL     1     131.211 104.800  94.884  1.00  0.00     0.119 A 
ATOM     16  C   UNL     1     132.332 105.200  94.151  1.00  0.00     0.093 A 
ATOM     17  C   UNL     1     133.262 104.251  93.700  1.00  0.00     0.130 A 
BRANCH  15  18
ATOM     18  O   UNL     1     130.299 105.757  95.323  1.00  0.00    -0.508 OA
ATOM     19  H   UNL     1     129.384 105.851  94.898  1.00  0.00     0.293 HD
ENDBRANCH  15  18
BRANCH  17  20
ATOM     20  O   UNL     1     134.350 104.659  92.928  1.00  0.00    -0.507 OA
ATOM     21  H   UNL     1     134.878 104.003  92.366  1.00  0.00     0.293 HD
ENDBRANCH  17  20
ENDBRANCH   1  12
BRANCH   2  22
ATOM     22  O   UNL     1     132.929 101.679  91.393  1.00  0.00    -0.502 OA
ATOM     23  H   UNL     1     132.342 102.484  91.576  1.00  0.00     0.293 HD
ENDBRANCH   2  22
BRANCH   6  24
ATOM     24  O   UNL     1     136.855  98.265  91.293  1.00  0.00    -0.507 OA
ATOM     25  H   UNL     1     137.423  98.570  90.511  1.00  0.00     0.293 HD
ENDBRANCH   6  24
BRANCH   8  26
ATOM     26  O   UNL     1     138.871  99.008  95.631  1.00  0.00    -0.508 OA
ATOM     27  H   UNL     1     138.643  98.598  96.528  1.00  0.00     0.293 HD
ENDBRANCH   8  26
TORSDOF 6
ENDMDL
MODEL 6
REMARK VINA RESULT:    -5.568      2.389      3.668
REMARK INTER + INTRA:          -7.117
REMARK INTER:                  -6.694
REMARK INTRA:                  -0.424
REMARK UNBOUND:                -0.411
REMARK SMILES O=c1c(O)c(-c2ccc(O)cc2O)oc2cc(O)cc(O)c12
REMARK SMILES IDX 5 1 3 2 2 3 1 4 22 5 20 6 19 7 17 8 16 9 15 10 14 11 6 12
REMARK SMILES IDX 8 13 7 14 9 15 11 16 12 17 10 18 13 20 4 22 21 24 18 26
REMARK H PARENT 10 19 13 21 4 23 21 25 18 27
REMARK Flexibility Score: inf
ROOT
ATOM      1  C   UNL     1     135.199 102.796  94.331  1.00  0.00     0.184 A 
ATOM      2  C   UNL     1     134.588 103.572  95.331  1.00  0.00     0.208 A 
ATOM      3  C   UNL     1     133.187 103.639  95.375  1.00  0.00     0.238 A 
ATOM      4  O   UNL     1     132.627 104.323  96.275  1.00  0.00    -0.285 OA
ATOM      5  C   UNL     1     132.426 102.947  94.410  1.00  0.00     0.111 A 
ATOM      6  C   UNL     1     131.011 102.966  94.382  1.00  0.00     0.134 A 
ATOM      7  C   UNL     1     130.326 102.258  93.383  1.00  0.00     0.093 A 
ATOM      8  C   UNL     1     131.028 101.535  92.413  1.00  0.00     0.123 A 
ATOM      9  C   UNL     1     132.423 101.513  92.436  1.00  0.00     0.094 A 
ATOM     10  C   UNL     1     133.125 102.210  93.424  1.00  0.00     0.146 A 
ATOM     11  O   UNL     1     134.453 102.169  93.427  1.00  0.00    -0.451 OA
ENDROOT
BRANCH   1  12
ATOM     12  C   UNL     1     136.668 102.673  94.233  1.00  0.00     0.063 A 
ATOM     13  C   UNL     1     138.802 103.677  93.644  1.00  0.00     0.047 A 
ATOM     14  C   UNL     1     137.413 103.762  93.754  1.00  0.00     0.020 A 
ATOM     15  C   UNL     1     139.465 102.496  93.998  1.00  0.00     0.119 A 
ATOM     16  C   UNL     1     138.730 101.398  94.454  1.00  0.00     0.093 A 
ATOM     17  C   UNL     1     137.333 101.473  94.563  1.00  0.00     0.130 A 
BRANCH  15  18
ATOM     18  O   UNL     1     140.851 102.402  93.897  1.00  0.00    -0.508 OA
ATOM     19  H   UNL     1     141.298 102.062  93.053  1.00  0.00     0.293 HD
ENDBRANCH  15  18
BRANCH  17  20
ATOM     20  O   UNL     1     136.609 100.354  94.972  1.00  0.00    -0.507 OA
ATOM     21  H   UNL     1     135.984  99.865  94.343  1.00  0.00     0.293 HD
ENDBRANCH  17  20
ENDBRANCH   1  12
BRANCH   2  22
ATOM     22  O   UNL     1     135.370 104.282  96.245  1.00  0.00    -0.502 OA
ATOM     23  H   UNL     1     135.992 103.821  96.899  1.00  0.00     0.293 HD
ENDBRANCH   2  22
BRANCH   6  24
ATOM     24  O   UNL     1     130.282 103.678  95.335  1.00  0.00    -0.507 OA
ATOM     25  H   UNL     1     130.485 103.605  96.326  1.00  0.00     0.293 HD
ENDBRANCH   6  24
BRANCH   8  26
ATOM     26  O   UNL     1     130.348 100.833  91.419  1.00  0.00    -0.508 OA
ATOM     27  H   UNL     1     130.241 101.207  90.485  1.00  0.00     0.293 HD
ENDBRANCH   8  26
TORSDOF 6
ENDMDL
MODEL 7
REMARK VINA RESULT:    -5.485      2.841      6.660
REMARK INTER + INTRA:          -7.019
REMARK INTER:                  -6.709
REMARK INTRA:                  -0.310
REMARK UNBOUND:                -0.411
REMARK SMILES O=c1c(O)c(-c2ccc(O)cc2O)oc2cc(O)cc(O)c12
REMARK SMILES IDX 5 1 3 2 2 3 1 4 22 5 20 6 19 7 17 8 16 9 15 10 14 11 6 12
REMARK SMILES IDX 8 13 7 14 9 15 11 16 12 17 10 18 13 20 4 22 21 24 18 26
REMARK H PARENT 10 19 13 21 4 23 21 25 18 27
REMARK Flexibility Score: inf
ROOT
ATOM      1  C   UNL     1     136.328 102.509  94.451  1.00  0.00     0.184 A 
ATOM      2  C   UNL     1     136.939 101.252  94.597  1.00  0.00     0.208 A 
ATOM      3  C   UNL     1     138.324 101.146  94.396  1.00  0.00     0.238 A 
ATOM      4  O   UNL     1     138.887 100.025  94.535  1.00  0.00    -0.285 OA
ATOM      5  C   UNL     1     139.065 102.289  94.034  1.00  0.00     0.111 A 
ATOM      6  C   UNL     1     140.463 102.266  93.809  1.00  0.00     0.134 A 
ATOM      7  C   UNL     1     141.127 103.446  93.442  1.00  0.00     0.093 A 
ATOM      8  C   UNL     1     140.422 104.646  93.295  1.00  0.00     0.123 A 
ATOM      9  C   UNL     1     139.044 104.673  93.516  1.00  0.00     0.094 A 
ATOM     10  C   UNL     1     138.363 103.509  93.884  1.00  0.00     0.146 A 
ATOM     11  O   UNL     1     137.052 103.564  94.093  1.00  0.00    -0.451 OA
ENDROOT
BRANCH   1  12
ATOM     12  C   UNL     1     134.876 102.694  94.658  1.00  0.00     0.063 A 
ATOM     13  C   UNL     1     132.598 102.126  94.029  1.00  0.00     0.047 A 
ATOM     14  C   UNL     1     133.976 101.970  93.862  1.00  0.00     0.020 A 
ATOM     15  C   UNL     1     132.102 103.020  94.986  1.00  0.00     0.119 A 
ATOM     16  C   UNL     1     132.991 103.763  95.767  1.00  0.00     0.093 A 
ATOM     17  C   UNL     1     134.376 103.617  95.602  1.00  0.00     0.130 A 
BRANCH  15  18
ATOM     18  O   UNL     1     130.730 103.180  95.164  1.00  0.00    -0.508 OA
ATOM     19  H   UNL     1     130.224 103.942  94.726  1.00  0.00     0.293 HD
ENDBRANCH  15  18
BRANCH  17  20
ATOM     20  O   UNL     1     135.251 104.401  96.354  1.00  0.00    -0.507 OA
ATOM     21  H   UNL     1     136.106 104.772  95.960  1.00  0.00     0.293 HD
ENDBRANCH  17  20
ENDBRANCH   1  12
BRANCH   2  22
ATOM     22  O   UNL     1     136.171 100.129  94.913  1.00  0.00    -0.502 OA
ATOM     23  H   UNL     1     135.640  99.622  94.215  1.00  0.00     0.293 HD
ENDBRANCH   2  22
BRANCH   6  24
ATOM     24  O   UNL     1     141.194 101.086  93.947  1.00  0.00    -0.507 OA
ATOM     25  H   UNL     1     140.801 100.264  94.390  1.00  0.00     0.293 HD
ENDBRANCH   6  24
BRANCH   8  26
ATOM     26  O   UNL     1     141.082 105.817  92.930  1.00  0.00    -0.508 OA
ATOM     27  H   UNL     1     140.642 106.725  93.023  1.00  0.00     0.293 HD
ENDBRANCH   8  26
TORSDOF 6
ENDMDL
MODEL 8
REMARK VINA RESULT:    -5.365      2.135      2.567
REMARK INTER + INTRA:          -6.873
REMARK INTER:                  -6.475
REMARK INTRA:                  -0.398
REMARK UNBOUND:                -0.411
REMARK SMILES O=c1c(O)c(-c2ccc(O)cc2O)oc2cc(O)cc(O)c12
REMARK SMILES IDX 5 1 3 2 2 3 1 4 22 5 20 6 19 7 17 8 16 9 15 10 14 11 6 12
REMARK SMILES IDX 8 13 7 14 9 15 11 16 12 17 10 18 13 20 4 22 21 24 18 26
REMARK H PARENT 10 19 13 21 4 23 21 25 18 27
REMARK Flexibility Score: inf
ROOT
ATOM      1  C   UNL     1     134.895 101.346  92.946  1.00  0.00     0.184 A 
ATOM      2  C   UNL     1     135.702 102.095  93.821  1.00  0.00     0.208 A 
ATOM      3  C   UNL     1     135.087 102.993  94.707  1.00  0.00     0.238 A 
ATOM      4  O   UNL     1     135.799 103.663  95.505  1.00  0.00    -0.285 OA
ATOM      5  C   UNL     1     133.684 103.140  94.688  1.00  0.00     0.111 A 
ATOM      6  C   UNL     1     132.987 104.026  95.544  1.00  0.00     0.134 A 
ATOM      7  C   UNL     1     131.590 104.122  95.457  1.00  0.00     0.093 A 
ATOM      8  C   UNL     1     130.879 103.352  94.531  1.00  0.00     0.123 A 
ATOM      9  C   UNL     1     131.561 102.477  93.685  1.00  0.00     0.094 A 
ATOM     10  C   UNL     1     132.953 102.365  93.756  1.00  0.00     0.146 A 
ATOM     11  O   UNL     1     133.577 101.520  92.943  1.00  0.00    -0.451 OA
ENDROOT
BRANCH   1  12
ATOM     12  C   UNL     1     135.476 100.375  91.996  1.00  0.00     0.063 A 
ATOM     13  C   UNL     1     136.643  98.275  91.625  1.00  0.00     0.047 A 
ATOM     14  C   UNL     1     136.079  99.211  92.496  1.00  0.00     0.020 A 
ATOM     15  C   UNL     1     136.622  98.499  90.243  1.00  0.00     0.119 A 
ATOM     16  C   UNL     1     136.044  99.667  89.737  1.00  0.00     0.093 A 
ATOM     17  C   UNL     1     135.481 100.614  90.605  1.00  0.00     0.130 A 
BRANCH  15  18
ATOM     18  O   UNL     1     137.178  97.570  89.365  1.00  0.00    -0.508 OA
ATOM     19  H   UNL     1     136.902  96.595  89.382  1.00  0.00     0.293 HD
ENDBRANCH  15  18
BRANCH  17  20
ATOM     20  O   UNL     1     134.952 101.797  90.090  1.00  0.00    -0.507 OA
ATOM     21  H   UNL     1     135.084 102.687  90.557  1.00  0.00     0.293 HD
ENDBRANCH  17  20
ENDBRANCH   1  12
BRANCH   2  22
ATOM     22  O   UNL     1     137.091 101.959  93.785  1.00  0.00    -0.502 OA
ATOM     23  H   UNL     1     137.545 101.117  93.452  1.00  0.00     0.293 HD
ENDBRANCH   2  22
BRANCH   6  24
ATOM     24  O   UNL     1     133.669 104.808  96.477  1.00  0.00    -0.507 OA
ATOM     25  H   UNL     1     134.567 105.229  96.268  1.00  0.00     0.293 HD
ENDBRANCH   6  24
BRANCH   8  26
ATOM     26  O   UNL     1     129.492 103.448  94.444  1.00  0.00    -0.508 OA
ATOM     27  H   UNL     1     129.044 104.166  93.888  1.00  0.00     0.293 HD
ENDBRANCH   8  26
TORSDOF 6
ENDMDL
MODEL 9
REMARK VINA RESULT:    -5.281     13.712     15.954
REMARK INTER + INTRA:          -6.772
REMARK INTER:                  -6.366
REMARK INTRA:                  -0.406
REMARK UNBOUND:                -0.411
REMARK SMILES O=c1c(O)c(-c2ccc(O)cc2O)oc2cc(O)cc(O)c12
REMARK SMILES IDX 5 1 3 2 2 3 1 4 22 5 20 6 19 7 17 8 16 9 15 10 14 11 6 12
REMARK SMILES IDX 8 13 7 14 9 15 11 16 12 17 10 18 13 20 4 22 21 24 18 26
REMARK H PARENT 10 19 13 21 4 23 21 25 18 27
REMARK Flexibility Score: inf
ROOT
ATOM      1  C   UNL     1     132.271  94.610 106.336  1.00  0.00     0.184 A 
ATOM      2  C   UNL     1     130.883  94.475 106.157  1.00  0.00     0.208 A 
ATOM      3  C   UNL     1     130.310  93.198 106.249  1.00  0.00     0.238 A 
ATOM      4  O   UNL     1     129.064  93.065 106.102  1.00  0.00    -0.285 OA
ATOM      5  C   UNL     1     131.134  92.081 106.498  1.00  0.00     0.111 A 
ATOM      6  C   UNL     1     130.636  90.760 106.601  1.00  0.00     0.134 A 
ATOM      7  C   UNL     1     131.523  89.699 106.842  1.00  0.00     0.093 A 
ATOM      8  C   UNL     1     132.895  89.935 106.978  1.00  0.00     0.123 A 
ATOM      9  C   UNL     1     133.391  91.235 106.877  1.00  0.00     0.094 A 
ATOM     10  C   UNL     1     132.524  92.306 106.640  1.00  0.00     0.146 A 
ATOM     11  O   UNL     1     133.021  93.535 106.554  1.00  0.00    -0.451 OA
ENDROOT
BRANCH   1  12
ATOM     12  C   UNL     1     132.938  95.927 106.263  1.00  0.00     0.063 A 
ATOM     13  C   UNL     1     133.606  97.982 107.377  1.00  0.00     0.047 A 
ATOM     14  C   UNL     1     132.989  96.730 107.414  1.00  0.00     0.020 A 
ATOM     15  C   UNL     1     134.170  98.453 106.185  1.00  0.00     0.119 A 
ATOM     16  C   UNL     1     134.103  97.671 105.029  1.00  0.00     0.093 A 
ATOM     17  C   UNL     1     133.480  96.415 105.055  1.00  0.00     0.130 A 
BRANCH  15  18
ATOM     18  O   UNL     1     134.793  99.699 106.139  1.00  0.00    -0.508 OA
ATOM     19  H   UNL     1     135.798  99.785 106.047  1.00  0.00     0.293 HD
ENDBRANCH  15  18
BRANCH  17  20
ATOM     20  O   UNL     1     133.378  95.667 103.883  1.00  0.00    -0.507 OA
ATOM     21  H   UNL     1     132.596  95.775 103.249  1.00  0.00     0.293 HD
ENDBRANCH  17  20
ENDBRANCH   1  12
BRANCH   2  22
ATOM     22  O   UNL     1     130.100  95.595 105.868  1.00  0.00    -0.502 OA
ATOM     23  H   UNL     1     129.204  95.759 106.310  1.00  0.00     0.293 HD
ENDBRANCH   2  22
BRANCH   6  24
ATOM     24  O   UNL     1     129.273  90.493 106.469  1.00  0.00    -0.507 OA
ATOM     25  H   UNL     1     128.668  90.390 107.276  1.00  0.00     0.293 HD
ENDBRANCH   6  24
BRANCH   8  26
ATOM     26  O   UNL     1     133.776  88.881 107.216  1.00  0.00    -0.508 OA
ATOM     27  H   UNL     1     133.597  88.193 107.937  1.00  0.00     0.293 HD
ENDBRANCH   8  26
TORSDOF 6
ENDMDL
