MODEL 1
REMARK VINA RESULT:    -7.033      0.000      0.000
REMARK INTER + INTRA:          -8.609
REMARK INTER:                  -8.678
REMARK INTRA:                   0.069
REMARK UNBOUND:                 0.069
REMARK SMILES Oc1cc(O)c2cc(O)c(-c3cc(O)c(O)c(O)c3)[o+]c2c1
REMARK SMILES IDX 10 1 20 2 21 3 22 4 2 5 3 6 4 7 6 8 7 9 8 10 11 11 12 12
REMARK SMILES IDX 13 13 19 14 15 15 17 16 14 17 16 19 18 21 9 23 1 25 5 27
REMARK H PARENT 14 18 16 20 18 22 9 24 1 26 5 28
REMARK Flexibility Score: inf
ROOT
ATOM      1  C   UNL     1     -21.645  34.780 -38.228  1.00  0.00     0.402 A 
ATOM      2  O   UNL     1     -21.514  33.828 -39.149  1.00  0.00    -0.202 OA
ATOM      3  C   UNL     1     -21.785  32.547 -38.919  1.00  0.00     0.368 A 
ATOM      4  C   UNL     1     -21.621  31.621 -39.953  1.00  0.00     0.162 A 
ATOM      5  C   UNL     1     -21.902  30.268 -39.739  1.00  0.00     0.128 A 
ATOM      6  C   UNL     1     -22.349  29.841 -38.487  1.00  0.00     0.093 A 
ATOM      7  C   UNL     1     -22.522  30.749 -37.435  1.00  0.00     0.136 A 
ATOM      8  C   UNL     1     -22.236  32.123 -37.646  1.00  0.00     0.125 A 
ATOM      9  C   UNL     1     -22.368  33.102 -36.647  1.00  0.00     0.078 A 
ATOM     10  C   UNL     1     -22.062  34.437 -36.930  1.00  0.00     0.223 A 
ENDROOT
BRANCH   1  11
ATOM     11  C   UNL     1     -21.320  36.173 -38.610  1.00  0.00     0.091 A 
ATOM     12  C   UNL     1     -21.774  36.676 -39.838  1.00  0.00     0.068 A 
ATOM     13  C   UNL     1     -21.503  37.995 -40.222  1.00  0.00     0.162 A 
ATOM     14  C   UNL     1     -20.616  37.023 -37.743  1.00  0.00     0.068 A 
ATOM     15  C   UNL     1     -20.772  38.839 -39.352  1.00  0.00     0.200 A 
ATOM     16  C   UNL     1     -20.339  38.344 -38.114  1.00  0.00     0.162 A 
BRANCH  13  17
ATOM     17  O   UNL     1     -21.978  38.420 -41.464  1.00  0.00    -0.504 OA
ATOM     18  H   UNL     1     -22.580  37.868 -42.059  1.00  0.00     0.293 HD
ENDBRANCH  13  17
BRANCH  15  19
ATOM     19  O   UNL     1     -20.463  40.163 -39.675  1.00  0.00    -0.502 OA
ATOM     20  H   UNL     1     -21.033  40.955 -39.418  1.00  0.00     0.293 HD
ENDBRANCH  15  19
BRANCH  16  21
ATOM     21  O   UNL     1     -19.632  39.181 -37.250  1.00  0.00    -0.504 OA
ATOM     22  H   UNL     1     -19.368  38.881 -36.319  1.00  0.00     0.293 HD
ENDBRANCH  16  21
ENDBRANCH   1  11
BRANCH  10  23
ATOM     23  O   UNL     1     -22.145  35.400 -35.924  1.00  0.00    -0.500 OA
ATOM     24  H   UNL     1     -22.887  36.090 -35.908  1.00  0.00     0.294 HD
ENDBRANCH  10  23
BRANCH   5  25
ATOM     25  O   UNL     1     -21.739  29.340 -40.764  1.00  0.00    -0.507 OA
ATOM     26  H   UNL     1     -22.157  29.479 -41.677  1.00  0.00     0.293 HD
ENDBRANCH   5  25
BRANCH   7  27
ATOM     27  O   UNL     1     -22.975  30.241 -36.215  1.00  0.00    -0.507 OA
ATOM     28  H   UNL     1     -23.104  30.793 -35.379  1.00  0.00     0.293 HD
ENDBRANCH   7  27
TORSDOF 7
ENDMDL
MODEL 2
REMARK VINA RESULT:    -6.945      0.202      1.807
REMARK INTER + INTRA:          -8.501
REMARK INTER:                  -8.517
REMARK INTRA:                   0.017
REMARK UNBOUND:                 0.069
REMARK SMILES Oc1cc(O)c2cc(O)c(-c3cc(O)c(O)c(O)c3)[o+]c2c1
REMARK SMILES IDX 10 1 20 2 21 3 22 4 2 5 3 6 4 7 6 8 7 9 8 10 11 11 12 12
REMARK SMILES IDX 13 13 19 14 15 15 17 16 14 17 16 19 18 21 9 23 1 25 5 27
REMARK H PARENT 14 18 16 20 18 22 9 24 1 26 5 28
REMARK Flexibility Score: inf
ROOT
ATOM      1  C   UNL     1     -21.763  34.700 -38.102  1.00  0.00     0.402 A 
ATOM      2  O   UNL     1     -21.616  33.758 -39.030  1.00  0.00    -0.202 OA
ATOM      3  C   UNL     1     -21.880  32.473 -38.814  1.00  0.00     0.368 A 
ATOM      4  C   UNL     1     -21.698  31.558 -39.855  1.00  0.00     0.162 A 
ATOM      5  C   UNL     1     -21.971  30.201 -39.655  1.00  0.00     0.128 A 
ATOM      6  C   UNL     1     -22.427  29.759 -38.412  1.00  0.00     0.093 A 
ATOM      7  C   UNL     1     -22.617  30.656 -37.354  1.00  0.00     0.136 A 
ATOM      8  C   UNL     1     -22.340  32.035 -37.550  1.00  0.00     0.125 A 
ATOM      9  C   UNL     1     -22.490  33.003 -36.543  1.00  0.00     0.078 A 
ATOM     10  C   UNL     1     -22.191  34.343 -36.811  1.00  0.00     0.223 A 
ENDROOT
BRANCH   1  11
ATOM     11  C   UNL     1     -21.445  36.100 -38.468  1.00  0.00     0.091 A 
ATOM     12  C   UNL     1     -20.625  36.865 -37.626  1.00  0.00     0.068 A 
ATOM     13  C   UNL     1     -20.288  38.184 -37.951  1.00  0.00     0.162 A 
ATOM     14  C   UNL     1     -21.901  36.661 -39.671  1.00  0.00     0.068 A 
ATOM     15  C   UNL     1     -20.770  38.751 -39.156  1.00  0.00     0.200 A 
ATOM     16  C   UNL     1     -21.570  37.979 -40.010  1.00  0.00     0.162 A 
BRANCH  13  17
ATOM     17  O   UNL     1     -19.478  38.886 -37.058  1.00  0.00    -0.504 OA
ATOM     18  H   UNL     1     -19.609  39.859 -36.820  1.00  0.00     0.293 HD
ENDBRANCH  13  17
BRANCH  15  19
ATOM     19  O   UNL     1     -20.477  40.062 -39.538  1.00  0.00    -0.502 OA
ATOM     20  H   UNL     1     -21.175  40.771 -39.710  1.00  0.00     0.293 HD
ENDBRANCH  15  19
BRANCH  16  21
ATOM     21  O   UNL     1     -22.033  38.532 -41.204  1.00  0.00    -0.504 OA
ATOM     22  H   UNL     1     -22.869  39.103 -41.235  1.00  0.00     0.293 HD
ENDBRANCH  16  21
ENDBRANCH   1  11
BRANCH  10  23
ATOM     23  O   UNL     1     -22.291  35.297 -35.798  1.00  0.00    -0.500 OA
ATOM     24  H   UNL     1     -21.603  35.362 -35.058  1.00  0.00     0.294 HD
ENDBRANCH  10  23
BRANCH   5  25
ATOM     25  O   UNL     1     -21.791  29.283 -40.687  1.00  0.00    -0.507 OA
ATOM     26  H   UNL     1     -21.606  29.583 -41.637  1.00  0.00     0.293 HD
ENDBRANCH   5  25
BRANCH   7  27
ATOM     27  O   UNL     1     -23.080  30.134 -36.142  1.00  0.00    -0.507 OA
ATOM     28  H   UNL     1     -22.485  29.748 -35.424  1.00  0.00     0.293 HD
ENDBRANCH   7  27
TORSDOF 7
ENDMDL
MODEL 3
REMARK VINA RESULT:    -6.876      3.925      8.291
REMARK INTER + INTRA:          -8.415
REMARK INTER:                  -8.088
REMARK INTRA:                  -0.327
REMARK UNBOUND:                 0.069
REMARK SMILES Oc1cc(O)c2cc(O)c(-c3cc(O)c(O)c(O)c3)[o+]c2c1
REMARK SMILES IDX 10 1 20 2 21 3 22 4 2 5 3 6 4 7 6 8 7 9 8 10 11 11 12 12
REMARK SMILES IDX 13 13 19 14 15 15 17 16 14 17 16 19 18 21 9 23 1 25 5 27
REMARK H PARENT 14 18 16 20 18 22 9 24 1 26 5 28
REMARK Flexibility Score: inf
ROOT
ATOM      1  C   UNL     1     -22.144  29.858 -36.403  1.00  0.00     0.402 A 
ATOM      2  O   UNL     1     -22.433  29.412 -37.623  1.00  0.00    -0.202 OA
ATOM      3  C   UNL     1     -22.309  30.153 -38.720  1.00  0.00     0.368 A 
ATOM      4  C   UNL     1     -22.633  29.593 -39.959  1.00  0.00     0.162 A 
ATOM      5  C   UNL     1     -22.509  30.350 -41.128  1.00  0.00     0.128 A 
ATOM      6  C   UNL     1     -22.059  31.669 -41.058  1.00  0.00     0.093 A 
ATOM      7  C   UNL     1     -21.728  32.253 -39.828  1.00  0.00     0.136 A 
ATOM      8  C   UNL     1     -21.854  31.491 -38.638  1.00  0.00     0.125 A 
ATOM      9  C   UNL     1     -21.557  31.997 -37.362  1.00  0.00     0.078 A 
ATOM     10  C   UNL     1     -21.711  31.185 -36.233  1.00  0.00     0.223 A 
ENDROOT
BRANCH   1  11
ATOM     11  C   UNL     1     -22.314  28.932 -35.260  1.00  0.00     0.091 A 
ATOM     12  C   UNL     1     -21.182  28.368 -34.654  1.00  0.00     0.068 A 
ATOM     13  C   UNL     1     -21.305  27.505 -33.559  1.00  0.00     0.162 A 
ATOM     14  C   UNL     1     -23.584  28.649 -34.732  1.00  0.00     0.068 A 
ATOM     15  C   UNL     1     -22.590  27.206 -33.046  1.00  0.00     0.200 A 
ATOM     16  C   UNL     1     -23.721  27.787 -33.636  1.00  0.00     0.162 A 
BRANCH  13  17
ATOM     17  O   UNL     1     -20.133  26.974 -33.016  1.00  0.00    -0.504 OA
ATOM     18  H   UNL     1     -19.604  26.223 -33.438  1.00  0.00     0.293 HD
ENDBRANCH  13  17
BRANCH  15  19
ATOM     19  O   UNL     1     -22.784  26.349 -31.960  1.00  0.00    -0.502 OA
ATOM     20  H   UNL     1     -23.502  25.640 -31.920  1.00  0.00     0.293 HD
ENDBRANCH  15  19
BRANCH  16  21
ATOM     21  O   UNL     1     -24.986  27.505 -33.121  1.00  0.00    -0.504 OA
ATOM     22  H   UNL     1     -25.505  28.189 -32.584  1.00  0.00     0.293 HD
ENDBRANCH  16  21
ENDBRANCH   1  11
BRANCH  10  23
ATOM     23  O   UNL     1     -21.464  31.703 -34.962  1.00  0.00    -0.500 OA
ATOM     24  H   UNL     1     -21.680  31.179 -34.122  1.00  0.00     0.294 HD
ENDBRANCH  10  23
BRANCH   5  25
ATOM     25  O   UNL     1     -22.832  29.799 -42.366  1.00  0.00    -0.507 OA
ATOM     26  H   UNL     1     -23.154  30.374 -43.135  1.00  0.00     0.293 HD
ENDBRANCH   5  25
BRANCH   7  27
ATOM     27  O   UNL     1     -21.283  33.578 -39.844  1.00  0.00    -0.507 OA
ATOM     28  H   UNL     1     -20.583  33.952 -39.220  1.00  0.00     0.293 HD
ENDBRANCH   7  27
TORSDOF 7
ENDMDL
MODEL 4
REMARK VINA RESULT:    -6.789      1.613      7.137
REMARK INTER + INTRA:          -8.307
REMARK INTER:                  -8.287
REMARK INTRA:                  -0.020
REMARK UNBOUND:                 0.069
REMARK SMILES Oc1cc(O)c2cc(O)c(-c3cc(O)c(O)c(O)c3)[o+]c2c1
REMARK SMILES IDX 10 1 20 2 21 3 22 4 2 5 3 6 4 7 6 8 7 9 8 10 11 11 12 12
REMARK SMILES IDX 13 13 19 14 15 15 17 16 14 17 16 19 18 21 9 23 1 25 5 27
REMARK H PARENT 14 18 16 20 18 22 9 24 1 26 5 28
REMARK Flexibility Score: inf
ROOT
ATOM      1  C   UNL     1     -20.876  36.015 -38.100  1.00  0.00     0.402 A 
ATOM      2  O   UNL     1     -20.966  36.862 -39.122  1.00  0.00    -0.202 OA
ATOM      3  C   UNL     1     -20.665  38.153 -39.029  1.00  0.00     0.368 A 
ATOM      4  C   UNL     1     -20.787  38.963 -40.162  1.00  0.00     0.162 A 
ATOM      5  C   UNL     1     -20.474  40.324 -40.092  1.00  0.00     0.128 A 
ATOM      6  C   UNL     1     -20.036  40.876 -38.887  1.00  0.00     0.093 A 
ATOM      7  C   UNL     1     -19.906  40.086 -37.738  1.00  0.00     0.136 A 
ATOM      8  C   UNL     1     -20.224  38.704 -37.802  1.00  0.00     0.125 A 
ATOM      9  C   UNL     1     -20.135  37.839 -36.699  1.00  0.00     0.078 A 
ATOM     10  C   UNL     1     -20.472  36.489 -36.839  1.00  0.00     0.223 A 
ENDROOT
BRANCH   1  11
ATOM     11  C   UNL     1     -21.231  34.596 -38.332  1.00  0.00     0.091 A 
ATOM     12  C   UNL     1     -20.655  33.908 -39.409  1.00  0.00     0.068 A 
ATOM     13  C   UNL     1     -20.952  32.561 -39.646  1.00  0.00     0.162 A 
ATOM     14  C   UNL     1     -22.090  33.906 -37.462  1.00  0.00     0.068 A 
ATOM     15  C   UNL     1     -21.837  31.878 -38.777  1.00  0.00     0.200 A 
ATOM     16  C   UNL     1     -22.395  32.558 -37.687  1.00  0.00     0.162 A 
BRANCH  13  17
ATOM     17  O   UNL     1     -20.349  31.946 -40.745  1.00  0.00    -0.504 OA
ATOM     18  H   UNL     1     -19.501  32.277 -41.183  1.00  0.00     0.293 HD
ENDBRANCH  13  17
BRANCH  15  19
ATOM     19  O   UNL     1     -22.180  30.536 -38.960  1.00  0.00    -0.502 OA
ATOM     20  H   UNL     1     -23.110  30.216 -39.188  1.00  0.00     0.293 HD
ENDBRANCH  15  19
BRANCH  16  21
ATOM     21  O   UNL     1     -23.255  31.882 -36.822  1.00  0.00    -0.504 OA
ATOM     22  H   UNL     1     -23.545  32.285 -35.939  1.00  0.00     0.293 HD
ENDBRANCH  16  21
ENDBRANCH   1  11
BRANCH  10  23
ATOM     23  O   UNL     1     -20.431  35.641 -35.732  1.00  0.00    -0.500 OA
ATOM     24  H   UNL     1     -21.040  34.836 -35.655  1.00  0.00     0.294 HD
ENDBRANCH  10  23
BRANCH   5  25
ATOM     25  O   UNL     1     -20.594  41.137 -41.217  1.00  0.00    -0.507 OA
ATOM     26  H   UNL     1     -21.172  41.969 -41.211  1.00  0.00     0.293 HD
ENDBRANCH   5  25
BRANCH   7  27
ATOM     27  O   UNL     1     -19.459  40.715 -36.572  1.00  0.00    -0.507 OA
ATOM     28  H   UNL     1     -19.833  40.541 -35.651  1.00  0.00     0.293 HD
ENDBRANCH   7  27
TORSDOF 7
ENDMDL
MODEL 5
REMARK VINA RESULT:    -6.775      1.061      2.553
REMARK INTER + INTRA:          -8.290
REMARK INTER:                  -8.258
REMARK INTRA:                  -0.033
REMARK UNBOUND:                 0.069
REMARK SMILES Oc1cc(O)c2cc(O)c(-c3cc(O)c(O)c(O)c3)[o+]c2c1
REMARK SMILES IDX 10 1 20 2 21 3 22 4 2 5 3 6 4 7 6 8 7 9 8 10 11 11 12 12
REMARK SMILES IDX 13 13 19 14 15 15 17 16 14 17 16 19 18 21 9 23 1 25 5 27
REMARK H PARENT 14 18 16 20 18 22 9 24 1 26 5 28
REMARK Flexibility Score: inf
ROOT
ATOM      1  C   UNL     1     -21.477  34.342 -38.879  1.00  0.00     0.402 A 
ATOM      2  O   UNL     1     -22.027  33.818 -37.787  1.00  0.00    -0.202 OA
ATOM      3  C   UNL     1     -22.301  32.524 -37.655  1.00  0.00     0.368 A 
ATOM      4  C   UNL     1     -22.877  32.068 -36.466  1.00  0.00     0.162 A 
ATOM      5  C   UNL     1     -23.171  30.711 -36.301  1.00  0.00     0.128 A 
ATOM      6  C   UNL     1     -22.889  29.808 -37.327  1.00  0.00     0.093 A 
ATOM      7  C   UNL     1     -22.312  30.240 -38.528  1.00  0.00     0.136 A 
ATOM      8  C   UNL     1     -22.012  31.616 -38.702  1.00  0.00     0.125 A 
ATOM      9  C   UNL     1     -21.446  32.140 -39.876  1.00  0.00     0.078 A 
ATOM     10  C   UNL     1     -21.184  33.511 -39.976  1.00  0.00     0.223 A 
ENDROOT
BRANCH   1  11
ATOM     11  C   UNL     1     -21.212  35.798 -38.901  1.00  0.00     0.091 A 
ATOM     12  C   UNL     1     -21.687  36.571 -39.971  1.00  0.00     0.068 A 
ATOM     13  C   UNL     1     -21.472  37.953 -40.013  1.00  0.00     0.162 A 
ATOM     14  C   UNL     1     -20.544  36.435 -37.843  1.00  0.00     0.068 A 
ATOM     15  C   UNL     1     -20.777  38.585 -38.953  1.00  0.00     0.200 A 
ATOM     16  C   UNL     1     -20.323  37.817 -37.872  1.00  0.00     0.162 A 
BRANCH  13  17
ATOM     17  O   UNL     1     -21.964  38.653 -41.116  1.00  0.00    -0.504 OA
ATOM     18  H   UNL     1     -22.940  38.874 -41.257  1.00  0.00     0.293 HD
ENDBRANCH  13  17
BRANCH  15  19
ATOM     19  O   UNL     1     -20.525  39.959 -38.936  1.00  0.00    -0.502 OA
ATOM     20  H   UNL     1     -20.676  40.551 -38.132  1.00  0.00     0.293 HD
ENDBRANCH  15  19
BRANCH  16  21
ATOM     21  O   UNL     1     -19.652  38.441 -36.820  1.00  0.00    -0.504 OA
ATOM     22  H   UNL     1     -18.749  38.114 -36.499  1.00  0.00     0.293 HD
ENDBRANCH  16  21
ENDBRANCH   1  11
BRANCH  10  23
ATOM     23  O   UNL     1     -20.668  34.039 -41.159  1.00  0.00    -0.500 OA
ATOM     24  H   UNL     1     -19.963  33.550 -41.698  1.00  0.00     0.294 HD
ENDBRANCH  10  23
BRANCH   5  25
ATOM     25  O   UNL     1     -23.746  30.250 -35.118  1.00  0.00    -0.507 OA
ATOM     26  H   UNL     1     -23.579  29.310 -34.778  1.00  0.00     0.293 HD
ENDBRANCH   5  25
BRANCH   7  27
ATOM     27  O   UNL     1     -22.058  29.272 -39.504  1.00  0.00    -0.507 OA
ATOM     28  H   UNL     1     -22.326  29.356 -40.474  1.00  0.00     0.293 HD
ENDBRANCH   7  27
TORSDOF 7
ENDMDL
MODEL 6
REMARK VINA RESULT:    -6.739      5.078      8.015
REMARK INTER + INTRA:          -8.246
REMARK INTER:                  -7.988
REMARK INTRA:                  -0.258
REMARK UNBOUND:                 0.069
REMARK SMILES Oc1cc(O)c2cc(O)c(-c3cc(O)c(O)c(O)c3)[o+]c2c1
REMARK SMILES IDX 10 1 20 2 21 3 22 4 2 5 3 6 4 7 6 8 7 9 8 10 11 11 12 12
REMARK SMILES IDX 13 13 19 14 15 15 17 16 14 17 16 19 18 21 9 23 1 25 5 27
REMARK H PARENT 14 18 16 20 18 22 9 24 1 26 5 28
REMARK Flexibility Score: inf
ROOT
ATOM      1  C   UNL     1     -20.271  40.577 -36.026  1.00  0.00     0.402 A 
ATOM      2  O   UNL     1     -20.046  41.086 -37.234  1.00  0.00    -0.202 OA
ATOM      3  C   UNL     1     -20.193  40.392 -38.359  1.00  0.00     0.368 A 
ATOM      4  C   UNL     1     -19.935  41.017 -39.582  1.00  0.00     0.162 A 
ATOM      5  C   UNL     1     -20.086  40.310 -40.779  1.00  0.00     0.128 A 
ATOM      6  C   UNL     1     -20.496  38.976 -40.753  1.00  0.00     0.093 A 
ATOM      7  C   UNL     1     -20.760  38.328 -39.540  1.00  0.00     0.136 A 
ATOM      8  C   UNL     1     -20.607  39.039 -38.321  1.00  0.00     0.125 A 
ATOM      9  C   UNL     1     -20.838  38.467 -37.059  1.00  0.00     0.078 A 
ATOM     10  C   UNL     1     -20.660  39.231 -35.901  1.00  0.00     0.223 A 
ENDROOT
BRANCH   1  11
ATOM     11  C   UNL     1     -20.081  41.455 -34.849  1.00  0.00     0.091 A 
ATOM     12  C   UNL     1     -18.812  41.990 -34.585  1.00  0.00     0.068 A 
ATOM     13  C   UNL     1     -18.600  42.840 -33.493  1.00  0.00     0.162 A 
ATOM     14  C   UNL     1     -21.158  41.813 -34.022  1.00  0.00     0.068 A 
ATOM     15  C   UNL     1     -19.687  43.177 -32.650  1.00  0.00     0.200 A 
ATOM     16  C   UNL     1     -20.961  42.663 -32.927  1.00  0.00     0.162 A 
BRANCH  13  17
ATOM     17  O   UNL     1     -17.307  43.323 -33.287  1.00  0.00    -0.504 OA
ATOM     18  H   UNL     1     -16.852  43.355 -32.386  1.00  0.00     0.293 HD
ENDBRANCH  13  17
BRANCH  15  19
ATOM     19  O   UNL     1     -19.544  44.015 -31.541  1.00  0.00    -0.502 OA
ATOM     20  H   UNL     1     -18.915  43.834 -30.773  1.00  0.00     0.293 HD
ENDBRANCH  15  19
BRANCH  16  21
ATOM     21  O   UNL     1     -22.035  43.007 -32.106  1.00  0.00    -0.504 OA
ATOM     22  H   UNL     1     -21.919  43.627 -31.314  1.00  0.00     0.293 HD
ENDBRANCH  16  21
ENDBRANCH   1  11
BRANCH  10  23
ATOM     23  O   UNL     1     -20.841  38.649 -34.646  1.00  0.00    -0.500 OA
ATOM     24  H   UNL     1     -20.211  38.838 -33.876  1.00  0.00     0.294 HD
ENDBRANCH  10  23
BRANCH   5  25
ATOM     25  O   UNL     1     -19.829  40.926 -42.002  1.00  0.00    -0.507 OA
ATOM     26  H   UNL     1     -20.217  41.834 -42.231  1.00  0.00     0.293 HD
ENDBRANCH   5  25
BRANCH   7  27
ATOM     27  O   UNL     1     -21.169  36.992 -39.600  1.00  0.00    -0.507 OA
ATOM     28  H   UNL     1     -21.966  36.663 -40.123  1.00  0.00     0.293 HD
ENDBRANCH   7  27
TORSDOF 7
ENDMDL
MODEL 7
REMARK VINA RESULT:    -6.649      3.965      6.633
REMARK INTER + INTRA:          -8.135
REMARK INTER:                  -7.766
REMARK INTRA:                  -0.369
REMARK UNBOUND:                 0.069
REMARK SMILES Oc1cc(O)c2cc(O)c(-c3cc(O)c(O)c(O)c3)[o+]c2c1
REMARK SMILES IDX 10 1 20 2 21 3 22 4 2 5 3 6 4 7 6 8 7 9 8 10 11 11 12 12
REMARK SMILES IDX 13 13 19 14 15 15 17 16 14 17 16 19 18 21 9 23 1 25 5 27
REMARK H PARENT 14 18 16 20 18 22 9 24 1 26 5 28
REMARK Flexibility Score: inf
ROOT
ATOM      1  C   UNL     1     -22.498  29.553 -36.651  1.00  0.00     0.402 A 
ATOM      2  O   UNL     1     -21.491  28.960 -36.015  1.00  0.00    -0.202 OA
ATOM      3  C   UNL     1     -21.632  28.325 -34.855  1.00  0.00     0.368 A 
ATOM      4  C   UNL     1     -20.514  27.729 -34.266  1.00  0.00     0.162 A 
ATOM      5  C   UNL     1     -20.636  27.052 -33.048  1.00  0.00     0.128 A 
ATOM      6  C   UNL     1     -21.879  26.970 -32.419  1.00  0.00     0.093 A 
ATOM      7  C   UNL     1     -23.015  27.559 -32.990  1.00  0.00     0.136 A 
ATOM      8  C   UNL     1     -22.897  28.249 -34.225  1.00  0.00     0.125 A 
ATOM      9  C   UNL     1     -23.977  28.879 -34.863  1.00  0.00     0.078 A 
ATOM     10  C   UNL     1     -23.782  29.546 -36.077  1.00  0.00     0.223 A 
ENDROOT
BRANCH   1  11
ATOM     11  C   UNL     1     -22.215  30.220 -37.942  1.00  0.00     0.091 A 
ATOM     12  C   UNL     1     -22.483  29.545 -39.142  1.00  0.00     0.068 A 
ATOM     13  C   UNL     1     -22.247  30.154 -40.380  1.00  0.00     0.162 A 
ATOM     14  C   UNL     1     -21.736  31.539 -37.993  1.00  0.00     0.068 A 
ATOM     15  C   UNL     1     -21.742  31.476 -40.423  1.00  0.00     0.200 A 
ATOM     16  C   UNL     1     -21.496  32.160 -39.225  1.00  0.00     0.162 A 
BRANCH  13  17
ATOM     17  O   UNL     1     -22.528  29.415 -41.531  1.00  0.00    -0.504 OA
ATOM     18  H   UNL     1     -23.366  29.526 -42.084  1.00  0.00     0.293 HD
ENDBRANCH  13  17
BRANCH  15  19
ATOM     19  O   UNL     1     -21.479  32.139 -41.624  1.00  0.00    -0.502 OA
ATOM     20  H   UNL     1     -20.588  32.118 -42.099  1.00  0.00     0.293 HD
ENDBRANCH  15  19
BRANCH  16  21
ATOM     21  O   UNL     1     -21.012  33.468 -39.267  1.00  0.00    -0.504 OA
ATOM     22  H   UNL     1     -21.422  34.165 -39.877  1.00  0.00     0.293 HD
ENDBRANCH  16  21
ENDBRANCH   1  11
BRANCH  10  23
ATOM     23  O   UNL     1     -24.844  30.214 -36.686  1.00  0.00    -0.500 OA
ATOM     24  H   UNL     1     -25.005  31.204 -36.542  1.00  0.00     0.294 HD
ENDBRANCH  10  23
BRANCH   5  25
ATOM     25  O   UNL     1     -19.525  26.457 -32.455  1.00  0.00    -0.507 OA
ATOM     26  H   UNL     1     -18.696  26.227 -32.990  1.00  0.00     0.293 HD
ENDBRANCH   5  25
BRANCH   7  27
ATOM     27  O   UNL     1     -24.223  27.429 -32.299  1.00  0.00    -0.507 OA
ATOM     28  H   UNL     1     -25.068  27.931 -32.528  1.00  0.00     0.293 HD
ENDBRANCH   7  27
TORSDOF 7
ENDMDL
MODEL 8
REMARK VINA RESULT:    -6.601      1.758      7.435
REMARK INTER + INTRA:          -8.076
REMARK INTER:                  -8.001
REMARK INTRA:                  -0.075
REMARK UNBOUND:                 0.069
REMARK SMILES Oc1cc(O)c2cc(O)c(-c3cc(O)c(O)c(O)c3)[o+]c2c1
REMARK SMILES IDX 10 1 20 2 21 3 22 4 2 5 3 6 4 7 6 8 7 9 8 10 11 11 12 12
REMARK SMILES IDX 13 13 19 14 15 15 17 16 14 17 16 19 18 21 9 23 1 25 5 27
REMARK H PARENT 14 18 16 20 18 22 9 24 1 26 5 28
REMARK Flexibility Score: inf
ROOT
ATOM      1  C   UNL     1     -21.036  36.147 -38.616  1.00  0.00     0.402 A 
ATOM      2  O   UNL     1     -20.520  36.665 -37.504  1.00  0.00    -0.202 OA
ATOM      3  C   UNL     1     -20.229  37.955 -37.366  1.00  0.00     0.368 A 
ATOM      4  C   UNL     1     -19.694  38.405 -36.156  1.00  0.00     0.162 A 
ATOM      5  C   UNL     1     -19.383  39.757 -35.983  1.00  0.00     0.128 A 
ATOM      6  C   UNL     1     -19.608  40.662 -37.023  1.00  0.00     0.093 A 
ATOM      7  C   UNL     1     -20.144  40.235 -38.245  1.00  0.00     0.136 A 
ATOM      8  C   UNL     1     -20.461  38.864 -38.427  1.00  0.00     0.125 A 
ATOM      9  C   UNL     1     -20.989  38.345 -39.620  1.00  0.00     0.078 A 
ATOM     10  C   UNL     1     -21.270  36.979 -39.726  1.00  0.00     0.223 A 
ENDROOT
BRANCH   1  11
ATOM     11  C   UNL     1     -21.325  34.695 -38.644  1.00  0.00     0.091 A 
ATOM     12  C   UNL     1     -20.766  33.899 -39.654  1.00  0.00     0.068 A 
ATOM     13  C   UNL     1     -21.001  32.520 -39.698  1.00  0.00     0.162 A 
ATOM     14  C   UNL     1     -22.102  34.086 -37.646  1.00  0.00     0.068 A 
ATOM     15  C   UNL     1     -21.805  31.916 -38.701  1.00  0.00     0.200 A 
ATOM     16  C   UNL     1     -22.345  32.707 -37.678  1.00  0.00     0.162 A 
BRANCH  13  17
ATOM     17  O   UNL     1     -20.420  31.795 -40.741  1.00  0.00    -0.504 OA
ATOM     18  H   UNL     1     -20.577  30.810 -40.901  1.00  0.00     0.293 HD
ENDBRANCH  13  17
BRANCH  15  19
ATOM     19  O   UNL     1     -22.084  30.547 -38.690  1.00  0.00    -0.502 OA
ATOM     20  H   UNL     1     -22.196  29.986 -39.522  1.00  0.00     0.293 HD
ENDBRANCH  15  19
BRANCH  16  21
ATOM     21  O   UNL     1     -23.124  32.110 -36.687  1.00  0.00    -0.504 OA
ATOM     22  H   UNL     1     -23.409  32.618 -35.858  1.00  0.00     0.293 HD
ENDBRANCH  16  21
ENDBRANCH   1  11
BRANCH  10  23
ATOM     23  O   UNL     1     -21.749  36.455 -40.927  1.00  0.00    -0.500 OA
ATOM     24  H   UNL     1     -21.678  36.968 -41.798  1.00  0.00     0.294 HD
ENDBRANCH  10  23
BRANCH   5  25
ATOM     25  O   UNL     1     -18.847  40.213 -34.781  1.00  0.00    -0.507 OA
ATOM     26  H   UNL     1     -17.850  40.350 -34.662  1.00  0.00     0.293 HD
ENDBRANCH   5  25
BRANCH   7  27
ATOM     27  O   UNL     1     -20.343  41.203 -39.233  1.00  0.00    -0.507 OA
ATOM     28  H   UNL     1     -20.561  42.171 -39.047  1.00  0.00     0.293 HD
ENDBRANCH   7  27
TORSDOF 7
ENDMDL
MODEL 9
REMARK VINA RESULT:    -6.394      2.503      7.250
REMARK INTER + INTRA:          -7.821
REMARK INTER:                  -7.448
REMARK INTRA:                  -0.372
REMARK UNBOUND:                 0.069
REMARK SMILES Oc1cc(O)c2cc(O)c(-c3cc(O)c(O)c(O)c3)[o+]c2c1
REMARK SMILES IDX 10 1 20 2 21 3 22 4 2 5 3 6 4 7 6 8 7 9 8 10 11 11 12 12
REMARK SMILES IDX 13 13 19 14 15 15 17 16 14 17 16 19 18 21 9 23 1 25 5 27
REMARK H PARENT 14 18 16 20 18 22 9 24 1 26 5 28
REMARK Flexibility Score: inf
ROOT
ATOM      1  C   UNL     1     -21.267  35.343 -37.590  1.00  0.00     0.402 A 
ATOM      2  O   UNL     1     -20.860  36.572 -37.285  1.00  0.00    -0.202 OA
ATOM      3  C   UNL     1     -20.793  37.561 -38.171  1.00  0.00     0.368 A 
ATOM      4  C   UNL     1     -20.356  38.821 -37.752  1.00  0.00     0.162 A 
ATOM      5  C   UNL     1     -20.280  39.879 -38.663  1.00  0.00     0.128 A 
ATOM      6  C   UNL     1     -20.642  39.677 -39.996  1.00  0.00     0.093 A 
ATOM      7  C   UNL     1     -21.084  38.424 -40.440  1.00  0.00     0.136 A 
ATOM      8  C   UNL     1     -21.162  37.345 -39.520  1.00  0.00     0.125 A 
ATOM      9  C   UNL     1     -21.580  36.053 -39.879  1.00  0.00     0.078 A 
ATOM     10  C   UNL     1     -21.625  35.040 -38.916  1.00  0.00     0.223 A 
ENDROOT
BRANCH   1  11
ATOM     11  C   UNL     1     -21.306  34.329 -36.512  1.00  0.00     0.091 A 
ATOM     12  C   UNL     1     -22.464  34.197 -35.730  1.00  0.00     0.068 A 
ATOM     13  C   UNL     1     -22.543  33.236 -34.716  1.00  0.00     0.162 A 
ATOM     14  C   UNL     1     -20.230  33.456 -36.290  1.00  0.00     0.068 A 
ATOM     15  C   UNL     1     -21.444  32.375 -34.483  1.00  0.00     0.200 A 
ATOM     16  C   UNL     1     -20.296  32.490 -35.279  1.00  0.00     0.162 A 
BRANCH  13  17
ATOM     17  O   UNL     1     -23.723  33.172 -33.972  1.00  0.00    -0.504 OA
ATOM     18  H   UNL     1     -24.186  33.978 -33.576  1.00  0.00     0.293 HD
ENDBRANCH  13  17
BRANCH  15  19
ATOM     19  O   UNL     1     -21.455  31.398 -33.484  1.00  0.00    -0.502 OA
ATOM     20  H   UNL     1     -22.093  31.396 -32.701  1.00  0.00     0.293 HD
ENDBRANCH  15  19
BRANCH  16  21
ATOM     21  O   UNL     1     -19.219  31.631 -35.060  1.00  0.00    -0.504 OA
ATOM     22  H   UNL     1     -18.287  31.984 -34.877  1.00  0.00     0.293 HD
ENDBRANCH  16  21
ENDBRANCH   1  11
BRANCH  10  23
ATOM     23  O   UNL     1     -21.994  33.745 -39.283  1.00  0.00    -0.500 OA
ATOM     24  H   UNL     1     -22.834  33.561 -39.817  1.00  0.00     0.294 HD
ENDBRANCH  10  23
BRANCH   5  25
ATOM     25  O   UNL     1     -19.844  41.136 -38.253  1.00  0.00    -0.507 OA
ATOM     26  H   UNL     1     -18.909  41.281 -37.889  1.00  0.00     0.293 HD
ENDBRANCH   5  25
BRANCH   7  27
ATOM     27  O   UNL     1     -21.431  38.305 -41.789  1.00  0.00    -0.507 OA
ATOM     28  H   UNL     1     -22.194  38.800 -42.227  1.00  0.00     0.293 HD
ENDBRANCH   7  27
TORSDOF 7
ENDMDL
