MODEL 1
REMARK VINA RESULT:    -4.638      0.000      0.000
REMARK INTER + INTRA:          -6.718
REMARK INTER:                  -6.265
REMARK INTRA:                  -0.453
REMARK UNBOUND:                -0.453
REMARK SMILES CCCCCCCC(=O)[O-]
REMARK SMILES IDX 5 1 6 2 7 3 8 4 9 5 10 6 4 7 3 8 2 9 1 10
REMARK H PARENT
REMARK Flexibility Score: inf
ROOT
ATOM      1  C   UNL     1      87.018 326.463 194.185  1.00  0.00     0.000 C 
ENDROOT
BRANCH   1   2
ATOM      2  C   UNL     1      87.092 326.252 195.702  1.00  0.00     0.006 C 
BRANCH   2   3
ATOM      3  C   UNL     1      88.522 325.921 196.141  1.00  0.00     0.053 C 
BRANCH   3   4
ATOM      4  C   UNL     1      88.639 324.473 196.497  1.00  0.00     0.041 C 
ATOM      5  O   UNL     1      88.628 323.595 195.595  1.00  0.00    -0.550 OA
ATOM      6  O   UNL     1      88.710 324.089 197.830  1.00  0.00    -0.550 OA
ENDBRANCH   3   4
ENDBRANCH   2   3
ENDBRANCH   1   2
BRANCH   1   7
ATOM      7  C   UNL     1      85.911 325.604 193.563  1.00  0.00     0.000 C 
BRANCH   7   8
ATOM      8  C   UNL     1      86.505 324.457 192.736  1.00  0.00    -0.000 C 
BRANCH   8   9
ATOM      9  C   UNL     1      87.933 324.786 192.287  1.00  0.00    -0.003 C 
ATOM     10  C   UNL     1      88.350 323.922 191.099  1.00  0.00     0.004 C 
ENDBRANCH   8   9
ENDBRANCH   7   8
ENDBRANCH   1   7
TORSDOF 6
ENDMDL
MODEL 2
REMARK VINA RESULT:    -4.624      1.804      2.777
REMARK INTER + INTRA:          -6.699
REMARK INTER:                  -6.417
REMARK INTRA:                  -0.282
REMARK UNBOUND:                -0.453
REMARK SMILES CCCCCCCC(=O)[O-]
REMARK SMILES IDX 5 1 6 2 7 3 8 4 9 5 10 6 4 7 3 8 2 9 1 10
REMARK H PARENT
REMARK Flexibility Score: inf
ROOT
ATOM      1  C   UNL     1      88.179 324.061 193.560  1.00  0.00     0.000 C 
ENDROOT
BRANCH   1   2
ATOM      2  C   UNL     1      87.725 325.460 193.129  1.00  0.00     0.006 C 
BRANCH   2   3
ATOM      3  C   UNL     1      88.081 326.505 194.190  1.00  0.00     0.053 C 
BRANCH   3   4
ATOM      4  C   UNL     1      87.457 326.152 195.503  1.00  0.00     0.041 C 
ATOM      5  O   UNL     1      86.204 326.132 195.626  1.00  0.00    -0.550 OA
ATOM      6  O   UNL     1      88.260 325.892 196.607  1.00  0.00    -0.550 OA
ENDBRANCH   3   4
ENDBRANCH   2   3
ENDBRANCH   1   2
BRANCH   1   7
ATOM      7  C   UNL     1      88.476 323.179 192.342  1.00  0.00     0.000 C 
BRANCH   7   8
ATOM      8  C   UNL     1      88.126 323.907 191.038  1.00  0.00    -0.000 C 
BRANCH   8   9
ATOM      9  C   UNL     1      88.541 323.077 189.818  1.00  0.00    -0.003 C 
ATOM     10  C   UNL     1      89.634 323.781 189.018  1.00  0.00     0.004 C 
ENDBRANCH   8   9
ENDBRANCH   7   8
ENDBRANCH   1   7
TORSDOF 6
ENDMDL
MODEL 3
REMARK VINA RESULT:    -4.603     19.512     20.797
REMARK INTER + INTRA:          -6.670
REMARK INTER:                  -6.349
REMARK INTRA:                  -0.321
REMARK UNBOUND:                -0.453
REMARK SMILES CCCCCCCC(=O)[O-]
REMARK SMILES IDX 5 1 6 2 7 3 8 4 9 5 10 6 4 7 3 8 2 9 1 10
REMARK H PARENT
REMARK Flexibility Score: inf
ROOT
ATOM      1  C   UNL     1     104.251 312.468 192.245  1.00  0.00     0.000 C 
ENDROOT
BRANCH   1   2
ATOM      2  C   UNL     1     104.759 311.320 193.127  1.00  0.00     0.006 C 
BRANCH   2   3
ATOM      3  C   UNL     1     105.556 311.856 194.320  1.00  0.00     0.053 C 
BRANCH   3   4
ATOM      4  C   UNL     1     104.635 312.436 195.347  1.00  0.00     0.041 C 
ATOM      5  O   UNL     1     104.580 313.681 195.520  1.00  0.00    -0.550 OA
ATOM      6  O   UNL     1     103.872 311.595 196.148  1.00  0.00    -0.550 OA
ENDBRANCH   3   4
ENDBRANCH   2   3
ENDBRANCH   1   2
BRANCH   1   7
ATOM      7  C   UNL     1     105.406 313.372 191.799  1.00  0.00     0.000 C 
BRANCH   7   8
ATOM      8  C   UNL     1     105.003 314.219 190.586  1.00  0.00    -0.000 C 
BRANCH   8   9
ATOM      9  C   UNL     1     103.518 314.031 190.253  1.00  0.00    -0.003 C 
ATOM     10  C   UNL     1     103.122 314.840 189.022  1.00  0.00     0.004 C 
ENDBRANCH   8   9
ENDBRANCH   7   8
ENDBRANCH   1   7
TORSDOF 6
ENDMDL
MODEL 4
REMARK VINA RESULT:    -4.551     19.971     21.212
REMARK INTER + INTRA:          -6.601
REMARK INTER:                  -6.304
REMARK INTRA:                  -0.297
REMARK UNBOUND:                -0.453
REMARK SMILES CCCCCCCC(=O)[O-]
REMARK SMILES IDX 5 1 6 2 7 3 8 4 9 5 10 6 4 7 3 8 2 9 1 10
REMARK H PARENT
REMARK Flexibility Score: inf
ROOT
ATOM      1  C   UNL     1     104.216 311.922 192.543  1.00  0.00     0.000 C 
ENDROOT
BRANCH   1   2
ATOM      2  C   UNL     1     104.762 313.185 191.866  1.00  0.00     0.006 C 
BRANCH   2   3
ATOM      3  C   UNL     1     103.799 313.689 190.786  1.00  0.00     0.053 C 
BRANCH   3   4
ATOM      4  C   UNL     1     104.497 314.639 189.864  1.00  0.00     0.041 C 
ATOM      5  O   UNL     1     103.919 315.055 188.826  1.00  0.00    -0.550 OA
ATOM      6  O   UNL     1     105.805 315.026 190.127  1.00  0.00    -0.550 OA
ENDBRANCH   3   4
ENDBRANCH   2   3
ENDBRANCH   1   2
BRANCH   1   7
ATOM      7  C   UNL     1     105.291 311.254 193.409  1.00  0.00     0.000 C 
BRANCH   7   8
ATOM      8  C   UNL     1     105.353 311.898 194.800  1.00  0.00    -0.000 C 
BRANCH   8   9
ATOM      9  C   UNL     1     103.965 311.936 195.450  1.00  0.00    -0.003 C 
ATOM     10  C   UNL     1     103.658 313.321 196.012  1.00  0.00     0.004 C 
ENDBRANCH   8   9
ENDBRANCH   7   8
ENDBRANCH   1   7
TORSDOF 6
ENDMDL
MODEL 5
REMARK VINA RESULT:    -4.505     19.693     21.008
REMARK INTER + INTRA:          -6.539
REMARK INTER:                  -5.894
REMARK INTRA:                  -0.645
REMARK UNBOUND:                -0.453
REMARK SMILES CCCCCCCC(=O)[O-]
REMARK SMILES IDX 5 1 6 2 7 3 8 4 9 5 10 6 4 7 3 8 2 9 1 10
REMARK H PARENT
REMARK Flexibility Score: inf
ROOT
ATOM      1  C   UNL     1     104.162 311.834 192.624  1.00  0.00     0.000 C 
ENDROOT
BRANCH   1   2
ATOM      2  C   UNL     1     104.201 313.035 191.672  1.00  0.00     0.006 C 
BRANCH   2   3
ATOM      3  C   UNL     1     103.825 314.328 192.402  1.00  0.00     0.053 C 
BRANCH   3   4
ATOM      4  C   UNL     1     105.031 315.194 192.591  1.00  0.00     0.041 C 
ATOM      5  O   UNL     1     105.521 315.358 193.738  1.00  0.00    -0.550 OA
ATOM      6  O   UNL     1     105.584 315.860 191.504  1.00  0.00    -0.550 OA
ENDBRANCH   3   4
ENDBRANCH   2   3
ENDBRANCH   1   2
BRANCH   1   7
ATOM      7  C   UNL     1     105.538 311.584 193.252  1.00  0.00     0.000 C 
BRANCH   7   8
ATOM      8  C   UNL     1     105.532 311.932 194.746  1.00  0.00    -0.000 C 
BRANCH   8   9
ATOM      9  C   UNL     1     104.101 311.963 195.296  1.00  0.00    -0.003 C 
ATOM     10  C   UNL     1     103.832 313.258 196.058  1.00  0.00     0.004 C 
ENDBRANCH   8   9
ENDBRANCH   7   8
ENDBRANCH   1   7
TORSDOF 6
ENDMDL
MODEL 6
REMARK VINA RESULT:    -4.484     19.559     20.890
REMARK INTER + INTRA:          -6.509
REMARK INTER:                  -6.086
REMARK INTRA:                  -0.423
REMARK UNBOUND:                -0.453
REMARK SMILES CCCCCCCC(=O)[O-]
REMARK SMILES IDX 5 1 6 2 7 3 8 4 9 5 10 6 4 7 3 8 2 9 1 10
REMARK H PARENT
REMARK Flexibility Score: inf
ROOT
ATOM      1  C   UNL     1     105.579 312.903 192.144  1.00  0.00     0.000 C 
ENDROOT
BRANCH   1   2
ATOM      2  C   UNL     1     104.159 312.982 191.572  1.00  0.00     0.006 C 
BRANCH   2   3
ATOM      3  C   UNL     1     103.770 314.432 191.264  1.00  0.00     0.053 C 
BRANCH   3   4
ATOM      4  C   UNL     1     103.601 314.626 189.791  1.00  0.00     0.041 C 
ATOM      5  O   UNL     1     102.571 314.198 189.208  1.00  0.00    -0.550 OA
ATOM      6  O   UNL     1     104.605 315.238 189.051  1.00  0.00    -0.550 OA
ENDBRANCH   3   4
ENDBRANCH   2   3
ENDBRANCH   1   2
BRANCH   1   7
ATOM      7  C   UNL     1     105.636 311.955 193.347  1.00  0.00     0.000 C 
BRANCH   7   8
ATOM      8  C   UNL     1     104.227 311.532 193.780  1.00  0.00    -0.000 C 
BRANCH   8   9
ATOM      9  C   UNL     1     103.970 311.899 195.247  1.00  0.00    -0.003 C 
ATOM     10  C   UNL     1     103.924 313.413 195.435  1.00  0.00     0.004 C 
ENDBRANCH   8   9
ENDBRANCH   7   8
ENDBRANCH   1   7
TORSDOF 6
ENDMDL
MODEL 7
REMARK VINA RESULT:    -4.475      3.749      5.551
REMARK INTER + INTRA:          -6.497
REMARK INTER:                  -6.327
REMARK INTRA:                  -0.170
REMARK UNBOUND:                -0.453
REMARK SMILES CCCCCCCC(=O)[O-]
REMARK SMILES IDX 5 1 6 2 7 3 8 4 9 5 10 6 4 7 3 8 2 9 1 10
REMARK H PARENT
REMARK Flexibility Score: inf
ROOT
ATOM      1  C   UNL     1      88.105 324.370 192.950  1.00  0.00     0.000 C 
ENDROOT
BRANCH   1   2
ATOM      2  C   UNL     1      88.155 324.416 191.418  1.00  0.00     0.006 C 
BRANCH   2   3
ATOM      3  C   UNL     1      88.248 323.005 190.828  1.00  0.00     0.053 C 
BRANCH   3   4
ATOM      4  C   UNL     1      88.373 323.068 189.339  1.00  0.00     0.041 C 
ATOM      5  O   UNL     1      87.485 322.560 188.606  1.00  0.00    -0.550 OA
ATOM      6  O   UNL     1      89.497 323.644 188.760  1.00  0.00    -0.550 OA
ENDBRANCH   3   4
ENDBRANCH   2   3
ENDBRANCH   1   2
BRANCH   1   7
ATOM      7  C   UNL     1      87.836 325.761 193.534  1.00  0.00     0.000 C 
BRANCH   7   8
ATOM      8  C   UNL     1      86.390 325.878 194.032  1.00  0.00    -0.000 C 
BRANCH   8   9
ATOM      9  C   UNL     1      86.348 326.363 195.486  1.00  0.00    -0.003 C 
ATOM     10  C   UNL     1      87.679 326.113 196.189  1.00  0.00     0.004 C 
ENDBRANCH   8   9
ENDBRANCH   7   8
ENDBRANCH   1   7
TORSDOF 6
ENDMDL
MODEL 8
REMARK VINA RESULT:    -4.401      2.934      4.552
REMARK INTER + INTRA:          -6.398
REMARK INTER:                  -5.946
REMARK INTRA:                  -0.452
REMARK UNBOUND:                -0.453
REMARK SMILES CCCCCCCC(=O)[O-]
REMARK SMILES IDX 5 1 6 2 7 3 8 4 9 5 10 6 4 7 3 8 2 9 1 10
REMARK H PARENT
REMARK Flexibility Score: inf
ROOT
ATOM      1  C   UNL     1      86.434 325.410 193.603  1.00  0.00     0.000 C 
ENDROOT
BRANCH   1   2
ATOM      2  C   UNL     1      87.774 325.347 192.859  1.00  0.00     0.006 C 
BRANCH   2   3
ATOM      3  C   UNL     1      88.153 323.899 192.533  1.00  0.00     0.053 C 
BRANCH   3   4
ATOM      4  C   UNL     1      87.702 323.538 191.152  1.00  0.00     0.041 C 
ATOM      5  O   UNL     1      88.500 323.622 190.183  1.00  0.00    -0.550 OA
ATOM      6  O   UNL     1      86.385 323.157 190.929  1.00  0.00    -0.550 OA
ENDBRANCH   3   4
ENDBRANCH   2   3
ENDBRANCH   1   2
BRANCH   1   7
ATOM      7  C   UNL     1      86.602 326.053 194.985  1.00  0.00     0.000 C 
BRANCH   7   8
ATOM      8  C   UNL     1      88.058 326.474 195.221  1.00  0.00    -0.000 C 
BRANCH   8   9
ATOM      9  C   UNL     1      88.583 325.911 196.548  1.00  0.00    -0.003 C 
ATOM     10  C   UNL     1      88.526 324.386 196.560  1.00  0.00     0.004 C 
ENDBRANCH   8   9
ENDBRANCH   7   8
ENDBRANCH   1   7
TORSDOF 6
ENDMDL
