MODEL 1
REMARK VINA RESULT:    -3.540      0.000      0.000
REMARK INTER + INTRA:          -8.908
REMARK INTER:                  -7.471
REMARK INTRA:                  -1.437
REMARK UNBOUND:                -1.437
REMARK SMILES CCC(=O)CCCCC[C@@H]1NC(=O)[C@H]2CCCCN2C(=O)[C@H]([C@@H](C)CC)NC(=O)[C@@H](Cc2cn(OC)c3ccccc23)NC1=O
REMARK SMILES IDX 9 1 10 2 44 3 43 4 45 6 30 7 28 8 27 9 29 11 22 12 23 14
REMARK SMILES IDX 24 15 25 16 26 17 31 18 32 19 33 20 42 21 34 22 37 23 41 24
REMARK SMILES IDX 38 25 40 26 39 27 35 28 36 29 11 30 12 31 13 33 14 34 19 35
REMARK SMILES IDX 15 36 18 37 16 38 17 39 20 40 21 41 8 43 7 44 6 45 5 46 3 47
REMARK SMILES IDX 4 48 2 49 1 50
REMARK H PARENT 43 5 27 10 11 32
REMARK Flexibility Score: 80.00
ROOT
ATOM      1  C   UNL     1      10.777 -11.042 195.605  1.00  0.00     0.035 C 
ENDROOT
BRANCH   1   2
ATOM      2  C   UNL     1      12.188 -11.601 195.894  1.00  0.00     0.171 C 
BRANCH   2   3
ATOM      3  C   UNL     1      12.924 -10.839 196.977  1.00  0.00     0.243 C 
ATOM      4  N   UNL     1      14.345 -10.640 196.886  1.00  0.00    -0.342 N 
ATOM      5  H   UNL     1      14.887 -11.161 196.161  1.00  0.00     0.164 HD
ATOM      6  O   UNL     1      12.295 -10.375 197.966  1.00  0.00    -0.273 OA
BRANCH   4   7
ATOM      7  C   UNL     1      15.051  -9.733 197.796  1.00  0.00     0.175 C 
BRANCH   7   8
ATOM      8  C   UNL     1      15.024 -10.294 199.194  1.00  0.00     0.243 C 
ATOM      9  N   UNL     1      15.904 -11.366 199.566  1.00  0.00    -0.342 N 
ATOM     10  H   UNL     1      16.814 -11.435 199.058  1.00  0.00     0.164 HD
ATOM     11  O   UNL     1      14.234  -9.799 200.038  1.00  0.00    -0.273 OA
BRANCH   9  12
ATOM     12  C   UNL     1      15.488 -12.560 200.316  1.00  0.00     0.174 CG0
ATOM     13  G   UNL     1      14.226 -13.145 199.696  1.00  0.00     0.000 G0
BRANCH  12  14
ATOM     14  C   UNL     1      15.525 -12.374 201.876  1.00  0.00     0.018 C 
ATOM     15  C   UNL     1      16.031 -13.658 202.560  1.00  0.00     0.010 C 
BRANCH  14  16
ATOM     16  C   UNL     1      16.281 -11.132 202.435  1.00  0.00     0.002 C 
ATOM     17  C   UNL     1      15.499 -10.421 203.545  1.00  0.00     0.004 C 
ENDBRANCH  14  16
ENDBRANCH  12  14
ENDBRANCH   9  12
ENDBRANCH   7   8
BRANCH   7  18
ATOM     18  C   UNL     1      16.489  -9.478 197.307  1.00  0.00     0.073 C 
BRANCH  18  19
ATOM     19  C   UNL     1      16.674  -8.043 196.900  1.00  0.00    -0.016 A 
ATOM     20  C   UNL     1      16.279  -6.929 197.637  1.00  0.00     0.134 A 
ATOM     21  C   UNL     1      17.406  -7.549 195.831  1.00  0.00     0.006 A 
ATOM     22  N   UNL     1      16.732  -5.800 197.041  1.00  0.00    -0.191 N 
ATOM     23  C   UNL     1      17.416  -6.182 195.950  1.00  0.00     0.087 A 
ATOM     24  C   UNL     1      18.087  -8.199 194.801  1.00  0.00     0.011 A 
ATOM     25  C   UNL     1      18.111  -5.372 195.052  1.00  0.00     0.030 A 
ATOM     26  C   UNL     1      18.791  -7.407 193.876  1.00  0.00     0.001 A 
ATOM     27  C   UNL     1      18.803  -6.000 194.000  1.00  0.00     0.002 A 
BRANCH  22  28
ATOM     28  O   UNL     1      16.598  -4.499 197.490  1.00  0.00    -0.417 OA
ATOM     29  C   UNL     1      15.339  -3.842 197.543  1.00  0.00     0.313 C 
ENDBRANCH  22  28
ENDBRANCH  18  19
ENDBRANCH   7  18
ENDBRANCH   4   7
ENDBRANCH   2   3
BRANCH   2  30
ATOM     30  N   UNL     1      12.170 -13.052 196.129  1.00  0.00    -0.343 N 
ATOM     31  C   UNL     1      12.021 -13.668 197.415  1.00  0.00     0.243 C 
ATOM     32  H   UNL     1      12.288 -13.673 195.297  1.00  0.00     0.164 HD
ATOM     33  O   UNL     1      11.031 -13.371 198.135  1.00  0.00    -0.273 OA
BRANCH  31  34
ATOM     34  C   UNL     1      13.061 -14.627 197.954  1.00  0.00     0.174 C 
ATOM     35  N   UNL     1      14.268 -13.896 198.396  1.00  0.00    -0.329 N 
ATOM     36  C   UNL     1      13.391 -15.784 196.985  1.00  0.00     0.035 C 
ATOM     37  C   UNL     1      15.507 -13.948 197.601  1.00  0.00     0.120 C 
ATOM     38  C   UNL     1      14.410 -15.455 195.875  1.00  0.00     0.004 C 
ATOM     39  C   UNL     1      15.226 -14.184 196.121  1.00  0.00     0.022 C 
BRANCH  35  40
ATOM     40  C   UNL     1      14.209 -13.158 199.647  1.00  0.00     0.246 CG0
ATOM     41  O   UNL     1      13.080 -12.896 200.141  1.00  0.00    -0.272 OA
ATOM     42  G   UNL     1      15.452 -12.560 200.291  1.00  0.00     0.000 G0
ENDBRANCH  35  40
ENDBRANCH  31  34
ENDBRANCH   2  30
ENDBRANCH   1   2
BRANCH   1  43
ATOM     43  C   UNL     1      10.406 -10.970 194.111  1.00  0.00     0.003 C 
BRANCH  43  44
ATOM     44  C   UNL     1      11.189  -9.883 193.360  1.00  0.00     0.001 C 
BRANCH  44  45
ATOM     45  C   UNL     1      11.915 -10.417 192.117  1.00  0.00     0.008 C 
BRANCH  45  46
ATOM     46  C   UNL     1      13.347 -10.835 192.465  1.00  0.00     0.075 C 
BRANCH  46  47
ATOM     47  C   UNL     1      14.048  -9.758 193.251  1.00  0.00     0.132 C 
ATOM     48  O   UNL     1      14.829 -10.066 194.138  1.00  0.00    -0.300 OA
BRANCH  47  49
ATOM     49  C   UNL     1      13.756  -8.302 192.997  1.00  0.00     0.072 C 
ATOM     50  C   UNL     1      15.054  -7.510 192.880  1.00  0.00     0.012 C 
ENDBRANCH  47  49
ENDBRANCH  46  47
ENDBRANCH  45  46
ENDBRANCH  44  45
ENDBRANCH  43  44
ENDBRANCH   1  43
TORSDOF 12
ENDMDL
MODEL 2
REMARK VINA RESULT:    -3.481      5.366     10.666
REMARK INTER + INTRA:          -8.784
REMARK INTER:                  -7.469
REMARK INTRA:                  -1.315
REMARK UNBOUND:                -1.437
REMARK SMILES CCC(=O)CCCCC[C@@H]1NC(=O)[C@H]2CCCCN2C(=O)[C@H]([C@@H](C)CC)NC(=O)[C@@H](Cc2cn(OC)c3ccccc23)NC1=O
REMARK SMILES IDX 9 1 10 2 44 3 43 4 45 6 30 7 28 8 27 9 29 11 22 12 23 14
REMARK SMILES IDX 24 15 25 16 26 17 31 18 32 19 33 20 42 21 34 22 37 23 41 24
REMARK SMILES IDX 38 25 40 26 39 27 35 28 36 29 11 30 12 31 13 33 14 34 19 35
REMARK SMILES IDX 15 36 18 37 16 38 17 39 20 40 21 41 8 43 7 44 6 45 5 46 3 47
REMARK SMILES IDX 4 48 2 49 1 50
REMARK H PARENT 43 5 27 10 11 32
REMARK Flexibility Score: 80.00
ROOT
ATOM      1  C   UNL     1      11.647  -1.983 202.618  1.00  0.00     0.035 C 
ENDROOT
BRANCH   1   2
ATOM      2  C   UNL     1      13.171  -2.002 202.362  1.00  0.00     0.171 C 
BRANCH   2   3
ATOM      3  C   UNL     1      13.561  -2.784 201.125  1.00  0.00     0.243 C 
ATOM      4  N   UNL     1      14.773  -3.557 201.108  1.00  0.00    -0.342 N 
ATOM      5  H   UNL     1      15.459  -3.446 201.887  1.00  0.00     0.164 HD
ATOM      6  O   UNL     1      12.826  -2.759 200.101  1.00  0.00    -0.273 OA
BRANCH   4   7
ATOM      7  C   UNL     1      15.071  -4.488 200.014  1.00  0.00     0.175 C 
BRANCH   7   8
ATOM      8  C   UNL     1      15.564  -3.722 198.815  1.00  0.00     0.243 C 
ATOM      9  N   UNL     1      16.886  -3.161 198.803  1.00  0.00    -0.342 N 
ATOM     10  H   UNL     1      17.615  -3.643 199.375  1.00  0.00     0.164 HD
ATOM     11  O   UNL     1      14.811  -3.595 197.817  1.00  0.00    -0.273 OA
BRANCH   9  12
ATOM     12  C   UNL     1      17.204  -1.794 198.365  1.00  0.00     0.174 CG0
ATOM     13  G   UNL     1      16.275  -0.803 199.052  1.00  0.00     0.000 G0
BRANCH  12  14
ATOM     14  C   UNL     1      17.411  -1.656 196.814  1.00  0.00     0.018 C 
ATOM     15  C   UNL     1      18.361  -0.485 196.498  1.00  0.00     0.010 C 
BRANCH  14  16
ATOM     16  C   UNL     1      17.848  -2.930 196.031  1.00  0.00     0.002 C 
ATOM     17  C   UNL     1      19.334  -3.253 196.221  1.00  0.00     0.004 C 
ENDBRANCH  14  16
ENDBRANCH  12  14
ENDBRANCH   9  12
ENDBRANCH   7   8
BRANCH   7  18
ATOM     18  C   UNL     1      16.081  -5.559 200.469  1.00  0.00     0.073 C 
BRANCH  18  19
ATOM     19  C   UNL     1      16.165  -6.680 199.472  1.00  0.00    -0.016 A 
ATOM     20  C   UNL     1      15.149  -7.586 199.178  1.00  0.00     0.134 A 
ATOM     21  C   UNL     1      17.170  -6.924 198.549  1.00  0.00     0.006 A 
ATOM     22  N   UNL     1      15.518  -8.366 198.132  1.00  0.00    -0.191 N 
ATOM     23  C   UNL     1      16.741  -7.958 197.754  1.00  0.00     0.087 A 
ATOM     24  C   UNL     1      18.395  -6.294 198.330  1.00  0.00     0.011 A 
ATOM     25  C   UNL     1      17.503  -8.427 196.684  1.00  0.00     0.030 A 
ATOM     26  C   UNL     1      19.189  -6.750 197.262  1.00  0.00     0.001 A 
ATOM     27  C   UNL     1      18.746  -7.812 196.443  1.00  0.00     0.002 A 
BRANCH  22  28
ATOM     28  O   UNL     1      14.769  -9.344 197.506  1.00  0.00    -0.417 OA
ATOM     29  C   UNL     1      13.352  -9.396 197.609  1.00  0.00     0.313 C 
ENDBRANCH  22  28
ENDBRANCH  18  19
ENDBRANCH   7  18
ENDBRANCH   4   7
ENDBRANCH   2   3
BRANCH   2  30
ATOM     30  N   UNL     1      13.752  -0.653 202.393  1.00  0.00    -0.343 N 
ATOM     31  C   UNL     1      14.132   0.099 201.232  1.00  0.00     0.243 C 
ATOM     32  H   UNL     1      13.912  -0.220 203.331  1.00  0.00     0.164 HD
ATOM     33  O   UNL     1      13.285   0.303 200.321  1.00  0.00    -0.273 OA
BRANCH  31  34
ATOM     34  C   UNL     1      15.546   0.604 201.046  1.00  0.00     0.174 C 
ATOM     35  N   UNL     1      16.412  -0.459 200.490  1.00  0.00    -0.329 N 
ATOM     36  C   UNL     1      16.141   1.246 202.320  1.00  0.00     0.035 C 
ATOM     37  C   UNL     1      17.408  -1.134 201.341  1.00  0.00     0.120 C 
ATOM     38  C   UNL     1      16.730   0.263 203.351  1.00  0.00     0.004 C 
ATOM     39  C   UNL     1      16.992  -1.144 202.808  1.00  0.00     0.022 C 
BRANCH  35  40
ATOM     40  C   UNL     1      16.280  -0.790 199.081  1.00  0.00     0.246 CG0
ATOM     41  O   UNL     1      15.279  -0.357 198.450  1.00  0.00    -0.272 OA
ATOM     42  G   UNL     1      17.222  -1.766 198.389  1.00  0.00     0.000 G0
ENDBRANCH  35  40
ENDBRANCH  31  34
ENDBRANCH   2  30
ENDBRANCH   1   2
BRANCH   1  43
ATOM     43  C   UNL     1      11.060  -0.588 202.910  1.00  0.00     0.003 C 
BRANCH  43  44
ATOM     44  C   UNL     1      10.315   0.003 201.704  1.00  0.00     0.001 C 
BRANCH  44  45
ATOM     45  C   UNL     1       9.908  -1.059 200.673  1.00  0.00     0.008 C 
BRANCH  45  46
ATOM     46  C   UNL     1       8.792  -0.531 199.765  1.00  0.00     0.075 C 
BRANCH  46  47
ATOM     47  C   UNL     1       9.028  -0.931 198.332  1.00  0.00     0.132 C 
ATOM     48  O   UNL     1       8.077  -1.189 197.611  1.00  0.00    -0.300 OA
BRANCH  47  49
ATOM     49  C   UNL     1      10.426  -1.073 197.788  1.00  0.00     0.072 C 
ATOM     50  C   UNL     1      10.418  -1.900 196.508  1.00  0.00     0.012 C 
ENDBRANCH  47  49
ENDBRANCH  46  47
ENDBRANCH  45  46
ENDBRANCH  44  45
ENDBRANCH  43  44
ENDBRANCH   1  43
TORSDOF 12
ENDMDL
MODEL 3
REMARK VINA RESULT:    -3.381      1.668      2.709
REMARK INTER + INTRA:          -8.573
REMARK INTER:                  -7.209
REMARK INTRA:                  -1.364
REMARK UNBOUND:                -1.437
REMARK SMILES CCC(=O)CCCCC[C@@H]1NC(=O)[C@H]2CCCCN2C(=O)[C@H]([C@@H](C)CC)NC(=O)[C@@H](Cc2cn(OC)c3ccccc23)NC1=O
REMARK SMILES IDX 9 1 10 2 44 3 43 4 45 6 30 7 28 8 27 9 29 11 22 12 23 14
REMARK SMILES IDX 24 15 25 16 26 17 31 18 32 19 33 20 42 21 34 22 37 23 41 24
REMARK SMILES IDX 38 25 40 26 39 27 35 28 36 29 11 30 12 31 13 33 14 34 19 35
REMARK SMILES IDX 15 36 18 37 16 38 17 39 20 40 21 41 8 43 7 44 6 45 5 46 3 47
REMARK SMILES IDX 4 48 2 49 1 50
REMARK H PARENT 43 5 27 10 11 32
REMARK Flexibility Score: 80.00
ROOT
ATOM      1  C   UNL     1      11.060  -9.987 195.793  1.00  0.00     0.035 C 
ENDROOT
BRANCH   1   2
ATOM      2  C   UNL     1      12.328 -10.664 196.361  1.00  0.00     0.171 C 
BRANCH   2   3
ATOM      3  C   UNL     1      12.732 -10.132 197.721  1.00  0.00     0.243 C 
ATOM      4  N   UNL     1      14.061  -9.626 197.935  1.00  0.00    -0.342 N 
ATOM      5  H   UNL     1      14.788  -9.777 197.202  1.00  0.00     0.164 HD
ATOM      6  O   UNL     1      11.907 -10.133 198.674  1.00  0.00    -0.273 OA
BRANCH   4   7
ATOM      7  C   UNL     1      14.418  -8.913 199.166  1.00  0.00     0.175 C 
BRANCH   7   8
ATOM      8  C   UNL     1      14.663  -9.904 200.273  1.00  0.00     0.243 C 
ATOM      9  N   UNL     1      15.626 -10.956 200.109  1.00  0.00    -0.342 N 
ATOM     10  H   UNL     1      16.430 -10.773 199.468  1.00  0.00     0.164 HD
ATOM     11  O   UNL     1      14.027  -9.787 201.352  1.00  0.00    -0.273 OA
BRANCH   9  12
ATOM     12  C   UNL     1      15.388 -12.362 200.466  1.00  0.00     0.174 CG0
ATOM     13  G   UNL     1      14.124 -12.861 199.780  1.00  0.00     0.000 G0
BRANCH  12  14
ATOM     14  C   UNL     1      15.566 -12.669 201.996  1.00  0.00     0.018 C 
ATOM     15  C   UNL     1      15.793 -14.176 202.222  1.00  0.00     0.010 C 
BRANCH  14  16
ATOM     16  C   UNL     1      16.630 -11.841 202.776  1.00  0.00     0.002 C 
ATOM     17  C   UNL     1      17.912 -12.639 203.043  1.00  0.00     0.004 C 
ENDBRANCH  14  16
ENDBRANCH  12  14
ENDBRANCH   9  12
ENDBRANCH   7   8
BRANCH   7  18
ATOM     18  C   UNL     1      15.636  -7.998 198.933  1.00  0.00     0.073 C 
BRANCH  18  19
ATOM     19  C   UNL     1      15.506  -7.246 197.638  1.00  0.00    -0.016 A 
ATOM     20  C   UNL     1      16.411  -7.282 196.580  1.00  0.00     0.134 A 
ATOM     21  C   UNL     1      14.413  -6.528 197.177  1.00  0.00     0.006 A 
ATOM     22  N   UNL     1      15.907  -6.603 195.521  1.00  0.00    -0.191 N 
ATOM     23  C   UNL     1      14.695  -6.151 195.888  1.00  0.00     0.087 A 
ATOM     24  C   UNL     1      13.192  -6.219 197.778  1.00  0.00     0.011 A 
ATOM     25  C   UNL     1      13.778  -5.446 195.110  1.00  0.00     0.030 A 
ATOM     26  C   UNL     1      12.249  -5.502 197.020  1.00  0.00     0.001 A 
ATOM     27  C   UNL     1      12.539  -5.116 195.693  1.00  0.00     0.002 A 
BRANCH  22  28
ATOM     28  O   UNL     1      16.473  -6.455 194.269  1.00  0.00    -0.417 OA
ATOM     29  C   UNL     1      17.441  -7.364 193.763  1.00  0.00     0.313 C 
ENDBRANCH  22  28
ENDBRANCH  18  19
ENDBRANCH   7  18
ENDBRANCH   4   7
ENDBRANCH   2   3
BRANCH   2  30
ATOM     30  N   UNL     1      12.233 -12.130 196.326  1.00  0.00    -0.343 N 
ATOM     31  C   UNL     1      11.943 -12.956 197.462  1.00  0.00     0.243 C 
ATOM     32  H   UNL     1      12.403 -12.599 195.408  1.00  0.00     0.164 HD
ATOM     33  O   UNL     1      10.903 -12.739 198.139  1.00  0.00    -0.273 OA
BRANCH  31  34
ATOM     34  C   UNL     1      12.892 -14.050 197.903  1.00  0.00     0.174 C 
ATOM     35  N   UNL     1      14.143 -13.472 198.440  1.00  0.00    -0.329 N 
ATOM     36  C   UNL     1      13.150 -15.115 196.814  1.00  0.00     0.035 C 
ATOM     37  C   UNL     1      15.391 -13.537 197.660  1.00  0.00     0.120 C 
ATOM     38  C   UNL     1      14.216 -14.749 195.762  1.00  0.00     0.004 C 
ATOM     39  C   UNL     1      15.124 -13.583 196.159  1.00  0.00     0.022 C 
BRANCH  35  40
ATOM     40  C   UNL     1      14.116 -12.875 199.765  1.00  0.00     0.246 CG0
ATOM     41  O   UNL     1      12.999 -12.677 200.315  1.00  0.00    -0.272 OA
ATOM     42  G   UNL     1      15.374 -12.342 200.437  1.00  0.00     0.000 G0
ENDBRANCH  35  40
ENDBRANCH  31  34
ENDBRANCH   2  30
ENDBRANCH   1   2
BRANCH   1  43
ATOM     43  C   UNL     1      11.282  -8.565 195.240  1.00  0.00     0.003 C 
BRANCH  43  44
ATOM     44  C   UNL     1      11.687  -8.565 193.758  1.00  0.00     0.001 C 
BRANCH  44  45
ATOM     45  C   UNL     1      13.045  -9.235 193.508  1.00  0.00     0.008 C 
BRANCH  45  46
ATOM     46  C   UNL     1      13.003 -10.081 192.231  1.00  0.00     0.075 C 
BRANCH  46  47
ATOM     47  C   UNL     1      13.119 -11.548 192.551  1.00  0.00     0.132 C 
ATOM     48  O   UNL     1      13.736 -11.905 193.543  1.00  0.00    -0.300 OA
BRANCH  47  49
ATOM     49  C   UNL     1      12.533 -12.589 191.633  1.00  0.00     0.072 C 
ATOM     50  C   UNL     1      13.375 -12.719 190.368  1.00  0.00     0.012 C 
ENDBRANCH  47  49
ENDBRANCH  46  47
ENDBRANCH  45  46
ENDBRANCH  44  45
ENDBRANCH  43  44
ENDBRANCH   1  43
TORSDOF 12
ENDMDL
MODEL 4
REMARK VINA RESULT:    -3.377      4.957      9.446
REMARK INTER + INTRA:          -8.564
REMARK INTER:                  -7.817
REMARK INTRA:                  -0.747
REMARK UNBOUND:                -1.437
REMARK SMILES CCC(=O)CCCCC[C@@H]1NC(=O)[C@H]2CCCCN2C(=O)[C@H]([C@@H](C)CC)NC(=O)[C@@H](Cc2cn(OC)c3ccccc23)NC1=O
REMARK SMILES IDX 9 1 10 2 44 3 43 4 45 6 30 7 28 8 27 9 29 11 22 12 23 14
REMARK SMILES IDX 24 15 25 16 26 17 31 18 32 19 33 20 42 21 34 22 37 23 41 24
REMARK SMILES IDX 38 25 40 26 39 27 35 28 36 29 11 30 12 31 13 33 14 34 19 35
REMARK SMILES IDX 15 36 18 37 16 38 17 39 20 40 21 41 8 43 7 44 6 45 5 46 3 47
REMARK SMILES IDX 4 48 2 49 1 50
REMARK H PARENT 43 5 27 10 11 32
REMARK Flexibility Score: 80.00
ROOT
ATOM      1  C   UNL     1      14.591  -8.646 194.880  1.00  0.00     0.035 C 
ENDROOT
BRANCH   1   2
ATOM      2  C   UNL     1      16.022  -8.062 194.853  1.00  0.00     0.171 C 
BRANCH   2   3
ATOM      3  C   UNL     1      16.343  -7.324 193.570  1.00  0.00     0.243 C 
ATOM      4  N   UNL     1      17.640  -7.456 192.963  1.00  0.00    -0.342 N 
ATOM      5  H   UNL     1      18.405  -7.928 193.494  1.00  0.00     0.164 HD
ATOM      6  O   UNL     1      15.476  -6.587 193.027  1.00  0.00    -0.273 OA
BRANCH   4   7
ATOM      7  C   UNL     1      17.914  -6.932 191.621  1.00  0.00     0.175 C 
BRANCH   7   8
ATOM      8  C   UNL     1      18.160  -5.448 191.696  1.00  0.00     0.243 C 
ATOM      9  N   UNL     1      19.355  -4.938 192.307  1.00  0.00    -0.342 N 
ATOM     10  H   UNL     1      20.204  -5.546 192.276  1.00  0.00     0.164 HD
ATOM     11  O   UNL     1      17.314  -4.661 191.200  1.00  0.00    -0.273 OA
BRANCH   9  12
ATOM     12  C   UNL     1      19.387  -3.826 193.268  1.00  0.00     0.174 CG0
ATOM     13  G   UNL     1      18.352  -4.058 194.360  1.00  0.00     0.000 G0
BRANCH  12  14
ATOM     14  C   UNL     1      19.444  -2.407 192.596  1.00  0.00     0.018 C 
ATOM     15  C   UNL     1      20.119  -1.391 193.538  1.00  0.00     0.010 C 
BRANCH  14  16
ATOM     16  C   UNL     1      20.061  -2.311 191.169  1.00  0.00     0.002 C 
ATOM     17  C   UNL     1      20.024  -0.884 190.610  1.00  0.00     0.004 C 
ENDBRANCH  14  16
ENDBRANCH  12  14
ENDBRANCH   9  12
ENDBRANCH   7   8
BRANCH   7  18
ATOM     18  C   UNL     1      19.095  -7.679 190.974  1.00  0.00     0.073 C 
BRANCH  18  19
ATOM     19  C   UNL     1      18.980  -7.677 189.475  1.00  0.00    -0.016 A 
ATOM     20  C   UNL     1      18.997  -6.549 188.658  1.00  0.00     0.134 A 
ATOM     21  C   UNL     1      19.008  -8.766 188.618  1.00  0.00     0.006 A 
ATOM     22  N   UNL     1      19.017  -6.925 187.356  1.00  0.00    -0.191 N 
ATOM     23  C   UNL     1      19.027  -8.269 187.339  1.00  0.00     0.087 A 
ATOM     24  C   UNL     1      19.057 -10.138 188.870  1.00  0.00     0.011 A 
ATOM     25  C   UNL     1      19.103  -9.106 186.226  1.00  0.00     0.030 A 
ATOM     26  C   UNL     1      19.128 -11.007 187.766  1.00  0.00     0.001 A 
ATOM     27  C   UNL     1      19.150 -10.495 186.450  1.00  0.00     0.002 A 
BRANCH  22  28
ATOM     28  O   UNL     1      19.094  -6.107 186.245  1.00  0.00    -0.417 OA
ATOM     29  C   UNL     1      18.101  -5.134 185.949  1.00  0.00     0.313 C 
ENDBRANCH  22  28
ENDBRANCH  18  19
ENDBRANCH   7  18
ENDBRANCH   4   7
ENDBRANCH   2   3
BRANCH   2  30
ATOM     30  N   UNL     1      16.318  -7.272 196.056  1.00  0.00    -0.343 N 
ATOM     31  C   UNL     1      16.367  -5.839 196.100  1.00  0.00     0.243 C 
ATOM     32  H   UNL     1      16.519  -7.797 196.937  1.00  0.00     0.164 HD
ATOM     33  O   UNL     1      15.375  -5.171 195.702  1.00  0.00    -0.273 OA
BRANCH  31  34
ATOM     34  C   UNL     1      17.610  -5.107 196.558  1.00  0.00     0.174 C 
ATOM     35  N   UNL     1      18.602  -5.023 195.464  1.00  0.00    -0.329 N 
ATOM     36  C   UNL     1      18.213  -5.677 197.862  1.00  0.00     0.035 C 
ATOM     37  C   UNL     1      19.816  -5.857 195.489  1.00  0.00     0.120 C 
ATOM     38  C   UNL     1      19.121  -6.912 197.693  1.00  0.00     0.004 C 
ATOM     39  C   UNL     1      19.600  -7.155 196.260  1.00  0.00     0.022 C 
BRANCH  35  40
ATOM     40  C   UNL     1      18.364  -4.075 194.388  1.00  0.00     0.246 CG0
ATOM     41  O   UNL     1      17.242  -3.504 194.323  1.00  0.00    -0.272 OA
ATOM     42  G   UNL     1      19.363  -3.869 193.258  1.00  0.00     0.000 G0
ENDBRANCH  35  40
ENDBRANCH  31  34
ENDBRANCH   2  30
ENDBRANCH   1   2
BRANCH   1  43
ATOM     43  C   UNL     1      14.512 -10.167 194.644  1.00  0.00     0.003 C 
BRANCH  43  44
ATOM     44  C   UNL     1      13.431 -10.842 195.501  1.00  0.00     0.001 C 
BRANCH  44  45
ATOM     45  C   UNL     1      14.012 -11.656 196.665  1.00  0.00     0.008 C 
BRANCH  45  46
ATOM     46  C   UNL     1      15.245 -10.959 197.250  1.00  0.00     0.075 C 
BRANCH  46  47
ATOM     47  C   UNL     1      14.847  -9.924 198.270  1.00  0.00     0.132 C 
ATOM     48  O   UNL     1      15.605  -9.001 198.523  1.00  0.00    -0.300 OA
BRANCH  47  49
ATOM     49  C   UNL     1      13.550 -10.043 199.027  1.00  0.00     0.072 C 
ATOM     50  C   UNL     1      13.815 -10.157 200.524  1.00  0.00     0.012 C 
ENDBRANCH  47  49
ENDBRANCH  46  47
ENDBRANCH  45  46
ENDBRANCH  44  45
ENDBRANCH  43  44
ENDBRANCH   1  43
TORSDOF 12
ENDMDL
MODEL 5
REMARK VINA RESULT:    -3.376      9.109     12.799
REMARK INTER + INTRA:          -8.562
REMARK INTER:                  -7.061
REMARK INTRA:                  -1.501
REMARK UNBOUND:                -1.437
REMARK SMILES CCC(=O)CCCCC[C@@H]1NC(=O)[C@H]2CCCCN2C(=O)[C@H]([C@@H](C)CC)NC(=O)[C@@H](Cc2cn(OC)c3ccccc23)NC1=O
REMARK SMILES IDX 9 1 10 2 44 3 43 4 45 6 30 7 28 8 27 9 29 11 22 12 23 14
REMARK SMILES IDX 24 15 25 16 26 17 31 18 32 19 33 20 42 21 34 22 37 23 41 24
REMARK SMILES IDX 38 25 40 26 39 27 35 28 36 29 11 30 12 31 13 33 14 34 19 35
REMARK SMILES IDX 15 36 18 37 16 38 17 39 20 40 21 41 8 43 7 44 6 45 5 46 3 47
REMARK SMILES IDX 4 48 2 49 1 50
REMARK H PARENT 43 5 27 10 11 32
REMARK Flexibility Score: 80.00
ROOT
ATOM      1  C   UNL     1       8.067  -1.235 194.972  1.00  0.00     0.035 C 
ENDROOT
BRANCH   1   2
ATOM      2  C   UNL     1       7.926  -2.743 195.279  1.00  0.00     0.171 C 
BRANCH   2   3
ATOM      3  C   UNL     1       6.568  -3.116 195.838  1.00  0.00     0.243 C 
ATOM      4  N   UNL     1       6.469  -3.952 197.004  1.00  0.00    -0.342 N 
ATOM      5  H   UNL     1       7.324  -4.431 197.361  1.00  0.00     0.164 HD
ATOM      6  O   UNL     1       5.517  -2.697 195.283  1.00  0.00    -0.273 OA
BRANCH   4   7
ATOM      7  C   UNL     1       5.190  -4.156 197.692  1.00  0.00     0.175 C 
BRANCH   7   8
ATOM      8  C   UNL     1       4.395  -5.220 196.982  1.00  0.00     0.243 C 
ATOM      9  N   UNL     1       4.900  -6.561 196.881  1.00  0.00    -0.342 N 
ATOM     10  H   UNL     1       5.537  -6.889 197.641  1.00  0.00     0.164 HD
ATOM     11  O   UNL     1       3.274  -4.925 196.494  1.00  0.00    -0.273 OA
BRANCH   9  12
ATOM     12  C   UNL     1       4.896  -7.359 195.647  1.00  0.00     0.174 CG0
ATOM     13  G   UNL     1       5.528  -6.561 194.515  1.00  0.00     0.000 G0
BRANCH  12  14
ATOM     14  C   UNL     1       3.531  -8.084 195.365  1.00  0.00     0.018 C 
ATOM     15  C   UNL     1       3.707  -9.158 194.274  1.00  0.00     0.010 C 
BRANCH  14  16
ATOM     16  C   UNL     1       2.765  -8.676 196.585  1.00  0.00     0.002 C 
ATOM     17  C   UNL     1       3.513  -9.847 197.233  1.00  0.00     0.004 C 
ENDBRANCH  14  16
ENDBRANCH  12  14
ENDBRANCH   9  12
ENDBRANCH   7   8
BRANCH   7  18
ATOM     18  C   UNL     1       5.418  -4.501 199.176  1.00  0.00     0.073 C 
BRANCH  18  19
ATOM     19  C   UNL     1       4.116  -4.546 199.926  1.00  0.00    -0.016 A 
ATOM     20  C   UNL     1       3.302  -3.453 200.212  1.00  0.00     0.134 A 
ATOM     21  C   UNL     1       3.399  -5.666 200.318  1.00  0.00     0.006 A 
ATOM     22  N   UNL     1       2.143  -3.877 200.771  1.00  0.00    -0.191 N 
ATOM     23  C   UNL     1       2.206  -5.218 200.830  1.00  0.00     0.087 A 
ATOM     24  C   UNL     1       3.690  -7.027 200.226  1.00  0.00     0.011 A 
ATOM     25  C   UNL     1       1.222  -6.099 201.278  1.00  0.00     0.030 A 
ATOM     26  C   UNL     1       2.719  -7.940 200.677  1.00  0.00     0.001 A 
ATOM     27  C   UNL     1       1.491  -7.478 201.201  1.00  0.00     0.002 A 
BRANCH  22  28
ATOM     28  O   UNL     1       1.057  -3.108 201.144  1.00  0.00    -0.417 OA
ATOM     29  C   UNL     1       0.892  -1.766 200.706  1.00  0.00     0.313 C 
ENDBRANCH  22  28
ENDBRANCH  18  19
ENDBRANCH   7  18
ENDBRANCH   4   7
ENDBRANCH   2   3
BRANCH   2  30
ATOM     30  N   UNL     1       8.323  -3.578 194.137  1.00  0.00    -0.343 N 
ATOM     31  C   UNL     1       7.411  -4.309 193.306  1.00  0.00     0.243 C 
ATOM     32  H   UNL     1       9.344  -3.652 193.929  1.00  0.00     0.164 HD
ATOM     33  O   UNL     1       6.459  -3.703 192.745  1.00  0.00    -0.273 OA
BRANCH  31  34
ATOM     34  C   UNL     1       7.532  -5.808 193.131  1.00  0.00     0.174 C 
ATOM     35  N   UNL     1       7.001  -6.517 194.316  1.00  0.00    -0.329 N 
ATOM     36  C   UNL     1       8.958  -6.270 192.755  1.00  0.00     0.035 C 
ATOM     37  C   UNL     1       7.915  -7.162 195.275  1.00  0.00     0.120 C 
ATOM     38  C   UNL     1       9.941  -6.425 193.932  1.00  0.00     0.004 C 
ATOM     39  C   UNL     1       9.278  -6.479 195.310  1.00  0.00     0.022 C 
BRANCH  35  40
ATOM     40  C   UNL     1       5.559  -6.590 194.488  1.00  0.00     0.246 CG0
ATOM     41  O   UNL     1       4.824  -5.914 193.718  1.00  0.00    -0.272 OA
ATOM     42  G   UNL     1       4.921  -7.327 195.657  1.00  0.00     0.000 G0
ENDBRANCH  35  40
ENDBRANCH  31  34
ENDBRANCH   2  30
ENDBRANCH   1   2
BRANCH   1  43
ATOM     43  C   UNL     1       9.317  -0.568 195.580  1.00  0.00     0.003 C 
BRANCH  43  44
ATOM     44  C   UNL     1      10.360  -1.592 196.055  1.00  0.00     0.001 C 
BRANCH  44  45
ATOM     45  C   UNL     1      11.313  -1.027 197.117  1.00  0.00     0.008 C 
BRANCH  45  46
ATOM     46  C   UNL     1      10.963  -1.577 198.504  1.00  0.00     0.075 C 
BRANCH  46  47
ATOM     47  C   UNL     1      10.009  -0.660 199.223  1.00  0.00     0.132 C 
ATOM     48  O   UNL     1      10.234   0.541 199.260  1.00  0.00    -0.300 OA
BRANCH  47  49
ATOM     49  C   UNL     1       8.809  -1.208 199.950  1.00  0.00     0.072 C 
ATOM     50  C   UNL     1       7.584  -1.198 199.041  1.00  0.00     0.012 C 
ENDBRANCH  47  49
ENDBRANCH  46  47
ENDBRANCH  45  46
ENDBRANCH  44  45
ENDBRANCH  43  44
ENDBRANCH   1  43
TORSDOF 12
ENDMDL
MODEL 6
REMARK VINA RESULT:    -3.371      2.908      6.931
REMARK INTER + INTRA:          -8.552
REMARK INTER:                  -7.353
REMARK INTRA:                  -1.199
REMARK UNBOUND:                -1.437
REMARK SMILES CCC(=O)CCCCC[C@@H]1NC(=O)[C@H]2CCCCN2C(=O)[C@H]([C@@H](C)CC)NC(=O)[C@@H](Cc2cn(OC)c3ccccc23)NC1=O
REMARK SMILES IDX 9 1 10 2 44 3 43 4 45 6 30 7 28 8 27 9 29 11 22 12 23 14
REMARK SMILES IDX 24 15 25 16 26 17 31 18 32 19 33 20 42 21 34 22 37 23 41 24
REMARK SMILES IDX 38 25 40 26 39 27 35 28 36 29 11 30 12 31 13 33 14 34 19 35
REMARK SMILES IDX 15 36 18 37 16 38 17 39 20 40 21 41 8 43 7 44 6 45 5 46 3 47
REMARK SMILES IDX 4 48 2 49 1 50
REMARK H PARENT 43 5 27 10 11 32
REMARK Flexibility Score: 80.00
ROOT
ATOM      1  C   UNL     1      12.746 -11.709 197.315  1.00  0.00     0.035 C 
ENDROOT
BRANCH   1   2
ATOM      2  C   UNL     1      12.334 -10.233 197.515  1.00  0.00     0.171 C 
BRANCH   2   3
ATOM      3  C   UNL     1      13.473  -9.351 197.983  1.00  0.00     0.243 C 
ATOM      4  N   UNL     1      14.760  -9.922 198.272  1.00  0.00    -0.342 N 
ATOM      5  H   UNL     1      14.858 -10.961 198.316  1.00  0.00     0.164 HD
ATOM      6  O   UNL     1      13.299  -8.111 198.123  1.00  0.00    -0.273 OA
BRANCH   4   7
ATOM      7  C   UNL     1      15.934  -9.079 198.518  1.00  0.00     0.175 C 
BRANCH   7   8
ATOM      8  C   UNL     1      16.551  -8.671 197.205  1.00  0.00     0.243 C 
ATOM      9  N   UNL     1      16.123  -7.471 196.541  1.00  0.00    -0.342 N 
ATOM     10  H   UNL     1      15.759  -6.698 197.141  1.00  0.00     0.164 HD
ATOM     11  O   UNL     1      17.458  -9.385 196.707  1.00  0.00    -0.273 OA
BRANCH   9  12
ATOM     12  C   UNL     1      15.815  -7.381 195.107  1.00  0.00     0.174 CG0
ATOM     13  G   UNL     1      14.703  -8.360 194.756  1.00  0.00     0.000 G0
BRANCH  12  14
ATOM     14  C   UNL     1      17.087  -7.350 194.185  1.00  0.00     0.018 C 
ATOM     15  C   UNL     1      16.719  -6.849 192.775  1.00  0.00     0.010 C 
BRANCH  14  16
ATOM     16  C   UNL     1      18.341  -6.593 194.715  1.00  0.00     0.002 C 
ATOM     17  C   UNL     1      18.162  -5.071 194.685  1.00  0.00     0.004 C 
ENDBRANCH  14  16
ENDBRANCH  12  14
ENDBRANCH   9  12
ENDBRANCH   7   8
BRANCH   7  18
ATOM     18  C   UNL     1      15.559  -7.859 199.381  1.00  0.00     0.073 C 
BRANCH  18  19
ATOM     19  C   UNL     1      16.024  -8.037 200.798  1.00  0.00    -0.016 A 
ATOM     20  C   UNL     1      15.585  -9.018 201.684  1.00  0.00     0.134 A 
ATOM     21  C   UNL     1      17.075  -7.395 201.435  1.00  0.00     0.006 A 
ATOM     22  N   UNL     1      16.319  -8.972 202.822  1.00  0.00    -0.191 N 
ATOM     23  C   UNL     1      17.222  -7.989 202.664  1.00  0.00     0.087 A 
ATOM     24  C   UNL     1      17.925  -6.372 201.012  1.00  0.00     0.011 A 
ATOM     25  C   UNL     1      18.230  -7.608 203.549  1.00  0.00     0.030 A 
ATOM     26  C   UNL     1      18.948  -5.962 201.886  1.00  0.00     0.001 A 
ATOM     27  C   UNL     1      19.100  -6.576 203.149  1.00  0.00     0.002 A 
BRANCH  22  28
ATOM     28  O   UNL     1      16.231  -9.812 203.916  1.00  0.00    -0.417 OA
ATOM     29  C   UNL     1      16.302 -11.226 203.792  1.00  0.00     0.313 C 
ENDBRANCH  22  28
ENDBRANCH  18  19
ENDBRANCH   7  18
ENDBRANCH   4   7
ENDBRANCH   2   3
BRANCH   2  30
ATOM     30  N   UNL     1      11.636  -9.691 196.341  1.00  0.00    -0.343 N 
ATOM     31  C   UNL     1      11.979  -9.985 194.980  1.00  0.00     0.243 C 
ATOM     32  H   UNL     1      10.842  -9.034 196.516  1.00  0.00     0.164 HD
ATOM     33  O   UNL     1      12.036 -11.185 194.600  1.00  0.00    -0.273 OA
BRANCH  31  34
ATOM     34  C   UNL     1      12.333  -8.887 194.001  1.00  0.00     0.174 C 
ATOM     35  N   UNL     1      13.296  -7.939 194.604  1.00  0.00    -0.329 N 
ATOM     36  C   UNL     1      11.098  -8.176 193.403  1.00  0.00     0.035 C 
ATOM     37  C   UNL     1      12.861  -6.596 195.024  1.00  0.00     0.120 C 
ATOM     38  C   UNL     1      10.479  -7.066 194.276  1.00  0.00     0.004 C 
ATOM     39  C   UNL     1      11.384  -6.568 195.406  1.00  0.00     0.022 C 
BRANCH  35  40
ATOM     40  C   UNL     1      14.683  -8.354 194.735  1.00  0.00     0.246 CG0
ATOM     41  O   UNL     1      14.958  -9.580 194.634  1.00  0.00    -0.272 OA
ATOM     42  G   UNL     1      15.782  -7.383 195.143  1.00  0.00     0.000 G0
ENDBRANCH  35  40
ENDBRANCH  31  34
ENDBRANCH   2  30
ENDBRANCH   1   2
BRANCH   1  43
ATOM     43  C   UNL     1      11.722 -12.739 197.830  1.00  0.00     0.003 C 
BRANCH  43  44
ATOM     44  C   UNL     1      12.372 -14.079 198.209  1.00  0.00     0.001 C 
BRANCH  44  45
ATOM     45  C   UNL     1      12.562 -14.244 199.723  1.00  0.00     0.008 C 
BRANCH  45  46
ATOM     46  C   UNL     1      14.030 -14.534 200.056  1.00  0.00     0.075 C 
BRANCH  46  47
ATOM     47  C   UNL     1      14.897 -13.339 199.758  1.00  0.00     0.132 C 
ATOM     48  O   UNL     1      14.835 -12.352 200.474  1.00  0.00    -0.300 OA
BRANCH  47  49
ATOM     49  C   UNL     1      15.801 -13.320 198.552  1.00  0.00     0.072 C 
ATOM     50  C   UNL     1      15.856 -14.700 197.906  1.00  0.00     0.012 C 
ENDBRANCH  47  49
ENDBRANCH  46  47
ENDBRANCH  45  46
ENDBRANCH  44  45
ENDBRANCH  43  44
ENDBRANCH   1  43
TORSDOF 12
ENDMDL
MODEL 7
REMARK VINA RESULT:    -3.170      1.949      2.211
REMARK INTER + INTRA:          -8.128
REMARK INTER:                  -7.429
REMARK INTRA:                  -0.699
REMARK UNBOUND:                -1.437
REMARK SMILES CCC(=O)CCCCC[C@@H]1NC(=O)[C@H]2CCCCN2C(=O)[C@H]([C@@H](C)CC)NC(=O)[C@@H](Cc2cn(OC)c3ccccc23)NC1=O
REMARK SMILES IDX 9 1 10 2 44 3 43 4 45 6 30 7 28 8 27 9 29 11 22 12 23 14
REMARK SMILES IDX 24 15 25 16 26 17 31 18 32 19 33 20 42 21 34 22 37 23 41 24
REMARK SMILES IDX 38 25 40 26 39 27 35 28 36 29 11 30 12 31 13 33 14 34 19 35
REMARK SMILES IDX 15 36 18 37 16 38 17 39 20 40 21 41 8 43 7 44 6 45 5 46 3 47
REMARK SMILES IDX 4 48 2 49 1 50
REMARK H PARENT 43 5 27 10 11 32
REMARK Flexibility Score: 80.00
ROOT
ATOM      1  C   UNL     1       9.680 -10.908 196.391  1.00  0.00     0.035 C 
ENDROOT
BRANCH   1   2
ATOM      2  C   UNL     1      11.142 -11.384 196.234  1.00  0.00     0.171 C 
BRANCH   2   3
ATOM      3  C   UNL     1      12.085 -10.766 197.246  1.00  0.00     0.243 C 
ATOM      4  N   UNL     1      13.452 -10.496 196.892  1.00  0.00    -0.342 N 
ATOM      5  H   UNL     1      13.831 -10.875 195.996  1.00  0.00     0.164 HD
ATOM      6  O   UNL     1      11.677 -10.488 198.405  1.00  0.00    -0.273 OA
BRANCH   4   7
ATOM      7  C   UNL     1      14.328  -9.710 197.768  1.00  0.00     0.175 C 
BRANCH   7   8
ATOM      8  C   UNL     1      14.540 -10.444 199.065  1.00  0.00     0.243 C 
ATOM      9  N   UNL     1      15.465 -11.541 199.139  1.00  0.00    -0.342 N 
ATOM     10  H   UNL     1      16.273 -11.529 198.477  1.00  0.00     0.164 HD
ATOM     11  O   UNL     1      13.911 -10.074 200.089  1.00  0.00    -0.273 OA
BRANCH   9  12
ATOM     12  C   UNL     1      15.178 -12.827 199.791  1.00  0.00     0.174 CG0
ATOM     13  G   UNL     1      13.871 -13.396 199.256  1.00  0.00     0.000 G0
BRANCH  12  14
ATOM     14  C   UNL     1      15.393 -12.812 201.347  1.00  0.00     0.018 C 
ATOM     15  C   UNL     1      15.678 -14.235 201.865  1.00  0.00     0.010 C 
BRANCH  14  16
ATOM     16  C   UNL     1      16.440 -11.811 201.919  1.00  0.00     0.002 C 
ATOM     17  C   UNL     1      15.998 -11.200 203.253  1.00  0.00     0.004 C 
ENDBRANCH  14  16
ENDBRANCH  12  14
ENDBRANCH   9  12
ENDBRANCH   7   8
BRANCH   7  18
ATOM     18  C   UNL     1      15.660  -9.390 197.063  1.00  0.00     0.073 C 
BRANCH  18  19
ATOM     19  C   UNL     1      16.359  -8.237 197.727  1.00  0.00    -0.016 A 
ATOM     20  C   UNL     1      15.943  -7.591 198.888  1.00  0.00     0.134 A 
ATOM     21  C   UNL     1      17.608  -7.714 197.429  1.00  0.00     0.006 A 
ATOM     22  N   UNL     1      16.884  -6.698 199.280  1.00  0.00    -0.191 N 
ATOM     23  C   UNL     1      17.891  -6.780 198.394  1.00  0.00     0.087 A 
ATOM     24  C   UNL     1      18.518  -8.018 196.416  1.00  0.00     0.011 A 
ATOM     25  C   UNL     1      19.103  -6.091 198.416  1.00  0.00     0.030 A 
ATOM     26  C   UNL     1      19.747  -7.334 196.409  1.00  0.00     0.001 A 
ATOM     27  C   UNL     1      20.039  -6.374 197.404  1.00  0.00     0.002 A 
BRANCH  22  28
ATOM     28  O   UNL     1      16.871  -5.903 200.410  1.00  0.00    -0.417 OA
ATOM     29  C   UNL     1      17.061  -6.436 201.714  1.00  0.00     0.313 C 
ENDBRANCH  22  28
ENDBRANCH  18  19
ENDBRANCH   7  18
ENDBRANCH   4   7
ENDBRANCH   2   3
BRANCH   2  30
ATOM     30  N   UNL     1      11.242 -12.849 196.179  1.00  0.00    -0.343 N 
ATOM     31  C   UNL     1      11.344 -13.703 197.326  1.00  0.00     0.243 C 
ATOM     32  H   UNL     1      11.254 -13.294 195.233  1.00  0.00     0.164 HD
ATOM     33  O   UNL     1      10.473 -13.630 198.234  1.00  0.00    -0.273 OA
BRANCH  31  34
ATOM     34  C   UNL     1      12.510 -14.653 197.502  1.00  0.00     0.174 C 
ATOM     35  N   UNL     1      13.736 -13.913 197.871  1.00  0.00    -0.329 N 
ATOM     36  C   UNL     1      12.725 -15.590 196.293  1.00  0.00     0.035 C 
ATOM     37  C   UNL     1      14.819 -13.723 196.890  1.00  0.00     0.120 C 
ATOM     38  C   UNL     1      13.517 -14.989 195.114  1.00  0.00     0.004 C 
ATOM     39  C   UNL     1      14.297 -13.717 195.458  1.00  0.00     0.022 C 
BRANCH  35  40
ATOM     40  C   UNL     1      13.858 -13.413 199.230  1.00  0.00     0.246 CG0
ATOM     41  O   UNL     1      12.821 -13.344 199.944  1.00  0.00    -0.272 OA
ATOM     42  G   UNL     1      15.159 -12.828 199.763  1.00  0.00     0.000 G0
ENDBRANCH  35  40
ENDBRANCH  31  34
ENDBRANCH   2  30
ENDBRANCH   1   2
BRANCH   1  43
ATOM     43  C   UNL     1       9.095 -10.205 195.150  1.00  0.00     0.003 C 
BRANCH  43  44
ATOM     44  C   UNL     1       9.154  -8.674 195.256  1.00  0.00     0.001 C 
BRANCH  44  45
ATOM     45  C   UNL     1      10.177  -8.046 194.301  1.00  0.00     0.008 C 
BRANCH  45  46
ATOM     46  C   UNL     1      10.598  -6.658 194.795  1.00  0.00     0.075 C 
BRANCH  46  47
ATOM     47  C   UNL     1      11.854  -6.737 195.622  1.00  0.00     0.132 C 
ATOM     48  O   UNL     1      11.806  -6.507 196.821  1.00  0.00    -0.300 OA
BRANCH  47  49
ATOM     49  C   UNL     1      13.184  -7.040 194.982  1.00  0.00     0.072 C 
ATOM     50  C   UNL     1      13.726  -5.807 194.268  1.00  0.00     0.012 C 
ENDBRANCH  47  49
ENDBRANCH  46  47
ENDBRANCH  45  46
ENDBRANCH  44  45
ENDBRANCH  43  44
ENDBRANCH   1  43
TORSDOF 12
ENDMDL
MODEL 8
REMARK VINA RESULT:    -3.113      4.260      8.142
REMARK INTER + INTRA:          -8.007
REMARK INTER:                  -6.909
REMARK INTRA:                  -1.097
REMARK UNBOUND:                -1.437
REMARK SMILES CCC(=O)CCCCC[C@@H]1NC(=O)[C@H]2CCCCN2C(=O)[C@H]([C@@H](C)CC)NC(=O)[C@@H](Cc2cn(OC)c3ccccc23)NC1=O
REMARK SMILES IDX 9 1 10 2 44 3 43 4 45 6 30 7 28 8 27 9 29 11 22 12 23 14
REMARK SMILES IDX 24 15 25 16 26 17 31 18 32 19 33 20 42 21 34 22 37 23 41 24
REMARK SMILES IDX 38 25 40 26 39 27 35 28 36 29 11 30 12 31 13 33 14 34 19 35
REMARK SMILES IDX 15 36 18 37 16 38 17 39 20 40 21 41 8 43 7 44 6 45 5 46 3 47
REMARK SMILES IDX 4 48 2 49 1 50
REMARK H PARENT 43 5 27 10 11 32
REMARK Flexibility Score: 80.00
ROOT
ATOM      1  C   UNL     1      14.628  -9.778 199.620  1.00  0.00     0.035 C 
ENDROOT
BRANCH   1   2
ATOM      2  C   UNL     1      15.226  -8.418 199.196  1.00  0.00     0.171 C 
BRANCH   2   3
ATOM      3  C   UNL     1      16.203  -8.526 198.044  1.00  0.00     0.243 C 
ATOM      4  N   UNL     1      17.370  -7.688 198.002  1.00  0.00    -0.342 N 
ATOM      5  H   UNL     1      17.454  -6.897 198.678  1.00  0.00     0.164 HD
ATOM      6  O   UNL     1      15.998  -9.351 197.113  1.00  0.00    -0.273 OA
BRANCH   4   7
ATOM      7  C   UNL     1      18.438  -7.912 197.022  1.00  0.00     0.175 C 
BRANCH   7   8
ATOM      8  C   UNL     1      17.920  -7.640 195.634  1.00  0.00     0.243 C 
ATOM      9  N   UNL     1      17.737  -6.291 195.176  1.00  0.00    -0.342 N 
ATOM     10  H   UNL     1      18.355  -5.559 195.590  1.00  0.00     0.164 HD
ATOM     11  O   UNL     1      17.666  -8.609 194.874  1.00  0.00    -0.273 OA
BRANCH   9  12
ATOM     12  C   UNL     1      16.541  -5.808 194.472  1.00  0.00     0.174 CG0
ATOM     13  G   UNL     1      15.290  -6.232 195.229  1.00  0.00     0.000 G0
BRANCH  12  14
ATOM     14  C   UNL     1      16.578  -6.048 192.919  1.00  0.00     0.018 C 
ATOM     15  C   UNL     1      15.490  -5.212 192.218  1.00  0.00     0.010 C 
BRANCH  14  16
ATOM     16  C   UNL     1      17.946  -5.868 192.196  1.00  0.00     0.002 C 
ATOM     17  C   UNL     1      18.542  -7.200 191.730  1.00  0.00     0.004 C 
ENDBRANCH  14  16
ENDBRANCH  12  14
ENDBRANCH   9  12
ENDBRANCH   7   8
BRANCH   7  18
ATOM     18  C   UNL     1      19.673  -7.052 197.354  1.00  0.00     0.073 C 
BRANCH  18  19
ATOM     19  C   UNL     1      19.321  -5.952 198.316  1.00  0.00    -0.016 A 
ATOM     20  C   UNL     1      19.111  -6.101 199.684  1.00  0.00     0.134 A 
ATOM     21  C   UNL     1      19.307  -4.586 198.077  1.00  0.00     0.006 A 
ATOM     22  N   UNL     1      18.957  -4.885 200.261  1.00  0.00    -0.191 N 
ATOM     23  C   UNL     1      19.080  -3.971 199.283  1.00  0.00     0.087 A 
ATOM     24  C   UNL     1      19.514  -3.851 196.909  1.00  0.00     0.011 A 
ATOM     25  C   UNL     1      19.051  -2.582 199.406  1.00  0.00     0.030 A 
ATOM     26  C   UNL     1      19.484  -2.447 197.001  1.00  0.00     0.001 A 
ATOM     27  C   UNL     1      19.253  -1.815 198.243  1.00  0.00     0.002 A 
BRANCH  22  28
ATOM     28  O   UNL     1      18.786  -4.605 201.604  1.00  0.00    -0.417 OA
ATOM     29  C   UNL     1      19.850  -4.140 202.423  1.00  0.00     0.313 C 
ENDBRANCH  22  28
ENDBRANCH  18  19
ENDBRANCH   7  18
ENDBRANCH   4   7
ENDBRANCH   2   3
BRANCH   2  30
ATOM     30  N   UNL     1      14.186  -7.405 198.970  1.00  0.00    -0.343 N 
ATOM     31  C   UNL     1      13.526  -7.178 197.717  1.00  0.00     0.243 C 
ATOM     32  H   UNL     1      13.922  -6.799 199.780  1.00  0.00     0.164 HD
ATOM     33  O   UNL     1      12.953  -8.137 197.135  1.00  0.00    -0.273 OA
BRANCH  31  34
ATOM     34  C   UNL     1      13.553  -5.821 197.046  1.00  0.00     0.174 C 
ATOM     35  N   UNL     1      14.893  -5.542 196.485  1.00  0.00    -0.329 N 
ATOM     36  C   UNL     1      13.040  -4.678 197.950  1.00  0.00     0.035 C 
ATOM     37  C   UNL     1      15.788  -4.568 197.134  1.00  0.00     0.120 C 
ATOM     38  C   UNL     1      14.067  -4.100 198.943  1.00  0.00     0.004 C 
ATOM     39  C   UNL     1      15.522  -4.459 198.632  1.00  0.00     0.022 C 
BRANCH  35  40
ATOM     40  C   UNL     1      15.286  -6.224 195.263  1.00  0.00     0.246 CG0
ATOM     41  O   UNL     1      14.647  -7.252 194.913  1.00  0.00    -0.272 OA
ATOM     42  G   UNL     1      16.533  -5.830 194.483  1.00  0.00     0.000 G0
ENDBRANCH  35  40
ENDBRANCH  31  34
ENDBRANCH   2  30
ENDBRANCH   1   2
BRANCH   1  43
ATOM     43  C   UNL     1      14.621 -10.033 201.140  1.00  0.00     0.003 C 
BRANCH  43  44
ATOM     44  C   UNL     1      15.771 -10.947 201.590  1.00  0.00     0.001 C 
BRANCH  44  45
ATOM     45  C   UNL     1      15.977 -10.946 203.111  1.00  0.00     0.008 C 
BRANCH  45  46
ATOM     46  C   UNL     1      15.723  -9.551 203.691  1.00  0.00     0.075 C 
BRANCH  46  47
ATOM     47  C   UNL     1      16.947  -8.682 203.564  1.00  0.00     0.132 C 
ATOM     48  O   UNL     1      16.879  -7.624 202.958  1.00  0.00    -0.300 OA
BRANCH  47  49
ATOM     49  C   UNL     1      18.272  -9.128 204.125  1.00  0.00     0.072 C 
ATOM     50  C   UNL     1      19.416  -8.644 203.240  1.00  0.00     0.012 C 
ENDBRANCH  47  49
ENDBRANCH  46  47
ENDBRANCH  45  46
ENDBRANCH  44  45
ENDBRANCH  43  44
ENDBRANCH   1  43
TORSDOF 12
ENDMDL
MODEL 9
REMARK VINA RESULT:    -3.018      3.003      3.816
REMARK INTER + INTRA:          -7.808
REMARK INTER:                  -7.259
REMARK INTRA:                  -0.548
REMARK UNBOUND:                -1.437
REMARK SMILES CCC(=O)CCCCC[C@@H]1NC(=O)[C@H]2CCCCN2C(=O)[C@H]([C@@H](C)CC)NC(=O)[C@@H](Cc2cn(OC)c3ccccc23)NC1=O
REMARK SMILES IDX 9 1 10 2 44 3 43 4 45 6 30 7 28 8 27 9 29 11 22 12 23 14
REMARK SMILES IDX 24 15 25 16 26 17 31 18 32 19 33 20 42 21 34 22 37 23 41 24
REMARK SMILES IDX 38 25 40 26 39 27 35 28 36 29 11 30 12 31 13 33 14 34 19 35
REMARK SMILES IDX 15 36 18 37 16 38 17 39 20 40 21 41 8 43 7 44 6 45 5 46 3 47
REMARK SMILES IDX 4 48 2 49 1 50
REMARK H PARENT 43 5 27 10 11 32
REMARK Flexibility Score: 80.00
ROOT
ATOM      1  C   UNL     1      11.400  -6.876 195.895  1.00  0.00     0.035 C 
ENDROOT
BRANCH   1   2
ATOM      2  C   UNL     1      12.474  -7.985 195.969  1.00  0.00     0.171 C 
BRANCH   2   3
ATOM      3  C   UNL     1      13.124  -8.098 197.333  1.00  0.00     0.243 C 
ATOM      4  N   UNL     1      14.544  -8.296 197.445  1.00  0.00    -0.342 N 
ATOM      5  H   UNL     1      15.096  -8.525 196.589  1.00  0.00     0.164 HD
ATOM      6  O   UNL     1      12.424  -8.021 198.378  1.00  0.00    -0.273 OA
BRANCH   4   7
ATOM      7  C   UNL     1      15.231  -8.197 198.737  1.00  0.00     0.175 C 
BRANCH   7   8
ATOM      8  C   UNL     1      15.032  -9.471 199.517  1.00  0.00     0.243 C 
ATOM      9  N   UNL     1      15.626 -10.699 199.069  1.00  0.00    -0.342 N 
ATOM     10  H   UNL     1      16.510 -10.629 198.518  1.00  0.00     0.164 HD
ATOM     11  O   UNL     1      14.353  -9.442 200.575  1.00  0.00    -0.273 OA
BRANCH   9  12
ATOM     12  C   UNL     1      14.921 -11.987 199.004  1.00  0.00     0.174 CG0
ATOM     13  G   UNL     1      13.603 -11.817 198.261  1.00  0.00     0.000 G0
BRANCH  12  14
ATOM     14  C   UNL     1      14.904 -12.771 200.365  1.00  0.00     0.018 C 
ATOM     15  C   UNL     1      14.774 -14.286 200.114  1.00  0.00     0.010 C 
BRANCH  14  16
ATOM     16  C   UNL     1      16.058 -12.490 201.373  1.00  0.00     0.002 C 
ATOM     17  C   UNL     1      15.992 -13.396 202.607  1.00  0.00     0.004 C 
ENDBRANCH  14  16
ENDBRANCH  12  14
ENDBRANCH   9  12
ENDBRANCH   7   8
BRANCH   7  18
ATOM     18  C   UNL     1      16.723  -7.871 198.539  1.00  0.00     0.073 C 
BRANCH  18  19
ATOM     19  C   UNL     1      16.918  -6.908 197.402  1.00  0.00    -0.016 A 
ATOM     20  C   UNL     1      16.660  -5.540 197.438  1.00  0.00     0.134 A 
ATOM     21  C   UNL     1      17.539  -7.144 196.184  1.00  0.00     0.006 A 
ATOM     22  N   UNL     1      17.085  -4.961 196.289  1.00  0.00    -0.191 N 
ATOM     23  C   UNL     1      17.619  -5.937 195.535  1.00  0.00     0.087 A 
ATOM     24  C   UNL     1      18.065  -8.310 195.627  1.00  0.00     0.011 A 
ATOM     25  C   UNL     1      18.236  -5.812 194.291  1.00  0.00     0.030 A 
ATOM     26  C   UNL     1      18.687  -8.216 194.369  1.00  0.00     0.001 A 
ATOM     27  C   UNL     1      18.772  -6.973 193.703  1.00  0.00     0.002 A 
BRANCH  22  28
ATOM     28  O   UNL     1      17.060  -3.618 195.963  1.00  0.00    -0.417 OA
ATOM     29  C   UNL     1      17.780  -2.645 196.706  1.00  0.00     0.313 C 
ENDBRANCH  22  28
ENDBRANCH  18  19
ENDBRANCH   7  18
ENDBRANCH   4   7
ENDBRANCH   2   3
BRANCH   2  30
ATOM     30  N   UNL     1      11.975  -9.272 195.466  1.00  0.00    -0.343 N 
ATOM     31  C   UNL     1      11.594 -10.379 196.293  1.00  0.00     0.243 C 
ATOM     32  H   UNL     1      11.909  -9.388 194.429  1.00  0.00     0.164 HD
ATOM     33  O   UNL     1      10.734 -10.211 197.198  1.00  0.00    -0.273 OA
BRANCH  31  34
ATOM     34  C   UNL     1      12.246 -11.737 196.143  1.00  0.00     0.174 C 
ATOM     35  N   UNL     1      13.571 -11.757 196.800  1.00  0.00    -0.329 N 
ATOM     36  C   UNL     1      12.303 -12.232 194.680  1.00  0.00     0.035 C 
ATOM     37  C   UNL     1      14.805 -11.746 195.996  1.00  0.00     0.120 C 
ATOM     38  C   UNL     1      13.471 -11.686 193.835  1.00  0.00     0.004 C 
ATOM     39  C   UNL     1      14.603 -11.056 194.651  1.00  0.00     0.022 C 
BRANCH  35  40
ATOM     40  C   UNL     1      13.620 -11.825 198.251  1.00  0.00     0.246 CG0
ATOM     41  O   UNL     1      12.557 -11.639 198.901  1.00  0.00    -0.272 OA
ATOM     42  G   UNL     1      14.934 -11.955 199.009  1.00  0.00     0.000 G0
ENDBRANCH  35  40
ENDBRANCH  31  34
ENDBRANCH   2  30
ENDBRANCH   1   2
BRANCH   1  43
ATOM     43  C   UNL     1      10.729  -6.721 194.516  1.00  0.00     0.003 C 
BRANCH  43  44
ATOM     44  C   UNL     1      11.009  -5.354 193.874  1.00  0.00     0.001 C 
BRANCH  44  45
ATOM     45  C   UNL     1       9.802  -4.792 193.112  1.00  0.00     0.008 C 
BRANCH  45  46
ATOM     46  C   UNL     1       8.642  -5.793 193.122  1.00  0.00     0.075 C 
BRANCH  46  47
ATOM     47  C   UNL     1       7.508  -5.315 192.252  1.00  0.00     0.132 C 
ATOM     48  O   UNL     1       7.531  -4.182 191.796  1.00  0.00    -0.300 OA
BRANCH  47  49
ATOM     49  C   UNL     1       6.316  -6.195 191.984  1.00  0.00     0.072 C 
ATOM     50  C   UNL     1       5.075  -5.348 191.723  1.00  0.00     0.012 C 
ENDBRANCH  47  49
ENDBRANCH  46  47
ENDBRANCH  45  46
ENDBRANCH  44  45
ENDBRANCH  43  44
ENDBRANCH   1  43
TORSDOF 12
ENDMDL
