MODEL 1
REMARK VINA RESULT:    -4.841      0.000      0.000
REMARK INTER + INTRA:          -6.114
REMARK INTER:                  -5.832
REMARK INTRA:                  -0.282
REMARK UNBOUND:                -0.282
REMARK SMILES O=c1c(O)c(-c2ccc(O)c(O)c2)oc2cc(O)cc(O)c12
REMARK SMILES IDX 5 1 3 2 2 3 1 4 22 5 20 6 19 7 17 8 16 9 15 10 14 11 6 12
REMARK SMILES IDX 7 13 8 14 9 15 13 16 11 17 10 18 12 20 4 22 21 24 18 26
REMARK H PARENT 10 19 12 21 4 23 21 25 18 27
REMARK Flexibility Score: inf
ROOT
ATOM      1  C   UNL     1      46.992  13.313  85.881  1.00  0.00     0.180 A 
ATOM      2  C   UNL     1      47.505  14.215  86.830  1.00  0.00     0.208 A 
ATOM      3  C   UNL     1      48.896  14.358  86.951  1.00  0.00     0.238 A 
ATOM      4  O   UNL     1      49.349  15.111  87.852  1.00  0.00    -0.285 OA
ATOM      5  C   UNL     1      49.757  13.642  86.084  1.00  0.00     0.111 A 
ATOM      6  C   UNL     1      51.182  13.744  86.087  1.00  0.00     0.134 A 
ATOM      7  C   UNL     1      51.936  12.907  85.255  1.00  0.00     0.093 A 
ATOM      8  C   UNL     1      51.315  12.017  84.375  1.00  0.00     0.123 A 
ATOM      9  C   UNL     1      49.926  11.949  84.326  1.00  0.00     0.094 A 
ATOM     10  C   UNL     1      49.146  12.744  85.170  1.00  0.00     0.146 A 
ATOM     11  O   UNL     1      47.825  12.631  85.105  1.00  0.00    -0.452 OA
ENDROOT
BRANCH   1  12
ATOM     12  C   UNL     1      45.538  13.096  85.705  1.00  0.00     0.025 A 
ATOM     13  C   UNL     1      44.825  13.723  84.668  1.00  0.00     0.016 A 
ATOM     14  C   UNL     1      43.448  13.521  84.537  1.00  0.00     0.051 A 
ATOM     15  C   UNL     1      42.763  12.703  85.446  1.00  0.00     0.157 A 
ATOM     16  C   UNL     1      44.844  12.295  86.625  1.00  0.00     0.062 A 
ATOM     17  C   UNL     1      43.465  12.090  86.496  1.00  0.00     0.158 A 
BRANCH  15  18
ATOM     18  O   UNL     1      41.390  12.503  85.311  1.00  0.00    -0.504 OA
ATOM     19  H   UNL     1      40.851  12.986  84.602  1.00  0.00     0.293 HD
ENDBRANCH  15  18
BRANCH  17  20
ATOM     20  O   UNL     1      42.811  11.277  87.422  1.00  0.00    -0.504 OA
ATOM     21  H   UNL     1      42.068  10.645  87.152  1.00  0.00     0.293 HD
ENDBRANCH  17  20
ENDBRANCH   1  12
BRANCH   2  22
ATOM     22  O   UNL     1      46.638  14.970  87.624  1.00  0.00    -0.502 OA
ATOM     23  H   UNL     1      45.884  15.522  87.234  1.00  0.00     0.293 HD
ENDBRANCH   2  22
BRANCH   6  24
ATOM     24  O   UNL     1      51.900  14.661  86.861  1.00  0.00    -0.507 OA
ATOM     25  H   UNL     1      52.402  14.436  87.705  1.00  0.00     0.293 HD
ENDBRANCH   6  24
BRANCH   8  26
ATOM     26  O   UNL     1      52.073  11.200  83.539  1.00  0.00    -0.508 OA
ATOM     27  H   UNL     1      51.686  10.360  83.125  1.00  0.00     0.293 HD
ENDBRANCH   8  26
TORSDOF 6
ENDMDL
MODEL 2
REMARK VINA RESULT:    -4.684      1.332      2.952
REMARK INTER + INTRA:          -5.924
REMARK INTER:                  -5.648
REMARK INTRA:                  -0.276
REMARK UNBOUND:                -0.282
REMARK SMILES O=c1c(O)c(-c2ccc(O)c(O)c2)oc2cc(O)cc(O)c12
REMARK SMILES IDX 5 1 3 2 2 3 1 4 22 5 20 6 19 7 17 8 16 9 15 10 14 11 6 12
REMARK SMILES IDX 7 13 8 14 9 15 13 16 11 17 10 18 12 20 4 22 21 24 18 26
REMARK H PARENT 10 19 12 21 4 23 21 25 18 27
REMARK Flexibility Score: inf
ROOT
ATOM      1  C   UNL     1      46.491  12.843  85.553  1.00  0.00     0.180 A 
ATOM      2  C   UNL     1      47.227  12.244  84.515  1.00  0.00     0.208 A 
ATOM      3  C   UNL     1      48.591  12.547  84.385  1.00  0.00     0.238 A 
ATOM      4  O   UNL     1      49.226  12.065  83.411  1.00  0.00    -0.285 OA
ATOM      5  C   UNL     1      49.217  13.399  85.326  1.00  0.00     0.111 A 
ATOM      6  C   UNL     1      50.605  13.739  85.318  1.00  0.00     0.134 A 
ATOM      7  C   UNL     1      51.091  14.677  86.237  1.00  0.00     0.093 A 
ATOM      8  C   UNL     1      50.254  15.240  87.204  1.00  0.00     0.123 A 
ATOM      9  C   UNL     1      48.913  14.873  87.254  1.00  0.00     0.094 A 
ATOM     10  C   UNL     1      48.388  13.969  86.328  1.00  0.00     0.146 A 
ATOM     11  O   UNL     1      47.098  13.665  86.399  1.00  0.00    -0.452 OA
ENDROOT
BRANCH   1  12
ATOM     12  C   UNL     1      45.046  12.585  85.745  1.00  0.00     0.025 A 
ATOM     13  C   UNL     1      44.080  13.162  84.901  1.00  0.00     0.016 A 
ATOM     14  C   UNL     1      42.720  12.922  85.118  1.00  0.00     0.051 A 
ATOM     15  C   UNL     1      42.305  12.117  86.187  1.00  0.00     0.157 A 
ATOM     16  C   UNL     1      44.624  11.797  86.828  1.00  0.00     0.062 A 
ATOM     17  C   UNL     1      43.262  11.554  87.047  1.00  0.00     0.158 A 
BRANCH  15  18
ATOM     18  O   UNL     1      40.948  11.880  86.399  1.00  0.00    -0.504 OA
ATOM     19  H   UNL     1      40.531  11.969  87.318  1.00  0.00     0.293 HD
ENDBRANCH  15  18
BRANCH  17  20
ATOM     20  O   UNL     1      42.881  10.755  88.125  1.00  0.00    -0.504 OA
ATOM     21  H   UNL     1      43.528  10.501  88.861  1.00  0.00     0.293 HD
ENDBRANCH  17  20
ENDBRANCH   1  12
BRANCH   2  22
ATOM     22  O   UNL     1      46.608  11.345  83.642  1.00  0.00    -0.502 OA
ATOM     23  H   UNL     1      46.900  11.233  82.679  1.00  0.00     0.293 HD
ENDBRANCH   2  22
BRANCH   6  24
ATOM     24  O   UNL     1      51.546  13.170  84.453  1.00  0.00    -0.507 OA
ATOM     25  H   UNL     1      51.330  12.740  83.568  1.00  0.00     0.293 HD
ENDBRANCH   6  24
BRANCH   8  26
ATOM     26  O   UNL     1      50.751  16.159  88.125  1.00  0.00    -0.508 OA
ATOM     27  H   UNL     1      50.826  15.935  89.111  1.00  0.00     0.293 HD
ENDBRANCH   8  26
TORSDOF 6
ENDMDL
MODEL 3
REMARK VINA RESULT:    -4.575      4.034      6.002
REMARK INTER + INTRA:          -5.793
REMARK INTER:                  -5.463
REMARK INTRA:                  -0.330
REMARK UNBOUND:                -0.282
REMARK SMILES O=c1c(O)c(-c2ccc(O)c(O)c2)oc2cc(O)cc(O)c12
REMARK SMILES IDX 5 1 3 2 2 3 1 4 22 5 20 6 19 7 17 8 16 9 15 10 14 11 6 12
REMARK SMILES IDX 7 13 8 14 9 15 13 16 11 17 10 18 12 20 4 22 21 24 18 26
REMARK H PARENT 10 19 12 21 4 23 21 25 18 27
REMARK Flexibility Score: inf
ROOT
ATOM      1  C   UNL     1      44.405  12.742  84.760  1.00  0.00     0.180 A 
ATOM      2  C   UNL     1      44.075  11.996  85.905  1.00  0.00     0.208 A 
ATOM      3  C   UNL     1      44.082  10.594  85.830  1.00  0.00     0.238 A 
ATOM      4  O   UNL     1      43.715   9.935  86.837  1.00  0.00    -0.285 OA
ATOM      5  C   UNL     1      44.472   9.954  84.629  1.00  0.00     0.111 A 
ATOM      6  C   UNL     1      44.559   8.539  84.454  1.00  0.00     0.134 A 
ATOM      7  C   UNL     1      44.853   8.017  83.188  1.00  0.00     0.093 A 
ATOM      8  C   UNL     1      45.127   8.860  82.107  1.00  0.00     0.123 A 
ATOM      9  C   UNL     1      45.098  10.240  82.282  1.00  0.00     0.094 A 
ATOM     10  C   UNL     1      44.771  10.792  83.522  1.00  0.00     0.146 A 
ATOM     11  O   UNL     1      44.734  12.114  83.638  1.00  0.00    -0.452 OA
ENDROOT
BRANCH   1  12
ATOM     12  C   UNL     1      44.406  14.223  84.756  1.00  0.00     0.025 A 
ATOM     13  C   UNL     1      43.262  14.954  84.393  1.00  0.00     0.016 A 
ATOM     14  C   UNL     1      43.294  16.352  84.374  1.00  0.00     0.051 A 
ATOM     15  C   UNL     1      44.471  17.037  84.703  1.00  0.00     0.157 A 
ATOM     16  C   UNL     1      45.589  14.913  85.064  1.00  0.00     0.062 A 
ATOM     17  C   UNL     1      45.625  16.312  85.047  1.00  0.00     0.158 A 
BRANCH  15  18
ATOM     18  O   UNL     1      44.500  18.430  84.684  1.00  0.00    -0.504 OA
ATOM     19  H   UNL     1      44.217  18.955  83.866  1.00  0.00     0.293 HD
ENDBRANCH  15  18
BRANCH  17  20
ATOM     20  O   UNL     1      46.815  16.964  85.372  1.00  0.00    -0.504 OA
ATOM     21  H   UNL     1      46.935  17.960  85.241  1.00  0.00     0.293 HD
ENDBRANCH  17  20
ENDBRANCH   1  12
BRANCH   2  22
ATOM     22  O   UNL     1      43.768  12.646  87.104  1.00  0.00    -0.502 OA
ATOM     23  H   UNL     1      43.856  12.195  88.005  1.00  0.00     0.293 HD
ENDBRANCH   2  22
BRANCH   6  24
ATOM     24  O   UNL     1      44.392   7.610  85.486  1.00  0.00    -0.507 OA
ATOM     25  H   UNL     1      43.602   6.993  85.585  1.00  0.00     0.293 HD
ENDBRANCH   6  24
BRANCH   8  26
ATOM     26  O   UNL     1      45.436   8.331  80.856  1.00  0.00    -0.508 OA
ATOM     27  H   UNL     1      46.078   7.554  80.752  1.00  0.00     0.293 HD
ENDBRANCH   8  26
TORSDOF 6
ENDMDL
MODEL 4
REMARK VINA RESULT:    -4.554      1.674      6.994
REMARK INTER + INTRA:          -5.767
REMARK INTER:                  -5.447
REMARK INTRA:                  -0.320
REMARK UNBOUND:                -0.282
REMARK SMILES O=c1c(O)c(-c2ccc(O)c(O)c2)oc2cc(O)cc(O)c12
REMARK SMILES IDX 5 1 3 2 2 3 1 4 22 5 20 6 19 7 17 8 16 9 15 10 14 11 6 12
REMARK SMILES IDX 7 13 8 14 9 15 13 16 11 17 10 18 12 20 4 22 21 24 18 26
REMARK H PARENT 10 19 12 21 4 23 21 25 18 27
REMARK Flexibility Score: inf
ROOT
ATOM      1  C   UNL     1      47.245  13.564  85.858  1.00  0.00     0.180 A 
ATOM      2  C   UNL     1      47.000  14.196  84.626  1.00  0.00     0.208 A 
ATOM      3  C   UNL     1      45.700  14.175  84.096  1.00  0.00     0.238 A 
ATOM      4  O   UNL     1      45.504  14.679  82.960  1.00  0.00    -0.285 OA
ATOM      5  C   UNL     1      44.650  13.571  84.828  1.00  0.00     0.111 A 
ATOM      6  C   UNL     1      43.285  13.530  84.407  1.00  0.00     0.134 A 
ATOM      7  C   UNL     1      42.351  12.811  85.163  1.00  0.00     0.093 A 
ATOM      8  C   UNL     1      42.719  12.185  86.358  1.00  0.00     0.123 A 
ATOM      9  C   UNL     1      44.034  12.266  86.804  1.00  0.00     0.094 A 
ATOM     10  C   UNL     1      44.998  12.943  86.053  1.00  0.00     0.146 A 
ATOM     11  O   UNL     1      46.246  12.976  86.505  1.00  0.00    -0.452 OA
ENDROOT
BRANCH   1  12
ATOM     12  C   UNL     1      48.590  13.531  86.474  1.00  0.00     0.025 A 
ATOM     13  C   UNL     1      49.008  14.527  87.374  1.00  0.00     0.016 A 
ATOM     14  C   UNL     1      50.292  14.487  87.924  1.00  0.00     0.051 A 
ATOM     15  C   UNL     1      51.181  13.463  87.573  1.00  0.00     0.157 A 
ATOM     16  C   UNL     1      49.492  12.519  86.109  1.00  0.00     0.062 A 
ATOM     17  C   UNL     1      50.779  12.476  86.658  1.00  0.00     0.158 A 
BRANCH  15  18
ATOM     18  O   UNL     1      52.461  13.426  88.125  1.00  0.00    -0.504 OA
ATOM     19  H   UNL     1      52.610  13.497  89.124  1.00  0.00     0.293 HD
ENDBRANCH  15  18
BRANCH  17  20
ATOM     20  O   UNL     1      51.642  11.447  86.282  1.00  0.00    -0.504 OA
ATOM     21  H   UNL     1      51.346  10.479  86.256  1.00  0.00     0.293 HD
ENDBRANCH  17  20
ENDBRANCH   1  12
BRANCH   2  22
ATOM     22  O   UNL     1      48.034  14.854  83.955  1.00  0.00    -0.502 OA
ATOM     23  H   UNL     1      49.011  14.652  84.129  1.00  0.00     0.293 HD
ENDBRANCH   2  22
BRANCH   6  24
ATOM     24  O   UNL     1      42.793  14.193  83.279  1.00  0.00    -0.507 OA
ATOM     25  H   UNL     1      42.058  14.883  83.290  1.00  0.00     0.293 HD
ENDBRANCH   6  24
BRANCH   8  26
ATOM     26  O   UNL     1      41.779  11.487  87.112  1.00  0.00    -0.508 OA
ATOM     27  H   UNL     1      41.461  11.829  88.012  1.00  0.00     0.293 HD
ENDBRANCH   8  26
TORSDOF 6
ENDMDL
MODEL 5
REMARK VINA RESULT:    -4.485      4.190      5.885
REMARK INTER + INTRA:          -5.685
REMARK INTER:                  -5.367
REMARK INTRA:                  -0.318
REMARK UNBOUND:                -0.282
REMARK SMILES O=c1c(O)c(-c2ccc(O)c(O)c2)oc2cc(O)cc(O)c12
REMARK SMILES IDX 5 1 3 2 2 3 1 4 22 5 20 6 19 7 17 8 16 9 15 10 14 11 6 12
REMARK SMILES IDX 7 13 8 14 9 15 13 16 11 17 10 18 12 20 4 22 21 24 18 26
REMARK H PARENT 10 19 12 21 4 23 21 25 18 27
REMARK Flexibility Score: inf
ROOT
ATOM      1  C   UNL     1      44.051  14.018  84.741  1.00  0.00     0.180 A 
ATOM      2  C   UNL     1      42.909  14.660  84.230  1.00  0.00     0.208 A 
ATOM      3  C   UNL     1      42.953  16.044  83.996  1.00  0.00     0.238 A 
ATOM      4  O   UNL     1      41.906  16.623  83.607  1.00  0.00    -0.285 OA
ATOM      5  C   UNL     1      44.153  16.760  84.223  1.00  0.00     0.111 A 
ATOM      6  C   UNL     1      44.325  18.157  83.978  1.00  0.00     0.134 A 
ATOM      7  C   UNL     1      45.526  18.779  84.341  1.00  0.00     0.093 A 
ATOM      8  C   UNL     1      46.584  18.043  84.881  1.00  0.00     0.123 A 
ATOM      9  C   UNL     1      46.445  16.672  85.073  1.00  0.00     0.094 A 
ATOM     10  C   UNL     1      45.247  16.028  84.756  1.00  0.00     0.146 A 
ATOM     11  O   UNL     1      45.151  14.723  84.976  1.00  0.00    -0.452 OA
ENDROOT
BRANCH   1  12
ATOM     12  C   UNL     1      44.077  12.566  85.028  1.00  0.00     0.025 A 
ATOM     13  C   UNL     1      44.366  11.627  84.023  1.00  0.00     0.016 A 
ATOM     14  C   UNL     1      44.362  10.259  84.312  1.00  0.00     0.051 A 
ATOM     15  C   UNL     1      44.055   9.811  85.604  1.00  0.00     0.157 A 
ATOM     16  C   UNL     1      43.749  12.111  86.315  1.00  0.00     0.062 A 
ATOM     17  C   UNL     1      43.745  10.742  86.609  1.00  0.00     0.158 A 
BRANCH  15  18
ATOM     18  O   UNL     1      44.053   8.446  85.889  1.00  0.00    -0.504 OA
ATOM     19  H   UNL     1      43.341   8.028  86.477  1.00  0.00     0.293 HD
ENDBRANCH  15  18
BRANCH  17  20
ATOM     20  O   UNL     1      43.427  10.327  87.902  1.00  0.00    -0.504 OA
ATOM     21  H   UNL     1      43.268   9.354  88.131  1.00  0.00     0.293 HD
ENDBRANCH  17  20
ENDBRANCH   1  12
BRANCH   2  22
ATOM     22  O   UNL     1      41.758  13.923  83.939  1.00  0.00    -0.502 OA
ATOM     23  H   UNL     1      41.618  13.460  83.050  1.00  0.00     0.293 HD
ENDBRANCH   2  22
BRANCH   6  24
ATOM     24  O   UNL     1      43.366  18.968  83.362  1.00  0.00    -0.507 OA
ATOM     25  H   UNL     1      43.048  19.855  83.716  1.00  0.00     0.293 HD
ENDBRANCH   6  24
BRANCH   8  26
ATOM     26  O   UNL     1      47.781  18.668  85.223  1.00  0.00    -0.508 OA
ATOM     27  H   UNL     1      47.859  19.677  85.269  1.00  0.00     0.293 HD
ENDBRANCH   8  26
TORSDOF 6
ENDMDL
MODEL 6
REMARK VINA RESULT:    -4.433      2.075      6.977
REMARK INTER + INTRA:          -5.621
REMARK INTER:                  -5.379
REMARK INTRA:                  -0.243
REMARK UNBOUND:                -0.282
REMARK SMILES O=c1c(O)c(-c2ccc(O)c(O)c2)oc2cc(O)cc(O)c12
REMARK SMILES IDX 5 1 3 2 2 3 1 4 22 5 20 6 19 7 17 8 16 9 15 10 14 11 6 12
REMARK SMILES IDX 7 13 8 14 9 15 13 16 11 17 10 18 12 20 4 22 21 24 18 26
REMARK H PARENT 10 19 12 21 4 23 21 25 18 27
REMARK Flexibility Score: inf
ROOT
ATOM      1  C   UNL     1      47.617  13.289  85.717  1.00  0.00     0.180 A 
ATOM      2  C   UNL     1      47.839  12.480  84.588  1.00  0.00     0.208 A 
ATOM      3  C   UNL     1      46.824  11.607  84.166  1.00  0.00     0.238 A 
ATOM      4  O   UNL     1      47.056  10.834  83.200  1.00  0.00    -0.285 OA
ATOM      5  C   UNL     1      45.580  11.592  84.842  1.00  0.00     0.111 A 
ATOM      6  C   UNL     1      44.465  10.779  84.473  1.00  0.00     0.134 A 
ATOM      7  C   UNL     1      43.320  10.769  85.280  1.00  0.00     0.093 A 
ATOM      8  C   UNL     1      43.227  11.591  86.408  1.00  0.00     0.123 A 
ATOM      9  C   UNL     1      44.288  12.426  86.744  1.00  0.00     0.094 A 
ATOM     10  C   UNL     1      45.457  12.431  85.981  1.00  0.00     0.146 A 
ATOM     11  O   UNL     1      46.453  13.228  86.350  1.00  0.00    -0.452 OA
ENDROOT
BRANCH   1  12
ATOM     12  C   UNL     1      48.644  14.223  86.231  1.00  0.00     0.025 A 
ATOM     13  C   UNL     1      49.324  13.972  87.436  1.00  0.00     0.016 A 
ATOM     14  C   UNL     1      50.272  14.882  87.913  1.00  0.00     0.051 A 
ATOM     15  C   UNL     1      50.543  16.059  87.204  1.00  0.00     0.157 A 
ATOM     16  C   UNL     1      48.903  15.414  85.535  1.00  0.00     0.062 A 
ATOM     17  C   UNL     1      49.853  16.327  86.010  1.00  0.00     0.158 A 
BRANCH  15  18
ATOM     18  O   UNL     1      51.491  16.963  87.683  1.00  0.00    -0.504 OA
ATOM     19  H   UNL     1      52.178  16.693  88.375  1.00  0.00     0.293 HD
ENDBRANCH  15  18
BRANCH  17  20
ATOM     20  O   UNL     1      50.094  17.493  85.284  1.00  0.00    -0.504 OA
ATOM     21  H   UNL     1      49.422  17.865  84.626  1.00  0.00     0.293 HD
ENDBRANCH  17  20
ENDBRANCH   1  12
BRANCH   2  22
ATOM     22  O   UNL     1      49.045  12.565  83.888  1.00  0.00    -0.502 OA
ATOM     23  H   UNL     1      49.798  11.901  84.018  1.00  0.00     0.293 HD
ENDBRANCH   2  22
BRANCH   6  24
ATOM     24  O   UNL     1      44.418   9.989  83.320  1.00  0.00    -0.507 OA
ATOM     25  H   UNL     1      43.922  10.229  82.476  1.00  0.00     0.293 HD
ENDBRANCH   6  24
BRANCH   8  26
ATOM     26  O   UNL     1      42.078  11.587  87.195  1.00  0.00    -0.508 OA
ATOM     27  H   UNL     1      42.072  11.180  88.123  1.00  0.00     0.293 HD
ENDBRANCH   8  26
TORSDOF 6
ENDMDL
MODEL 7
REMARK VINA RESULT:    -4.396      3.129      5.210
REMARK INTER + INTRA:          -5.577
REMARK INTER:                  -5.254
REMARK INTRA:                  -0.324
REMARK UNBOUND:                -0.282
REMARK SMILES O=c1c(O)c(-c2ccc(O)c(O)c2)oc2cc(O)cc(O)c12
REMARK SMILES IDX 5 1 3 2 2 3 1 4 22 5 20 6 19 7 17 8 16 9 15 10 14 11 6 12
REMARK SMILES IDX 7 13 8 14 9 15 13 16 11 17 10 18 12 20 4 22 21 24 18 26
REMARK H PARENT 10 19 12 21 4 23 21 25 18 27
REMARK Flexibility Score: inf
ROOT
ATOM      1  C   UNL     1      45.532  13.636  85.217  1.00  0.00     0.180 A 
ATOM      2  C   UNL     1      46.835  14.078  85.506  1.00  0.00     0.208 A 
ATOM      3  C   UNL     1      47.145  15.438  85.343  1.00  0.00     0.238 A 
ATOM      4  O   UNL     1      48.330  15.813  85.533  1.00  0.00    -0.285 OA
ATOM      5  C   UNL     1      46.135  16.349  84.948  1.00  0.00     0.111 A 
ATOM      6  C   UNL     1      46.326  17.756  84.795  1.00  0.00     0.134 A 
ATOM      7  C   UNL     1      45.281  18.544  84.295  1.00  0.00     0.093 A 
ATOM      8  C   UNL     1      44.033  17.985  84.003  1.00  0.00     0.123 A 
ATOM      9  C   UNL     1      43.822  16.624  84.201  1.00  0.00     0.094 A 
ATOM     10  C   UNL     1      44.855  15.805  84.662  1.00  0.00     0.146 A 
ATOM     11  O   UNL     1      44.616  14.508  84.815  1.00  0.00    -0.452 OA
ENDROOT
BRANCH   1  12
ATOM     12  C   UNL     1      45.133  12.217  85.350  1.00  0.00     0.025 A 
ATOM     13  C   UNL     1      45.378  11.288  84.323  1.00  0.00     0.016 A 
ATOM     14  C   UNL     1      44.971   9.958  84.463  1.00  0.00     0.051 A 
ATOM     15  C   UNL     1      44.301   9.541  85.620  1.00  0.00     0.157 A 
ATOM     16  C   UNL     1      44.443  11.799  86.499  1.00  0.00     0.062 A 
ATOM     17  C   UNL     1      44.034  10.467  86.642  1.00  0.00     0.158 A 
BRANCH  15  18
ATOM     18  O   UNL     1      43.897   8.213  85.756  1.00  0.00    -0.504 OA
ATOM     19  H   UNL     1      43.614   7.834  86.651  1.00  0.00     0.293 HD
ENDBRANCH  15  18
BRANCH  17  20
ATOM     20  O   UNL     1      43.363  10.085  87.803  1.00  0.00    -0.504 OA
ATOM     21  H   UNL     1      42.665  10.676  88.240  1.00  0.00     0.293 HD
ENDBRANCH  17  20
ENDBRANCH   1  12
BRANCH   2  22
ATOM     22  O   UNL     1      47.797  13.177  85.969  1.00  0.00    -0.502 OA
ATOM     23  H   UNL     1      48.619  13.473  86.480  1.00  0.00     0.293 HD
ENDBRANCH   2  22
BRANCH   6  24
ATOM     24  O   UNL     1      47.502  18.430  85.140  1.00  0.00    -0.507 OA
ATOM     25  H   UNL     1      48.407  18.256  84.734  1.00  0.00     0.293 HD
ENDBRANCH   6  24
BRANCH   8  26
ATOM     26  O   UNL     1      42.995  18.780  83.523  1.00  0.00    -0.508 OA
ATOM     27  H   UNL     1      42.968  19.092  82.559  1.00  0.00     0.293 HD
ENDBRANCH   8  26
TORSDOF 6
ENDMDL
MODEL 8
REMARK VINA RESULT:    -4.345      2.383      2.695
REMARK INTER + INTRA:          -5.516
REMARK INTER:                  -5.197
REMARK INTRA:                  -0.319
REMARK UNBOUND:                -0.282
REMARK SMILES O=c1c(O)c(-c2ccc(O)c(O)c2)oc2cc(O)cc(O)c12
REMARK SMILES IDX 5 1 3 2 2 3 1 4 22 5 20 6 19 7 17 8 16 9 15 10 14 11 6 12
REMARK SMILES IDX 7 13 8 14 9 15 13 16 11 17 10 18 12 20 4 22 21 24 18 26
REMARK H PARENT 10 19 12 21 4 23 21 25 18 27
REMARK Flexibility Score: inf
ROOT
ATOM      1  C   UNL     1      46.313  12.037  85.053  1.00  0.00     0.180 A 
ATOM      2  C   UNL     1      45.943  13.015  85.994  1.00  0.00     0.208 A 
ATOM      3  C   UNL     1      46.941  13.815  86.573  1.00  0.00     0.238 A 
ATOM      4  O   UNL     1      46.612  14.636  87.467  1.00  0.00    -0.285 OA
ATOM      5  C   UNL     1      48.289  13.667  86.165  1.00  0.00     0.111 A 
ATOM      6  C   UNL     1      49.376  14.455  86.652  1.00  0.00     0.134 A 
ATOM      7  C   UNL     1      50.684  14.148  86.254  1.00  0.00     0.093 A 
ATOM      8  C   UNL     1      50.937  13.123  85.339  1.00  0.00     0.123 A 
ATOM      9  C   UNL     1      49.878  12.386  84.817  1.00  0.00     0.094 A 
ATOM     10  C   UNL     1      48.566  12.642  85.222  1.00  0.00     0.146 A 
ATOM     11  O   UNL     1      47.589  11.900  84.716  1.00  0.00    -0.452 OA
ENDROOT
BRANCH   1  12
ATOM     12  C   UNL     1      45.321  11.146  84.411  1.00  0.00     0.025 A 
ATOM     13  C   UNL     1      44.614  11.544  83.263  1.00  0.00     0.016 A 
ATOM     14  C   UNL     1      43.665  10.694  82.688  1.00  0.00     0.051 A 
ATOM     15  C   UNL     1      43.398   9.442  83.259  1.00  0.00     0.157 A 
ATOM     16  C   UNL     1      45.035   9.900  84.992  1.00  0.00     0.062 A 
ATOM     17  C   UNL     1      44.086   9.046  84.418  1.00  0.00     0.158 A 
BRANCH  15  18
ATOM     18  O   UNL     1      42.452   8.597  82.682  1.00  0.00    -0.504 OA
ATOM     19  H   UNL     1      42.481   7.594  82.822  1.00  0.00     0.293 HD
ENDBRANCH  15  18
BRANCH  17  20
ATOM     20  O   UNL     1      43.838   7.810  85.015  1.00  0.00    -0.504 OA
ATOM     21  H   UNL     1      43.664   7.718  86.008  1.00  0.00     0.293 HD
ENDBRANCH  17  20
ENDBRANCH   1  12
BRANCH   2  22
ATOM     22  O   UNL     1      44.599  13.197  86.328  1.00  0.00    -0.502 OA
ATOM     23  H   UNL     1      43.843  12.831  85.761  1.00  0.00     0.293 HD
ENDBRANCH   2  22
BRANCH   6  24
ATOM     24  O   UNL     1      49.227  15.558  87.500  1.00  0.00    -0.507 OA
ATOM     25  H   UNL     1      49.774  15.726  88.329  1.00  0.00     0.293 HD
ENDBRANCH   6  24
BRANCH   8  26
ATOM     26  O   UNL     1      52.239  12.836  84.936  1.00  0.00    -0.508 OA
ATOM     27  H   UNL     1      53.041  13.232  85.413  1.00  0.00     0.293 HD
ENDBRANCH   8  26
TORSDOF 6
ENDMDL
MODEL 9
REMARK VINA RESULT:    -4.227      4.486      7.867
REMARK INTER + INTRA:          -5.374
REMARK INTER:                  -5.046
REMARK INTRA:                  -0.328
REMARK UNBOUND:                -0.282
REMARK SMILES O=c1c(O)c(-c2ccc(O)c(O)c2)oc2cc(O)cc(O)c12
REMARK SMILES IDX 5 1 3 2 2 3 1 4 22 5 20 6 19 7 17 8 16 9 15 10 14 11 6 12
REMARK SMILES IDX 7 13 8 14 9 15 13 16 11 17 10 18 12 20 4 22 21 24 18 26
REMARK H PARENT 10 19 12 21 4 23 21 25 18 27
REMARK Flexibility Score: inf
ROOT
ATOM      1  C   UNL     1      39.589  12.256  85.518  1.00  0.00     0.180 A 
ATOM      2  C   UNL     1      39.557  12.935  84.287  1.00  0.00     0.208 A 
ATOM      3  C   UNL     1      40.764  13.373  83.720  1.00  0.00     0.238 A 
ATOM      4  O   UNL     1      40.722  14.043  82.656  1.00  0.00    -0.285 OA
ATOM      5  C   UNL     1      41.992  13.078  84.360  1.00  0.00     0.111 A 
ATOM      6  C   UNL     1      43.279  13.433  83.851  1.00  0.00     0.134 A 
ATOM      7  C   UNL     1      44.420  13.182  84.624  1.00  0.00     0.093 A 
ATOM      8  C   UNL     1      44.326  12.532  85.858  1.00  0.00     0.123 A 
ATOM      9  C   UNL     1      43.082  12.133  86.336  1.00  0.00     0.094 A 
ATOM     10  C   UNL     1      41.921  12.402  85.607  1.00  0.00     0.146 A 
ATOM     11  O   UNL     1      40.753  12.024  86.111  1.00  0.00    -0.452 OA
ENDROOT
BRANCH   1  12
ATOM     12  C   UNL     1      38.358  11.777  86.186  1.00  0.00     0.025 A 
ATOM     13  C   UNL     1      37.601  12.621  87.018  1.00  0.00     0.016 A 
ATOM     14  C   UNL     1      36.455  12.138  87.657  1.00  0.00     0.051 A 
ATOM     15  C   UNL     1      36.058  10.806  87.487  1.00  0.00     0.157 A 
ATOM     16  C   UNL     1      37.968  10.437  86.035  1.00  0.00     0.062 A 
ATOM     17  C   UNL     1      36.820   9.951  86.674  1.00  0.00     0.158 A 
BRANCH  15  18
ATOM     18  O   UNL     1      34.914  10.329  88.125  1.00  0.00    -0.504 OA
ATOM     19  H   UNL     1      34.960   9.585  88.810  1.00  0.00     0.293 HD
ENDBRANCH  15  18
BRANCH  17  20
ATOM     20  O   UNL     1      36.456   8.617  86.489  1.00  0.00    -0.504 OA
ATOM     21  H   UNL     1      35.692   8.193  87.002  1.00  0.00     0.293 HD
ENDBRANCH  17  20
ENDBRANCH   1  12
BRANCH   2  22
ATOM     22  O   UNL     1      38.341  13.149  83.633  1.00  0.00    -0.502 OA
ATOM     23  H   UNL     1      38.170  13.963  83.055  1.00  0.00     0.293 HD
ENDBRANCH   2  22
BRANCH   6  24
ATOM     24  O   UNL     1      43.495  14.006  82.594  1.00  0.00    -0.507 OA
ATOM     25  H   UNL     1      42.955  13.802  81.767  1.00  0.00     0.293 HD
ENDBRANCH   6  24
BRANCH   8  26
ATOM     26  O   UNL     1      45.468  12.271  86.611  1.00  0.00    -0.508 OA
ATOM     27  H   UNL     1      46.359  12.702  86.391  1.00  0.00     0.293 HD
ENDBRANCH   8  26
TORSDOF 6
ENDMDL
