MODEL 1
REMARK VINA RESULT:    -2.967      0.000      0.000
REMARK INTER + INTRA:         -14.454
REMARK INTER:                  -7.824
REMARK INTRA:                  -6.630
REMARK UNBOUND:                -6.630
REMARK SMILES CCCCCCCCCCCCCCCCCCCCCCCCCCCCCC(=O)[O-]
REMARK SMILES IDX 16 1 17 2 18 3 19 4 20 5 21 6 22 7 23 8 24 9 25 10 26 11
REMARK SMILES IDX 27 12 28 13 29 14 30 15 31 16 32 17 15 18 14 19 13 20 12 21
REMARK SMILES IDX 11 22 10 23 9 24 8 25 7 26 6 27 5 28 4 29 3 30 2 31 1 32
REMARK H PARENT
REMARK Flexibility Score: inf
ROOT
ATOM      1  C   UNL     1       1.278  67.948  13.043  1.00  0.00     0.000 C 
ENDROOT
BRANCH   1   2
ATOM      2  C   UNL     1       0.726  66.512  13.069  1.00  0.00     0.000 C 
BRANCH   2   3
ATOM      3  C   UNL     1      -0.302  66.288  14.194  1.00  0.00     0.000 C 
BRANCH   3   4
ATOM      4  C   UNL     1      -0.058  65.031  15.051  1.00  0.00     0.000 C 
BRANCH   4   5
ATOM      5  C   UNL     1       1.422  64.842  15.428  1.00  0.00     0.000 C 
BRANCH   5   6
ATOM      6  C   UNL     1       2.000  63.518  14.905  1.00  0.00     0.000 C 
BRANCH   6   7
ATOM      7  C   UNL     1       3.387  63.694  14.263  1.00  0.00     0.000 C 
BRANCH   7   8
ATOM      8  C   UNL     1       4.040  65.037  14.626  1.00  0.00     0.000 C 
BRANCH   8   9
ATOM      9  C   UNL     1       5.204  64.876  15.619  1.00  0.00     0.000 C 
BRANCH   9  10
ATOM     10  C   UNL     1       5.367  66.096  16.541  1.00  0.00     0.000 C 
BRANCH  10  11
ATOM     11  C   UNL     1       4.378  66.081  17.717  1.00  0.00     0.000 C 
BRANCH  11  12
ATOM     12  C   UNL     1       4.413  64.736  18.450  1.00  0.00     0.000 C 
BRANCH  12  13
ATOM     13  C   UNL     1       3.001  64.143  18.574  1.00  0.00     0.006 C 
BRANCH  13  14
ATOM     14  C   UNL     1       2.979  62.631  18.316  1.00  0.00     0.053 C 
BRANCH  14  15
ATOM     15  C   UNL     1       1.645  62.028  18.633  1.00  0.00     0.041 C 
ATOM     16  O   UNL     1       1.548  61.130  19.511  1.00  0.00    -0.550 OA
ATOM     17  O   UNL     1       0.510  62.448  17.950  1.00  0.00    -0.550 OA
ENDBRANCH  14  15
ENDBRANCH  13  14
ENDBRANCH  12  13
ENDBRANCH  11  12
ENDBRANCH  10  11
ENDBRANCH   9  10
ENDBRANCH   8   9
ENDBRANCH   7   8
ENDBRANCH   6   7
ENDBRANCH   5   6
ENDBRANCH   4   5
ENDBRANCH   3   4
ENDBRANCH   2   3
ENDBRANCH   1   2
BRANCH   1  18
ATOM     18  C   UNL     1       2.806  67.986  12.879  1.00  0.00     0.000 C 
BRANCH  18  19
ATOM     19  C   UNL     1       3.444  69.161  13.636  1.00  0.00     0.000 C 
BRANCH  19  20
ATOM     20  C   UNL     1       3.696  68.801  15.105  1.00  0.00     0.000 C 
BRANCH  20  21
ATOM     21  C   UNL     1       2.964  69.776  16.038  1.00  0.00     0.000 C 
BRANCH  21  22
ATOM     22  C   UNL     1       1.488  69.403  16.251  1.00  0.00     0.000 C 
BRANCH  22  23
ATOM     23  C   UNL     1       1.317  68.111  17.071  1.00  0.00     0.000 C 
BRANCH  23  24
ATOM     24  C   UNL     1      -0.069  68.013  17.730  1.00  0.00    -0.000 C 
BRANCH  24  25
ATOM     25  C   UNL     1       0.016  67.703  19.234  1.00  0.00    -0.000 C 
BRANCH  25  26
ATOM     26  C   UNL     1       1.434  67.303  19.682  1.00  0.00    -0.000 C 
BRANCH  26  27
ATOM     27  C   UNL     1       2.150  68.328  20.583  1.00  0.00    -0.000 C 
BRANCH  27  28
ATOM     28  C   UNL     1       3.484  68.864  20.028  1.00  0.00    -0.000 C 
BRANCH  28  29
ATOM     29  C   UNL     1       3.424  70.359  19.670  1.00  0.00    -0.000 C 
BRANCH  29  30
ATOM     30  C   UNL     1       1.985  70.902  19.612  1.00  0.00    -0.000 C 
BRANCH  30  31
ATOM     31  C   UNL     1       1.842  72.278  18.938  1.00  0.00    -0.003 C 
ATOM     32  C   UNL     1       3.129  72.749  18.260  1.00  0.00     0.004 C 
ENDBRANCH  30  31
ENDBRANCH  29  30
ENDBRANCH  28  29
ENDBRANCH  27  28
ENDBRANCH  26  27
ENDBRANCH  25  26
ENDBRANCH  24  25
ENDBRANCH  23  24
ENDBRANCH  22  23
ENDBRANCH  21  22
ENDBRANCH  20  21
ENDBRANCH  19  20
ENDBRANCH  18  19
ENDBRANCH   1  18
TORSDOF 28
ENDMDL
MODEL 2
REMARK VINA RESULT:    -2.909      3.386      7.451
REMARK INTER + INTRA:         -14.300
REMARK INTER:                  -8.164
REMARK INTRA:                  -6.137
REMARK UNBOUND:                -6.630
REMARK SMILES CCCCCCCCCCCCCCCCCCCCCCCCCCCCCC(=O)[O-]
REMARK SMILES IDX 16 1 17 2 18 3 19 4 20 5 21 6 22 7 23 8 24 9 25 10 26 11
REMARK SMILES IDX 27 12 28 13 29 14 30 15 31 16 32 17 15 18 14 19 13 20 12 21
REMARK SMILES IDX 11 22 10 23 9 24 8 25 7 26 6 27 5 28 4 29 3 30 2 31 1 32
REMARK H PARENT
REMARK Flexibility Score: inf
ROOT
ATOM      1  C   UNL     1       5.517  68.081  13.095  1.00  0.00     0.000 C 
ENDROOT
BRANCH   1   2
ATOM      2  C   UNL     1       5.684  67.419  14.473  1.00  0.00     0.000 C 
BRANCH   2   3
ATOM      3  C   UNL     1       5.538  65.887  14.421  1.00  0.00     0.000 C 
BRANCH   3   4
ATOM      4  C   UNL     1       4.100  65.381  14.204  1.00  0.00     0.000 C 
BRANCH   4   5
ATOM      5  C   UNL     1       3.399  64.988  15.516  1.00  0.00     0.000 C 
BRANCH   5   6
ATOM      6  C   UNL     1       2.073  64.250  15.279  1.00  0.00     0.000 C 
BRANCH   6   7
ATOM      7  C   UNL     1       0.868  64.998  15.877  1.00  0.00     0.000 C 
BRANCH   7   8
ATOM      8  C   UNL     1      -0.201  65.332  14.823  1.00  0.00     0.000 C 
BRANCH   8   9
ATOM      9  C   UNL     1       0.332  66.258  13.717  1.00  0.00     0.000 C 
BRANCH   9  10
ATOM     10  C   UNL     1      -0.346  67.638  13.722  1.00  0.00     0.000 C 
BRANCH  10  11
ATOM     11  C   UNL     1       0.449  68.681  14.522  1.00  0.00     0.000 C 
BRANCH  11  12
ATOM     12  C   UNL     1       1.944  68.345  14.535  1.00  0.00     0.000 C 
BRANCH  12  13
ATOM     13  C   UNL     1       2.580  68.728  15.880  1.00  0.00     0.006 C 
BRANCH  13  14
ATOM     14  C   UNL     1       2.696  70.248  16.057  1.00  0.00     0.053 C 
BRANCH  14  15
ATOM     15  C   UNL     1       2.300  70.683  17.435  1.00  0.00     0.041 C 
ATOM     16  O   UNL     1       1.198  70.317  17.923  1.00  0.00    -0.550 OA
ATOM     17  O   UNL     1       3.142  71.502  18.176  1.00  0.00    -0.550 OA
ENDBRANCH  14  15
ENDBRANCH  13  14
ENDBRANCH  12  13
ENDBRANCH  11  12
ENDBRANCH  10  11
ENDBRANCH   9  10
ENDBRANCH   8   9
ENDBRANCH   7   8
ENDBRANCH   6   7
ENDBRANCH   5   6
ENDBRANCH   4   5
ENDBRANCH   3   4
ENDBRANCH   2   3
ENDBRANCH   1   2
BRANCH   1  18
ATOM     18  C   UNL     1       5.267  69.595  13.198  1.00  0.00     0.000 C 
BRANCH  18  19
ATOM     19  C   UNL     1       5.532  70.321  11.871  1.00  0.00     0.000 C 
BRANCH  19  20
ATOM     20  C   UNL     1       4.469  71.394  11.604  1.00  0.00     0.000 C 
BRANCH  20  21
ATOM     21  C   UNL     1       3.701  71.732  12.890  1.00  0.00     0.000 C 
BRANCH  21  22
ATOM     22  C   UNL     1       2.182  71.557  12.741  1.00  0.00     0.000 C 
BRANCH  22  23
ATOM     23  C   UNL     1       1.760  71.255  11.291  1.00  0.00     0.000 C 
BRANCH  23  24
ATOM     24  C   UNL     1       0.674  70.170  11.210  1.00  0.00    -0.000 C 
BRANCH  24  25
ATOM     25  C   UNL     1       0.991  69.099  10.153  1.00  0.00    -0.000 C 
BRANCH  25  26
ATOM     26  C   UNL     1       2.454  69.147   9.674  1.00  0.00    -0.000 C 
BRANCH  26  27
ATOM     27  C   UNL     1       3.270  67.864   9.931  1.00  0.00    -0.000 C 
BRANCH  27  28
ATOM     28  C   UNL     1       2.777  67.004  11.109  1.00  0.00    -0.000 C 
BRANCH  28  29
ATOM     29  C   UNL     1       2.054  65.725  10.653  1.00  0.00    -0.000 C 
BRANCH  29  30
ATOM     30  C   UNL     1       2.628  65.147   9.347  1.00  0.00    -0.000 C 
BRANCH  30  31
ATOM     31  C   UNL     1       1.682  64.197   8.592  1.00  0.00    -0.003 C 
ATOM     32  C   UNL     1       2.281  62.809   8.368  1.00  0.00     0.004 C 
ENDBRANCH  30  31
ENDBRANCH  29  30
ENDBRANCH  28  29
ENDBRANCH  27  28
ENDBRANCH  26  27
ENDBRANCH  25  26
ENDBRANCH  24  25
ENDBRANCH  23  24
ENDBRANCH  22  23
ENDBRANCH  21  22
ENDBRANCH  20  21
ENDBRANCH  19  20
ENDBRANCH  18  19
ENDBRANCH   1  18
TORSDOF 28
ENDMDL
MODEL 3
REMARK VINA RESULT:    -2.888      3.634      6.922
REMARK INTER + INTRA:         -14.247
REMARK INTER:                  -9.065
REMARK INTRA:                  -5.181
REMARK UNBOUND:                -6.630
REMARK SMILES CCCCCCCCCCCCCCCCCCCCCCCCCCCCCC(=O)[O-]
REMARK SMILES IDX 16 1 17 2 18 3 19 4 20 5 21 6 22 7 23 8 24 9 25 10 26 11
REMARK SMILES IDX 27 12 28 13 29 14 30 15 31 16 32 17 15 18 14 19 13 20 12 21
REMARK SMILES IDX 11 22 10 23 9 24 8 25 7 26 6 27 5 28 4 29 3 30 2 31 1 32
REMARK H PARENT
REMARK Flexibility Score: inf
ROOT
ATOM      1  C   UNL     1       3.001  64.013  13.627  1.00  0.00     0.000 C 
ENDROOT
BRANCH   1   2
ATOM      2  C   UNL     1       1.881  63.769  14.653  1.00  0.00     0.000 C 
BRANCH   2   3
ATOM      3  C   UNL     1       2.307  62.820  15.788  1.00  0.00     0.000 C 
BRANCH   3   4
ATOM      4  C   UNL     1       3.673  62.138  15.582  1.00  0.00     0.000 C 
BRANCH   4   5
ATOM      5  C   UNL     1       4.626  62.334  16.773  1.00  0.00     0.000 C 
BRANCH   5   6
ATOM      6  C   UNL     1       4.681  63.793  17.251  1.00  0.00     0.000 C 
BRANCH   6   7
ATOM      7  C   UNL     1       5.519  64.687  16.319  1.00  0.00     0.000 C 
BRANCH   7   8
ATOM      8  C   UNL     1       5.373  66.181  16.648  1.00  0.00     0.000 C 
BRANCH   8   9
ATOM      9  C   UNL     1       4.299  66.870  15.789  1.00  0.00     0.000 C 
BRANCH   9  10
ATOM     10  C   UNL     1       3.331  67.723  16.625  1.00  0.00     0.000 C 
BRANCH  10  11
ATOM     11  C   UNL     1       3.242  69.173  16.124  1.00  0.00     0.000 C 
BRANCH  11  12
ATOM     12  C   UNL     1       1.829  69.736  16.313  1.00  0.00     0.000 C 
BRANCH  12  13
ATOM     13  C   UNL     1       1.624  70.227  17.755  1.00  0.00     0.006 C 
BRANCH  13  14
ATOM     14  C   UNL     1       2.816  71.048  18.265  1.00  0.00     0.053 C 
BRANCH  14  15
ATOM     15  C   UNL     1       2.437  72.470  18.548  1.00  0.00     0.041 C 
ATOM     16  O   UNL     1       3.091  73.415  18.032  1.00  0.00    -0.550 OA
ATOM     17  O   UNL     1       1.369  72.751  19.391  1.00  0.00    -0.550 OA
ENDBRANCH  14  15
ENDBRANCH  13  14
ENDBRANCH  12  13
ENDBRANCH  11  12
ENDBRANCH  10  11
ENDBRANCH   9  10
ENDBRANCH   8   9
ENDBRANCH   7   8
ENDBRANCH   6   7
ENDBRANCH   5   6
ENDBRANCH   4   5
ENDBRANCH   3   4
ENDBRANCH   2   3
ENDBRANCH   1   2
BRANCH   1  18
ATOM     18  C   UNL     1       2.657  65.141  12.641  1.00  0.00     0.000 C 
BRANCH  18  19
ATOM     19  C   UNL     1       1.738  66.202  13.266  1.00  0.00     0.000 C 
BRANCH  19  20
ATOM     20  C   UNL     1       2.143  67.614  12.826  1.00  0.00     0.000 C 
BRANCH  20  21
ATOM     21  C   UNL     1       2.774  67.589  11.426  1.00  0.00     0.000 C 
BRANCH  21  22
ATOM     22  C   UNL     1       4.138  68.294  11.374  1.00  0.00     0.000 C 
BRANCH  22  23
ATOM     23  C   UNL     1       4.748  68.505  12.772  1.00  0.00     0.000 C 
BRANCH  23  24
ATOM     24  C   UNL     1       5.322  69.920  12.955  1.00  0.00    -0.000 C 
BRANCH  24  25
ATOM     25  C   UNL     1       4.718  70.931  11.964  1.00  0.00    -0.000 C 
BRANCH  25  26
ATOM     26  C   UNL     1       3.836  71.988  12.652  1.00  0.00    -0.000 C 
BRANCH  26  27
ATOM     27  C   UNL     1       2.460  71.482  13.130  1.00  0.00    -0.000 C 
BRANCH  27  28
ATOM     28  C   UNL     1       1.491  71.070  12.005  1.00  0.00    -0.000 C 
BRANCH  28  29
ATOM     29  C   UNL     1       1.289  72.176  10.956  1.00  0.00    -0.000 C 
BRANCH  29  30
ATOM     30  C   UNL     1       1.282  71.638   9.514  1.00  0.00    -0.000 C 
BRANCH  30  31
ATOM     31  C   UNL     1       2.588  71.871   8.733  1.00  0.00    -0.003 C 
ATOM     32  C   UNL     1       3.403  70.594   8.533  1.00  0.00     0.004 C 
ENDBRANCH  30  31
ENDBRANCH  29  30
ENDBRANCH  28  29
ENDBRANCH  27  28
ENDBRANCH  26  27
ENDBRANCH  25  26
ENDBRANCH  24  25
ENDBRANCH  23  24
ENDBRANCH  22  23
ENDBRANCH  21  22
ENDBRANCH  20  21
ENDBRANCH  19  20
ENDBRANCH  18  19
ENDBRANCH   1  18
TORSDOF 28
ENDMDL
MODEL 4
REMARK VINA RESULT:    -2.850      4.378      8.346
REMARK INTER + INTRA:         -14.147
REMARK INTER:                  -8.371
REMARK INTRA:                  -5.775
REMARK UNBOUND:                -6.630
REMARK SMILES CCCCCCCCCCCCCCCCCCCCCCCCCCCCCC(=O)[O-]
REMARK SMILES IDX 16 1 17 2 18 3 19 4 20 5 21 6 22 7 23 8 24 9 25 10 26 11
REMARK SMILES IDX 27 12 28 13 29 14 30 15 31 16 32 17 15 18 14 19 13 20 12 21
REMARK SMILES IDX 11 22 10 23 9 24 8 25 7 26 6 27 5 28 4 29 3 30 2 31 1 32
REMARK H PARENT
REMARK Flexibility Score: inf
ROOT
ATOM      1  C   UNL     1       4.391  69.519  13.656  1.00  0.00     0.000 C 
ENDROOT
BRANCH   1   2
ATOM      2  C   UNL     1       4.843  68.400  12.702  1.00  0.00     0.000 C 
BRANCH   2   3
ATOM      3  C   UNL     1       4.230  68.530  11.296  1.00  0.00     0.000 C 
BRANCH   3   4
ATOM      4  C   UNL     1       3.380  67.326  10.848  1.00  0.00     0.000 C 
BRANCH   4   5
ATOM      5  C   UNL     1       3.211  66.268  11.953  1.00  0.00     0.000 C 
BRANCH   5   6
ATOM      6  C   UNL     1       1.791  65.685  12.000  1.00  0.00     0.000 C 
BRANCH   6   7
ATOM      7  C   UNL     1       1.051  66.041  13.302  1.00  0.00     0.000 C 
BRANCH   7   8
ATOM      8  C   UNL     1       0.704  67.535  13.394  1.00  0.00     0.000 C 
BRANCH   8   9
ATOM      9  C   UNL     1       0.918  68.103  14.808  1.00  0.00     0.000 C 
BRANCH   9  10
ATOM     10  C   UNL     1       2.113  67.460  15.529  1.00  0.00     0.000 C 
BRANCH  10  11
ATOM     11  C   UNL     1       2.582  68.283  16.739  1.00  0.00     0.000 C 
BRANCH  11  12
ATOM     12  C   UNL     1       1.725  69.542  16.915  1.00  0.00     0.000 C 
BRANCH  12  13
ATOM     13  C   UNL     1       2.610  70.782  17.116  1.00  0.00     0.006 C 
BRANCH  13  14
ATOM     14  C   UNL     1       2.658  71.233  18.581  1.00  0.00     0.053 C 
BRANCH  14  15
ATOM     15  C   UNL     1       2.245  72.664  18.741  1.00  0.00     0.041 C 
ATOM     16  O   UNL     1       1.264  72.964  19.473  1.00  0.00    -0.550 OA
ATOM     17  O   UNL     1       2.936  73.667  18.072  1.00  0.00    -0.550 OA
ENDBRANCH  14  15
ENDBRANCH  13  14
ENDBRANCH  12  13
ENDBRANCH  11  12
ENDBRANCH  10  11
ENDBRANCH   9  10
ENDBRANCH   8   9
ENDBRANCH   7   8
ENDBRANCH   6   7
ENDBRANCH   5   6
ENDBRANCH   4   5
ENDBRANCH   3   4
ENDBRANCH   2   3
ENDBRANCH   1   2
BRANCH   1  18
ATOM     18  C   UNL     1       3.807  70.728  12.906  1.00  0.00     0.000 C 
BRANCH  18  19
ATOM     19  C   UNL     1       2.423  71.131  13.437  1.00  0.00     0.000 C 
BRANCH  19  20
ATOM     20  C   UNL     1       1.350  70.986  12.351  1.00  0.00     0.000 C 
BRANCH  20  21
ATOM     21  C   UNL     1       1.719  71.808  11.108  1.00  0.00     0.000 C 
BRANCH  21  22
ATOM     22  C   UNL     1       0.973  71.347   9.845  1.00  0.00     0.000 C 
BRANCH  22  23
ATOM     23  C   UNL     1       1.240  69.868   9.508  1.00  0.00     0.000 C 
BRANCH  23  24
ATOM     24  C   UNL     1      -0.050  69.101   9.172  1.00  0.00    -0.000 C 
BRANCH  24  25
ATOM     25  C   UNL     1       0.046  67.607   9.526  1.00  0.00    -0.000 C 
BRANCH  25  26
ATOM     26  C   UNL     1       0.030  66.697   8.284  1.00  0.00    -0.000 C 
BRANCH  26  27
ATOM     27  C   UNL     1       0.392  65.222   8.548  1.00  0.00    -0.000 C 
BRANCH  27  28
ATOM     28  C   UNL     1       1.496  64.650   7.638  1.00  0.00    -0.000 C 
BRANCH  28  29
ATOM     29  C   UNL     1       2.885  65.235   7.944  1.00  0.00    -0.000 C 
BRANCH  29  30
ATOM     30  C   UNL     1       3.380  66.201   6.853  1.00  0.00    -0.000 C 
BRANCH  30  31
ATOM     31  C   UNL     1       3.417  67.682   7.272  1.00  0.00    -0.003 C 
ATOM     32  C   UNL     1       3.088  68.638   6.126  1.00  0.00     0.004 C 
ENDBRANCH  30  31
ENDBRANCH  29  30
ENDBRANCH  28  29
ENDBRANCH  27  28
ENDBRANCH  26  27
ENDBRANCH  25  26
ENDBRANCH  24  25
ENDBRANCH  23  24
ENDBRANCH  22  23
ENDBRANCH  21  22
ENDBRANCH  20  21
ENDBRANCH  19  20
ENDBRANCH  18  19
ENDBRANCH   1  18
TORSDOF 28
ENDMDL
MODEL 5
REMARK VINA RESULT:    -2.835      5.537     10.090
REMARK INTER + INTRA:         -14.107
REMARK INTER:                  -7.239
REMARK INTRA:                  -6.868
REMARK UNBOUND:                -6.630
REMARK SMILES CCCCCCCCCCCCCCCCCCCCCCCCCCCCCC(=O)[O-]
REMARK SMILES IDX 16 1 17 2 18 3 19 4 20 5 21 6 22 7 23 8 24 9 25 10 26 11
REMARK SMILES IDX 27 12 28 13 29 14 30 15 31 16 32 17 15 18 14 19 13 20 12 21
REMARK SMILES IDX 11 22 10 23 9 24 8 25 7 26 6 27 5 28 4 29 3 30 2 31 1 32
REMARK H PARENT
REMARK Flexibility Score: inf
ROOT
ATOM      1  C   UNL     1       0.776  68.448  13.119  1.00  0.00     0.000 C 
ENDROOT
BRANCH   1   2
ATOM      2  C   UNL     1      -0.605  67.778  13.021  1.00  0.00     0.000 C 
BRANCH   2   3
ATOM      3  C   UNL     1      -1.239  67.917  11.624  1.00  0.00     0.000 C 
BRANCH   3   4
ATOM      4  C   UNL     1      -0.624  69.020  10.742  1.00  0.00     0.000 C 
BRANCH   4   5
ATOM      5  C   UNL     1      -1.678  69.979  10.163  1.00  0.00     0.000 C 
BRANCH   5   6
ATOM      6  C   UNL     1      -1.737  71.317  10.916  1.00  0.00     0.000 C 
BRANCH   6   7
ATOM      7  C   UNL     1      -1.358  72.513  10.024  1.00  0.00     0.000 C 
BRANCH   7   8
ATOM      8  C   UNL     1      -1.157  72.112   8.554  1.00  0.00     0.000 C 
BRANCH   8   9
ATOM      9  C   UNL     1       0.292  72.319   8.080  1.00  0.00     0.000 C 
BRANCH   9  10
ATOM     10  C   UNL     1       1.134  73.119   9.087  1.00  0.00     0.000 C 
BRANCH  10  11
ATOM     11  C   UNL     1       2.473  72.436   9.406  1.00  0.00     0.000 C 
BRANCH  11  12
ATOM     12  C   UNL     1       2.270  71.230  10.330  1.00  0.00     0.000 C 
BRANCH  12  13
ATOM     13  C   UNL     1       1.814  71.681  11.727  1.00  0.00     0.006 C 
BRANCH  13  14
ATOM     14  C   UNL     1       2.970  72.248  12.561  1.00  0.00     0.053 C 
BRANCH  14  15
ATOM     15  C   UNL     1       3.677  71.180  13.339  1.00  0.00     0.041 C 
ATOM     16  O   UNL     1       3.149  70.696  14.375  1.00  0.00    -0.550 OA
ATOM     17  O   UNL     1       4.924  70.728  12.926  1.00  0.00    -0.550 OA
ENDBRANCH  14  15
ENDBRANCH  13  14
ENDBRANCH  12  13
ENDBRANCH  11  12
ENDBRANCH  10  11
ENDBRANCH   9  10
ENDBRANCH   8   9
ENDBRANCH   7   8
ENDBRANCH   6   7
ENDBRANCH   5   6
ENDBRANCH   4   5
ENDBRANCH   3   4
ENDBRANCH   2   3
ENDBRANCH   1   2
BRANCH   1  18
ATOM     18  C   UNL     1       1.929  67.440  12.980  1.00  0.00     0.000 C 
BRANCH  18  19
ATOM     19  C   UNL     1       3.023  67.935  12.021  1.00  0.00     0.000 C 
BRANCH  19  20
ATOM     20  C   UNL     1       2.808  67.387  10.605  1.00  0.00     0.000 C 
BRANCH  20  21
ATOM     21  C   UNL     1       2.116  66.017  10.650  1.00  0.00     0.000 C 
BRANCH  21  22
ATOM     22  C   UNL     1       1.034  65.859   9.570  1.00  0.00     0.000 C 
BRANCH  22  23
ATOM     23  C   UNL     1       1.278  64.640   8.662  1.00  0.00     0.000 C 
BRANCH  23  24
ATOM     24  C   UNL     1       1.845  65.035   7.289  1.00  0.00    -0.000 C 
BRANCH  24  25
ATOM     25  C   UNL     1       3.374  65.200   7.311  1.00  0.00    -0.000 C 
BRANCH  25  26
ATOM     26  C   UNL     1       3.869  66.308   6.363  1.00  0.00    -0.000 C 
BRANCH  26  27
ATOM     27  C   UNL     1       3.818  67.736   6.942  1.00  0.00    -0.000 C 
BRANCH  27  28
ATOM     28  C   UNL     1       2.627  68.589   6.467  1.00  0.00    -0.000 C 
BRANCH  28  29
ATOM     29  C   UNL     1       1.653  68.941   7.605  1.00  0.00    -0.000 C 
BRANCH  29  30
ATOM     30  C   UNL     1       0.180  68.711   7.223  1.00  0.00    -0.000 C 
BRANCH  30  31
ATOM     31  C   UNL     1      -0.032  67.869   5.952  1.00  0.00    -0.003 C 
ATOM     32  C   UNL     1      -1.145  66.831   6.099  1.00  0.00     0.004 C 
ENDBRANCH  30  31
ENDBRANCH  29  30
ENDBRANCH  28  29
ENDBRANCH  27  28
ENDBRANCH  26  27
ENDBRANCH  25  26
ENDBRANCH  24  25
ENDBRANCH  23  24
ENDBRANCH  22  23
ENDBRANCH  21  22
ENDBRANCH  20  21
ENDBRANCH  19  20
ENDBRANCH  18  19
ENDBRANCH   1  18
TORSDOF 28
ENDMDL
MODEL 6
REMARK VINA RESULT:    -2.806      3.770      6.393
REMARK INTER + INTRA:         -14.029
REMARK INTER:                  -7.711
REMARK INTRA:                  -6.318
REMARK UNBOUND:                -6.630
REMARK SMILES CCCCCCCCCCCCCCCCCCCCCCCCCCCCCC(=O)[O-]
REMARK SMILES IDX 16 1 17 2 18 3 19 4 20 5 21 6 22 7 23 8 24 9 25 10 26 11
REMARK SMILES IDX 27 12 28 13 29 14 30 15 31 16 32 17 15 18 14 19 13 20 12 21
REMARK SMILES IDX 11 22 10 23 9 24 8 25 7 26 6 27 5 28 4 29 3 30 2 31 1 32
REMARK H PARENT
REMARK Flexibility Score: inf
ROOT
ATOM      1  C   UNL     1      -0.183  67.241  14.101  1.00  0.00     0.000 C 
ENDROOT
BRANCH   1   2
ATOM      2  C   UNL     1      -1.267  67.491  13.039  1.00  0.00     0.000 C 
BRANCH   2   3
ATOM      3  C   UNL     1      -0.750  68.299  11.835  1.00  0.00     0.000 C 
BRANCH   3   4
ATOM      4  C   UNL     1      -0.770  67.544  10.493  1.00  0.00     0.000 C 
BRANCH   4   5
ATOM      5  C   UNL     1       0.622  67.435   9.847  1.00  0.00     0.000 C 
BRANCH   5   6
ATOM      6  C   UNL     1       1.239  66.037  10.005  1.00  0.00     0.000 C 
BRANCH   6   7
ATOM      7  C   UNL     1       2.665  66.084  10.581  1.00  0.00     0.000 C 
BRANCH   7   8
ATOM      8  C   UNL     1       3.062  67.490  11.061  1.00  0.00     0.000 C 
BRANCH   8   9
ATOM      9  C   UNL     1       3.987  67.453  12.289  1.00  0.00     0.000 C 
BRANCH   9  10
ATOM     10  C   UNL     1       4.039  68.799  13.031  1.00  0.00     0.000 C 
BRANCH  10  11
ATOM     11  C   UNL     1       2.660  69.240  13.545  1.00  0.00     0.000 C 
BRANCH  11  12
ATOM     12  C   UNL     1       2.509  70.764  13.478  1.00  0.00     0.000 C 
BRANCH  12  13
ATOM     13  C   UNL     1       1.557  71.170  12.341  1.00  0.00     0.006 C 
BRANCH  13  14
ATOM     14  C   UNL     1       2.277  71.279  10.991  1.00  0.00     0.053 C 
BRANCH  14  15
ATOM     15  C   UNL     1       3.438  72.224  11.049  1.00  0.00     0.041 C 
ATOM     16  O   UNL     1       4.601  71.816  10.788  1.00  0.00    -0.550 OA
ATOM     17  O   UNL     1       3.238  73.552  11.405  1.00  0.00    -0.550 OA
ENDBRANCH  14  15
ENDBRANCH  13  14
ENDBRANCH  12  13
ENDBRANCH  11  12
ENDBRANCH  10  11
ENDBRANCH   9  10
ENDBRANCH   8   9
ENDBRANCH   7   8
ENDBRANCH   6   7
ENDBRANCH   5   6
ENDBRANCH   4   5
ENDBRANCH   3   4
ENDBRANCH   2   3
ENDBRANCH   1   2
BRANCH   1  18
ATOM     18  C   UNL     1       0.761  66.090  13.716  1.00  0.00     0.000 C 
BRANCH  18  19
ATOM     19  C   UNL     1       0.387  64.772  14.411  1.00  0.00     0.000 C 
BRANCH  19  20
ATOM     20  C   UNL     1       1.638  64.011  14.866  1.00  0.00     0.000 C 
BRANCH  20  21
ATOM     21  C   UNL     1       2.796  64.226  13.881  1.00  0.00     0.000 C 
BRANCH  21  22
ATOM     22  C   UNL     1       4.092  64.676  14.572  1.00  0.00     0.000 C 
BRANCH  22  23
ATOM     23  C   UNL     1       3.831  65.409  15.901  1.00  0.00     0.000 C 
BRANCH  23  24
ATOM     24  C   UNL     1       4.553  66.764  15.975  1.00  0.00    -0.000 C 
BRANCH  24  25
ATOM     25  C   UNL     1       3.785  67.794  16.821  1.00  0.00    -0.000 C 
BRANCH  25  26
ATOM     26  C   UNL     1       2.314  67.401  17.050  1.00  0.00    -0.000 C 
BRANCH  26  27
ATOM     27  C   UNL     1       1.322  68.580  17.109  1.00  0.00    -0.000 C 
BRANCH  27  28
ATOM     28  C   UNL     1       1.972  69.976  17.134  1.00  0.00    -0.000 C 
BRANCH  28  29
ATOM     29  C   UNL     1       1.492  70.837  18.315  1.00  0.00    -0.000 C 
BRANCH  29  30
ATOM     30  C   UNL     1       2.633  71.231  19.270  1.00  0.00    -0.000 C 
BRANCH  30  31
ATOM     31  C   UNL     1       3.457  70.049  19.811  1.00  0.00    -0.003 C 
ATOM     32  C   UNL     1       2.684  69.186  20.808  1.00  0.00     0.004 C 
ENDBRANCH  30  31
ENDBRANCH  29  30
ENDBRANCH  28  29
ENDBRANCH  27  28
ENDBRANCH  26  27
ENDBRANCH  25  26
ENDBRANCH  24  25
ENDBRANCH  23  24
ENDBRANCH  22  23
ENDBRANCH  21  22
ENDBRANCH  20  21
ENDBRANCH  19  20
ENDBRANCH  18  19
ENDBRANCH   1  18
TORSDOF 28
ENDMDL
MODEL 7
REMARK VINA RESULT:    -2.777      3.155      6.647
REMARK INTER + INTRA:         -13.952
REMARK INTER:                  -8.141
REMARK INTRA:                  -5.812
REMARK UNBOUND:                -6.630
REMARK SMILES CCCCCCCCCCCCCCCCCCCCCCCCCCCCCC(=O)[O-]
REMARK SMILES IDX 16 1 17 2 18 3 19 4 20 5 21 6 22 7 23 8 24 9 25 10 26 11
REMARK SMILES IDX 27 12 28 13 29 14 30 15 31 16 32 17 15 18 14 19 13 20 12 21
REMARK SMILES IDX 11 22 10 23 9 24 8 25 7 26 6 27 5 28 4 29 3 30 2 31 1 32
REMARK H PARENT
REMARK Flexibility Score: inf
ROOT
ATOM      1  C   UNL     1       4.459  68.950  14.320  1.00  0.00     0.000 C 
ENDROOT
BRANCH   1   2
ATOM      2  C   UNL     1       3.081  69.631  14.286  1.00  0.00     0.000 C 
BRANCH   2   3
ATOM      3  C   UNL     1       2.754  70.250  12.914  1.00  0.00     0.000 C 
BRANCH   3   4
ATOM      4  C   UNL     1       1.461  69.728  12.260  1.00  0.00     0.000 C 
BRANCH   4   5
ATOM      5  C   UNL     1       1.486  68.210  12.013  1.00  0.00     0.000 C 
BRANCH   5   6
ATOM      6  C   UNL     1       0.440  67.458  12.851  1.00  0.00     0.000 C 
BRANCH   6   7
ATOM      7  C   UNL     1      -0.431  68.405  13.695  1.00  0.00     0.000 C 
BRANCH   7   8
ATOM      8  C   UNL     1      -0.029  68.411  15.179  1.00  0.00     0.000 C 
BRANCH   8   9
ATOM      9  C   UNL     1      -0.401  67.101  15.895  1.00  0.00     0.000 C 
BRANCH   9  10
ATOM     10  C   UNL     1      -0.386  67.239  17.426  1.00  0.00     0.000 C 
BRANCH  10  11
ATOM     11  C   UNL     1       0.457  68.433  17.900  1.00  0.00     0.000 C 
BRANCH  11  12
ATOM     12  C   UNL     1       1.886  67.997  18.242  1.00  0.00     0.000 C 
BRANCH  12  13
ATOM     13  C   UNL     1       2.820  69.214  18.343  1.00  0.00     0.006 C 
BRANCH  13  14
ATOM     14  C   UNL     1       2.243  70.450  17.641  1.00  0.00     0.053 C 
BRANCH  14  15
ATOM     15  C   UNL     1       2.334  71.675  18.500  1.00  0.00     0.041 C 
ATOM     16  O   UNL     1       1.386  71.981  19.271  1.00  0.00    -0.550 OA
ATOM     17  O   UNL     1       3.461  72.485  18.440  1.00  0.00    -0.550 OA
ENDBRANCH  14  15
ENDBRANCH  13  14
ENDBRANCH  12  13
ENDBRANCH  11  12
ENDBRANCH  10  11
ENDBRANCH   9  10
ENDBRANCH   8   9
ENDBRANCH   7   8
ENDBRANCH   6   7
ENDBRANCH   5   6
ENDBRANCH   4   5
ENDBRANCH   3   4
ENDBRANCH   2   3
ENDBRANCH   1   2
BRANCH   1  18
ATOM     18  C   UNL     1       4.500  67.758  15.291  1.00  0.00     0.000 C 
BRANCH  18  19
ATOM     19  C   UNL     1       3.323  66.794  15.080  1.00  0.00     0.000 C 
BRANCH  19  20
ATOM     20  C   UNL     1       3.623  65.791  13.959  1.00  0.00     0.000 C 
BRANCH  20  21
ATOM     21  C   UNL     1       2.606  64.641  13.971  1.00  0.00     0.000 C 
BRANCH  21  22
ATOM     22  C   UNL     1       3.212  63.315  14.459  1.00  0.00     0.000 C 
BRANCH  22  23
ATOM     23  C   UNL     1       2.471  62.740  15.681  1.00  0.00     0.000 C 
BRANCH  23  24
ATOM     24  C   UNL     1       1.438  63.723  16.256  1.00  0.00    -0.000 C 
BRANCH  24  25
ATOM     25  C   UNL     1       1.893  64.337  17.592  1.00  0.00    -0.000 C 
BRANCH  25  26
ATOM     26  C   UNL     1       3.232  63.762  18.088  1.00  0.00    -0.000 C 
BRANCH  26  27
ATOM     27  C   UNL     1       4.364  64.794  18.263  1.00  0.00    -0.000 C 
BRANCH  27  28
ATOM     28  C   UNL     1       5.417  64.802  17.138  1.00  0.00    -0.000 C 
BRANCH  28  29
ATOM     29  C   UNL     1       6.174  63.468  17.021  1.00  0.00    -0.000 C 
BRANCH  29  30
ATOM     30  C   UNL     1       7.696  63.628  17.188  1.00  0.00    -0.000 C 
BRANCH  30  31
ATOM     31  C   UNL     1       8.456  62.318  17.456  1.00  0.00    -0.003 C 
ATOM     32  C   UNL     1       9.937  62.397  17.085  1.00  0.00     0.004 C 
ENDBRANCH  30  31
ENDBRANCH  29  30
ENDBRANCH  28  29
ENDBRANCH  27  28
ENDBRANCH  26  27
ENDBRANCH  25  26
ENDBRANCH  24  25
ENDBRANCH  23  24
ENDBRANCH  22  23
ENDBRANCH  21  22
ENDBRANCH  20  21
ENDBRANCH  19  20
ENDBRANCH  18  19
ENDBRANCH   1  18
TORSDOF 28
ENDMDL
MODEL 8
REMARK VINA RESULT:    -2.775      2.731      5.248
REMARK INTER + INTRA:         -13.947
REMARK INTER:                  -7.930
REMARK INTRA:                  -6.017
REMARK UNBOUND:                -6.630
REMARK SMILES CCCCCCCCCCCCCCCCCCCCCCCCCCCCCC(=O)[O-]
REMARK SMILES IDX 16 1 17 2 18 3 19 4 20 5 21 6 22 7 23 8 24 9 25 10 26 11
REMARK SMILES IDX 27 12 28 13 29 14 30 15 31 16 32 17 15 18 14 19 13 20 12 21
REMARK SMILES IDX 11 22 10 23 9 24 8 25 7 26 6 27 5 28 4 29 3 30 2 31 1 32
REMARK H PARENT
REMARK Flexibility Score: inf
ROOT
ATOM      1  C   UNL     1       2.652  67.042  19.497  1.00  0.00     0.000 C 
ENDROOT
BRANCH   1   2
ATOM      2  C   UNL     1       4.048  66.858  18.877  1.00  0.00     0.000 C 
BRANCH   2   3
ATOM      3  C   UNL     1       3.999  66.254  17.462  1.00  0.00     0.000 C 
BRANCH   3   4
ATOM      4  C   UNL     1       4.173  67.271  16.318  1.00  0.00     0.000 C 
BRANCH   4   5
ATOM      5  C   UNL     1       5.314  66.900  15.356  1.00  0.00     0.000 C 
BRANCH   5   6
ATOM      6  C   UNL     1       5.147  65.496  14.755  1.00  0.00     0.000 C 
BRANCH   6   7
ATOM      7  C   UNL     1       3.779  65.304  14.076  1.00  0.00     0.000 C 
BRANCH   7   8
ATOM      8  C   UNL     1       3.416  63.822  13.889  1.00  0.00     0.000 C 
BRANCH   8   9
ATOM      9  C   UNL     1       2.192  63.406  14.724  1.00  0.00     0.000 C 
BRANCH   9  10
ATOM     10  C   UNL     1       2.566  62.999  16.158  1.00  0.00     0.000 C 
BRANCH  10  11
ATOM     11  C   UNL     1       3.876  62.199  16.220  1.00  0.00     0.000 C 
BRANCH  11  12
ATOM     12  C   UNL     1       4.816  62.761  17.293  1.00  0.00     0.000 C 
BRANCH  12  13
ATOM     13  C   UNL     1       6.286  62.571  16.887  1.00  0.00     0.006 C 
BRANCH  13  14
ATOM     14  C   UNL     1       7.147  63.793  17.232  1.00  0.00     0.053 C 
BRANCH  14  15
ATOM     15  C   UNL     1       8.537  63.402  17.635  1.00  0.00     0.041 C 
ATOM     16  O   UNL     1       8.867  62.187  17.676  1.00  0.00    -0.550 OA
ATOM     17  O   UNL     1       9.463  64.379  17.977  1.00  0.00    -0.550 OA
ENDBRANCH  14  15
ENDBRANCH  13  14
ENDBRANCH  12  13
ENDBRANCH  11  12
ENDBRANCH  10  11
ENDBRANCH   9  10
ENDBRANCH   8   9
ENDBRANCH   7   8
ENDBRANCH   6   7
ENDBRANCH   5   6
ENDBRANCH   4   5
ENDBRANCH   3   4
ENDBRANCH   2   3
ENDBRANCH   1   2
BRANCH   1  18
ATOM     18  C   UNL     1       1.609  66.093  18.884  1.00  0.00     0.000 C 
BRANCH  18  19
ATOM     19  C   UNL     1       0.174  66.612  19.060  1.00  0.00     0.000 C 
BRANCH  19  20
ATOM     20  C   UNL     1      -0.847  65.626  18.481  1.00  0.00     0.000 C 
BRANCH  20  21
ATOM     21  C   UNL     1      -0.153  64.347  17.991  1.00  0.00     0.000 C 
BRANCH  21  22
ATOM     22  C   UNL     1      -1.020  63.531  17.019  1.00  0.00     0.000 C 
BRANCH  22  23
ATOM     23  C   UNL     1      -2.206  64.341  16.463  1.00  0.00     0.000 C 
BRANCH  23  24
ATOM     24  C   UNL     1      -2.047  64.663  14.968  1.00  0.00    -0.000 C 
BRANCH  24  25
ATOM     25  C   UNL     1      -1.573  66.107  14.726  1.00  0.00    -0.000 C 
BRANCH  25  26
ATOM     26  C   UNL     1      -0.083  66.191  14.346  1.00  0.00    -0.000 C 
BRANCH  26  27
ATOM     27  C   UNL     1       0.800  66.986  15.329  1.00  0.00    -0.000 C 
BRANCH  27  28
ATOM     28  C   UNL     1       0.437  68.476  15.471  1.00  0.00    -0.000 C 
BRANCH  28  29
ATOM     29  C   UNL     1       0.921  69.085  16.798  1.00  0.00    -0.000 C 
BRANCH  29  30
ATOM     30  C   UNL     1       2.122  70.031  16.618  1.00  0.00    -0.000 C 
BRANCH  30  31
ATOM     31  C   UNL     1       2.732  70.554  17.930  1.00  0.00    -0.003 C 
ATOM     32  C   UNL     1       1.679  70.967  18.958  1.00  0.00     0.004 C 
ENDBRANCH  30  31
ENDBRANCH  29  30
ENDBRANCH  28  29
ENDBRANCH  27  28
ENDBRANCH  26  27
ENDBRANCH  25  26
ENDBRANCH  24  25
ENDBRANCH  23  24
ENDBRANCH  22  23
ENDBRANCH  21  22
ENDBRANCH  20  21
ENDBRANCH  19  20
ENDBRANCH  18  19
ENDBRANCH   1  18
TORSDOF 28
ENDMDL
MODEL 9
REMARK VINA RESULT:    -2.765      4.027      8.360
REMARK INTER + INTRA:         -13.921
REMARK INTER:                  -9.296
REMARK INTRA:                  -4.625
REMARK UNBOUND:                -6.630
REMARK SMILES CCCCCCCCCCCCCCCCCCCCCCCCCCCCCC(=O)[O-]
REMARK SMILES IDX 16 1 17 2 18 3 19 4 20 5 21 6 22 7 23 8 24 9 25 10 26 11
REMARK SMILES IDX 27 12 28 13 29 14 30 15 31 16 32 17 15 18 14 19 13 20 12 21
REMARK SMILES IDX 11 22 10 23 9 24 8 25 7 26 6 27 5 28 4 29 3 30 2 31 1 32
REMARK H PARENT
REMARK Flexibility Score: inf
ROOT
ATOM      1  C   UNL     1       4.882  69.179  11.665  1.00  0.00     0.000 C 
ENDROOT
BRANCH   1   2
ATOM      2  C   UNL     1       5.375  69.620  10.277  1.00  0.00     0.000 C 
BRANCH   2   3
ATOM      3  C   UNL     1       5.245  71.138  10.051  1.00  0.00     0.000 C 
BRANCH   3   4
ATOM      4  C   UNL     1       4.563  71.906  11.198  1.00  0.00     0.000 C 
BRANCH   4   5
ATOM      5  C   UNL     1       3.473  72.873  10.705  1.00  0.00     0.000 C 
BRANCH   5   6
ATOM      6  C   UNL     1       2.330  73.041  11.717  1.00  0.00     0.000 C 
BRANCH   6   7
ATOM      7  C   UNL     1       2.255  71.875  12.719  1.00  0.00     0.000 C 
BRANCH   7   8
ATOM      8  C   UNL     1       1.300  70.762  12.258  1.00  0.00     0.000 C 
BRANCH   8   9
ATOM      9  C   UNL     1       1.427  69.487  13.111  1.00  0.00     0.000 C 
BRANCH   9  10
ATOM     10  C   UNL     1       2.298  69.696  14.360  1.00  0.00     0.000 C 
BRANCH  10  11
ATOM     11  C   UNL     1       2.084  68.600  15.416  1.00  0.00     0.000 C 
BRANCH  11  12
ATOM     12  C   UNL     1       2.594  69.050  16.789  1.00  0.00     0.000 C 
BRANCH  12  13
ATOM     13  C   UNL     1       2.134  70.483  17.101  1.00  0.00     0.006 C 
BRANCH  13  14
ATOM     14  C   UNL     1       2.908  71.100  18.273  1.00  0.00     0.053 C 
BRANCH  14  15
ATOM     15  C   UNL     1       2.405  72.469  18.617  1.00  0.00     0.041 C 
ATOM     16  O   UNL     1       2.984  73.490  18.161  1.00  0.00    -0.550 OA
ATOM     17  O   UNL     1       1.305  72.617  19.452  1.00  0.00    -0.550 OA
ENDBRANCH  14  15
ENDBRANCH  13  14
ENDBRANCH  12  13
ENDBRANCH  11  12
ENDBRANCH  10  11
ENDBRANCH   9  10
ENDBRANCH   8   9
ENDBRANCH   7   8
ENDBRANCH   6   7
ENDBRANCH   5   6
ENDBRANCH   4   5
ENDBRANCH   3   4
ENDBRANCH   2   3
ENDBRANCH   1   2
BRANCH   1  18
ATOM     18  C   UNL     1       6.027  69.061  12.684  1.00  0.00     0.000 C 
BRANCH  18  19
ATOM     19  C   UNL     1       5.582  68.372  13.983  1.00  0.00     0.000 C 
BRANCH  19  20
ATOM     20  C   UNL     1       4.998  66.982  13.702  1.00  0.00     0.000 C 
BRANCH  20  21
ATOM     21  C   UNL     1       5.266  66.031  14.877  1.00  0.00     0.000 C 
BRANCH  21  22
ATOM     22  C   UNL     1       3.989  65.356  15.401  1.00  0.00     0.000 C 
BRANCH  22  23
ATOM     23  C   UNL     1       3.649  64.062  14.639  1.00  0.00     0.000 C 
BRANCH  23  24
ATOM     24  C   UNL     1       2.196  64.041  14.137  1.00  0.00    -0.000 C 
BRANCH  24  25
ATOM     25  C   UNL     1       1.830  65.308  13.345  1.00  0.00    -0.000 C 
BRANCH  25  26
ATOM     26  C   UNL     1       2.216  65.214  11.858  1.00  0.00    -0.000 C 
BRANCH  26  27
ATOM     27  C   UNL     1       2.436  66.567  11.151  1.00  0.00    -0.000 C 
BRANCH  27  28
ATOM     28  C   UNL     1       2.644  66.479   9.627  1.00  0.00    -0.000 C 
BRANCH  28  29
ATOM     29  C   UNL     1       1.382  66.014   8.879  1.00  0.00    -0.000 C 
BRANCH  29  30
ATOM     30  C   UNL     1       1.546  64.623   8.240  1.00  0.00    -0.000 C 
BRANCH  30  31
ATOM     31  C   UNL     1       2.978  64.061   8.278  1.00  0.00    -0.003 C 
ATOM     32  C   UNL     1       3.101  62.790   9.118  1.00  0.00     0.004 C 
ENDBRANCH  30  31
ENDBRANCH  29  30
ENDBRANCH  28  29
ENDBRANCH  27  28
ENDBRANCH  26  27
ENDBRANCH  25  26
ENDBRANCH  24  25
ENDBRANCH  23  24
ENDBRANCH  22  23
ENDBRANCH  21  22
ENDBRANCH  20  21
ENDBRANCH  19  20
ENDBRANCH  18  19
ENDBRANCH   1  18
TORSDOF 28
ENDMDL
