MODEL 1
REMARK VINA RESULT:    -4.834      0.000      0.000
REMARK INTER + INTRA:         -12.377
REMARK INTER:                 -10.485
REMARK INTRA:                  -1.891
REMARK UNBOUND:                -1.891
REMARK SMILES CCCCCCCCCCCCCCCCCCCCCC(=O)[O-]
REMARK SMILES IDX 12 1 11 2 10 3 9 4 8 5 7 6 6 7 5 8 4 9 3 10 2 11 1 12 13 13
REMARK SMILES IDX 14 14 15 15 16 16 17 17 18 18 19 19 20 20 21 21 22 22 23 23
REMARK SMILES IDX 24 24
REMARK H PARENT
REMARK Flexibility Score: inf
ROOT
ATOM      1  C   UNL     1      28.152  -4.487  44.234  1.00  0.00     0.000 C 
ENDROOT
BRANCH   1   2
ATOM      2  C   UNL     1      27.113  -5.469  43.671  1.00  0.00     0.000 C 
BRANCH   2   3
ATOM      3  C   UNL     1      25.674  -5.107  44.078  1.00  0.00     0.000 C 
BRANCH   3   4
ATOM      4  C   UNL     1      24.876  -6.319  44.593  1.00  0.00    -0.000 C 
BRANCH   4   5
ATOM      5  C   UNL     1      25.172  -6.735  46.049  1.00  0.00    -0.000 C 
BRANCH   5   6
ATOM      6  C   UNL     1      25.509  -5.576  47.003  1.00  0.00    -0.000 C 
BRANCH   6   7
ATOM      7  C   UNL     1      25.797  -6.052  48.437  1.00  0.00    -0.000 C 
BRANCH   7   8
ATOM      8  C   UNL     1      25.327  -5.044  49.498  1.00  0.00    -0.000 C 
BRANCH   8   9
ATOM      9  C   UNL     1      24.126  -5.559  50.306  1.00  0.00    -0.000 C 
BRANCH   9  10
ATOM     10  C   UNL     1      22.851  -4.781  49.947  1.00  0.00    -0.000 C 
BRANCH  10  11
ATOM     11  C   UNL     1      21.709  -5.701  49.486  1.00  0.00    -0.003 C 
ATOM     12  C   UNL     1      22.023  -6.422  48.176  1.00  0.00     0.004 C 
ENDBRANCH  10  11
ENDBRANCH   9  10
ENDBRANCH   8   9
ENDBRANCH   7   8
ENDBRANCH   6   7
ENDBRANCH   5   6
ENDBRANCH   4   5
ENDBRANCH   3   4
ENDBRANCH   2   3
ENDBRANCH   1   2
BRANCH   1  13
ATOM     13  C   UNL     1      27.516  -3.295  44.964  1.00  0.00     0.000 C 
BRANCH  13  14
ATOM     14  C   UNL     1      28.200  -1.978  44.567  1.00  0.00     0.000 C 
BRANCH  14  15
ATOM     15  C   UNL     1      27.812  -1.500  43.156  1.00  0.00     0.000 C 
BRANCH  15  16
ATOM     16  C   UNL     1      26.514  -0.676  43.084  1.00  0.00     0.000 C 
BRANCH  16  17
ATOM     17  C   UNL     1      26.518   0.534  44.030  1.00  0.00     0.000 C 
BRANCH  17  18
ATOM     18  C   UNL     1      25.491   1.584  43.582  1.00  0.00     0.000 C 
BRANCH  18  19
ATOM     19  C   UNL     1      26.085   2.633  42.623  1.00  0.00     0.000 C 
BRANCH  19  20
ATOM     20  C   UNL     1      25.413   2.702  41.238  1.00  0.00     0.006 C 
BRANCH  20  21
ATOM     21  C   UNL     1      26.424   2.773  40.086  1.00  0.00     0.053 C 
BRANCH  21  22
ATOM     22  C   UNL     1      26.327   1.551  39.227  1.00  0.00     0.041 C 
ATOM     23  O   UNL     1      27.197   0.644  39.321  1.00  0.00    -0.550 OA
ATOM     24  O   UNL     1      25.303   1.432  38.294  1.00  0.00    -0.550 OA
ENDBRANCH  21  22
ENDBRANCH  20  21
ENDBRANCH  19  20
ENDBRANCH  18  19
ENDBRANCH  17  18
ENDBRANCH  16  17
ENDBRANCH  15  16
ENDBRANCH  14  15
ENDBRANCH  13  14
ENDBRANCH   1  13
TORSDOF 20
ENDMDL
MODEL 2
REMARK VINA RESULT:    -4.688      6.302      9.388
REMARK INTER + INTRA:         -12.061
REMARK INTER:                  -9.971
REMARK INTRA:                  -2.090
REMARK UNBOUND:                -1.891
REMARK SMILES CCCCCCCCCCCCCCCCCCCCCC(=O)[O-]
REMARK SMILES IDX 12 1 11 2 10 3 9 4 8 5 7 6 6 7 5 8 4 9 3 10 2 11 1 12 13 13
REMARK SMILES IDX 14 14 15 15 16 16 17 17 18 18 19 19 20 20 21 21 22 22 23 23
REMARK SMILES IDX 24 24
REMARK H PARENT
REMARK Flexibility Score: inf
ROOT
ATOM      1  C   UNL     1      24.046  -3.004  36.478  1.00  0.00     0.000 C 
ENDROOT
BRANCH   1   2
ATOM      2  C   UNL     1      22.544  -3.331  36.474  1.00  0.00     0.000 C 
BRANCH   2   3
ATOM      3  C   UNL     1      22.189  -4.472  35.504  1.00  0.00     0.000 C 
BRANCH   3   4
ATOM      4  C   UNL     1      23.069  -5.720  35.702  1.00  0.00    -0.000 C 
BRANCH   4   5
ATOM      5  C   UNL     1      23.904  -6.140  34.474  1.00  0.00    -0.000 C 
BRANCH   5   6
ATOM      6  C   UNL     1      25.428  -6.119  34.682  1.00  0.00    -0.000 C 
BRANCH   6   7
ATOM      7  C   UNL     1      25.827  -6.285  36.159  1.00  0.00    -0.000 C 
BRANCH   7   8
ATOM      8  C   UNL     1      27.115  -5.523  36.509  1.00  0.00    -0.000 C 
BRANCH   8   9
ATOM      9  C   UNL     1      27.242  -4.198  35.742  1.00  0.00    -0.000 C 
BRANCH   9  10
ATOM     10  C   UNL     1      28.624  -3.565  35.968  1.00  0.00    -0.000 C 
BRANCH  10  11
ATOM     11  C   UNL     1      29.157  -3.806  37.389  1.00  0.00    -0.003 C 
ATOM     12  C   UNL     1      28.890  -2.630  38.327  1.00  0.00     0.004 C 
ENDBRANCH  10  11
ENDBRANCH   9  10
ENDBRANCH   8   9
ENDBRANCH   7   8
ENDBRANCH   6   7
ENDBRANCH   5   6
ENDBRANCH   4   5
ENDBRANCH   3   4
ENDBRANCH   2   3
ENDBRANCH   1   2
BRANCH   1  13
ATOM     13  C   UNL     1      24.331  -1.497  36.400  1.00  0.00     0.000 C 
BRANCH  13  14
ATOM     14  C   UNL     1      25.654  -1.150  37.098  1.00  0.00     0.000 C 
BRANCH  14  15
ATOM     15  C   UNL     1      25.631   0.231  37.777  1.00  0.00     0.000 C 
BRANCH  15  16
ATOM     16  C   UNL     1      26.818   0.513  38.716  1.00  0.00     0.000 C 
BRANCH  16  17
ATOM     17  C   UNL     1      26.766   1.912  39.346  1.00  0.00     0.000 C 
BRANCH  17  18
ATOM     18  C   UNL     1      25.322   2.431  39.410  1.00  0.00     0.000 C 
BRANCH  18  19
ATOM     19  C   UNL     1      24.877   2.791  40.840  1.00  0.00     0.000 C 
BRANCH  19  20
ATOM     20  C   UNL     1      25.930   2.530  41.934  1.00  0.00     0.006 C 
BRANCH  20  21
ATOM     21  C   UNL     1      25.340   1.863  43.184  1.00  0.00     0.053 C 
BRANCH  21  22
ATOM     22  C   UNL     1      26.433   1.390  44.090  1.00  0.00     0.041 C 
ATOM     23  O   UNL     1      26.798   0.184  44.062  1.00  0.00    -0.550 OA
ATOM     24  O   UNL     1      27.019   2.268  44.996  1.00  0.00    -0.550 OA
ENDBRANCH  21  22
ENDBRANCH  20  21
ENDBRANCH  19  20
ENDBRANCH  18  19
ENDBRANCH  17  18
ENDBRANCH  16  17
ENDBRANCH  15  16
ENDBRANCH  14  15
ENDBRANCH  13  14
ENDBRANCH   1  13
TORSDOF 20
ENDMDL
MODEL 3
REMARK VINA RESULT:    -4.604      3.899      9.373
REMARK INTER + INTRA:         -11.879
REMARK INTER:                  -9.828
REMARK INTRA:                  -2.051
REMARK UNBOUND:                -1.891
REMARK SMILES CCCCCCCCCCCCCCCCCCCCCC(=O)[O-]
REMARK SMILES IDX 12 1 11 2 10 3 9 4 8 5 7 6 6 7 5 8 4 9 3 10 2 11 1 12 13 13
REMARK SMILES IDX 14 14 15 15 16 16 17 17 18 18 19 19 20 20 21 21 22 22 23 23
REMARK SMILES IDX 24 24
REMARK H PARENT
REMARK Flexibility Score: inf
ROOT
ATOM      1  C   UNL     1      28.825  -3.960  46.402  1.00  0.00     0.000 C 
ENDROOT
BRANCH   1   2
ATOM      2  C   UNL     1      28.829  -2.670  45.567  1.00  0.00     0.000 C 
BRANCH   2   3
ATOM      3  C   UNL     1      27.595  -2.550  44.656  1.00  0.00     0.000 C 
BRANCH   3   4
ATOM      4  C   UNL     1      27.782  -1.519  43.528  1.00  0.00    -0.000 C 
BRANCH   4   5
ATOM      5  C   UNL     1      26.539  -0.667  43.199  1.00  0.00    -0.000 C 
BRANCH   5   6
ATOM      6  C   UNL     1      26.524   0.737  43.829  1.00  0.00    -0.000 C 
BRANCH   6   7
ATOM      7  C   UNL     1      25.595   1.712  43.087  1.00  0.00    -0.000 C 
BRANCH   7   8
ATOM      8  C   UNL     1      26.286   3.041  42.747  1.00  0.00    -0.000 C 
BRANCH   8   9
ATOM      9  C   UNL     1      26.311   3.322  41.237  1.00  0.00    -0.000 C 
BRANCH   9  10
ATOM     10  C   UNL     1      25.151   2.606  40.528  1.00  0.00    -0.000 C 
BRANCH  10  11
ATOM     11  C   UNL     1      25.600   1.875  39.253  1.00  0.00    -0.003 C 
ATOM     12  C   UNL     1      26.716   0.864  39.513  1.00  0.00     0.004 C 
ENDBRANCH  10  11
ENDBRANCH   9  10
ENDBRANCH   8   9
ENDBRANCH   7   8
ENDBRANCH   6   7
ENDBRANCH   5   6
ENDBRANCH   4   5
ENDBRANCH   3   4
ENDBRANCH   2   3
ENDBRANCH   1   2
BRANCH   1  13
ATOM     13  C   UNL     1      29.607  -5.104  45.741  1.00  0.00     0.000 C 
BRANCH  13  14
ATOM     14  C   UNL     1      28.700  -6.320  45.495  1.00  0.00     0.000 C 
BRANCH  14  15
ATOM     15  C   UNL     1      27.702  -6.102  44.344  1.00  0.00     0.000 C 
BRANCH  15  16
ATOM     16  C   UNL     1      26.264  -6.567  44.635  1.00  0.00     0.000 C 
BRANCH  16  17
ATOM     17  C   UNL     1      25.411  -5.488  45.317  1.00  0.00     0.000 C 
BRANCH  17  18
ATOM     18  C   UNL     1      24.970  -5.940  46.716  1.00  0.00     0.000 C 
BRANCH  18  19
ATOM     19  C   UNL     1      25.811  -5.310  47.843  1.00  0.00     0.000 C 
BRANCH  19  20
ATOM     20  C   UNL     1      25.092  -5.187  49.199  1.00  0.00     0.006 C 
BRANCH  20  21
ATOM     21  C   UNL     1      23.868  -6.106  49.313  1.00  0.00     0.053 C 
BRANCH  21  22
ATOM     22  C   UNL     1      22.650  -5.313  49.671  1.00  0.00     0.041 C 
ATOM     23  O   UNL     1      21.503  -5.777  49.431  1.00  0.00    -0.550 OA
ATOM     24  O   UNL     1      22.780  -4.046  50.228  1.00  0.00    -0.550 OA
ENDBRANCH  21  22
ENDBRANCH  20  21
ENDBRANCH  19  20
ENDBRANCH  18  19
ENDBRANCH  17  18
ENDBRANCH  16  17
ENDBRANCH  15  16
ENDBRANCH  14  15
ENDBRANCH  13  14
ENDBRANCH   1  13
TORSDOF 20
ENDMDL
MODEL 4
REMARK VINA RESULT:    -4.588      5.455      9.674
REMARK INTER + INTRA:         -11.844
REMARK INTER:                  -9.830
REMARK INTRA:                  -2.015
REMARK UNBOUND:                -1.891
REMARK SMILES CCCCCCCCCCCCCCCCCCCCCC(=O)[O-]
REMARK SMILES IDX 12 1 11 2 10 3 9 4 8 5 7 6 6 7 5 8 4 9 3 10 2 11 1 12 13 13
REMARK SMILES IDX 14 14 15 15 16 16 17 17 18 18 19 19 20 20 21 21 22 22 23 23
REMARK SMILES IDX 24 24
REMARK H PARENT
REMARK Flexibility Score: inf
ROOT
ATOM      1  C   UNL     1      25.500  -1.125  37.111  1.00  0.00     0.000 C 
ENDROOT
BRANCH   1   2
ATOM      2  C   UNL     1      25.544   0.266  37.762  1.00  0.00     0.000 C 
BRANCH   2   3
ATOM      3  C   UNL     1      26.730   0.430  38.729  1.00  0.00     0.000 C 
BRANCH   3   4
ATOM      4  C   UNL     1      26.662   1.736  39.541  1.00  0.00    -0.000 C 
BRANCH   4   5
ATOM      5  C   UNL     1      25.243   2.295  39.776  1.00  0.00    -0.000 C 
BRANCH   5   6
ATOM      6  C   UNL     1      25.046   3.038  41.110  1.00  0.00    -0.000 C 
BRANCH   6   7
ATOM      7  C   UNL     1      26.375   3.327  41.830  1.00  0.00    -0.000 C 
BRANCH   7   8
ATOM      8  C   UNL     1      26.368   2.851  43.291  1.00  0.00    -0.000 C 
BRANCH   8   9
ATOM      9  C   UNL     1      25.558   1.561  43.485  1.00  0.00    -0.000 C 
BRANCH   9  10
ATOM     10  C   UNL     1      26.473   0.397  43.894  1.00  0.00    -0.000 C 
BRANCH  10  11
ATOM     11  C   UNL     1      26.806  -0.534  42.717  1.00  0.00    -0.003 C 
ATOM     12  C   UNL     1      27.804  -1.628  43.093  1.00  0.00     0.004 C 
ENDBRANCH  10  11
ENDBRANCH   9  10
ENDBRANCH   8   9
ENDBRANCH   7   8
ENDBRANCH   6   7
ENDBRANCH   5   6
ENDBRANCH   4   5
ENDBRANCH   3   4
ENDBRANCH   2   3
ENDBRANCH   1   2
BRANCH   1  13
ATOM     13  C   UNL     1      24.178  -1.402  36.380  1.00  0.00     0.000 C 
BRANCH  13  14
ATOM     14  C   UNL     1      23.939  -2.912  36.227  1.00  0.00     0.000 C 
BRANCH  14  15
ATOM     15  C   UNL     1      22.663  -3.394  36.941  1.00  0.00     0.000 C 
BRANCH  15  16
ATOM     16  C   UNL     1      22.131  -4.758  36.468  1.00  0.00     0.000 C 
BRANCH  16  17
ATOM     17  C   UNL     1      22.272  -4.965  34.952  1.00  0.00     0.000 C 
BRANCH  17  18
ATOM     18  C   UNL     1      22.996  -6.282  34.644  1.00  0.00     0.000 C 
BRANCH  18  19
ATOM     19  C   UNL     1      24.473  -6.079  34.258  1.00  0.00     0.000 C 
BRANCH  19  20
ATOM     20  C   UNL     1      25.487  -6.811  35.158  1.00  0.00     0.006 C 
BRANCH  20  21
ATOM     21  C   UNL     1      25.735  -6.089  36.489  1.00  0.00     0.053 C 
BRANCH  21  22
ATOM     22  C   UNL     1      27.092  -5.459  36.499  1.00  0.00     0.041 C 
ATOM     23  O   UNL     1      27.237  -4.267  36.117  1.00  0.00    -0.550 OA
ATOM     24  O   UNL     1      28.203  -6.199  36.889  1.00  0.00    -0.550 OA
ENDBRANCH  21  22
ENDBRANCH  20  21
ENDBRANCH  19  20
ENDBRANCH  18  19
ENDBRANCH  17  18
ENDBRANCH  16  17
ENDBRANCH  15  16
ENDBRANCH  14  15
ENDBRANCH  13  14
ENDBRANCH   1  13
TORSDOF 20
ENDMDL
MODEL 5
REMARK VINA RESULT:    -4.582      5.548      9.523
REMARK INTER + INTRA:         -11.831
REMARK INTER:                 -10.106
REMARK INTRA:                  -1.725
REMARK UNBOUND:                -1.891
REMARK SMILES CCCCCCCCCCCCCCCCCCCCCC(=O)[O-]
REMARK SMILES IDX 12 1 11 2 10 3 9 4 8 5 7 6 6 7 5 8 4 9 3 10 2 11 1 12 13 13
REMARK SMILES IDX 14 14 15 15 16 16 17 17 18 18 19 19 20 20 21 21 22 22 23 23
REMARK SMILES IDX 24 24
REMARK H PARENT
REMARK Flexibility Score: inf
ROOT
ATOM      1  C   UNL     1      25.467  -1.071  37.142  1.00  0.00     0.000 C 
ENDROOT
BRANCH   1   2
ATOM      2  C   UNL     1      24.148  -1.349  36.406  1.00  0.00     0.000 C 
BRANCH   2   3
ATOM      3  C   UNL     1      23.877  -2.852  36.223  1.00  0.00     0.000 C 
BRANCH   3   4
ATOM      4  C   UNL     1      22.533  -3.296  36.827  1.00  0.00    -0.000 C 
BRANCH   4   5
ATOM      5  C   UNL     1      22.052  -4.702  36.408  1.00  0.00    -0.000 C 
BRANCH   5   6
ATOM      6  C   UNL     1      22.466  -5.138  34.992  1.00  0.00    -0.000 C 
BRANCH   6   7
ATOM      7  C   UNL     1      23.438  -6.331  34.998  1.00  0.00    -0.000 C 
BRANCH   7   8
ATOM      8  C   UNL     1      24.460  -6.264  33.853  1.00  0.00    -0.000 C 
BRANCH   8   9
ATOM      9  C   UNL     1      25.654  -5.356  34.183  1.00  0.00    -0.000 C 
BRANCH   9  10
ATOM     10  C   UNL     1      26.159  -5.614  35.611  1.00  0.00    -0.000 C 
BRANCH  10  11
ATOM     11  C   UNL     1      27.621  -5.182  35.807  1.00  0.00    -0.003 C 
ATOM     12  C   UNL     1      27.757  -3.929  36.670  1.00  0.00     0.004 C 
ENDBRANCH  10  11
ENDBRANCH   9  10
ENDBRANCH   8   9
ENDBRANCH   7   8
ENDBRANCH   6   7
ENDBRANCH   5   6
ENDBRANCH   4   5
ENDBRANCH   3   4
ENDBRANCH   2   3
ENDBRANCH   1   2
BRANCH   1  13
ATOM     13  C   UNL     1      25.632   0.404  37.538  1.00  0.00     0.000 C 
BRANCH  13  14
ATOM     14  C   UNL     1      26.708   0.566  38.622  1.00  0.00     0.000 C 
BRANCH  14  15
ATOM     15  C   UNL     1      26.186   1.269  39.888  1.00  0.00     0.000 C 
BRANCH  15  16
ATOM     16  C   UNL     1      26.493   2.775  39.967  1.00  0.00     0.000 C 
BRANCH  16  17
ATOM     17  C   UNL     1      26.326   3.348  41.383  1.00  0.00     0.000 C 
BRANCH  17  18
ATOM     18  C   UNL     1      25.698   2.310  42.323  1.00  0.00     0.000 C 
BRANCH  18  19
ATOM     19  C   UNL     1      26.430   2.204  43.674  1.00  0.00     0.000 C 
BRANCH  19  20
ATOM     20  C   UNL     1      26.579   0.772  44.221  1.00  0.00     0.006 C 
BRANCH  20  21
ATOM     21  C   UNL     1      26.755  -0.277  43.115  1.00  0.00     0.053 C 
BRANCH  21  22
ATOM     22  C   UNL     1      27.537  -1.448  43.622  1.00  0.00     0.041 C 
ATOM     23  O   UNL     1      27.999  -1.438  44.794  1.00  0.00    -0.550 OA
ATOM     24  O   UNL     1      27.793  -2.530  42.787  1.00  0.00    -0.550 OA
ENDBRANCH  21  22
ENDBRANCH  20  21
ENDBRANCH  19  20
ENDBRANCH  18  19
ENDBRANCH  17  18
ENDBRANCH  16  17
ENDBRANCH  15  16
ENDBRANCH  14  15
ENDBRANCH  13  14
ENDBRANCH   1  13
TORSDOF 20
ENDMDL
MODEL 6
REMARK VINA RESULT:    -4.551      9.078     11.076
REMARK INTER + INTRA:         -11.764
REMARK INTER:                  -8.382
REMARK INTRA:                  -3.382
REMARK UNBOUND:                -1.891
REMARK SMILES CCCCCCCCCCCCCCCCCCCCCC(=O)[O-]
REMARK SMILES IDX 12 1 11 2 10 3 9 4 8 5 7 6 6 7 5 8 4 9 3 10 2 11 1 12 13 13
REMARK SMILES IDX 14 14 15 15 16 16 17 17 18 18 19 19 20 20 21 21 22 22 23 23
REMARK SMILES IDX 24 24
REMARK H PARENT
REMARK Flexibility Score: inf
ROOT
ATOM      1  C   UNL     1      27.562  -3.103  36.989  1.00  0.00     0.000 C 
ENDROOT
BRANCH   1   2
ATOM      2  C   UNL     1      27.846  -3.517  35.537  1.00  0.00     0.000 C 
BRANCH   2   3
ATOM      3  C   UNL     1      27.223  -4.877  35.176  1.00  0.00     0.000 C 
BRANCH   3   4
ATOM      4  C   UNL     1      26.474  -5.524  36.355  1.00  0.00    -0.000 C 
BRANCH   4   5
ATOM      5  C   UNL     1      25.270  -6.408  35.968  1.00  0.00    -0.000 C 
BRANCH   5   6
ATOM      6  C   UNL     1      25.059  -6.598  34.456  1.00  0.00    -0.000 C 
BRANCH   6   7
ATOM      7  C   UNL     1      23.622  -6.277  34.011  1.00  0.00    -0.000 C 
BRANCH   7   8
ATOM      8  C   UNL     1      22.699  -5.949  35.195  1.00  0.00    -0.000 C 
BRANCH   8   9
ATOM      9  C   UNL     1      22.273  -4.473  35.217  1.00  0.00    -0.000 C 
BRANCH   9  10
ATOM     10  C   UNL     1      22.528  -3.851  36.598  1.00  0.00    -0.000 C 
BRANCH  10  11
ATOM     11  C   UNL     1      23.481  -2.646  36.535  1.00  0.00    -0.003 C 
ATOM     12  C   UNL     1      24.324  -2.626  35.261  1.00  0.00     0.004 C 
ENDBRANCH  10  11
ENDBRANCH   9  10
ENDBRANCH   8   9
ENDBRANCH   7   8
ENDBRANCH   6   7
ENDBRANCH   5   6
ENDBRANCH   4   5
ENDBRANCH   3   4
ENDBRANCH   2   3
ENDBRANCH   1   2
BRANCH   1  13
ATOM     13  C   UNL     1      28.841  -2.872  37.807  1.00  0.00     0.000 C 
BRANCH  13  14
ATOM     14  C   UNL     1      30.091  -3.217  36.983  1.00  0.00     0.000 C 
BRANCH  14  15
ATOM     15  C   UNL     1      30.831  -4.461  37.505  1.00  0.00     0.000 C 
BRANCH  15  16
ATOM     16  C   UNL     1      30.540  -5.761  36.735  1.00  0.00     0.000 C 
BRANCH  16  17
ATOM     17  C   UNL     1      31.810  -6.441  36.202  1.00  0.00     0.000 C 
BRANCH  17  18
ATOM     18  C   UNL     1      32.059  -6.064  34.735  1.00  0.00     0.000 C 
BRANCH  18  19
ATOM     19  C   UNL     1      30.819  -5.458  34.052  1.00  0.00     0.000 C 
BRANCH  19  20
ATOM     20  C   UNL     1      31.032  -4.063  33.437  1.00  0.00     0.006 C 
BRANCH  20  21
ATOM     21  C   UNL     1      32.346  -3.406  33.882  1.00  0.00     0.053 C 
BRANCH  21  22
ATOM     22  C   UNL     1      32.275  -1.921  33.710  1.00  0.00     0.041 C 
ATOM     23  O   UNL     1      31.236  -1.391  33.234  1.00  0.00    -0.550 OA
ATOM     24  O   UNL     1      33.370  -1.127  34.035  1.00  0.00    -0.550 OA
ENDBRANCH  21  22
ENDBRANCH  20  21
ENDBRANCH  19  20
ENDBRANCH  18  19
ENDBRANCH  17  18
ENDBRANCH  16  17
ENDBRANCH  15  16
ENDBRANCH  14  15
ENDBRANCH  13  14
ENDBRANCH   1  13
TORSDOF 20
ENDMDL
MODEL 7
REMARK VINA RESULT:    -4.526      5.650      9.667
REMARK INTER + INTRA:         -11.710
REMARK INTER:                  -9.922
REMARK INTRA:                  -1.788
REMARK UNBOUND:                -1.891
REMARK SMILES CCCCCCCCCCCCCCCCCCCCCC(=O)[O-]
REMARK SMILES IDX 12 1 11 2 10 3 9 4 8 5 7 6 6 7 5 8 4 9 3 10 2 11 1 12 13 13
REMARK SMILES IDX 14 14 15 15 16 16 17 17 18 18 19 19 20 20 21 21 22 22 23 23
REMARK SMILES IDX 24 24
REMARK H PARENT
REMARK Flexibility Score: inf
ROOT
ATOM      1  C   UNL     1      24.078  -2.999  36.558  1.00  0.00     0.000 C 
ENDROOT
BRANCH   1   2
ATOM      2  C   UNL     1      24.375  -1.500  36.403  1.00  0.00     0.000 C 
BRANCH   2   3
ATOM      3  C   UNL     1      25.601  -1.051  37.217  1.00  0.00     0.000 C 
BRANCH   3   4
ATOM      4  C   UNL     1      25.588   0.455  37.536  1.00  0.00    -0.000 C 
BRANCH   4   5
ATOM      5  C   UNL     1      25.991   0.828  38.979  1.00  0.00    -0.000 C 
BRANCH   5   6
ATOM      6  C   UNL     1      25.531   2.220  39.445  1.00  0.00    -0.000 C 
BRANCH   6   7
ATOM      7  C   UNL     1      26.287   2.708  40.693  1.00  0.00    -0.000 C 
BRANCH   7   8
ATOM      8  C   UNL     1      25.431   2.633  41.967  1.00  0.00    -0.000 C 
BRANCH   8   9
ATOM      9  C   UNL     1      26.243   2.191  43.195  1.00  0.00    -0.000 C 
BRANCH   9  10
ATOM     10  C   UNL     1      25.839   0.777  43.637  1.00  0.00    -0.000 C 
BRANCH  10  11
ATOM     11  C   UNL     1      26.639  -0.318  42.912  1.00  0.00    -0.003 C 
ATOM     12  C   UNL     1      27.445  -1.193  43.871  1.00  0.00     0.004 C 
ENDBRANCH  10  11
ENDBRANCH   9  10
ENDBRANCH   8   9
ENDBRANCH   7   8
ENDBRANCH   6   7
ENDBRANCH   5   6
ENDBRANCH   4   5
ENDBRANCH   3   4
ENDBRANCH   2   3
ENDBRANCH   1   2
BRANCH   1  13
ATOM     13  C   UNL     1      22.577  -3.303  36.675  1.00  0.00     0.000 C 
BRANCH  13  14
ATOM     14  C   UNL     1      22.283  -4.769  36.324  1.00  0.00     0.000 C 
BRANCH  14  15
ATOM     15  C   UNL     1      22.678  -5.134  34.882  1.00  0.00     0.000 C 
BRANCH  15  16
ATOM     16  C   UNL     1      23.390  -6.490  34.727  1.00  0.00     0.000 C 
BRANCH  16  17
ATOM     17  C   UNL     1      24.655  -6.606  35.591  1.00  0.00     0.000 C 
BRANCH  17  18
ATOM     18  C   UNL     1      25.918  -6.394  34.744  1.00  0.00     0.000 C 
BRANCH  18  19
ATOM     19  C   UNL     1      26.280  -4.908  34.568  1.00  0.00     0.000 C 
BRANCH  19  20
ATOM     20  C   UNL     1      27.781  -4.585  34.697  1.00  0.00     0.006 C 
BRANCH  20  21
ATOM     21  C   UNL     1      28.057  -3.374  35.599  1.00  0.00     0.053 C 
BRANCH  21  22
ATOM     22  C   UNL     1      28.300  -3.815  37.008  1.00  0.00     0.041 C 
ATOM     23  O   UNL     1      28.558  -2.963  37.900  1.00  0.00    -0.550 OA
ATOM     24  O   UNL     1      28.285  -5.168  37.330  1.00  0.00    -0.550 OA
ENDBRANCH  21  22
ENDBRANCH  20  21
ENDBRANCH  19  20
ENDBRANCH  18  19
ENDBRANCH  17  18
ENDBRANCH  16  17
ENDBRANCH  15  16
ENDBRANCH  14  15
ENDBRANCH  13  14
ENDBRANCH   1  13
TORSDOF 20
ENDMDL
MODEL 8
REMARK VINA RESULT:    -4.481      5.206      9.825
REMARK INTER + INTRA:         -11.611
REMARK INTER:                 -10.332
REMARK INTRA:                  -1.279
REMARK UNBOUND:                -1.891
REMARK SMILES CCCCCCCCCCCCCCCCCCCCCC(=O)[O-]
REMARK SMILES IDX 12 1 11 2 10 3 9 4 8 5 7 6 6 7 5 8 4 9 3 10 2 11 1 12 13 13
REMARK SMILES IDX 14 14 15 15 16 16 17 17 18 18 19 19 20 20 21 21 22 22 23 23
REMARK SMILES IDX 24 24
REMARK H PARENT
REMARK Flexibility Score: inf
ROOT
ATOM      1  C   UNL     1      26.630   2.267  39.562  1.00  0.00     0.000 C 
ENDROOT
BRANCH   1   2
ATOM      2  C   UNL     1      26.783   0.973  38.748  1.00  0.00     0.000 C 
BRANCH   2   3
ATOM      3  C   UNL     1      25.563   0.685  37.857  1.00  0.00     0.000 C 
BRANCH   3   4
ATOM      4  C   UNL     1      25.603  -0.717  37.221  1.00  0.00    -0.000 C 
BRANCH   4   5
ATOM      5  C   UNL     1      24.267  -1.212  36.628  1.00  0.00    -0.000 C 
BRANCH   5   6
ATOM      6  C   UNL     1      24.055  -2.735  36.680  1.00  0.00    -0.000 C 
BRANCH   6   7
ATOM      7  C   UNL     1      22.568  -3.125  36.735  1.00  0.00    -0.000 C 
BRANCH   7   8
ATOM      8  C   UNL     1      22.332  -4.599  36.369  1.00  0.00    -0.000 C 
BRANCH   8   9
ATOM      9  C   UNL     1      22.578  -4.881  34.879  1.00  0.00    -0.000 C 
BRANCH   9  10
ATOM     10  C   UNL     1      23.005  -6.341  34.662  1.00  0.00    -0.000 C 
BRANCH  10  11
ATOM     11  C   UNL     1      24.338  -6.460  33.907  1.00  0.00    -0.003 C 
ATOM     12  C   UNL     1      25.280  -5.290  34.184  1.00  0.00     0.004 C 
ENDBRANCH  10  11
ENDBRANCH   9  10
ENDBRANCH   8   9
ENDBRANCH   7   8
ENDBRANCH   6   7
ENDBRANCH   5   6
ENDBRANCH   4   5
ENDBRANCH   3   4
ENDBRANCH   2   3
ENDBRANCH   1   2
BRANCH   1  13
ATOM     13  C   UNL     1      25.164   2.621  39.852  1.00  0.00     0.000 C 
BRANCH  13  14
ATOM     14  C   UNL     1      24.948   2.885  41.350  1.00  0.00     0.000 C 
BRANCH  14  15
ATOM     15  C   UNL     1      25.998   2.196  42.240  1.00  0.00     0.000 C 
BRANCH  15  16
ATOM     16  C   UNL     1      25.467   1.677  43.588  1.00  0.00     0.000 C 
BRANCH  16  17
ATOM     17  C   UNL     1      26.337   0.562  44.187  1.00  0.00     0.000 C 
BRANCH  17  18
ATOM     18  C   UNL     1      26.741  -0.455  43.110  1.00  0.00     0.000 C 
BRANCH  18  19
ATOM     19  C   UNL     1      27.824  -1.439  43.591  1.00  0.00     0.000 C 
BRANCH  19  20
ATOM     20  C   UNL     1      27.466  -2.929  43.432  1.00  0.00     0.006 C 
BRANCH  20  21
ATOM     21  C   UNL     1      27.245  -3.638  44.776  1.00  0.00     0.053 C 
BRANCH  21  22
ATOM     22  C   UNL     1      28.544  -4.145  45.320  1.00  0.00     0.041 C 
ATOM     23  O   UNL     1      28.970  -5.281  44.979  1.00  0.00    -0.550 OA
ATOM     24  O   UNL     1      29.261  -3.384  46.237  1.00  0.00    -0.550 OA
ENDBRANCH  21  22
ENDBRANCH  20  21
ENDBRANCH  19  20
ENDBRANCH  18  19
ENDBRANCH  17  18
ENDBRANCH  16  17
ENDBRANCH  15  16
ENDBRANCH  14  15
ENDBRANCH  13  14
ENDBRANCH   1  13
TORSDOF 20
ENDMDL
MODEL 9
REMARK VINA RESULT:    -4.438      1.025      2.413
REMARK INTER + INTRA:         -11.519
REMARK INTER:                  -9.490
REMARK INTRA:                  -2.029
REMARK UNBOUND:                -1.891
REMARK SMILES CCCCCCCCCCCCCCCCCCCCCC(=O)[O-]
REMARK SMILES IDX 12 1 11 2 10 3 9 4 8 5 7 6 6 7 5 8 4 9 3 10 2 11 1 12 13 13
REMARK SMILES IDX 14 14 15 15 16 16 17 17 18 18 19 19 20 20 21 21 22 22 23 23
REMARK SMILES IDX 24 24
REMARK H PARENT
REMARK Flexibility Score: inf
ROOT
ATOM      1  C   UNL     1      29.250  -3.043  46.127  1.00  0.00     0.000 C 
ENDROOT
BRANCH   1   2
ATOM      2  C   UNL     1      28.031  -3.978  46.133  1.00  0.00     0.000 C 
BRANCH   2   3
ATOM      3  C   UNL     1      28.283  -5.286  45.363  1.00  0.00     0.000 C 
BRANCH   3   4
ATOM      4  C   UNL     1      27.870  -5.197  43.882  1.00  0.00    -0.000 C 
BRANCH   4   5
ATOM      5  C   UNL     1      26.552  -5.913  43.520  1.00  0.00    -0.000 C 
BRANCH   5   6
ATOM      6  C   UNL     1      25.411  -5.735  44.537  1.00  0.00    -0.000 C 
BRANCH   6   7
ATOM      7  C   UNL     1      24.894  -7.074  45.089  1.00  0.00    -0.000 C 
BRANCH   7   8
ATOM      8  C   UNL     1      24.552  -7.001  46.585  1.00  0.00    -0.000 C 
BRANCH   8   9
ATOM      9  C   UNL     1      25.009  -5.683  47.229  1.00  0.00    -0.000 C 
BRANCH   9  10
ATOM     10  C   UNL     1      25.809  -5.950  48.513  1.00  0.00    -0.000 C 
BRANCH  10  11
ATOM     11  C   UNL     1      25.261  -5.176  49.722  1.00  0.00    -0.003 C 
ATOM     12  C   UNL     1      23.749  -5.330  49.886  1.00  0.00     0.004 C 
ENDBRANCH  10  11
ENDBRANCH   9  10
ENDBRANCH   8   9
ENDBRANCH   7   8
ENDBRANCH   6   7
ENDBRANCH   5   6
ENDBRANCH   4   5
ENDBRANCH   3   4
ENDBRANCH   2   3
ENDBRANCH   1   2
BRANCH   1  13
ATOM     13  C   UNL     1      28.995  -1.731  45.371  1.00  0.00     0.000 C 
BRANCH  13  14
ATOM     14  C   UNL     1      27.612  -1.741  44.702  1.00  0.00     0.000 C 
BRANCH  14  15
ATOM     15  C   UNL     1      27.676  -1.487  43.186  1.00  0.00     0.000 C 
BRANCH  15  16
ATOM     16  C   UNL     1      26.738  -0.379  42.673  1.00  0.00     0.000 C 
BRANCH  16  17
ATOM     17  C   UNL     1      26.351   0.632  43.764  1.00  0.00     0.000 C 
BRANCH  17  18
ATOM     18  C   UNL     1      26.334   2.062  43.205  1.00  0.00     0.000 C 
BRANCH  18  19
ATOM     19  C   UNL     1      24.936   2.505  42.734  1.00  0.00     0.000 C 
BRANCH  19  20
ATOM     20  C   UNL     1      24.864   2.982  41.271  1.00  0.00     0.006 C 
BRANCH  20  21
ATOM     21  C   UNL     1      26.076   2.543  40.439  1.00  0.00     0.053 C 
BRANCH  21  22
ATOM     22  C   UNL     1      25.630   1.863  39.182  1.00  0.00     0.041 C 
ATOM     23  O   UNL     1      24.668   2.334  38.517  1.00  0.00    -0.550 OA
ATOM     24  O   UNL     1      26.245   0.687  38.768  1.00  0.00    -0.550 OA
ENDBRANCH  21  22
ENDBRANCH  20  21
ENDBRANCH  19  20
ENDBRANCH  18  19
ENDBRANCH  17  18
ENDBRANCH  16  17
ENDBRANCH  15  16
ENDBRANCH  14  15
ENDBRANCH  13  14
ENDBRANCH   1  13
TORSDOF 20
ENDMDL
