MODEL 1
REMARK VINA RESULT:    -1.256      0.000      0.000
REMARK INTER + INTRA:          -4.639
REMARK INTER:                  -3.165
REMARK INTRA:                  -1.474
REMARK UNBOUND:                -1.474
REMARK SMILES CCCCCCCCCCCCCCCCCCCCCCCCCCCC(=O)[O-]
REMARK SMILES IDX 15 1 16 2 17 3 18 4 19 5 20 6 21 7 22 8 23 9 24 10 25 11
REMARK SMILES IDX 26 12 27 13 28 14 29 15 30 16 14 17 13 18 12 19 11 20 10 21
REMARK SMILES IDX 9 22 8 23 7 24 6 25 5 26 4 27 3 28 2 29 1 30
REMARK H PARENT
REMARK Flexibility Score: inf
ROOT
ATOM      1  C   UNL     1      62.770  23.557  22.835  1.00  0.00     0.000 C 
ENDROOT
BRANCH   1   2
ATOM      2  C   UNL     1      61.975  24.876  22.738  1.00  0.00     0.000 C 
BRANCH   2   3
ATOM      3  C   UNL     1      62.280  25.904  23.846  1.00  0.00     0.000 C 
BRANCH   3   4
ATOM      4  C   UNL     1      62.644  25.294  25.213  1.00  0.00     0.000 C 
BRANCH   4   5
ATOM      5  C   UNL     1      63.951  24.485  25.173  1.00  0.00     0.000 C 
BRANCH   5   6
ATOM      6  C   UNL     1      63.931  23.266  26.112  1.00  0.00     0.000 C 
BRANCH   6   7
ATOM      7  C   UNL     1      64.100  21.904  25.413  1.00  0.00     0.000 C 
BRANCH   7   8
ATOM      8  C   UNL     1      62.855  21.009  25.536  1.00  0.00     0.000 C 
BRANCH   8   9
ATOM      9  C   UNL     1      61.708  21.469  24.620  1.00  0.00     0.000 C 
BRANCH   9  10
ATOM     10  C   UNL     1      60.352  20.875  25.032  1.00  0.00     0.000 C 
BRANCH  10  11
ATOM     11  C   UNL     1      59.689  21.728  26.125  1.00  0.00     0.000 C 
BRANCH  11  12
ATOM     12  C   UNL     1      59.735  23.233  25.816  1.00  0.00     0.006 C 
BRANCH  12  13
ATOM     13  C   UNL     1      58.382  23.924  26.028  1.00  0.00     0.053 C 
BRANCH  13  14
ATOM     14  C   UNL     1      58.398  25.299  25.439  1.00  0.00     0.041 C 
ATOM     15  O   UNL     1      59.180  25.571  24.490  1.00  0.00    -0.550 OA
ATOM     16  O   UNL     1      57.520  26.268  25.908  1.00  0.00    -0.550 OA
ENDBRANCH  13  14
ENDBRANCH  12  13
ENDBRANCH  11  12
ENDBRANCH  10  11
ENDBRANCH   9  10
ENDBRANCH   8   9
ENDBRANCH   7   8
ENDBRANCH   6   7
ENDBRANCH   5   6
ENDBRANCH   4   5
ENDBRANCH   3   4
ENDBRANCH   2   3
ENDBRANCH   1   2
BRANCH   1  17
ATOM     17  C   UNL     1      64.060  23.515  21.993  1.00  0.00     0.000 C 
BRANCH  17  18
ATOM     18  C   UNL     1      63.922  22.817  20.625  1.00  0.00     0.000 C 
BRANCH  18  19
ATOM     19  C   UNL     1      62.988  23.526  19.623  1.00  0.00     0.000 C 
BRANCH  19  20
ATOM     20  C   UNL     1      62.330  22.600  18.582  1.00  0.00     0.000 C 
BRANCH  20  21
ATOM     21  C   UNL     1      61.720  21.307  19.157  1.00  0.00     0.000 C 
BRANCH  21  22
ATOM     22  C   UNL     1      61.793  21.176  20.691  1.00  0.00    -0.000 C 
BRANCH  22  23
ATOM     23  C   UNL     1      60.441  20.945  21.390  1.00  0.00    -0.000 C 
BRANCH  23  24
ATOM     24  C   UNL     1      59.510  22.167  21.302  1.00  0.00    -0.000 C 
BRANCH  24  25
ATOM     25  C   UNL     1      58.719  22.395  22.601  1.00  0.00    -0.000 C 
BRANCH  25  26
ATOM     26  C   UNL     1      57.468  21.496  22.732  1.00  0.00    -0.000 C 
BRANCH  26  27
ATOM     27  C   UNL     1      56.274  22.194  23.408  1.00  0.00    -0.000 C 
BRANCH  27  28
ATOM     28  C   UNL     1      54.899  21.577  23.089  1.00  0.00    -0.000 C 
BRANCH  28  29
ATOM     29  C   UNL     1      53.705  22.267  23.775  1.00  0.00    -0.003 C 
ATOM     30  C   UNL     1      52.913  21.328  24.686  1.00  0.00     0.004 C 
ENDBRANCH  28  29
ENDBRANCH  27  28
ENDBRANCH  26  27
ENDBRANCH  25  26
ENDBRANCH  24  25
ENDBRANCH  23  24
ENDBRANCH  22  23
ENDBRANCH  21  22
ENDBRANCH  20  21
ENDBRANCH  19  20
ENDBRANCH  18  19
ENDBRANCH  17  18
ENDBRANCH   1  17
TORSDOF 26
ENDMDL
MODEL 2
REMARK VINA RESULT:    -0.673      1.961      5.499
REMARK INTER + INTRA:          -3.171
REMARK INTER:                  -4.266
REMARK INTRA:                   1.095
REMARK UNBOUND:                -1.474
REMARK SMILES CCCCCCCCCCCCCCCCCCCCCCCCCCCC(=O)[O-]
REMARK SMILES IDX 15 1 16 2 17 3 18 4 19 5 20 6 21 7 22 8 23 9 24 10 25 11
REMARK SMILES IDX 26 12 27 13 28 14 29 15 30 16 14 17 13 18 12 19 11 20 10 21
REMARK SMILES IDX 9 22 8 23 7 24 6 25 5 26 4 27 3 28 2 29 1 30
REMARK H PARENT
REMARK Flexibility Score: inf
ROOT
ATOM      1  C   UNL     1      63.100  26.246  23.876  1.00  0.00     0.000 C 
ENDROOT
BRANCH   1   2
ATOM      2  C   UNL     1      62.347  25.606  22.691  1.00  0.00     0.000 C 
BRANCH   2   3
ATOM      3  C   UNL     1      61.296  24.548  23.082  1.00  0.00     0.000 C 
BRANCH   3   4
ATOM      4  C   UNL     1      60.029  25.110  23.753  1.00  0.00     0.000 C 
BRANCH   4   5
ATOM      5  C   UNL     1      60.037  24.929  25.281  1.00  0.00     0.000 C 
BRANCH   5   6
ATOM      6  C   UNL     1      58.871  24.062  25.787  1.00  0.00     0.000 C 
BRANCH   6   7
ATOM      7  C   UNL     1      58.469  22.904  24.855  1.00  0.00     0.000 C 
BRANCH   7   8
ATOM      8  C   UNL     1      59.362  21.662  25.024  1.00  0.00     0.000 C 
BRANCH   8   9
ATOM      9  C   UNL     1      59.571  20.904  23.703  1.00  0.00     0.000 C 
BRANCH   9  10
ATOM     10  C   UNL     1      58.329  20.943  22.799  1.00  0.00     0.000 C 
BRANCH  10  11
ATOM     11  C   UNL     1      57.053  21.156  23.628  1.00  0.00     0.000 C 
BRANCH  11  12
ATOM     12  C   UNL     1      55.836  21.526  22.765  1.00  0.00     0.006 C 
BRANCH  12  13
ATOM     13  C   UNL     1      54.538  20.877  23.261  1.00  0.00     0.053 C 
BRANCH  13  14
ATOM     14  C   UNL     1      53.729  21.861  24.047  1.00  0.00     0.041 C 
ATOM     15  O   UNL     1      53.985  23.092  23.974  1.00  0.00    -0.550 OA
ATOM     16  O   UNL     1      52.667  21.423  24.828  1.00  0.00    -0.550 OA
ENDBRANCH  13  14
ENDBRANCH  12  13
ENDBRANCH  11  12
ENDBRANCH  10  11
ENDBRANCH   9  10
ENDBRANCH   8   9
ENDBRANCH   7   8
ENDBRANCH   6   7
ENDBRANCH   5   6
ENDBRANCH   4   5
ENDBRANCH   3   4
ENDBRANCH   2   3
ENDBRANCH   1   2
BRANCH   1  17
ATOM     17  C   UNL     1      63.974  25.272  24.691  1.00  0.00     0.000 C 
BRANCH  17  18
ATOM     18  C   UNL     1      63.345  23.886  24.939  1.00  0.00     0.000 C 
BRANCH  18  19
ATOM     19  C   UNL     1      63.952  23.097  26.117  1.00  0.00     0.000 C 
BRANCH  19  20
ATOM     20  C   UNL     1      64.004  21.570  25.917  1.00  0.00     0.000 C 
BRANCH  20  21
ATOM     21  C   UNL     1      62.757  20.960  25.249  1.00  0.00     0.000 C 
BRANCH  21  22
ATOM     22  C   UNL     1      62.815  20.875  23.711  1.00  0.00    -0.000 C 
BRANCH  22  23
ATOM     23  C   UNL     1      64.125  21.379  23.080  1.00  0.00    -0.000 C 
BRANCH  23  24
ATOM     24  C   UNL     1      63.886  22.333  21.895  1.00  0.00    -0.000 C 
BRANCH  24  25
ATOM     25  C   UNL     1      62.395  22.467  21.543  1.00  0.00    -0.000 C 
BRANCH  25  26
ATOM     26  C   UNL     1      61.714  21.122  21.203  1.00  0.00    -0.000 C 
BRANCH  26  27
ATOM     27  C   UNL     1      60.883  21.161  19.908  1.00  0.00    -0.000 C 
BRANCH  27  28
ATOM     28  C   UNL     1      61.080  22.425  19.051  1.00  0.00    -0.000 C 
BRANCH  28  29
ATOM     29  C   UNL     1      62.461  22.542  18.378  1.00  0.00    -0.003 C 
ATOM     30  C   UNL     1      63.248  21.231  18.392  1.00  0.00     0.004 C 
ENDBRANCH  28  29
ENDBRANCH  27  28
ENDBRANCH  26  27
ENDBRANCH  25  26
ENDBRANCH  24  25
ENDBRANCH  23  24
ENDBRANCH  22  23
ENDBRANCH  21  22
ENDBRANCH  20  21
ENDBRANCH  19  20
ENDBRANCH  18  19
ENDBRANCH  17  18
ENDBRANCH   1  17
TORSDOF 26
ENDMDL
MODEL 3
REMARK VINA RESULT:     1.656      5.373      7.349
REMARK INTER + INTRA:           2.699
REMARK INTER:                   4.989
REMARK INTRA:                  -2.290
REMARK UNBOUND:                -1.474
REMARK SMILES CCCCCCCCCCCCCCCCCCCCCCCCCCCC(=O)[O-]
REMARK SMILES IDX 15 1 16 2 17 3 18 4 19 5 20 6 21 7 22 8 23 9 24 10 25 11
REMARK SMILES IDX 26 12 27 13 28 14 29 15 30 16 14 17 13 18 12 19 11 20 10 21
REMARK SMILES IDX 9 22 8 23 7 24 6 25 5 26 4 27 3 28 2 29 1 30
REMARK H PARENT
REMARK Flexibility Score: inf
ROOT
ATOM      1  C   UNL     1      59.777  21.101  23.318  1.00  0.00     0.000 C 
ENDROOT
BRANCH   1   2
ATOM      2  C   UNL     1      59.946  20.877  24.834  1.00  0.00     0.000 C 
BRANCH   2   3
ATOM      3  C   UNL     1      59.529  22.068  25.720  1.00  0.00     0.000 C 
BRANCH   3   4
ATOM      4  C   UNL     1      60.438  23.306  25.609  1.00  0.00     0.000 C 
BRANCH   4   5
ATOM      5  C   UNL     1      59.748  24.487  24.906  1.00  0.00     0.000 C 
BRANCH   5   6
ATOM      6  C   UNL     1      60.296  24.746  23.491  1.00  0.00     0.000 C 
BRANCH   6   7
ATOM      7  C   UNL     1      61.466  25.745  23.419  1.00  0.00     0.000 C 
BRANCH   7   8
ATOM      8  C   UNL     1      62.570  25.305  22.443  1.00  0.00     0.000 C 
BRANCH   8   9
ATOM      9  C   UNL     1      63.874  24.924  23.164  1.00  0.00     0.000 C 
BRANCH   9  10
ATOM     10  C   UNL     1      63.715  23.678  24.049  1.00  0.00     0.000 C 
BRANCH  10  11
ATOM     11  C   UNL     1      63.337  22.450  23.205  1.00  0.00     0.000 C 
BRANCH  11  12
ATOM     12  C   UNL     1      64.045  22.424  21.842  1.00  0.00     0.006 C 
BRANCH  12  13
ATOM     13  C   UNL     1      63.420  21.417  20.868  1.00  0.00     0.053 C 
BRANCH  13  14
ATOM     14  C   UNL     1      62.421  22.095  19.983  1.00  0.00     0.041 C 
ATOM     15  O   UNL     1      62.549  22.045  18.731  1.00  0.00    -0.550 OA
ATOM     16  O   UNL     1      61.328  22.745  20.540  1.00  0.00    -0.550 OA
ENDBRANCH  13  14
ENDBRANCH  12  13
ENDBRANCH  11  12
ENDBRANCH  10  11
ENDBRANCH   9  10
ENDBRANCH   8   9
ENDBRANCH   7   8
ENDBRANCH   6   7
ENDBRANCH   5   6
ENDBRANCH   4   5
ENDBRANCH   3   4
ENDBRANCH   2   3
ENDBRANCH   1   2
BRANCH   1  17
ATOM     17  C   UNL     1      58.348  20.875  22.784  1.00  0.00     0.000 C 
BRANCH  17  18
ATOM     18  C   UNL     1      57.259  21.736  23.458  1.00  0.00     0.000 C 
BRANCH  18  19
ATOM     19  C   UNL     1      56.915  23.045  22.721  1.00  0.00     0.000 C 
BRANCH  19  20
ATOM     20  C   UNL     1      55.802  22.920  21.662  1.00  0.00     0.000 C 
BRANCH  20  21
ATOM     21  C   UNL     1      55.605  24.167  20.778  1.00  0.00     0.000 C 
BRANCH  21  22
ATOM     22  C   UNL     1      56.263  24.091  19.385  1.00  0.00    -0.000 C 
BRANCH  22  23
ATOM     23  C   UNL     1      55.400  24.626  18.228  1.00  0.00    -0.000 C 
BRANCH  23  24
ATOM     24  C   UNL     1      55.742  26.079  17.853  1.00  0.00    -0.000 C 
BRANCH  24  25
ATOM     25  C   UNL     1      54.521  26.850  17.325  1.00  0.00    -0.000 C 
BRANCH  25  26
ATOM     26  C   UNL     1      54.885  28.014  16.376  1.00  0.00    -0.000 C 
BRANCH  26  27
ATOM     27  C   UNL     1      53.947  29.229  16.501  1.00  0.00    -0.000 C 
BRANCH  27  28
ATOM     28  C   UNL     1      54.309  30.421  15.595  1.00  0.00    -0.000 C 
BRANCH  28  29
ATOM     29  C   UNL     1      55.263  31.451  16.230  1.00  0.00    -0.003 C 
ATOM     30  C   UNL     1      55.956  32.342  15.198  1.00  0.00     0.004 C 
ENDBRANCH  28  29
ENDBRANCH  27  28
ENDBRANCH  26  27
ENDBRANCH  25  26
ENDBRANCH  24  25
ENDBRANCH  23  24
ENDBRANCH  22  23
ENDBRANCH  21  22
ENDBRANCH  20  21
ENDBRANCH  19  20
ENDBRANCH  18  19
ENDBRANCH  17  18
ENDBRANCH   1  17
TORSDOF 26
ENDMDL
