MODEL 1
REMARK VINA RESULT:    -6.663      0.000      0.000
REMARK INTER + INTRA:         -11.721
REMARK INTER:                  -9.973
REMARK INTRA:                  -1.747
REMARK UNBOUND:                -1.747
REMARK SMILES O=c1c(O[C@H]2O[C@H](CO)[C@@H](O)[C@H](O)[C@H]2O)c(-c2cc(O)c(O)c(O)c2)oc2cc(O)cc(O)c12
REMARK SMILES IDX 4 1 3 2 16 3 26 4 2 5 27 6 1 7 34 8 28 9 32 10 29 11 31 12
REMARK SMILES IDX 17 13 18 14 19 15 25 16 21 17 23 18 20 19 22 21 24 23 33 25
REMARK SMILES IDX 30 27 5 29 14 30 6 31 12 32 7 33 10 34 15 35 13 37 8 39 9 40
REMARK SMILES IDX 11 42
REMARK H PARENT 20 20 22 22 24 24 33 26 30 28 15 36 13 38 9 41 11 43
REMARK Flexibility Score: inf
ROOT
ATOM      1  O   UNL     1     -38.161   5.646  81.616  1.00  0.00    -0.454 OA
ENDROOT
BRANCH   1   2
ATOM      2  C   UNL     1     -37.443   6.267  80.581  1.00  0.00     0.214 A 
ATOM      3  C   UNL     1     -37.573   5.886  79.231  1.00  0.00     0.181 A 
ATOM      4  O   UNL     1     -36.888   6.529  78.296  1.00  0.00    -0.452 OA
ATOM      5  C   UNL     1     -36.638   7.369  80.895  1.00  0.00     0.239 A 
ATOM      6  C   UNL     1     -36.133   7.588  78.535  1.00  0.00     0.146 A 
ATOM      7  O   UNL     1     -36.500   7.676  82.108  1.00  0.00    -0.285 OA
ATOM      8  C   UNL     1     -36.003   8.103  79.852  1.00  0.00     0.111 A 
ATOM      9  C   UNL     1     -35.510   8.215  77.450  1.00  0.00     0.094 A 
ATOM     10  C   UNL     1     -35.241   9.306  80.033  1.00  0.00     0.134 A 
ATOM     11  C   UNL     1     -34.795   9.395  77.634  1.00  0.00     0.123 A 
ATOM     12  C   UNL     1     -34.662   9.932  78.916  1.00  0.00     0.093 A 
BRANCH   3  13
ATOM     13  C   UNL     1     -38.513   4.854  78.776  1.00  0.00     0.029 A 
ATOM     14  C   UNL     1     -39.897   5.062  78.865  1.00  0.00     0.062 A 
ATOM     15  C   UNL     1     -40.786   4.019  78.593  1.00  0.00     0.162 A 
ATOM     16  C   UNL     1     -38.026   3.581  78.461  1.00  0.00     0.062 A 
ATOM     17  C   UNL     1     -40.291   2.745  78.248  1.00  0.00     0.200 A 
ATOM     18  C   UNL     1     -38.903   2.526  78.198  1.00  0.00     0.162 A 
BRANCH  15  19
ATOM     19  O   UNL     1     -42.159   4.237  78.707  1.00  0.00    -0.504 OA
ATOM     20  H   UNL     1     -42.548   4.880  79.386  1.00  0.00     0.293 HD
ENDBRANCH  15  19
BRANCH  17  21
ATOM     21  O   UNL     1     -41.175   1.703  77.953  1.00  0.00    -0.502 OA
ATOM     22  H   UNL     1     -41.763   1.719  77.124  1.00  0.00     0.293 HD
ENDBRANCH  17  21
BRANCH  18  23
ATOM     23  O   UNL     1     -38.380   1.267  77.907  1.00  0.00    -0.504 OA
ATOM     24  H   UNL     1     -38.968   0.504  77.594  1.00  0.00     0.293 HD
ENDBRANCH  18  23
ENDBRANCH   3  13
BRANCH  10  25
ATOM     25  O   UNL     1     -35.037   9.941  81.265  1.00  0.00    -0.507 OA
ATOM     26  H   UNL     1     -34.494  10.771  81.415  1.00  0.00     0.293 HD
ENDBRANCH  10  25
BRANCH  11  27
ATOM     27  O   UNL     1     -34.250  10.047  76.536  1.00  0.00    -0.508 OA
ATOM     28  H   UNL     1     -34.618  10.931  76.217  1.00  0.00     0.293 HD
ENDBRANCH  11  27
ENDBRANCH   1   2
BRANCH   1  29
ATOM     29  C   UNL     1     -37.790   4.400  82.215  1.00  0.00     0.339 C 
ATOM     30  C   UNL     1     -37.999   4.461  83.757  1.00  0.00     0.214 C 
ATOM     31  O   UNL     1     -36.481   4.004  81.787  1.00  0.00    -0.332 OA
ATOM     32  C   UNL     1     -37.107   3.433  84.471  1.00  0.00     0.180 C 
ATOM     33  C   UNL     1     -35.458   4.354  82.711  1.00  0.00     0.179 C 
ATOM     34  C   UNL     1     -35.622   3.549  84.031  1.00  0.00     0.177 C 
BRANCH  30  35
ATOM     35  O   UNL     1     -37.704   5.746  84.241  1.00  0.00    -0.384 OA
ATOM     36  H   UNL     1     -37.190   5.629  85.079  1.00  0.00     0.211 HD
ENDBRANCH  30  35
BRANCH  32  37
ATOM     37  O   UNL     1     -37.586   2.121  84.278  1.00  0.00    -0.387 OA
ATOM     38  H   UNL     1     -37.688   1.685  85.164  1.00  0.00     0.211 HD
ENDBRANCH  32  37
BRANCH  33  39
ATOM     39  C   UNL     1     -34.081   4.050  82.082  1.00  0.00     0.191 C 
BRANCH  39  40
ATOM     40  O   UNL     1     -33.341   3.209  82.922  1.00  0.00    -0.394 OA
ATOM     41  H   UNL     1     -33.953   2.482  83.218  1.00  0.00     0.210 HD
ENDBRANCH  39  40
ENDBRANCH  33  39
BRANCH  34  42
ATOM     42  O   UNL     1     -34.837   4.100  85.066  1.00  0.00    -0.387 OA
ATOM     43  H   UNL     1     -34.348   3.357  85.514  1.00  0.00     0.211 HD
ENDBRANCH  34  42
ENDBRANCH   1  29
TORSDOF 13
ENDMDL
MODEL 2
REMARK VINA RESULT:    -6.640      1.521      2.646
REMARK INTER + INTRA:         -11.686
REMARK INTER:                 -10.265
REMARK INTRA:                  -1.422
REMARK UNBOUND:                -1.747
REMARK SMILES O=c1c(O[C@H]2O[C@H](CO)[C@@H](O)[C@H](O)[C@H]2O)c(-c2cc(O)c(O)c(O)c2)oc2cc(O)cc(O)c12
REMARK SMILES IDX 4 1 3 2 16 3 26 4 2 5 27 6 1 7 34 8 28 9 32 10 29 11 31 12
REMARK SMILES IDX 17 13 18 14 19 15 25 16 21 17 23 18 20 19 22 21 24 23 33 25
REMARK SMILES IDX 30 27 5 29 14 30 6 31 12 32 7 33 10 34 15 35 13 37 8 39 9 40
REMARK SMILES IDX 11 42
REMARK H PARENT 20 20 22 22 24 24 33 26 30 28 15 36 13 38 9 41 11 43
REMARK Flexibility Score: inf
ROOT
ATOM      1  O   UNL     1     -36.639   4.824  81.574  1.00  0.00    -0.454 OA
ENDROOT
BRANCH   1   2
ATOM      2  C   UNL     1     -36.105   5.628  80.553  1.00  0.00     0.214 A 
ATOM      3  C   UNL     1     -36.555   5.564  79.220  1.00  0.00     0.181 A 
ATOM      4  O   UNL     1     -36.029   6.368  78.307  1.00  0.00    -0.452 OA
ATOM      5  C   UNL     1     -35.152   6.596  80.896  1.00  0.00     0.239 A 
ATOM      6  C   UNL     1     -35.146   7.313  78.582  1.00  0.00     0.146 A 
ATOM      7  O   UNL     1     -34.730   6.619  82.082  1.00  0.00    -0.285 OA
ATOM      8  C   UNL     1     -34.689   7.515  79.911  1.00  0.00     0.111 A 
ATOM      9  C   UNL     1     -34.713   8.137  77.537  1.00  0.00     0.094 A 
ATOM     10  C   UNL     1     -33.797   8.612  80.157  1.00  0.00     0.134 A 
ATOM     11  C   UNL     1     -33.869   9.214  77.792  1.00  0.00     0.123 A 
ATOM     12  C   UNL     1     -33.415   9.445  79.092  1.00  0.00     0.093 A 
BRANCH   3  13
ATOM     13  C   UNL     1     -37.663   4.702  78.789  1.00  0.00     0.029 A 
ATOM     14  C   UNL     1     -38.989   5.147  78.880  1.00  0.00     0.062 A 
ATOM     15  C   UNL     1     -40.047   4.270  78.632  1.00  0.00     0.162 A 
ATOM     16  C   UNL     1     -37.405   3.358  78.497  1.00  0.00     0.062 A 
ATOM     17  C   UNL     1     -39.782   2.923  78.310  1.00  0.00     0.200 A 
ATOM     18  C   UNL     1     -38.453   2.466  78.259  1.00  0.00     0.162 A 
BRANCH  15  19
ATOM     19  O   UNL     1     -41.361   4.723  78.747  1.00  0.00    -0.504 OA
ATOM     20  H   UNL     1     -41.988   4.381  79.464  1.00  0.00     0.293 HD
ENDBRANCH  15  19
BRANCH  17  21
ATOM     21  O   UNL     1     -40.836   2.044  78.039  1.00  0.00    -0.502 OA
ATOM     22  H   UNL     1     -41.579   2.285  77.389  1.00  0.00     0.293 HD
ENDBRANCH  17  21
BRANCH  18  23
ATOM     23  O   UNL     1     -38.158   1.131  77.991  1.00  0.00    -0.504 OA
ATOM     24  H   UNL     1     -38.422   0.690  77.118  1.00  0.00     0.293 HD
ENDBRANCH  18  23
ENDBRANCH   3  13
BRANCH  10  25
ATOM     25  O   UNL     1     -33.277   8.947  81.415  1.00  0.00    -0.507 OA
ATOM     26  H   UNL     1     -32.599   9.664  81.596  1.00  0.00     0.293 HD
ENDBRANCH  10  25
BRANCH  11  27
ATOM     27  O   UNL     1     -33.513  10.069  76.758  1.00  0.00    -0.508 OA
ATOM     28  H   UNL     1     -33.914  10.993  76.682  1.00  0.00     0.293 HD
ENDBRANCH  11  27
ENDBRANCH   1   2
BRANCH   1  29
ATOM     29  C   UNL     1     -37.655   5.253  82.485  1.00  0.00     0.339 C 
ATOM     30  C   UNL     1     -37.298   4.814  83.935  1.00  0.00     0.214 C 
ATOM     31  O   UNL     1     -38.950   4.850  82.022  1.00  0.00    -0.332 OA
ATOM     32  C   UNL     1     -38.561   4.723  84.807  1.00  0.00     0.180 C 
ATOM     33  C   UNL     1     -39.412   3.645  82.620  1.00  0.00     0.179 C 
ATOM     34  C   UNL     1     -39.665   3.857  84.139  1.00  0.00     0.177 C 
BRANCH  30  35
ATOM     35  O   UNL     1     -36.651   3.567  83.925  1.00  0.00    -0.384 OA
ATOM     36  H   UNL     1     -37.332   2.886  84.154  1.00  0.00     0.211 HD
ENDBRANCH  30  35
BRANCH  32  37
ATOM     37  O   UNL     1     -39.055   6.005  85.125  1.00  0.00    -0.387 OA
ATOM     38  H   UNL     1     -39.864   6.181  84.578  1.00  0.00     0.211 HD
ENDBRANCH  32  37
BRANCH  33  39
ATOM     39  C   UNL     1     -40.720   3.204  81.930  1.00  0.00     0.191 C 
BRANCH  39  40
ATOM     40  O   UNL     1     -41.365   2.226  82.696  1.00  0.00    -0.394 OA
ATOM     41  H   UNL     1     -41.292   2.507  83.648  1.00  0.00     0.210 HD
ENDBRANCH  39  40
ENDBRANCH  33  39
BRANCH  34  42
ATOM     42  O   UNL     1     -39.803   2.623  84.811  1.00  0.00    -0.387 OA
ATOM     43  H   UNL     1     -39.100   2.573  85.515  1.00  0.00     0.211 HD
ENDBRANCH  34  42
ENDBRANCH   1  29
TORSDOF 13
ENDMDL
MODEL 3
REMARK VINA RESULT:    -6.496      2.141      5.849
REMARK INTER + INTRA:         -11.472
REMARK INTER:                 -10.236
REMARK INTRA:                  -1.236
REMARK UNBOUND:                -1.747
REMARK SMILES O=c1c(O[C@H]2O[C@H](CO)[C@@H](O)[C@H](O)[C@H]2O)c(-c2cc(O)c(O)c(O)c2)oc2cc(O)cc(O)c12
REMARK SMILES IDX 4 1 3 2 16 3 26 4 2 5 27 6 1 7 34 8 28 9 32 10 29 11 31 12
REMARK SMILES IDX 17 13 18 14 19 15 25 16 21 17 23 18 20 19 22 21 24 23 33 25
REMARK SMILES IDX 30 27 5 29 14 30 6 31 12 32 7 33 10 34 15 35 13 37 8 39 9 40
REMARK SMILES IDX 11 42
REMARK H PARENT 20 20 22 22 24 24 33 26 30 28 15 36 13 38 9 41 11 43
REMARK Flexibility Score: inf
ROOT
ATOM      1  O   UNL     1     -37.795   5.893  81.721  1.00  0.00    -0.454 OA
ENDROOT
BRANCH   1   2
ATOM      2  C   UNL     1     -38.552   5.335  80.677  1.00  0.00     0.214 A 
ATOM      3  C   UNL     1     -38.060   5.211  79.364  1.00  0.00     0.181 A 
ATOM      4  O   UNL     1     -38.813   4.651  78.428  1.00  0.00    -0.452 OA
ATOM      5  C   UNL     1     -39.810   4.800  80.979  1.00  0.00     0.239 A 
ATOM      6  C   UNL     1     -39.996   4.109  78.664  1.00  0.00     0.146 A 
ATOM      7  O   UNL     1     -40.255   4.951  82.147  1.00  0.00    -0.285 OA
ATOM      8  C   UNL     1     -40.546   4.108  79.974  1.00  0.00     0.111 A 
ATOM      9  C   UNL     1     -40.666   3.494  77.600  1.00  0.00     0.094 A 
ATOM     10  C   UNL     1     -41.793   3.428  80.180  1.00  0.00     0.134 A 
ATOM     11  C   UNL     1     -41.861   2.815  77.818  1.00  0.00     0.123 A 
ATOM     12  C   UNL     1     -42.418   2.787  79.098  1.00  0.00     0.093 A 
BRANCH   3  13
ATOM     13  C   UNL     1     -36.694   5.589  78.980  1.00  0.00     0.029 A 
ATOM     14  C   UNL     1     -35.636   4.682  79.125  1.00  0.00     0.062 A 
ATOM     15  C   UNL     1     -34.317   5.096  78.922  1.00  0.00     0.162 A 
ATOM     16  C   UNL     1     -36.418   6.927  78.679  1.00  0.00     0.062 A 
ATOM     17  C   UNL     1     -34.046   6.440  78.591  1.00  0.00     0.200 A 
ATOM     18  C   UNL     1     -35.105   7.359  78.485  1.00  0.00     0.162 A 
BRANCH  15  19
ATOM     19  O   UNL     1     -33.274   4.186  79.090  1.00  0.00    -0.504 OA
ATOM     20  H   UNL     1     -33.317   3.244  78.720  1.00  0.00     0.293 HD
ENDBRANCH  15  19
BRANCH  17  21
ATOM     21  O   UNL     1     -32.730   6.857  78.365  1.00  0.00    -0.502 OA
ATOM     22  H   UNL     1     -32.424   7.800  78.586  1.00  0.00     0.293 HD
ENDBRANCH  17  21
BRANCH  18  23
ATOM     23  O   UNL     1     -34.868   8.705  78.207  1.00  0.00    -0.504 OA
ATOM     24  H   UNL     1     -34.139   9.227  78.678  1.00  0.00     0.293 HD
ENDBRANCH  18  23
ENDBRANCH   3  13
BRANCH  10  25
ATOM     25  O   UNL     1     -42.448   3.328  81.415  1.00  0.00    -0.507 OA
ATOM     26  H   UNL     1     -42.541   2.493  81.964  1.00  0.00     0.293 HD
ENDBRANCH  10  25
BRANCH  11  27
ATOM     27  O   UNL     1     -42.472   2.144  76.767  1.00  0.00    -0.508 OA
ATOM     28  H   UNL     1     -43.294   1.576  76.918  1.00  0.00     0.293 HD
ENDBRANCH  11  27
ENDBRANCH   1   2
BRANCH   1  29
ATOM     29  C   UNL     1     -36.770   5.192  82.433  1.00  0.00     0.339 C 
ATOM     30  C   UNL     1     -37.005   5.309  83.968  1.00  0.00     0.214 C 
ATOM     31  O   UNL     1     -35.473   5.595  81.977  1.00  0.00    -0.332 OA
ATOM     32  C   UNL     1     -35.691   5.104  84.740  1.00  0.00     0.180 C 
ATOM     33  C   UNL     1     -34.874   6.593  82.796  1.00  0.00     0.179 C 
ATOM     34  C   UNL     1     -34.555   6.017  84.204  1.00  0.00     0.177 C 
BRANCH  30  35
ATOM     35  O   UNL     1     -37.539   6.568  84.288  1.00  0.00    -0.384 OA
ATOM     36  H   UNL     1     -37.403   6.701  85.260  1.00  0.00     0.211 HD
ENDBRANCH  30  35
BRANCH  32  37
ATOM     37  O   UNL     1     -35.296   3.750  84.722  1.00  0.00    -0.387 OA
ATOM     38  H   UNL     1     -36.105   3.180  84.801  1.00  0.00     0.211 HD
ENDBRANCH  32  37
BRANCH  33  39
ATOM     39  C   UNL     1     -33.573   7.085  82.127  1.00  0.00     0.191 C 
BRANCH  39  40
ATOM     40  O   UNL     1     -33.072   8.201  82.806  1.00  0.00    -0.394 OA
ATOM     41  H   UNL     1     -32.830   8.878  82.117  1.00  0.00     0.210 HD
ENDBRANCH  39  40
ENDBRANCH  33  39
BRANCH  34  42
ATOM     42  O   UNL     1     -34.271   7.049  85.125  1.00  0.00    -0.387 OA
ATOM     43  H   UNL     1     -34.295   7.916  84.635  1.00  0.00     0.211 HD
ENDBRANCH  34  42
ENDBRANCH   1  29
TORSDOF 13
ENDMDL
MODEL 4
REMARK VINA RESULT:    -6.463      1.697      2.744
REMARK INTER + INTRA:         -11.421
REMARK INTER:                 -10.127
REMARK INTRA:                  -1.295
REMARK UNBOUND:                -1.747
REMARK SMILES O=c1c(O[C@H]2O[C@H](CO)[C@@H](O)[C@H](O)[C@H]2O)c(-c2cc(O)c(O)c(O)c2)oc2cc(O)cc(O)c12
REMARK SMILES IDX 4 1 3 2 16 3 26 4 2 5 27 6 1 7 34 8 28 9 32 10 29 11 31 12
REMARK SMILES IDX 17 13 18 14 19 15 25 16 21 17 23 18 20 19 22 21 24 23 33 25
REMARK SMILES IDX 30 27 5 29 14 30 6 31 12 32 7 33 10 34 15 35 13 37 8 39 9 40
REMARK SMILES IDX 11 42
REMARK H PARENT 20 20 22 22 24 24 33 26 30 28 15 36 13 38 9 41 11 43
REMARK Flexibility Score: inf
ROOT
ATOM      1  O   UNL     1     -36.074   3.760  81.364  1.00  0.00    -0.454 OA
ENDROOT
BRANCH   1   2
ATOM      2  C   UNL     1     -35.668   4.783  80.491  1.00  0.00     0.214 A 
ATOM      3  C   UNL     1     -36.315   5.038  79.267  1.00  0.00     0.181 A 
ATOM      4  O   UNL     1     -35.901   6.036  78.498  1.00  0.00    -0.452 OA
ATOM      5  C   UNL     1     -34.638   5.639  80.900  1.00  0.00     0.239 A 
ATOM      6  C   UNL     1     -34.951   6.887  78.847  1.00  0.00     0.146 A 
ATOM      7  O   UNL     1     -34.042   5.378  81.978  1.00  0.00    -0.285 OA
ATOM      8  C   UNL     1     -34.293   6.766  80.100  1.00  0.00     0.111 A 
ATOM      9  C   UNL     1     -34.648   7.936  77.971  1.00  0.00     0.094 A 
ATOM     10  C   UNL     1     -33.332   7.771  80.456  1.00  0.00     0.134 A 
ATOM     11  C   UNL     1     -33.734   8.919  78.339  1.00  0.00     0.123 A 
ATOM     12  C   UNL     1     -33.082   8.833  79.570  1.00  0.00     0.093 A 
BRANCH   3  13
ATOM     13  C   UNL     1     -37.507   4.307  78.821  1.00  0.00     0.029 A 
ATOM     14  C   UNL     1     -38.788   4.839  79.026  1.00  0.00     0.062 A 
ATOM     15  C   UNL     1     -39.923   4.070  78.759  1.00  0.00     0.162 A 
ATOM     16  C   UNL     1     -37.372   2.981  78.396  1.00  0.00     0.062 A 
ATOM     17  C   UNL     1     -39.782   2.744  78.302  1.00  0.00     0.200 A 
ATOM     18  C   UNL     1     -38.498   2.196  78.136  1.00  0.00     0.162 A 
BRANCH  15  19
ATOM     19  O   UNL     1     -41.189   4.608  78.987  1.00  0.00    -0.504 OA
ATOM     20  H   UNL     1     -41.556   4.745  79.921  1.00  0.00     0.293 HD
ENDBRANCH  15  19
BRANCH  17  21
ATOM     21  O   UNL     1     -40.914   1.975  78.012  1.00  0.00    -0.502 OA
ATOM     22  H   UNL     1     -40.869   0.962  77.945  1.00  0.00     0.293 HD
ENDBRANCH  17  21
BRANCH  18  23
ATOM     23  O   UNL     1     -38.323   0.873  77.733  1.00  0.00    -0.504 OA
ATOM     24  H   UNL     1     -39.109   0.277  77.501  1.00  0.00     0.293 HD
ENDBRANCH  18  23
ENDBRANCH   3  13
BRANCH  10  25
ATOM     25  O   UNL     1     -32.617   7.796  81.661  1.00  0.00    -0.507 OA
ATOM     26  H   UNL     1     -32.983   8.066  82.555  1.00  0.00     0.293 HD
ENDBRANCH  10  25
BRANCH  11  27
ATOM     27  O   UNL     1     -33.504   9.995  77.492  1.00  0.00    -0.508 OA
ATOM     28  H   UNL     1     -33.438   9.869  76.492  1.00  0.00     0.293 HD
ENDBRANCH  11  27
ENDBRANCH   1   2
BRANCH   1  29
ATOM     29  C   UNL     1     -36.767   3.983  82.596  1.00  0.00     0.339 C 
ATOM     30  C   UNL     1     -37.775   2.826  82.863  1.00  0.00     0.214 C 
ATOM     31  O   UNL     1     -37.324   5.303  82.630  1.00  0.00    -0.332 OA
ATOM     32  C   UNL     1     -38.902   3.288  83.800  1.00  0.00     0.180 C 
ATOM     33  C   UNL     1     -38.695   5.345  82.254  1.00  0.00     0.179 C 
ATOM     34  C   UNL     1     -39.567   4.601  83.304  1.00  0.00     0.177 C 
BRANCH  30  35
ATOM     35  O   UNL     1     -38.332   2.371  81.657  1.00  0.00    -0.384 OA
ATOM     36  H   UNL     1     -38.080   1.419  81.563  1.00  0.00     0.211 HD
ENDBRANCH  30  35
BRANCH  32  37
ATOM     37  O   UNL     1     -38.438   3.431  85.125  1.00  0.00    -0.387 OA
ATOM     38  H   UNL     1     -39.070   2.969  85.736  1.00  0.00     0.211 HD
ENDBRANCH  32  37
BRANCH  33  39
ATOM     39  C   UNL     1     -39.148   6.817  82.148  1.00  0.00     0.191 C 
BRANCH  39  40
ATOM     40  O   UNL     1     -38.267   7.537  81.334  1.00  0.00    -0.394 OA
ATOM     41  H   UNL     1     -37.563   7.915  81.928  1.00  0.00     0.210 HD
ENDBRANCH  39  40
ENDBRANCH  33  39
BRANCH  34  42
ATOM     42  O   UNL     1     -40.862   4.345  82.804  1.00  0.00    -0.387 OA
ATOM     43  H   UNL     1     -40.835   4.441  81.812  1.00  0.00     0.211 HD
ENDBRANCH  34  42
ENDBRANCH   1  29
TORSDOF 13
ENDMDL
MODEL 5
REMARK VINA RESULT:    -6.375      2.039      3.203
REMARK INTER + INTRA:         -11.289
REMARK INTER:                 -10.424
REMARK INTRA:                  -0.866
REMARK UNBOUND:                -1.747
REMARK SMILES O=c1c(O[C@H]2O[C@H](CO)[C@@H](O)[C@H](O)[C@H]2O)c(-c2cc(O)c(O)c(O)c2)oc2cc(O)cc(O)c12
REMARK SMILES IDX 4 1 3 2 16 3 26 4 2 5 27 6 1 7 34 8 28 9 32 10 29 11 31 12
REMARK SMILES IDX 17 13 18 14 19 15 25 16 21 17 23 18 20 19 22 21 24 23 33 25
REMARK SMILES IDX 30 27 5 29 14 30 6 31 12 32 7 33 10 34 15 35 13 37 8 39 9 40
REMARK SMILES IDX 11 42
REMARK H PARENT 20 20 22 22 24 24 33 26 30 28 15 36 13 38 9 41 11 43
REMARK Flexibility Score: inf
ROOT
ATOM      1  O   UNL     1     -37.383   3.658  80.022  1.00  0.00    -0.454 OA
ENDROOT
BRANCH   1   2
ATOM      2  C   UNL     1     -37.543   4.723  79.120  1.00  0.00     0.214 A 
ATOM      3  C   UNL     1     -38.753   4.971  78.444  1.00  0.00     0.181 A 
ATOM      4  O   UNL     1     -38.850   6.008  77.625  1.00  0.00    -0.452 OA
ATOM      5  C   UNL     1     -36.484   5.625  78.959  1.00  0.00     0.239 A 
ATOM      6  C   UNL     1     -37.890   6.903  77.455  1.00  0.00     0.146 A 
ATOM      7  O   UNL     1     -35.396   5.373  79.539  1.00  0.00    -0.285 OA
ATOM      8  C   UNL     1     -36.660   6.789  78.156  1.00  0.00     0.111 A 
ATOM      9  C   UNL     1     -38.140   7.988  76.607  1.00  0.00     0.094 A 
ATOM     10  C   UNL     1     -35.694   7.838  77.996  1.00  0.00     0.134 A 
ATOM     11  C   UNL     1     -37.206   9.012  76.480  1.00  0.00     0.123 A 
ATOM     12  C   UNL     1     -35.994   8.933  77.168  1.00  0.00     0.093 A 
BRANCH   3  13
ATOM     13  C   UNL     1     -39.972   4.184  78.667  1.00  0.00     0.029 A 
ATOM     14  C   UNL     1     -40.625   3.561  77.594  1.00  0.00     0.062 A 
ATOM     15  C   UNL     1     -41.872   2.959  77.779  1.00  0.00     0.162 A 
ATOM     16  C   UNL     1     -40.601   4.242  79.915  1.00  0.00     0.062 A 
ATOM     17  C   UNL     1     -42.488   2.995  79.046  1.00  0.00     0.200 A 
ATOM     18  C   UNL     1     -41.852   3.655  80.113  1.00  0.00     0.162 A 
BRANCH  15  19
ATOM     19  O   UNL     1     -42.517   2.362  76.696  1.00  0.00    -0.504 OA
ATOM     20  H   UNL     1     -42.976   1.463  76.772  1.00  0.00     0.293 HD
ENDBRANCH  15  19
BRANCH  17  21
ATOM     21  O   UNL     1     -43.727   2.376  79.244  1.00  0.00    -0.502 OA
ATOM     22  H   UNL     1     -44.318   2.606  80.038  1.00  0.00     0.293 HD
ENDBRANCH  17  21
BRANCH  18  23
ATOM     23  O   UNL     1     -42.456   3.752  81.365  1.00  0.00    -0.504 OA
ATOM     24  H   UNL     1     -42.173   3.165  82.141  1.00  0.00     0.293 HD
ENDBRANCH  18  23
ENDBRANCH   3  13
BRANCH  10  25
ATOM     25  O   UNL     1     -34.446   7.874  78.633  1.00  0.00    -0.507 OA
ATOM     26  H   UNL     1     -33.876   7.077  78.850  1.00  0.00     0.293 HD
ENDBRANCH  10  25
BRANCH  11  27
ATOM     27  O   UNL     1     -37.503  10.119  75.697  1.00  0.00    -0.508 OA
ATOM     28  H   UNL     1     -36.868  10.902  75.637  1.00  0.00     0.293 HD
ENDBRANCH  11  27
ENDBRANCH   1   2
BRANCH   1  29
ATOM     29  C   UNL     1     -37.066   3.820  81.408  1.00  0.00     0.339 C 
ATOM     30  C   UNL     1     -37.610   2.614  82.229  1.00  0.00     0.214 C 
ATOM     31  O   UNL     1     -37.474   5.112  81.871  1.00  0.00    -0.332 OA
ATOM     32  C   UNL     1     -37.816   3.002  83.702  1.00  0.00     0.180 C 
ATOM     33  C   UNL     1     -38.740   5.104  82.520  1.00  0.00     0.179 C 
ATOM     34  C   UNL     1     -38.662   4.297  83.847  1.00  0.00     0.177 C 
BRANCH  30  35
ATOM     35  O   UNL     1     -38.829   2.165  81.693  1.00  0.00    -0.384 OA
ATOM     36  H   UNL     1     -39.530   2.365  82.362  1.00  0.00     0.211 HD
ENDBRANCH  30  35
BRANCH  32  37
ATOM     37  O   UNL     1     -36.582   3.132  84.372  1.00  0.00    -0.387 OA
ATOM     38  H   UNL     1     -36.058   3.856  83.940  1.00  0.00     0.211 HD
ENDBRANCH  32  37
BRANCH  33  39
ATOM     39  C   UNL     1     -39.168   6.557  82.818  1.00  0.00     0.191 C 
BRANCH  39  40
ATOM     40  O   UNL     1     -38.959   6.855  84.169  1.00  0.00    -0.394 OA
ATOM     41  H   UNL     1     -38.430   6.105  84.554  1.00  0.00     0.210 HD
ENDBRANCH  39  40
ENDBRANCH  33  39
BRANCH  34  42
ATOM     42  O   UNL     1     -39.951   3.997  84.338  1.00  0.00    -0.387 OA
ATOM     43  H   UNL     1     -39.852   3.365  85.102  1.00  0.00     0.211 HD
ENDBRANCH  34  42
ENDBRANCH   1  29
TORSDOF 13
ENDMDL
MODEL 6
REMARK VINA RESULT:    -6.216      1.956      5.573
REMARK INTER + INTRA:         -11.053
REMARK INTER:                  -9.492
REMARK INTRA:                  -1.561
REMARK UNBOUND:                -1.747
REMARK SMILES O=c1c(O[C@H]2O[C@H](CO)[C@@H](O)[C@H](O)[C@H]2O)c(-c2cc(O)c(O)c(O)c2)oc2cc(O)cc(O)c12
REMARK SMILES IDX 4 1 3 2 16 3 26 4 2 5 27 6 1 7 34 8 28 9 32 10 29 11 31 12
REMARK SMILES IDX 17 13 18 14 19 15 25 16 21 17 23 18 20 19 22 21 24 23 33 25
REMARK SMILES IDX 30 27 5 29 14 30 6 31 12 32 7 33 10 34 15 35 13 37 8 39 9 40
REMARK SMILES IDX 11 42
REMARK H PARENT 20 20 22 22 24 24 33 26 30 28 15 36 13 38 9 41 11 43
REMARK Flexibility Score: inf
ROOT
ATOM      1  O   UNL     1     -38.430   6.229  80.153  1.00  0.00    -0.454 OA
ENDROOT
BRANCH   1   2
ATOM      2  C   UNL     1     -37.173   6.662  80.607  1.00  0.00     0.214 A 
ATOM      3  C   UNL     1     -36.669   6.329  81.879  1.00  0.00     0.181 A 
ATOM      4  O   UNL     1     -35.463   6.746  82.240  1.00  0.00    -0.452 OA
ATOM      5  C   UNL     1     -36.353   7.375  79.723  1.00  0.00     0.239 A 
ATOM      6  C   UNL     1     -34.641   7.400  81.436  1.00  0.00     0.146 A 
ATOM      7  O   UNL     1     -36.829   7.698  78.603  1.00  0.00    -0.285 OA
ATOM      8  C   UNL     1     -35.023   7.711  80.104  1.00  0.00     0.111 A 
ATOM      9  C   UNL     1     -33.370   7.731  81.919  1.00  0.00     0.094 A 
ATOM     10  C   UNL     1     -34.054   8.345  79.257  1.00  0.00     0.134 A 
ATOM     11  C   UNL     1     -32.429   8.321  81.079  1.00  0.00     0.123 A 
ATOM     12  C   UNL     1     -32.772   8.626  79.761  1.00  0.00     0.093 A 
BRANCH   3  13
ATOM     13  C   UNL     1     -37.377   5.450  82.818  1.00  0.00     0.029 A 
ATOM     14  C   UNL     1     -37.052   4.090  82.904  1.00  0.00     0.062 A 
ATOM     15  C   UNL     1     -37.836   3.223  83.669  1.00  0.00     0.162 A 
ATOM     16  C   UNL     1     -38.524   5.927  83.462  1.00  0.00     0.062 A 
ATOM     17  C   UNL     1     -38.975   3.713  84.340  1.00  0.00     0.200 A 
ATOM     18  C   UNL     1     -39.325   5.070  84.220  1.00  0.00     0.162 A 
BRANCH  15  19
ATOM     19  O   UNL     1     -37.510   1.868  83.728  1.00  0.00    -0.504 OA
ATOM     20  H   UNL     1     -37.412   1.376  84.607  1.00  0.00     0.293 HD
ENDBRANCH  15  19
BRANCH  17  21
ATOM     21  O   UNL     1     -39.753   2.856  85.125  1.00  0.00    -0.502 OA
ATOM     22  H   UNL     1     -40.381   3.210  85.841  1.00  0.00     0.293 HD
ENDBRANCH  17  21
BRANCH  18  23
ATOM     23  O   UNL     1     -40.471   5.577  84.831  1.00  0.00    -0.504 OA
ATOM     24  H   UNL     1     -40.829   6.499  84.613  1.00  0.00     0.293 HD
ENDBRANCH  18  23
ENDBRANCH   3  13
BRANCH  10  25
ATOM     25  O   UNL     1     -34.277   8.697  77.919  1.00  0.00    -0.507 OA
ATOM     26  H   UNL     1     -35.174   8.791  77.479  1.00  0.00     0.293 HD
ENDBRANCH  10  25
BRANCH  11  27
ATOM     27  O   UNL     1     -31.147   8.570  81.550  1.00  0.00    -0.508 OA
ATOM     28  H   UNL     1     -30.484   7.820  81.681  1.00  0.00     0.293 HD
ENDBRANCH  11  27
ENDBRANCH   1   2
BRANCH   1  29
ATOM     29  C   UNL     1     -38.697   4.912  79.661  1.00  0.00     0.339 C 
ATOM     30  C   UNL     1     -39.351   4.987  78.250  1.00  0.00     0.214 C 
ATOM     31  O   UNL     1     -39.419   4.147  80.633  1.00  0.00    -0.332 OA
ATOM     32  C   UNL     1     -40.159   3.713  77.953  1.00  0.00     0.180 C 
ATOM     33  C   UNL     1     -40.824   4.137  80.411  1.00  0.00     0.179 C 
ATOM     34  C   UNL     1     -41.158   3.381  79.095  1.00  0.00     0.177 C 
BRANCH  30  35
ATOM     35  O   UNL     1     -40.198   6.104  78.160  1.00  0.00    -0.384 OA
ATOM     36  H   UNL     1     -41.113   5.762  78.000  1.00  0.00     0.211 HD
ENDBRANCH  30  35
BRANCH  32  37
ATOM     37  O   UNL     1     -39.308   2.618  77.697  1.00  0.00    -0.387 OA
ATOM     38  H   UNL     1     -39.545   2.228  76.816  1.00  0.00     0.211 HD
ENDBRANCH  32  37
BRANCH  33  39
ATOM     39  C   UNL     1     -41.522   3.445  81.602  1.00  0.00     0.191 C 
BRANCH  39  40
ATOM     40  O   UNL     1     -42.874   3.801  81.643  1.00  0.00    -0.394 OA
ATOM     41  H   UNL     1     -42.970   4.501  82.346  1.00  0.00     0.210 HD
ENDBRANCH  39  40
ENDBRANCH  33  39
BRANCH  34  42
ATOM     42  O   UNL     1     -42.484   3.633  78.684  1.00  0.00    -0.387 OA
ATOM     43  H   UNL     1     -42.925   2.758  78.504  1.00  0.00     0.211 HD
ENDBRANCH  34  42
ENDBRANCH   1  29
TORSDOF 13
ENDMDL
MODEL 7
REMARK VINA RESULT:    -6.125      2.547      6.629
REMARK INTER + INTRA:         -10.916
REMARK INTER:                  -9.711
REMARK INTRA:                  -1.205
REMARK UNBOUND:                -1.747
REMARK SMILES O=c1c(O[C@H]2O[C@H](CO)[C@@H](O)[C@H](O)[C@H]2O)c(-c2cc(O)c(O)c(O)c2)oc2cc(O)cc(O)c12
REMARK SMILES IDX 4 1 3 2 16 3 26 4 2 5 27 6 1 7 34 8 28 9 32 10 29 11 31 12
REMARK SMILES IDX 17 13 18 14 19 15 25 16 21 17 23 18 20 19 22 21 24 23 33 25
REMARK SMILES IDX 30 27 5 29 14 30 6 31 12 32 7 33 10 34 15 35 13 37 8 39 9 40
REMARK SMILES IDX 11 42
REMARK H PARENT 20 20 22 22 24 24 33 26 30 28 15 36 13 38 9 41 11 43
REMARK Flexibility Score: inf
ROOT
ATOM      1  O   UNL     1     -37.666   5.657  81.737  1.00  0.00    -0.454 OA
ENDROOT
BRANCH   1   2
ATOM      2  C   UNL     1     -38.425   5.152  80.668  1.00  0.00     0.214 A 
ATOM      3  C   UNL     1     -37.899   4.991  79.372  1.00  0.00     0.181 A 
ATOM      4  O   UNL     1     -38.657   4.484  78.410  1.00  0.00    -0.452 OA
ATOM      5  C   UNL     1     -39.728   4.709  80.925  1.00  0.00     0.239 A 
ATOM      6  C   UNL     1     -39.884   4.029  78.605  1.00  0.00     0.146 A 
ATOM      7  O   UNL     1     -40.201   4.893  82.077  1.00  0.00    -0.285 OA
ATOM      8  C   UNL     1     -40.476   4.070  79.895  1.00  0.00     0.111 A 
ATOM      9  C   UNL     1     -40.559   3.462  77.518  1.00  0.00     0.094 A 
ATOM     10  C   UNL     1     -41.775   3.481  80.058  1.00  0.00     0.134 A 
ATOM     11  C   UNL     1     -41.806   2.870  77.694  1.00  0.00     0.123 A 
ATOM     12  C   UNL     1     -42.407   2.884  78.954  1.00  0.00     0.093 A 
BRANCH   3  13
ATOM     13  C   UNL     1     -36.497   5.270  79.035  1.00  0.00     0.029 A 
ATOM     14  C   UNL     1     -35.461   4.545  79.639  1.00  0.00     0.062 A 
ATOM     15  C   UNL     1     -34.130   4.923  79.450  1.00  0.00     0.162 A 
ATOM     16  C   UNL     1     -36.193   6.408  78.281  1.00  0.00     0.062 A 
ATOM     17  C   UNL     1     -33.826   6.054  78.664  1.00  0.00     0.200 A 
ATOM     18  C   UNL     1     -34.867   6.806  78.091  1.00  0.00     0.162 A 
BRANCH  15  19
ATOM     19  O   UNL     1     -33.112   4.203  80.074  1.00  0.00    -0.504 OA
ATOM     20  H   UNL     1     -33.156   3.947  81.053  1.00  0.00     0.293 HD
ENDBRANCH  15  19
BRANCH  17  21
ATOM     21  O   UNL     1     -32.494   6.426  78.452  1.00  0.00    -0.502 OA
ATOM     22  H   UNL     1     -31.721   5.870  78.805  1.00  0.00     0.293 HD
ENDBRANCH  17  21
BRANCH  18  23
ATOM     23  O   UNL     1     -34.605   7.956  77.350  1.00  0.00    -0.504 OA
ATOM     24  H   UNL     1     -33.681   8.370  77.315  1.00  0.00     0.293 HD
ENDBRANCH  18  23
ENDBRANCH   3  13
BRANCH  10  25
ATOM     25  O   UNL     1     -42.478   3.430  81.269  1.00  0.00    -0.507 OA
ATOM     26  H   UNL     1     -42.068   3.418  82.185  1.00  0.00     0.293 HD
ENDBRANCH  10  25
BRANCH  11  27
ATOM     27  O   UNL     1     -42.427   2.242  76.623  1.00  0.00    -0.508 OA
ATOM     28  H   UNL     1     -43.118   2.722  76.065  1.00  0.00     0.293 HD
ENDBRANCH  11  27
ENDBRANCH   1   2
BRANCH   1  29
ATOM     29  C   UNL     1     -37.228   7.015  81.841  1.00  0.00     0.339 C 
ATOM     30  C   UNL     1     -37.567   7.584  83.250  1.00  0.00     0.214 C 
ATOM     31  O   UNL     1     -37.710   7.787  80.734  1.00  0.00    -0.332 OA
ATOM     32  C   UNL     1     -37.660   9.118  83.213  1.00  0.00     0.180 C 
ATOM     33  C   UNL     1     -38.896   8.513  81.029  1.00  0.00     0.179 C 
ATOM     34  C   UNL     1     -38.607   9.615  82.088  1.00  0.00     0.177 C 
BRANCH  30  35
ATOM     35  O   UNL     1     -38.785   7.057  83.712  1.00  0.00    -0.384 OA
ATOM     36  H   UNL     1     -39.305   6.788  82.914  1.00  0.00     0.211 HD
ENDBRANCH  30  35
BRANCH  32  37
ATOM     37  O   UNL     1     -36.382   9.702  83.088  1.00  0.00    -0.387 OA
ATOM     38  H   UNL     1     -36.037   9.913  83.995  1.00  0.00     0.211 HD
ENDBRANCH  32  37
BRANCH  33  39
ATOM     39  C   UNL     1     -39.430   9.162  79.734  1.00  0.00     0.191 C 
BRANCH  39  40
ATOM     40  O   UNL     1     -39.311   8.270  78.662  1.00  0.00    -0.394 OA
ATOM     41  H   UNL     1     -38.851   8.759  77.927  1.00  0.00     0.210 HD
ENDBRANCH  39  40
ENDBRANCH  33  39
BRANCH  34  42
ATOM     42  O   UNL     1     -39.805  10.124  82.634  1.00  0.00    -0.387 OA
ATOM     43  H   UNL     1     -40.494   9.407  82.593  1.00  0.00     0.211 HD
ENDBRANCH  34  42
ENDBRANCH   1  29
TORSDOF 13
ENDMDL
MODEL 8
REMARK VINA RESULT:    -6.098      2.287      5.988
REMARK INTER + INTRA:         -10.876
REMARK INTER:                  -9.823
REMARK INTRA:                  -1.054
REMARK UNBOUND:                -1.747
REMARK SMILES O=c1c(O[C@H]2O[C@H](CO)[C@@H](O)[C@H](O)[C@H]2O)c(-c2cc(O)c(O)c(O)c2)oc2cc(O)cc(O)c12
REMARK SMILES IDX 4 1 3 2 16 3 26 4 2 5 27 6 1 7 34 8 28 9 32 10 29 11 31 12
REMARK SMILES IDX 17 13 18 14 19 15 25 16 21 17 23 18 20 19 22 21 24 23 33 25
REMARK SMILES IDX 30 27 5 29 14 30 6 31 12 32 7 33 10 34 15 35 13 37 8 39 9 40
REMARK SMILES IDX 11 42
REMARK H PARENT 20 20 22 22 24 24 33 26 30 28 15 36 13 38 9 41 11 43
REMARK Flexibility Score: inf
ROOT
ATOM      1  O   UNL     1     -38.350   5.265  77.684  1.00  0.00    -0.454 OA
ENDROOT
BRANCH   1   2
ATOM      2  C   UNL     1     -37.674   4.917  78.865  1.00  0.00     0.214 A 
ATOM      3  C   UNL     1     -38.281   4.181  79.901  1.00  0.00     0.181 A 
ATOM      4  O   UNL     1     -37.582   3.860  80.980  1.00  0.00    -0.452 OA
ATOM      5  C   UNL     1     -36.315   5.237  78.975  1.00  0.00     0.239 A 
ATOM      6  C   UNL     1     -36.292   4.117  81.123  1.00  0.00     0.146 A 
ATOM      7  O   UNL     1     -35.793   5.928  78.061  1.00  0.00    -0.285 OA
ATOM      8  C   UNL     1     -35.568   4.782  80.099  1.00  0.00     0.111 A 
ATOM      9  C   UNL     1     -35.655   3.672  82.286  1.00  0.00     0.094 A 
ATOM     10  C   UNL     1     -34.154   4.954  80.277  1.00  0.00     0.134 A 
ATOM     11  C   UNL     1     -34.279   3.820  82.436  1.00  0.00     0.123 A 
ATOM     12  C   UNL     1     -33.538   4.458  81.440  1.00  0.00     0.093 A 
BRANCH   3  13
ATOM     13  C   UNL     1     -39.649   3.655  79.814  1.00  0.00     0.029 A 
ATOM     14  C   UNL     1     -40.154   3.176  78.597  1.00  0.00     0.062 A 
ATOM     15  C   UNL     1     -41.503   2.837  78.476  1.00  0.00     0.162 A 
ATOM     16  C   UNL     1     -40.518   3.838  80.895  1.00  0.00     0.062 A 
ATOM     17  C   UNL     1     -42.369   2.996  79.577  1.00  0.00     0.200 A 
ATOM     18  C   UNL     1     -41.872   3.515  80.786  1.00  0.00     0.162 A 
BRANCH  15  19
ATOM     19  O   UNL     1     -41.992   2.381  77.252  1.00  0.00    -0.504 OA
ATOM     20  H   UNL     1     -42.156   1.398  77.070  1.00  0.00     0.293 HD
ENDBRANCH  15  19
BRANCH  17  21
ATOM     21  O   UNL     1     -43.717   2.638  79.470  1.00  0.00    -0.502 OA
ATOM     22  H   UNL     1     -44.038   1.697  79.680  1.00  0.00     0.293 HD
ENDBRANCH  17  21
BRANCH  18  23
ATOM     23  O   UNL     1     -42.711   3.730  81.878  1.00  0.00    -0.504 OA
ATOM     24  H   UNL     1     -43.617   4.172  81.777  1.00  0.00     0.293 HD
ENDBRANCH  18  23
ENDBRANCH   3  13
BRANCH  10  25
ATOM     25  O   UNL     1     -33.305   5.573  79.350  1.00  0.00    -0.507 OA
ATOM     26  H   UNL     1     -33.142   6.560  79.273  1.00  0.00     0.293 HD
ENDBRANCH  10  25
BRANCH  11  27
ATOM     27  O   UNL     1     -33.650   3.302  83.560  1.00  0.00    -0.508 OA
ATOM     28  H   UNL     1     -33.702   2.318  83.781  1.00  0.00     0.293 HD
ENDBRANCH  11  27
ENDBRANCH   1   2
BRANCH   1  29
ATOM     29  C   UNL     1     -39.100   6.472  77.514  1.00  0.00     0.339 C 
ATOM     30  C   UNL     1     -38.786   7.109  76.128  1.00  0.00     0.214 C 
ATOM     31  O   UNL     1     -38.926   7.338  78.642  1.00  0.00    -0.332 OA
ATOM     32  C   UNL     1     -39.080   8.618  76.141  1.00  0.00     0.180 C 
ATOM     33  C   UNL     1     -37.935   8.337  78.437  1.00  0.00     0.179 C 
ATOM     34  C   UNL     1     -38.391   9.333  77.334  1.00  0.00     0.177 C 
BRANCH  30  35
ATOM     35  O   UNL     1     -37.440   6.902  75.786  1.00  0.00    -0.384 OA
ATOM     36  H   UNL     1     -36.924   6.893  76.631  1.00  0.00     0.211 HD
ENDBRANCH  30  35
BRANCH  32  37
ATOM     37  O   UNL     1     -40.468   8.867  76.141  1.00  0.00    -0.387 OA
ATOM     38  H   UNL     1     -40.680   9.499  75.405  1.00  0.00     0.211 HD
ENDBRANCH  32  37
BRANCH  33  39
ATOM     39  C   UNL     1     -37.697   9.096  79.760  1.00  0.00     0.191 C 
BRANCH  39  40
ATOM     40  O   UNL     1     -36.346   9.030  80.119  1.00  0.00    -0.394 OA
ATOM     41  H   UNL     1     -36.057   8.086  79.995  1.00  0.00     0.210 HD
ENDBRANCH  39  40
ENDBRANCH  33  39
BRANCH  34  42
ATOM     42  O   UNL     1     -37.313  10.125  76.884  1.00  0.00    -0.387 OA
ATOM     43  H   UNL     1     -36.473   9.603  77.005  1.00  0.00     0.211 HD
ENDBRANCH  34  42
ENDBRANCH   1  29
TORSDOF 13
ENDMDL
MODEL 9
REMARK VINA RESULT:    -6.089      2.545      3.892
REMARK INTER + INTRA:         -10.862
REMARK INTER:                  -9.937
REMARK INTRA:                  -0.925
REMARK UNBOUND:                -1.747
REMARK SMILES O=c1c(O[C@H]2O[C@H](CO)[C@@H](O)[C@H](O)[C@H]2O)c(-c2cc(O)c(O)c(O)c2)oc2cc(O)cc(O)c12
REMARK SMILES IDX 4 1 3 2 16 3 26 4 2 5 27 6 1 7 34 8 28 9 32 10 29 11 31 12
REMARK SMILES IDX 17 13 18 14 19 15 25 16 21 17 23 18 20 19 22 21 24 23 33 25
REMARK SMILES IDX 30 27 5 29 14 30 6 31 12 32 7 33 10 34 15 35 13 37 8 39 9 40
REMARK SMILES IDX 11 42
REMARK H PARENT 20 20 22 22 24 24 33 26 30 28 15 36 13 38 9 41 11 43
REMARK Flexibility Score: inf
ROOT
ATOM      1  O   UNL     1     -36.622   5.355  79.725  1.00  0.00    -0.454 OA
ENDROOT
BRANCH   1   2
ATOM      2  C   UNL     1     -37.511   6.059  78.897  1.00  0.00     0.214 A 
ATOM      3  C   UNL     1     -38.905   5.863  78.938  1.00  0.00     0.181 A 
ATOM      4  O   UNL     1     -39.695   6.578  78.150  1.00  0.00    -0.452 OA
ATOM      5  C   UNL     1     -36.997   7.060  78.063  1.00  0.00     0.239 A 
ATOM      6  C   UNL     1     -39.264   7.550  77.363  1.00  0.00     0.146 A 
ATOM      7  O   UNL     1     -35.747   7.200  78.007  1.00  0.00    -0.285 OA
ATOM      8  C   UNL     1     -37.884   7.882  77.312  1.00  0.00     0.111 A 
ATOM      9  C   UNL     1     -40.208   8.271  76.625  1.00  0.00     0.094 A 
ATOM     10  C   UNL     1     -37.491   9.003  76.505  1.00  0.00     0.134 A 
ATOM     11  C   UNL     1     -39.819   9.372  75.867  1.00  0.00     0.123 A 
ATOM     12  C   UNL     1     -38.471   9.731  75.808  1.00  0.00     0.093 A 
BRANCH   3  13
ATOM     13  C   UNL     1     -39.560   4.958  79.891  1.00  0.00     0.029 A 
ATOM     14  C   UNL     1     -40.493   4.010  79.448  1.00  0.00     0.062 A 
ATOM     15  C   UNL     1     -41.239   3.270  80.368  1.00  0.00     0.162 A 
ATOM     16  C   UNL     1     -39.416   5.194  81.262  1.00  0.00     0.062 A 
ATOM     17  C   UNL     1     -41.069   3.491  81.751  1.00  0.00     0.200 A 
ATOM     18  C   UNL     1     -40.162   4.470  82.194  1.00  0.00     0.162 A 
BRANCH  15  19
ATOM     19  O   UNL     1     -42.177   2.346  79.911  1.00  0.00    -0.504 OA
ATOM     20  H   UNL     1     -42.447   2.290  78.936  1.00  0.00     0.293 HD
ENDBRANCH  15  19
BRANCH  17  21
ATOM     21  O   UNL     1     -41.796   2.738  82.678  1.00  0.00    -0.502 OA
ATOM     22  H   UNL     1     -42.499   2.065  82.386  1.00  0.00     0.293 HD
ENDBRANCH  17  21
BRANCH  18  23
ATOM     23  O   UNL     1     -40.006   4.748  83.551  1.00  0.00    -0.504 OA
ATOM     24  H   UNL     1     -40.236   4.067  84.266  1.00  0.00     0.293 HD
ENDBRANCH  18  23
ENDBRANCH   3  13
BRANCH  10  25
ATOM     25  O   UNL     1     -36.174   9.461  76.368  1.00  0.00    -0.507 OA
ATOM     26  H   UNL     1     -35.846  10.104  75.671  1.00  0.00     0.293 HD
ENDBRANCH  10  25
BRANCH  11  27
ATOM     27  O   UNL     1     -40.779  10.125  75.204  1.00  0.00    -0.508 OA
ATOM     28  H   UNL     1     -41.397  10.744  75.708  1.00  0.00     0.293 HD
ENDBRANCH  11  27
ENDBRANCH   1   2
BRANCH   1  29
ATOM     29  C   UNL     1     -35.983   5.914  80.877  1.00  0.00     0.339 C 
ATOM     30  C   UNL     1     -34.436   5.817  80.735  1.00  0.00     0.214 C 
ATOM     31  O   UNL     1     -36.526   5.352  82.078  1.00  0.00    -0.332 OA
ATOM     32  C   UNL     1     -33.756   5.848  82.113  1.00  0.00     0.180 C 
ATOM     33  C   UNL     1     -35.749   4.280  82.599  1.00  0.00     0.179 C 
ATOM     34  C   UNL     1     -34.367   4.800  83.084  1.00  0.00     0.177 C 
BRANCH  30  35
ATOM     35  O   UNL     1     -34.077   4.635  80.067  1.00  0.00    -0.384 OA
ATOM     36  H   UNL     1     -33.646   4.045  80.735  1.00  0.00     0.211 HD
ENDBRANCH  30  35
BRANCH  32  37
ATOM     37  O   UNL     1     -33.804   7.140  82.676  1.00  0.00    -0.387 OA
ATOM     38  H   UNL     1     -33.040   7.670  82.326  1.00  0.00     0.211 HD
ENDBRANCH  32  37
BRANCH  33  39
ATOM     39  C   UNL     1     -36.506   3.631  83.778  1.00  0.00     0.191 C 
BRANCH  39  40
ATOM     40  O   UNL     1     -35.728   2.618  84.351  1.00  0.00    -0.394 OA
ATOM     41  H   UNL     1     -34.778   2.824  84.137  1.00  0.00     0.210 HD
ENDBRANCH  39  40
ENDBRANCH  33  39
BRANCH  34  42
ATOM     42  O   UNL     1     -33.467   3.735  83.297  1.00  0.00    -0.387 OA
ATOM     43  H   UNL     1     -33.986   2.950  83.622  1.00  0.00     0.211 HD
ENDBRANCH  34  42
ENDBRANCH   1  29
TORSDOF 13
ENDMDL
