MODEL 1
REMARK VINA RESULT:    -2.874      0.000      0.000
REMARK INTER + INTRA:          -2.874
REMARK INTER:                  -2.874
REMARK INTRA:                   0.000
REMARK UNBOUND:                 0.000
REMARK SMILES CC(=O)[O-]
REMARK SMILES IDX 1 1 2 2 3 3 4 4
REMARK H PARENT
REMARK Flexibility Score: inf
ROOT
ATOM      1  C   UNL     1     198.221 199.440 151.605  1.00  0.00     0.063 C 
ATOM      2  C   UNL     1     197.543 199.189 152.910  1.00  0.00     0.038 C 
ATOM      3  O   UNL     1     196.366 199.592 153.096  1.00  0.00    -0.550 OA
ATOM      4  O   UNL     1     198.228 198.560 153.940  1.00  0.00    -0.550 OA
ENDROOT
TORSDOF 0
ENDMDL
MODEL 2
REMARK VINA RESULT:    -2.539      1.402      2.074
REMARK INTER + INTRA:          -2.539
REMARK INTER:                  -2.539
REMARK INTRA:                   0.000
REMARK UNBOUND:                 0.000
REMARK SMILES CC(=O)[O-]
REMARK SMILES IDX 1 1 2 2 3 3 4 4
REMARK H PARENT
REMARK Flexibility Score: inf
ROOT
ATOM      1  C   UNL     1     196.324 199.577 153.022  1.00  0.00     0.063 C 
ATOM      2  C   UNL     1     197.749 199.179 152.838  1.00  0.00     0.038 C 
ATOM      3  O   UNL     1     198.396 198.687 153.799  1.00  0.00    -0.550 OA
ATOM      4  O   UNL     1     198.382 199.400 151.622  1.00  0.00    -0.550 OA
ENDROOT
TORSDOF 0
ENDMDL
MODEL 3
REMARK VINA RESULT:    -2.511      1.488      2.023
REMARK INTER + INTRA:          -2.511
REMARK INTER:                  -2.511
REMARK INTRA:                   0.000
REMARK UNBOUND:                 0.000
REMARK SMILES CC(=O)[O-]
REMARK SMILES IDX 1 1 2 2 3 3 4 4
REMARK H PARENT
REMARK Flexibility Score: inf
ROOT
ATOM      1  C   UNL     1     198.179 198.584 153.791  1.00  0.00     0.063 C 
ATOM      2  C   UNL     1     197.326 199.295 152.796  1.00  0.00     0.038 C 
ATOM      3  O   UNL     1     197.801 199.621 151.677  1.00  0.00    -0.550 OA
ATOM      4  O   UNL     1     196.023 199.648 153.122  1.00  0.00    -0.550 OA
ENDROOT
TORSDOF 0
ENDMDL
MODEL 4
REMARK VINA RESULT:    -2.365     10.623     11.055
REMARK INTER + INTRA:          -2.365
REMARK INTER:                  -2.365
REMARK INTRA:                   0.000
REMARK UNBOUND:                 0.000
REMARK SMILES CC(=O)[O-]
REMARK SMILES IDX 1 1 2 2 3 3 4 4
REMARK H PARENT
REMARK Flexibility Score: inf
ROOT
ATOM      1  C   UNL     1     206.013 200.368 159.875  1.00  0.00     0.063 C 
ATOM      2  C   UNL     1     206.714 199.909 158.642  1.00  0.00     0.038 C 
ATOM      3  O   UNL     1     207.445 198.885 158.677  1.00  0.00    -0.550 OA
ATOM      4  O   UNL     1     206.607 200.639 157.467  1.00  0.00    -0.550 OA
ENDROOT
TORSDOF 0
ENDMDL
MODEL 5
REMARK VINA RESULT:    -2.255     10.771     11.027
REMARK INTER + INTRA:          -2.255
REMARK INTER:                  -2.255
REMARK INTRA:                   0.000
REMARK UNBOUND:                 0.000
REMARK SMILES CC(=O)[O-]
REMARK SMILES IDX 1 1 2 2 3 3 4 4
REMARK H PARENT
REMARK Flexibility Score: inf
ROOT
ATOM      1  C   UNL     1     206.772 199.601 158.552  1.00  0.00     0.063 C 
ATOM      2  C   UNL     1     206.197 200.624 159.472  1.00  0.00     0.038 C 
ATOM      3  O   UNL     1     205.959 200.330 160.672  1.00  0.00    -0.550 OA
ATOM      4  O   UNL     1     205.873 201.886 158.994  1.00  0.00    -0.550 OA
ENDROOT
TORSDOF 0
ENDMDL
MODEL 6
REMARK VINA RESULT:    -2.229     14.180     14.351
REMARK INTER + INTRA:          -2.229
REMARK INTER:                  -2.229
REMARK INTRA:                   0.000
REMARK UNBOUND:                 0.000
REMARK SMILES CC(=O)[O-]
REMARK SMILES IDX 1 1 2 2 3 3 4 4
REMARK H PARENT
REMARK Flexibility Score: inf
ROOT
ATOM      1  C   UNL     1     201.190 211.485 161.404  1.00  0.00     0.063 C 
ATOM      2  C   UNL     1     201.672 210.558 160.340  1.00  0.00     0.038 C 
ATOM      3  O   UNL     1     202.701 210.845 159.673  1.00  0.00    -0.550 OA
ATOM      4  O   UNL     1     200.958 209.405 160.045  1.00  0.00    -0.550 OA
ENDROOT
TORSDOF 0
ENDMDL
MODEL 7
REMARK VINA RESULT:    -2.196     18.709     19.212
REMARK INTER + INTRA:          -2.196
REMARK INTER:                  -2.196
REMARK INTRA:                   0.000
REMARK UNBOUND:                 0.000
REMARK SMILES CC(=O)[O-]
REMARK SMILES IDX 1 1 2 2 3 3 4 4
REMARK H PARENT
REMARK Flexibility Score: inf
ROOT
ATOM      1  C   UNL     1     210.879 203.447 167.070  1.00  0.00     0.063 C 
ATOM      2  C   UNL     1     210.586 204.351 165.921  1.00  0.00     0.038 C 
ATOM      3  O   UNL     1     210.634 205.600 166.074  1.00  0.00    -0.550 OA
ATOM      4  O   UNL     1     210.208 203.821 164.695  1.00  0.00    -0.550 OA
ENDROOT
TORSDOF 0
ENDMDL
MODEL 8
REMARK VINA RESULT:    -2.137     13.364     13.778
REMARK INTER + INTRA:          -2.137
REMARK INTER:                  -2.137
REMARK INTRA:                   0.000
REMARK UNBOUND:                 0.000
REMARK SMILES CC(=O)[O-]
REMARK SMILES IDX 1 1 2 2 3 3 4 4
REMARK H PARENT
REMARK Flexibility Score: inf
ROOT
ATOM      1  C   UNL     1     201.407 213.199 149.284  1.00  0.00     0.063 C 
ATOM      2  C   UNL     1     200.604 211.944 149.251  1.00  0.00     0.038 C 
ATOM      3  O   UNL     1     201.148 210.840 149.517  1.00  0.00    -0.550 OA
ATOM      4  O   UNL     1     199.268 211.981 148.875  1.00  0.00    -0.550 OA
ENDROOT
TORSDOF 0
ENDMDL
MODEL 9
REMARK VINA RESULT:    -2.038     10.777     11.122
REMARK INTER + INTRA:          -2.038
REMARK INTER:                  -2.038
REMARK INTRA:                   0.000
REMARK UNBOUND:                 0.000
REMARK SMILES CC(=O)[O-]
REMARK SMILES IDX 1 1 2 2 3 3 4 4
REMARK H PARENT
REMARK Flexibility Score: inf
ROOT
ATOM      1  C   UNL     1     206.628 204.439 159.658  1.00  0.00     0.063 C 
ATOM      2  C   UNL     1     205.725 203.589 158.831  1.00  0.00     0.038 C 
ATOM      3  O   UNL     1     204.778 204.115 158.189  1.00  0.00    -0.550 OA
ATOM      4  O   UNL     1     205.892 202.211 158.808  1.00  0.00    -0.550 OA
ENDROOT
TORSDOF 0
ENDMDL
