MODEL 1
REMARK VINA RESULT:    -3.598      0.000      0.000
REMARK INTER + INTRA:          -6.276
REMARK INTER:                  -5.491
REMARK INTRA:                  -0.785
REMARK UNBOUND:                -0.785
REMARK SMILES CCCCCCCCCCC(=O)[O-]
REMARK SMILES IDX 7 1 8 2 9 3 10 4 11 5 12 6 13 7 6 8 5 9 4 10 3 11 2 12 1 13
REMARK H PARENT
REMARK Flexibility Score: inf
ROOT
ATOM      1  C   UNL     1      66.047 -14.673  11.127  1.00  0.00     0.000 C 
ENDROOT
BRANCH   1   2
ATOM      2  C   UNL     1      66.388 -16.150  10.859  1.00  0.00     0.000 C 
BRANCH   2   3
ATOM      3  C   UNL     1      67.890 -16.499  10.907  1.00  0.00     0.006 C 
BRANCH   3   4
ATOM      4  C   UNL     1      68.566 -16.611   9.531  1.00  0.00     0.053 C 
BRANCH   4   5
ATOM      5  C   UNL     1      69.418 -15.419   9.226  1.00  0.00     0.041 C 
ATOM      6  O   UNL     1      69.539 -14.493  10.071  1.00  0.00    -0.550 OA
ATOM      7  O   UNL     1      70.107 -15.345   8.021  1.00  0.00    -0.550 OA
ENDBRANCH   4   5
ENDBRANCH   3   4
ENDBRANCH   2   3
ENDBRANCH   1   2
BRANCH   1   8
ATOM      8  C   UNL     1      65.685 -14.397  12.596  1.00  0.00     0.000 C 
BRANCH   8   9
ATOM      9  C   UNL     1      65.228 -15.660  13.345  1.00  0.00    -0.000 C 
BRANCH   9  10
ATOM     10  C   UNL     1      66.039 -15.948  14.626  1.00  0.00    -0.000 C 
BRANCH  10  11
ATOM     11  C   UNL     1      67.369 -15.175  14.654  1.00  0.00    -0.000 C 
BRANCH  11  12
ATOM     12  C   UNL     1      68.470 -15.918  15.425  1.00  0.00    -0.003 C 
ATOM     13  C   UNL     1      67.923 -16.730  16.599  1.00  0.00     0.004 C 
ENDBRANCH  11  12
ENDBRANCH  10  11
ENDBRANCH   9  10
ENDBRANCH   8   9
ENDBRANCH   1   8
TORSDOF 9
ENDMDL
MODEL 2
REMARK VINA RESULT:    -3.502      2.651      5.508
REMARK INTER + INTRA:          -6.129
REMARK INTER:                  -5.465
REMARK INTRA:                  -0.665
REMARK UNBOUND:                -0.785
REMARK SMILES CCCCCCCCCCC(=O)[O-]
REMARK SMILES IDX 7 1 8 2 9 3 10 4 11 5 12 6 13 7 6 8 5 9 4 10 3 11 2 12 1 13
REMARK H PARENT
REMARK Flexibility Score: inf
ROOT
ATOM      1  C   UNL     1      65.800 -14.243  12.487  1.00  0.00     0.000 C 
ENDROOT
BRANCH   1   2
ATOM      2  C   UNL     1      65.241 -15.496  13.184  1.00  0.00     0.000 C 
BRANCH   2   3
ATOM      3  C   UNL     1      66.029 -15.969  14.423  1.00  0.00     0.006 C 
BRANCH   3   4
ATOM      4  C   UNL     1      67.345 -15.215  14.671  1.00  0.00     0.053 C 
BRANCH   4   5
ATOM      5  C   UNL     1      68.242 -15.948  15.618  1.00  0.00     0.041 C 
ATOM      6  O   UNL     1      67.760 -16.529  16.627  1.00  0.00    -0.550 OA
ATOM      7  O   UNL     1      69.607 -16.021  15.371  1.00  0.00    -0.550 OA
ENDBRANCH   4   5
ENDBRANCH   3   4
ENDBRANCH   2   3
ENDBRANCH   1   2
BRANCH   1   8
ATOM      8  C   UNL     1      65.958 -14.420  10.968  1.00  0.00     0.000 C 
BRANCH   8   9
ATOM      9  C   UNL     1      66.883 -15.591  10.597  1.00  0.00    -0.000 C 
BRANCH   9  10
ATOM     10  C   UNL     1      68.385 -15.269  10.755  1.00  0.00    -0.000 C 
BRANCH  10  11
ATOM     11  C   UNL     1      69.270 -16.227   9.938  1.00  0.00    -0.000 C 
BRANCH  11  12
ATOM     12  C   UNL     1      68.510 -16.892   8.781  1.00  0.00    -0.003 C 
ATOM     13  C   UNL     1      68.935 -16.360   7.412  1.00  0.00     0.004 C 
ENDBRANCH  11  12
ENDBRANCH  10  11
ENDBRANCH   9  10
ENDBRANCH   8   9
ENDBRANCH   1   8
TORSDOF 9
ENDMDL
MODEL 3
REMARK VINA RESULT:    -3.364     13.694     15.272
REMARK INTER + INTRA:          -5.919
REMARK INTER:                  -5.263
REMARK INTRA:                  -0.656
REMARK UNBOUND:                -0.785
REMARK SMILES CCCCCCCCCCC(=O)[O-]
REMARK SMILES IDX 7 1 8 2 9 3 10 4 11 5 12 6 13 7 6 8 5 9 4 10 3 11 2 12 1 13
REMARK H PARENT
REMARK Flexibility Score: inf
ROOT
ATOM      1  C   UNL     1      68.359  -2.016  10.043  1.00  0.00     0.000 C 
ENDROOT
BRANCH   1   2
ATOM      2  C   UNL     1      68.550  -0.587  10.583  1.00  0.00     0.000 C 
BRANCH   2   3
ATOM      3  C   UNL     1      67.410   0.400  10.256  1.00  0.00     0.006 C 
BRANCH   3   4
ATOM      4  C   UNL     1      66.713   0.149   8.910  1.00  0.00     0.053 C 
BRANCH   4   5
ATOM      5  C   UNL     1      67.124   1.145   7.870  1.00  0.00     0.041 C 
ATOM      6  O   UNL     1      68.345   1.356   7.644  1.00  0.00    -0.550 OA
ATOM      7  O   UNL     1      66.161   1.814   7.126  1.00  0.00    -0.550 OA
ENDBRANCH   4   5
ENDBRANCH   3   4
ENDBRANCH   2   3
ENDBRANCH   1   2
BRANCH   1   8
ATOM      8  C   UNL     1      69.577  -2.530   9.260  1.00  0.00     0.000 C 
BRANCH   8   9
ATOM      9  C   UNL     1      69.628  -1.998   7.818  1.00  0.00    -0.000 C 
BRANCH   9  10
ATOM     10  C   UNL     1      69.939  -3.085   6.767  1.00  0.00    -0.000 C 
BRANCH  10  11
ATOM     11  C   UNL     1      69.999  -4.491   7.390  1.00  0.00    -0.000 C 
BRANCH  11  12
ATOM     12  C   UNL     1      69.059  -5.487   6.696  1.00  0.00    -0.003 C 
ATOM     13  C   UNL     1      69.460  -6.943   6.934  1.00  0.00     0.004 C 
ENDBRANCH  11  12
ENDBRANCH  10  11
ENDBRANCH   9  10
ENDBRANCH   8   9
ENDBRANCH   1   8
TORSDOF 9
ENDMDL
MODEL 4
REMARK VINA RESULT:    -3.322     10.597     12.624
REMARK INTER + INTRA:          -5.854
REMARK INTER:                  -4.809
REMARK INTRA:                  -1.045
REMARK UNBOUND:                -0.785
REMARK SMILES CCCCCCCCCCC(=O)[O-]
REMARK SMILES IDX 7 1 8 2 9 3 10 4 11 5 12 6 13 7 6 8 5 9 4 10 3 11 2 12 1 13
REMARK H PARENT
REMARK Flexibility Score: inf
ROOT
ATOM      1  C   UNL     1      57.751 -14.130   8.928  1.00  0.00     0.000 C 
ENDROOT
BRANCH   1   2
ATOM      2  C   UNL     1      56.272 -14.484   9.166  1.00  0.00     0.000 C 
BRANCH   2   3
ATOM      3  C   UNL     1      56.022 -15.645  10.151  1.00  0.00     0.006 C 
BRANCH   3   4
ATOM      4  C   UNL     1      57.238 -16.553  10.392  1.00  0.00     0.053 C 
BRANCH   4   5
ATOM      5  C   UNL     1      57.525 -16.730  11.851  1.00  0.00     0.041 C 
ATOM      6  O   UNL     1      56.580 -16.780  12.681  1.00  0.00    -0.550 OA
ATOM      7  O   UNL     1      58.835 -16.876  12.290  1.00  0.00    -0.550 OA
ENDBRANCH   4   5
ENDBRANCH   3   4
ENDBRANCH   2   3
ENDBRANCH   1   2
BRANCH   1   8
ATOM      8  C   UNL     1      58.185 -14.311   7.464  1.00  0.00     0.000 C 
BRANCH   8   9
ATOM      9  C   UNL     1      57.492 -15.501   6.780  1.00  0.00    -0.000 C 
BRANCH   9  10
ATOM     10  C   UNL     1      56.902 -15.162   5.394  1.00  0.00    -0.000 C 
BRANCH  10  11
ATOM     11  C   UNL     1      55.430 -15.594   5.272  1.00  0.00    -0.000 C 
BRANCH  11  12
ATOM     12  C   UNL     1      55.020 -16.609   6.349  1.00  0.00    -0.003 C 
ATOM     13  C   UNL     1      53.749 -16.201   7.093  1.00  0.00     0.004 C 
ENDBRANCH  11  12
ENDBRANCH  10  11
ENDBRANCH   9  10
ENDBRANCH   8   9
ENDBRANCH   1   8
TORSDOF 9
ENDMDL
MODEL 5
REMARK VINA RESULT:    -3.310     13.966     15.264
REMARK INTER + INTRA:          -5.837
REMARK INTER:                  -4.992
REMARK INTRA:                  -0.844
REMARK UNBOUND:                -0.785
REMARK SMILES CCCCCCCCCCC(=O)[O-]
REMARK SMILES IDX 7 1 8 2 9 3 10 4 11 5 12 6 13 7 6 8 5 9 4 10 3 11 2 12 1 13
REMARK H PARENT
REMARK Flexibility Score: inf
ROOT
ATOM      1  C   UNL     1      69.055  -1.844  11.490  1.00  0.00     0.000 C 
ENDROOT
BRANCH   1   2
ATOM      2  C   UNL     1      68.548  -2.398  10.146  1.00  0.00     0.000 C 
BRANCH   2   3
ATOM      3  C   UNL     1      69.423  -2.059   8.921  1.00  0.00     0.006 C 
BRANCH   3   4
ATOM      4  C   UNL     1      70.074  -3.274   8.243  1.00  0.00     0.053 C 
BRANCH   4   5
ATOM      5  C   UNL     1      69.902  -3.247   6.756  1.00  0.00     0.041 C 
ATOM      6  O   UNL     1      69.815  -4.324   6.108  1.00  0.00    -0.550 OA
ATOM      7  O   UNL     1      69.804  -2.033   6.088  1.00  0.00    -0.550 OA
ENDBRANCH   4   5
ENDBRANCH   3   4
ENDBRANCH   2   3
ENDBRANCH   1   2
BRANCH   1   8
ATOM      8  C   UNL     1      69.359  -0.337  11.443  1.00  0.00     0.000 C 
BRANCH   8   9
ATOM      9  C   UNL     1      68.100   0.531  11.602  1.00  0.00    -0.000 C 
BRANCH   9  10
ATOM     10  C   UNL     1      67.685   1.264  10.308  1.00  0.00    -0.000 C 
BRANCH  10  11
ATOM     11  C   UNL     1      66.670   0.453   9.484  1.00  0.00    -0.000 C 
BRANCH  11  12
ATOM     12  C   UNL     1      66.633   0.877   8.009  1.00  0.00    -0.003 C 
ATOM     13  C   UNL     1      68.010   0.833   7.346  1.00  0.00     0.004 C 
ENDBRANCH  11  12
ENDBRANCH  10  11
ENDBRANCH   9  10
ENDBRANCH   8   9
ENDBRANCH   1   8
TORSDOF 9
ENDMDL
MODEL 6
REMARK VINA RESULT:    -3.283     14.997     16.545
REMARK INTER + INTRA:          -5.795
REMARK INTER:                  -4.759
REMARK INTRA:                  -1.036
REMARK UNBOUND:                -0.785
REMARK SMILES CCCCCCCCCCC(=O)[O-]
REMARK SMILES IDX 7 1 8 2 9 3 10 4 11 5 12 6 13 7 6 8 5 9 4 10 3 11 2 12 1 13
REMARK H PARENT
REMARK Flexibility Score: inf
ROOT
ATOM      1  C   UNL     1      68.591  -2.269  10.134  1.00  0.00     0.000 C 
ENDROOT
BRANCH   1   2
ATOM      2  C   UNL     1      69.236  -2.089  11.519  1.00  0.00     0.000 C 
BRANCH   2   3
ATOM      3  C   UNL     1      69.489  -0.627  11.944  1.00  0.00     0.006 C 
BRANCH   3   4
ATOM      4  C   UNL     1      68.263   0.293  11.834  1.00  0.00     0.053 C 
BRANCH   4   5
ATOM      5  C   UNL     1      68.643   1.740  11.863  1.00  0.00     0.041 C 
ATOM      6  O   UNL     1      68.673   2.410  10.796  1.00  0.00    -0.550 OA
ATOM      7  O   UNL     1      68.932   2.361  13.072  1.00  0.00    -0.550 OA
ENDBRANCH   4   5
ENDBRANCH   3   4
ENDBRANCH   2   3
ENDBRANCH   1   2
BRANCH   1   8
ATOM      8  C   UNL     1      69.594  -2.712   9.056  1.00  0.00     0.000 C 
BRANCH   8   9
ATOM      9  C   UNL     1      69.617  -1.771   7.839  1.00  0.00    -0.000 C 
BRANCH   9  10
ATOM     10  C   UNL     1      69.356  -0.292   8.195  1.00  0.00    -0.000 C 
BRANCH  10  11
ATOM     11  C   UNL     1      68.583   0.441   7.084  1.00  0.00    -0.000 C 
BRANCH  11  12
ATOM     12  C   UNL     1      67.314   1.133   7.604  1.00  0.00    -0.003 C 
ATOM     13  C   UNL     1      66.544   0.277   8.611  1.00  0.00     0.004 C 
ENDBRANCH  11  12
ENDBRANCH  10  11
ENDBRANCH   9  10
ENDBRANCH   8   9
ENDBRANCH   1   8
TORSDOF 9
ENDMDL
MODEL 7
REMARK VINA RESULT:    -3.182     21.027     22.801
REMARK INTER + INTRA:          -5.641
REMARK INTER:                  -4.549
REMARK INTRA:                  -1.092
REMARK UNBOUND:                -0.785
REMARK SMILES CCCCCCCCCCC(=O)[O-]
REMARK SMILES IDX 7 1 8 2 9 3 10 4 11 5 12 6 13 7 6 8 5 9 4 10 3 11 2 12 1 13
REMARK H PARENT
REMARK Flexibility Score: inf
ROOT
ATOM      1  C   UNL     1      56.601   1.596  22.747  1.00  0.00     0.000 C 
ENDROOT
BRANCH   1   2
ATOM      2  C   UNL     1      56.589   0.376  21.808  1.00  0.00     0.000 C 
BRANCH   2   3
ATOM      3  C   UNL     1      56.481  -0.995  22.508  1.00  0.00     0.006 C 
BRANCH   3   4
ATOM      4  C   UNL     1      57.024  -1.024  23.946  1.00  0.00     0.053 C 
BRANCH   4   5
ATOM      5  C   UNL     1      58.336  -1.740  24.036  1.00  0.00     0.041 C 
ATOM      6  O   UNL     1      58.968  -1.770  25.125  1.00  0.00    -0.550 OA
ATOM      7  O   UNL     1      58.845  -2.403  22.927  1.00  0.00    -0.550 OA
ENDBRANCH   4   5
ENDBRANCH   3   4
ENDBRANCH   2   3
ENDBRANCH   1   2
BRANCH   1   8
ATOM      8  C   UNL     1      55.261   2.349  22.771  1.00  0.00     0.000 C 
BRANCH   8   9
ATOM      9  C   UNL     1      54.196   1.646  23.630  1.00  0.00    -0.000 C 
BRANCH   9  10
ATOM     10  C   UNL     1      52.828   1.505  22.929  1.00  0.00    -0.000 C 
BRANCH  10  11
ATOM     11  C   UNL     1      52.958   1.540  21.396  1.00  0.00    -0.000 C 
BRANCH  11  12
ATOM     12  C   UNL     1      52.928   0.138  20.768  1.00  0.00    -0.003 C 
ATOM     13  C   UNL     1      52.392  -0.926  21.726  1.00  0.00     0.004 C 
ENDBRANCH  11  12
ENDBRANCH  10  11
ENDBRANCH   9  10
ENDBRANCH   8   9
ENDBRANCH   1   8
TORSDOF 9
ENDMDL
