MODEL 1
REMARK VINA RESULT:    -4.239      0.000      0.000
REMARK INTER + INTRA:          -7.001
REMARK INTER:                  -6.470
REMARK INTRA:                  -0.531
REMARK UNBOUND:                -0.531
REMARK SMILES CC1=CCC[C@H](C)C(=O)C[C@H](C(C)C)C(=O)C1
REMARK SMILES IDX 8 1 9 2 6 3 7 4 5 5 4 6 3 7 2 8 1 9 10 11 11 12 15 13 16 14
REMARK SMILES IDX 17 15 12 17 13 18 14 19
REMARK H PARENT
REMARK Flexibility Score: 70.00
ROOT
ATOM      1  C   UNL     1     214.071 153.280 182.473  1.00  0.00     0.136 C 
ATOM      2  O   UNL     1     214.942 153.308 183.331  1.00  0.00    -0.299 OA
ENDROOT
BRANCH   1   3
ATOM      3  C   UNL     1     213.101 154.434 182.344  1.00  0.00     0.053 C 
ATOM      4  C   UNL     1     212.527 154.769 183.725  1.00  0.00     0.016 C 
BRANCH   3   5
ATOM      5  C   UNL     1     213.748 155.690 181.714  1.00  0.00     0.015 C 
BRANCH   5   6
ATOM      6  C   UNL     1     214.474 155.413 180.384  1.00  0.00     0.028 C 
BRANCH   6   7
ATOM      7  C   UNL     1     213.513 155.388 179.216  1.00  0.00    -0.028 C 
ATOM      8  C   UNL     1     213.218 154.320 178.439  1.00  0.00    -0.070 CG0
ATOM      9  C   UNL     1     212.198 154.505 177.343  1.00  0.00     0.039 C 
ATOM     10  G   UNL     1     213.904 152.975 178.560  1.00  0.00     0.000 G0
ENDBRANCH   6   7
ENDBRANCH   5   6
ENDBRANCH   3   5
ENDBRANCH   1   3
BRANCH   1  11
ATOM     11  C   UNL     1     213.959 152.076 181.568  1.00  0.00     0.087 C 
BRANCH  11  12
ATOM     12  C   UNL     1     212.666 152.103 180.724  1.00  0.00     0.066 C 
BRANCH  12  13
ATOM     13  C   UNL     1     212.985 151.970 179.246  1.00  0.00     0.140 C 
ATOM     14  O   UNL     1     212.529 151.034 178.605  1.00  0.00    -0.299 OA
BRANCH  13  15
ATOM     15  C   UNL     1     213.896 152.949 178.554  1.00  0.00     0.106 CG0
ATOM     16  G   UNL     1     213.217 154.297 178.438  1.00  0.00     0.000 G0
ENDBRANCH  13  15
ENDBRANCH  12  13
BRANCH  12  17
ATOM     17  C   UNL     1     211.614 151.062 181.213  1.00  0.00    -0.006 C 
ATOM     18  C   UNL     1     210.395 151.678 181.921  1.00  0.00     0.008 C 
ATOM     19  C   UNL     1     212.264 150.000 182.113  1.00  0.00     0.008 C 
ENDBRANCH  12  17
ENDBRANCH  11  12
ENDBRANCH   1  11
TORSDOF 1
ENDMDL
MODEL 2
REMARK VINA RESULT:    -4.079      1.979      4.481
REMARK INTER + INTRA:          -6.757
REMARK INTER:                  -6.622
REMARK INTRA:                  -0.135
REMARK UNBOUND:                -0.531
REMARK SMILES CC1=CCC[C@H](C)C(=O)C[C@H](C(C)C)C(=O)C1
REMARK SMILES IDX 8 1 9 2 6 3 7 4 5 5 4 6 3 7 2 8 1 9 10 11 11 12 15 13 16 14
REMARK SMILES IDX 17 15 12 17 13 18 14 19
REMARK H PARENT
REMARK Flexibility Score: 70.00
ROOT
ATOM      1  C   UNL     1     212.452 151.148 180.526  1.00  0.00     0.136 C 
ATOM      2  O   UNL     1     211.991 150.630 179.519  1.00  0.00    -0.299 OA
ENDROOT
BRANCH   1   3
ATOM      3  C   UNL     1     211.786 150.921 181.866  1.00  0.00     0.053 C 
ATOM      4  C   UNL     1     212.830 150.424 182.872  1.00  0.00     0.016 C 
BRANCH   3   5
ATOM      5  C   UNL     1     211.085 152.189 182.406  1.00  0.00     0.015 C 
BRANCH   5   6
ATOM      6  C   UNL     1     211.658 152.694 183.745  1.00  0.00     0.028 C 
BRANCH   6   7
ATOM      7  C   UNL     1     211.842 154.195 183.744  1.00  0.00    -0.028 C 
ATOM      8  C   UNL     1     212.829 154.885 183.127  1.00  0.00    -0.070 CG0
ATOM      9  C   UNL     1     212.805 156.390 183.224  1.00  0.00     0.039 C 
ATOM     10  G   UNL     1     213.992 154.232 182.409  1.00  0.00     0.000 G0
ENDBRANCH   6   7
ENDBRANCH   5   6
ENDBRANCH   3   5
ENDBRANCH   1   3
BRANCH   1  11
ATOM     11  C   UNL     1     213.670 152.034 180.413  1.00  0.00     0.087 C 
BRANCH  11  12
ATOM     12  C   UNL     1     213.307 153.465 179.956  1.00  0.00     0.066 C 
BRANCH  12  13
ATOM     13  C   UNL     1     213.883 154.497 180.908  1.00  0.00     0.140 C 
ATOM     14  O   UNL     1     214.308 155.558 180.472  1.00  0.00    -0.299 OA
BRANCH  13  15
ATOM     15  C   UNL     1     213.987 154.224 182.384  1.00  0.00     0.106 CG0
ATOM     16  G   UNL     1     212.832 154.875 183.115  1.00  0.00     0.000 G0
ENDBRANCH  13  15
ENDBRANCH  12  13
BRANCH  12  17
ATOM     17  C   UNL     1     213.692 153.729 178.468  1.00  0.00    -0.006 C 
ATOM     18  C   UNL     1     212.493 153.978 177.537  1.00  0.00     0.008 C 
ATOM     19  C   UNL     1     214.563 152.592 177.912  1.00  0.00     0.008 C 
ENDBRANCH  12  17
ENDBRANCH  11  12
ENDBRANCH   1  11
TORSDOF 1
ENDMDL
MODEL 3
REMARK VINA RESULT:    -3.867      1.640      3.966
REMARK INTER + INTRA:          -6.433
REMARK INTER:                  -6.545
REMARK INTRA:                   0.112
REMARK UNBOUND:                -0.531
REMARK SMILES CC1=CCC[C@H](C)C(=O)C[C@H](C(C)C)C(=O)C1
REMARK SMILES IDX 8 1 9 2 6 3 7 4 5 5 4 6 3 7 2 8 1 9 10 11 11 12 15 13 16 14
REMARK SMILES IDX 17 15 12 17 13 18 14 19
REMARK H PARENT
REMARK Flexibility Score: 70.00
ROOT
ATOM      1  C   UNL     1     213.412 153.576 183.469  1.00  0.00     0.136 C 
ATOM      2  O   UNL     1     214.535 153.566 183.954  1.00  0.00    -0.299 OA
ENDROOT
BRANCH   1   3
ATOM      3  C   UNL     1     212.452 152.442 183.760  1.00  0.00     0.053 C 
ATOM      4  C   UNL     1     211.014 152.969 183.698  1.00  0.00     0.016 C 
BRANCH   3   5
ATOM      5  C   UNL     1     212.627 151.249 182.793  1.00  0.00     0.015 C 
BRANCH   5   6
ATOM      6  C   UNL     1     211.657 151.272 181.596  1.00  0.00     0.028 C 
BRANCH   6   7
ATOM      7  C   UNL     1     212.363 150.955 180.297  1.00  0.00    -0.028 C 
ATOM      8  C   UNL     1     212.983 151.841 179.482  1.00  0.00    -0.070 CG0
ATOM      9  C   UNL     1     213.661 151.305 178.245  1.00  0.00     0.039 C 
ATOM     10  G   UNL     1     212.973 153.339 179.701  1.00  0.00     0.000 G0
ENDBRANCH   6   7
ENDBRANCH   5   6
ENDBRANCH   3   5
ENDBRANCH   1   3
BRANCH   1  11
ATOM     11  C   UNL     1     213.007 154.711 182.559  1.00  0.00     0.087 C 
BRANCH  11  12
ATOM     12  C   UNL     1     214.058 154.976 181.458  1.00  0.00     0.066 C 
BRANCH  12  13
ATOM     13  C   UNL     1     214.152 153.795 180.508  1.00  0.00     0.140 C 
ATOM     14  O   UNL     1     215.214 153.202 180.377  1.00  0.00    -0.299 OA
BRANCH  13  15
ATOM     15  C   UNL     1     212.971 153.363 179.682  1.00  0.00     0.106 CG0
ATOM     16  G   UNL     1     212.990 151.860 179.497  1.00  0.00     0.000 G0
ENDBRANCH  13  15
ENDBRANCH  12  13
BRANCH  12  17
ATOM     17  C   UNL     1     213.820 156.329 180.721  1.00  0.00    -0.006 C 
ATOM     18  C   UNL     1     215.093 156.962 180.131  1.00  0.00     0.008 C 
ATOM     19  C   UNL     1     213.106 157.338 181.634  1.00  0.00     0.008 C 
ENDBRANCH  12  17
ENDBRANCH  11  12
ENDBRANCH   1  11
TORSDOF 1
ENDMDL
MODEL 4
REMARK VINA RESULT:    -3.822      2.005      3.235
REMARK INTER + INTRA:          -6.364
REMARK INTER:                  -6.325
REMARK INTRA:                  -0.038
REMARK UNBOUND:                -0.531
REMARK SMILES CC1=CCC[C@H](C)C(=O)C[C@H](C(C)C)C(=O)C1
REMARK SMILES IDX 8 1 9 2 6 3 7 4 5 5 4 6 3 7 2 8 1 9 10 11 11 12 15 13 16 14
REMARK SMILES IDX 17 15 12 17 13 18 14 19
REMARK H PARENT
REMARK Flexibility Score: 70.00
ROOT
ATOM      1  C   UNL     1     213.454 155.275 182.007  1.00  0.00     0.136 C 
ATOM      2  O   UNL     1     212.940 156.015 182.834  1.00  0.00    -0.299 OA
ENDROOT
BRANCH   1   3
ATOM      3  C   UNL     1     213.476 155.673 180.546  1.00  0.00     0.053 C 
ATOM      4  C   UNL     1     214.885 156.145 180.172  1.00  0.00     0.016 C 
BRANCH   3   5
ATOM      5  C   UNL     1     213.029 154.527 179.609  1.00  0.00     0.015 C 
BRANCH   5   6
ATOM      6  C   UNL     1     214.197 153.802 178.914  1.00  0.00     0.028 C 
BRANCH   6   7
ATOM      7  C   UNL     1     213.888 152.340 178.680  1.00  0.00    -0.028 C 
ATOM      8  C   UNL     1     213.994 151.340 179.587  1.00  0.00    -0.070 CG0
ATOM      9  C   UNL     1     213.598 149.951 179.153  1.00  0.00     0.039 C 
ATOM     10  G   UNL     1     214.554 151.523 180.982  1.00  0.00     0.000 G0
ENDBRANCH   6   7
ENDBRANCH   5   6
ENDBRANCH   3   5
ENDBRANCH   1   3
BRANCH   1  11
ATOM     11  C   UNL     1     214.038 153.956 182.452  1.00  0.00     0.087 C 
BRANCH  11  12
ATOM     12  C   UNL     1     212.956 152.862 182.598  1.00  0.00     0.066 C 
BRANCH  12  13
ATOM     13  C   UNL     1     213.433 151.550 182.003  1.00  0.00     0.140 C 
ATOM     14  O   UNL     1     212.928 150.497 182.364  1.00  0.00    -0.299 OA
BRANCH  13  15
ATOM     15  C   UNL     1     214.556 151.511 181.002  1.00  0.00     0.106 CG0
ATOM     16  G   UNL     1     214.000 151.346 179.603  1.00  0.00     0.000 G0
ENDBRANCH  13  15
ENDBRANCH  12  13
BRANCH  12  17
ATOM     17  C   UNL     1     212.454 152.715 184.067  1.00  0.00    -0.006 C 
ATOM     18  C   UNL     1     211.227 153.579 184.407  1.00  0.00     0.008 C 
ATOM     19  C   UNL     1     213.585 152.989 185.069  1.00  0.00     0.008 C 
ENDBRANCH  12  17
ENDBRANCH  11  12
ENDBRANCH   1  11
TORSDOF 1
ENDMDL
MODEL 5
REMARK VINA RESULT:    -3.767      2.497      4.490
REMARK INTER + INTRA:          -6.280
REMARK INTER:                  -6.334
REMARK INTRA:                   0.054
REMARK UNBOUND:                -0.531
REMARK SMILES CC1=CCC[C@H](C)C(=O)C[C@H](C(C)C)C(=O)C1
REMARK SMILES IDX 8 1 9 2 6 3 7 4 5 5 4 6 3 7 2 8 1 9 10 11 11 12 15 13 16 14
REMARK SMILES IDX 17 15 12 17 13 18 14 19
REMARK H PARENT
REMARK Flexibility Score: 70.00
ROOT
ATOM      1  C   UNL     1     212.832 153.384 181.699  1.00  0.00     0.136 C 
ATOM      2  O   UNL     1     213.572 154.350 181.575  1.00  0.00    -0.299 OA
ENDROOT
BRANCH   1   3
ATOM      3  C   UNL     1     211.928 153.275 182.908  1.00  0.00     0.053 C 
ATOM      4  C   UNL     1     210.680 152.467 182.533  1.00  0.00     0.016 C 
BRANCH   3   5
ATOM      5  C   UNL     1     212.634 152.635 184.125  1.00  0.00     0.015 C 
BRANCH   5   6
ATOM      6  C   UNL     1     212.923 151.130 183.956  1.00  0.00     0.028 C 
BRANCH   6   7
ATOM      7  C   UNL     1     214.408 150.848 183.905  1.00  0.00    -0.028 C 
ATOM      8  C   UNL     1     215.114 150.446 182.823  1.00  0.00    -0.070 CG0
ATOM      9  C   UNL     1     216.602 150.254 182.983  1.00  0.00     0.039 C 
ATOM     10  G   UNL     1     214.488 150.108 181.486  1.00  0.00     0.000 G0
ENDBRANCH   6   7
ENDBRANCH   5   6
ENDBRANCH   3   5
ENDBRANCH   1   3
BRANCH   1  11
ATOM     11  C   UNL     1     212.852 152.296 180.652  1.00  0.00     0.087 C 
BRANCH  11  12
ATOM     12  C   UNL     1     214.214 152.213 179.926  1.00  0.00     0.066 C 
BRANCH  12  13
ATOM     13  C   UNL     1     214.998 150.998 180.388  1.00  0.00     0.140 C 
ATOM     14  O   UNL     1     216.060 150.718 179.851  1.00  0.00    -0.299 OA
BRANCH  13  15
ATOM     15  C   UNL     1     214.470 150.095 181.470  1.00  0.00     0.106 CG0
ATOM     16  G   UNL     1     215.108 150.447 182.796  1.00  0.00     0.000 G0
ENDBRANCH  13  15
ENDBRANCH  12  13
BRANCH  12  17
ATOM     17  C   UNL     1     214.066 152.288 178.376  1.00  0.00    -0.006 C 
ATOM     18  C   UNL     1     213.237 153.483 177.874  1.00  0.00     0.008 C 
ATOM     19  C   UNL     1     213.496 150.978 177.811  1.00  0.00     0.008 C 
ENDBRANCH  12  17
ENDBRANCH  11  12
ENDBRANCH   1  11
TORSDOF 1
ENDMDL
MODEL 6
REMARK VINA RESULT:    -3.760      2.375      4.172
REMARK INTER + INTRA:          -6.269
REMARK INTER:                  -5.960
REMARK INTRA:                  -0.309
REMARK UNBOUND:                -0.531
REMARK SMILES CC1=CCC[C@H](C)C(=O)C[C@H](C(C)C)C(=O)C1
REMARK SMILES IDX 8 1 9 2 6 3 7 4 5 5 4 6 3 7 2 8 1 9 10 11 11 12 15 13 16 14
REMARK SMILES IDX 17 15 12 17 13 18 14 19
REMARK H PARENT
REMARK Flexibility Score: 70.00
ROOT
ATOM      1  C   UNL     1     212.844 151.991 180.196  1.00  0.00     0.136 C 
ATOM      2  O   UNL     1     212.277 151.783 179.132  1.00  0.00    -0.299 OA
ENDROOT
BRANCH   1   3
ATOM      3  C   UNL     1     214.230 152.600 180.208  1.00  0.00     0.053 C 
ATOM      4  C   UNL     1     215.105 151.884 179.174  1.00  0.00     0.016 C 
BRANCH   3   5
ATOM      5  C   UNL     1     214.214 154.122 179.935  1.00  0.00     0.015 C 
BRANCH   5   6
ATOM      6  C   UNL     1     214.497 154.980 181.184  1.00  0.00     0.028 C 
BRANCH   6   7
ATOM      7  C   UNL     1     213.256 155.703 181.657  1.00  0.00    -0.028 C 
ATOM      8  C   UNL     1     212.604 155.502 182.826  1.00  0.00    -0.070 CG0
ATOM      9  C   UNL     1     211.400 156.363 183.119  1.00  0.00     0.039 C 
ATOM     10  G   UNL     1     212.968 154.419 183.819  1.00  0.00     0.000 G0
ENDBRANCH   6   7
ENDBRANCH   5   6
ENDBRANCH   3   5
ENDBRANCH   1   3
BRANCH   1  11
ATOM     11  C   UNL     1     212.161 151.608 181.488  1.00  0.00     0.087 C 
BRANCH  11  12
ATOM     12  C   UNL     1     212.979 152.037 182.726  1.00  0.00     0.066 C 
BRANCH  12  13
ATOM     13  C   UNL     1     212.262 153.134 183.492  1.00  0.00     0.140 C 
ATOM     14  O   UNL     1     211.089 152.991 183.807  1.00  0.00    -0.299 OA
BRANCH  13  15
ATOM     15  C   UNL     1     212.954 154.425 183.837  1.00  0.00     0.106 CG0
ATOM     16  G   UNL     1     212.607 155.488 182.815  1.00  0.00     0.000 G0
ENDBRANCH  13  15
ENDBRANCH  12  13
BRANCH  12  17
ATOM     17  C   UNL     1     213.375 150.827 183.626  1.00  0.00    -0.006 C 
ATOM     18  C   UNL     1     213.767 151.208 185.064  1.00  0.00     0.008 C 
ATOM     19  C   UNL     1     214.494 149.999 182.977  1.00  0.00     0.008 C 
ENDBRANCH  12  17
ENDBRANCH  11  12
ENDBRANCH   1  11
TORSDOF 1
ENDMDL
MODEL 7
REMARK VINA RESULT:    -3.717      1.904      5.118
REMARK INTER + INTRA:          -6.204
REMARK INTER:                  -5.927
REMARK INTRA:                  -0.276
REMARK UNBOUND:                -0.531
REMARK SMILES CC1=CCC[C@H](C)C(=O)C[C@H](C(C)C)C(=O)C1
REMARK SMILES IDX 8 1 9 2 6 3 7 4 5 5 4 6 3 7 2 8 1 9 10 11 11 12 15 13 16 14
REMARK SMILES IDX 17 15 12 17 13 18 14 19
REMARK H PARENT
REMARK Flexibility Score: 70.00
ROOT
ATOM      1  C   UNL     1     213.374 153.908 178.473  1.00  0.00     0.136 C 
ATOM      2  O   UNL     1     212.473 154.623 178.055  1.00  0.00    -0.299 OA
ENDROOT
BRANCH   1   3
ATOM      3  C   UNL     1     213.605 152.545 177.856  1.00  0.00     0.053 C 
ATOM      4  C   UNL     1     215.063 152.130 178.081  1.00  0.00     0.016 C 
BRANCH   3   5
ATOM      5  C   UNL     1     212.649 151.466 178.418  1.00  0.00     0.015 C 
BRANCH   5   6
ATOM      6  C   UNL     1     213.099 150.881 179.770  1.00  0.00     0.028 C 
BRANCH   6   7
ATOM      7  C   UNL     1     212.145 151.251 180.884  1.00  0.00    -0.028 C 
ATOM      8  C   UNL     1     212.375 152.141 181.878  1.00  0.00    -0.070 CG0
ATOM      9  C   UNL     1     211.267 152.389 182.872  1.00  0.00     0.039 C 
ATOM     10  G   UNL     1     213.699 152.844 182.091  1.00  0.00     0.000 G0
ENDBRANCH   6   7
ENDBRANCH   5   6
ENDBRANCH   3   5
ENDBRANCH   1   3
BRANCH   1  11
ATOM     11  C   UNL     1     214.228 154.387 179.623  1.00  0.00     0.087 C 
BRANCH  11  12
ATOM     12  C   UNL     1     213.391 155.091 180.714  1.00  0.00     0.066 C 
BRANCH  12  13
ATOM     13  C   UNL     1     213.494 154.350 182.034  1.00  0.00     0.140 C 
ATOM     14  O   UNL     1     213.455 154.971 183.087  1.00  0.00    -0.299 OA
BRANCH  13  15
ATOM     15  C   UNL     1     213.692 152.859 182.078  1.00  0.00     0.106 CG0
ATOM     16  G   UNL     1     212.367 152.154 181.872  1.00  0.00     0.000 G0
ENDBRANCH  13  15
ENDBRANCH  12  13
BRANCH  12  17
ATOM     17  C   UNL     1     213.734 156.607 180.840  1.00  0.00    -0.006 C 
ATOM     18  C   UNL     1     212.692 157.547 180.209  1.00  0.00     0.008 C 
ATOM     19  C   UNL     1     215.128 156.908 180.270  1.00  0.00     0.008 C 
ENDBRANCH  12  17
ENDBRANCH  11  12
ENDBRANCH   1  11
TORSDOF 1
ENDMDL
MODEL 8
REMARK VINA RESULT:    -3.704      2.489      4.235
REMARK INTER + INTRA:          -6.184
REMARK INTER:                  -6.360
REMARK INTRA:                   0.175
REMARK UNBOUND:                -0.531
REMARK SMILES CC1=CCC[C@H](C)C(=O)C[C@H](C(C)C)C(=O)C1
REMARK SMILES IDX 8 1 9 2 6 3 7 4 5 5 4 6 3 7 2 8 1 9 10 11 11 12 15 13 16 14
REMARK SMILES IDX 17 15 12 17 13 18 14 19
REMARK H PARENT
REMARK Flexibility Score: 70.00
ROOT
ATOM      1  C   UNL     1     213.614 153.517 180.404  1.00  0.00     0.136 C 
ATOM      2  O   UNL     1     214.418 152.703 180.838  1.00  0.00    -0.299 OA
ENDROOT
BRANCH   1   3
ATOM      3  C   UNL     1     213.900 154.244 179.107  1.00  0.00     0.053 C 
ATOM      4  C   UNL     1     213.795 153.257 177.940  1.00  0.00     0.016 C 
BRANCH   3   5
ATOM      5  C   UNL     1     212.956 155.447 178.878  1.00  0.00     0.015 C 
BRANCH   5   6
ATOM      6  C   UNL     1     213.549 156.797 179.327  1.00  0.00     0.028 C 
BRANCH   6   7
ATOM      7  C   UNL     1     212.558 157.601 180.138  1.00  0.00    -0.028 C 
ATOM      8  C   UNL     1     212.437 157.607 181.486  1.00  0.00    -0.070 CG0
ATOM      9  C   UNL     1     211.399 158.516 182.097  1.00  0.00     0.039 C 
ATOM     10  G   UNL     1     213.231 156.705 182.407  1.00  0.00     0.000 G0
ENDBRANCH   6   7
ENDBRANCH   5   6
ENDBRANCH   3   5
ENDBRANCH   1   3
BRANCH   1  11
ATOM     11  C   UNL     1     212.355 153.805 181.186  1.00  0.00     0.087 C 
BRANCH  11  12
ATOM     12  C   UNL     1     212.653 154.142 182.663  1.00  0.00     0.066 C 
BRANCH  12  13
ATOM     13  C   UNL     1     212.351 155.601 182.955  1.00  0.00     0.140 C 
ATOM     14  O   UNL     1     211.361 155.900 183.608  1.00  0.00    -0.299 OA
BRANCH  13  15
ATOM     15  C   UNL     1     213.223 156.701 182.413  1.00  0.00     0.106 CG0
ATOM     16  G   UNL     1     212.422 157.589 181.484  1.00  0.00     0.000 G0
ENDBRANCH  13  15
ENDBRANCH  12  13
BRANCH  12  17
ATOM     17  C   UNL     1     211.944 153.167 183.651  1.00  0.00    -0.006 C 
ATOM     18  C   UNL     1     212.866 152.583 184.737  1.00  0.00     0.008 C 
ATOM     19  C   UNL     1     211.237 152.031 182.896  1.00  0.00     0.008 C 
ENDBRANCH  12  17
ENDBRANCH  11  12
ENDBRANCH   1  11
TORSDOF 1
ENDMDL
MODEL 9
REMARK VINA RESULT:    -3.650      2.503      3.949
REMARK INTER + INTRA:          -6.102
REMARK INTER:                  -5.882
REMARK INTRA:                  -0.221
REMARK UNBOUND:                -0.531
REMARK SMILES CC1=CCC[C@H](C)C(=O)C[C@H](C(C)C)C(=O)C1
REMARK SMILES IDX 8 1 9 2 6 3 7 4 5 5 4 6 3 7 2 8 1 9 10 11 11 12 15 13 16 14
REMARK SMILES IDX 17 15 12 17 13 18 14 19
REMARK H PARENT
REMARK Flexibility Score: 70.00
ROOT
ATOM      1  C   UNL     1     214.994 151.216 183.151  1.00  0.00     0.136 C 
ATOM      2  O   UNL     1     215.861 150.394 183.414  1.00  0.00    -0.299 OA
ENDROOT
BRANCH   1   3
ATOM      3  C   UNL     1     213.654 151.152 183.853  1.00  0.00     0.053 C 
ATOM      4  C   UNL     1     213.625 149.928 184.775  1.00  0.00     0.016 C 
BRANCH   3   5
ATOM      5  C   UNL     1     213.340 152.436 184.656  1.00  0.00     0.015 C 
BRANCH   5   6
ATOM      6  C   UNL     1     212.141 153.234 184.107  1.00  0.00     0.028 C 
BRANCH   6   7
ATOM      7  C   UNL     1     212.489 154.691 183.898  1.00  0.00    -0.028 C 
ATOM      8  C   UNL     1     212.603 155.328 182.709  1.00  0.00    -0.070 CG0
ATOM      9  C   UNL     1     212.924 156.802 182.727  1.00  0.00     0.039 C 
ATOM     10  G   UNL     1     212.499 154.634 181.367  1.00  0.00     0.000 G0
ENDBRANCH   6   7
ENDBRANCH   5   6
ENDBRANCH   3   5
ENDBRANCH   1   3
BRANCH   1  11
ATOM     11  C   UNL     1     215.264 152.270 182.104  1.00  0.00     0.087 C 
BRANCH  11  12
ATOM     12  C   UNL     1     214.039 152.512 181.194  1.00  0.00     0.066 C 
BRANCH  12  13
ATOM     13  C   UNL     1     213.810 153.998 180.983  1.00  0.00     0.140 C 
ATOM     14  O   UNL     1     214.712 154.697 180.541  1.00  0.00    -0.299 OA
BRANCH  13  15
ATOM     15  C   UNL     1     212.503 154.645 181.351  1.00  0.00     0.106 CG0
ATOM     16  G   UNL     1     212.623 155.330 182.696  1.00  0.00     0.000 G0
ENDBRANCH  13  15
ENDBRANCH  12  13
BRANCH  12  17
ATOM     17  C   UNL     1     214.124 151.715 179.857  1.00  0.00    -0.006 C 
ATOM     18  C   UNL     1     213.242 150.455 179.813  1.00  0.00     0.008 C 
ATOM     19  C   UNL     1     215.579 151.350 179.523  1.00  0.00     0.008 C 
ENDBRANCH  12  17
ENDBRANCH  11  12
ENDBRANCH   1  11
TORSDOF 1
ENDMDL
