MODEL 1
REMARK VINA RESULT:    -4.960      0.000      0.000
REMARK INTER + INTRA:          -5.954
REMARK INTER:                  -5.684
REMARK INTRA:                  -0.270
REMARK UNBOUND:                -0.270
REMARK SMILES COc1ccc(C=O)c(O)c1
REMARK SMILES IDX 3 1 11 2 9 3 6 4 5 5 4 6 2 7 1 8 10 9 7 11 8 12
REMARK H PARENT 10 10
REMARK Flexibility Score: inf
ROOT
ATOM      1  C   UNL     1       7.714  11.558   5.229  1.00  0.00     0.122 A 
ATOM      2  C   UNL     1       7.809  11.053   6.530  1.00  0.00     0.093 A 
ATOM      3  C   UNL     1       6.673  10.583   7.206  1.00  0.00     0.129 A 
ATOM      4  C   UNL     1       5.414  10.617   6.569  1.00  0.00     0.056 A 
ATOM      5  C   UNL     1       5.323  11.123   5.263  1.00  0.00     0.019 A 
ATOM      6  C   UNL     1       6.459  11.589   4.598  1.00  0.00     0.047 A 
ENDROOT
BRANCH   1   7
ATOM      7  O   UNL     1       8.884  12.013   4.603  1.00  0.00    -0.497 OA
ATOM      8  C   UNL     1       8.951  12.462   3.254  1.00  0.00     0.278 C 
ENDBRANCH   1   7
BRANCH   3   9
ATOM      9  O   UNL     1       6.802  10.087   8.503  1.00  0.00    -0.507 OA
ATOM     10  H   UNL     1       7.003   9.109   8.681  1.00  0.00     0.293 HD
ENDBRANCH   3   9
BRANCH   4  11
ATOM     11  C   UNL     1       4.180  10.137   7.227  1.00  0.00     0.263 C 
ATOM     12  O   UNL     1       4.143   9.041   7.848  1.00  0.00    -0.298 OA
ENDBRANCH   4  11
TORSDOF 3
ENDMDL
MODEL 2
REMARK VINA RESULT:    -4.750      2.688      5.447
REMARK INTER + INTRA:          -5.713
REMARK INTER:                  -5.450
REMARK INTRA:                  -0.263
REMARK UNBOUND:                -0.270
REMARK SMILES COc1ccc(C=O)c(O)c1
REMARK SMILES IDX 3 1 11 2 9 3 6 4 5 5 4 6 2 7 1 8 10 9 7 11 8 12
REMARK H PARENT 10 10
REMARK Flexibility Score: inf
ROOT
ATOM      1  C   UNL     1       2.779  11.319   8.736  1.00  0.00     0.122 A 
ATOM      2  C   UNL     1       3.308  10.247   8.012  1.00  0.00     0.093 A 
ATOM      3  C   UNL     1       4.689  10.143   7.783  1.00  0.00     0.129 A 
ATOM      4  C   UNL     1       5.560  11.132   8.291  1.00  0.00     0.056 A 
ATOM      5  C   UNL     1       5.024  12.205   9.017  1.00  0.00     0.019 A 
ATOM      6  C   UNL     1       3.648  12.301   9.239  1.00  0.00     0.047 A 
ENDROOT
BRANCH   1   7
ATOM      7  O   UNL     1       1.390  11.370   8.933  1.00  0.00    -0.497 OA
ATOM      8  C   UNL     1       0.709  12.440   9.578  1.00  0.00     0.278 C 
ENDBRANCH   1   7
BRANCH   3   9
ATOM      9  O   UNL     1       5.185   9.061   7.056  1.00  0.00    -0.507 OA
ATOM     10  H   UNL     1       4.902   8.888   6.099  1.00  0.00     0.293 HD
ENDBRANCH   3   9
BRANCH   4  11
ATOM     11  C   UNL     1       7.023  11.079   8.084  1.00  0.00     0.263 C 
ATOM     12  O   UNL     1       7.526  10.669   7.004  1.00  0.00    -0.298 OA
ENDBRANCH   4  11
TORSDOF 3
ENDMDL
MODEL 3
REMARK VINA RESULT:    -4.691      2.250      5.170
REMARK INTER + INTRA:          -5.646
REMARK INTER:                  -5.392
REMARK INTRA:                  -0.254
REMARK UNBOUND:                -0.270
REMARK SMILES COc1ccc(C=O)c(O)c1
REMARK SMILES IDX 3 1 11 2 9 3 6 4 5 5 4 6 2 7 1 8 10 9 7 11 8 12
REMARK H PARENT 10 10
REMARK Flexibility Score: inf
ROOT
ATOM      1  C   UNL     1       3.190  10.818   8.998  1.00  0.00     0.122 A 
ATOM      2  C   UNL     1       4.426  11.253   9.485  1.00  0.00     0.093 A 
ATOM      3  C   UNL     1       5.565  11.250   8.665  1.00  0.00     0.129 A 
ATOM      4  C   UNL     1       5.466  10.806   7.329  1.00  0.00     0.056 A 
ATOM      5  C   UNL     1       4.223  10.372   6.844  1.00  0.00     0.019 A 
ATOM      6  C   UNL     1       3.095  10.376   7.667  1.00  0.00     0.047 A 
ENDROOT
BRANCH   1   7
ATOM      7  O   UNL     1       2.086  10.843   9.864  1.00  0.00    -0.497 OA
ATOM      8  C   UNL     1       1.085  11.855   9.861  1.00  0.00     0.278 C 
ENDBRANCH   1   7
BRANCH   3   9
ATOM      9  O   UNL     1       6.784  11.690   9.182  1.00  0.00    -0.507 OA
ATOM     10  H   UNL     1       7.582  11.869   8.584  1.00  0.00     0.293 HD
ENDBRANCH   3   9
BRANCH   4  11
ATOM     11  C   UNL     1       6.629  10.779   6.415  1.00  0.00     0.263 C 
ATOM     12  O   UNL     1       7.788  10.503   6.825  1.00  0.00    -0.298 OA
ENDBRANCH   4  11
TORSDOF 3
ENDMDL
MODEL 4
REMARK VINA RESULT:    -4.627      2.305      3.848
REMARK INTER + INTRA:          -5.572
REMARK INTER:                  -5.313
REMARK INTRA:                  -0.260
REMARK UNBOUND:                -0.270
REMARK SMILES COc1ccc(C=O)c(O)c1
REMARK SMILES IDX 3 1 11 2 9 3 6 4 5 5 4 6 2 7 1 8 10 9 7 11 8 12
REMARK H PARENT 10 10
REMARK Flexibility Score: inf
ROOT
ATOM      1  C   UNL     1       5.545  10.636   7.270  1.00  0.00     0.122 A 
ATOM      2  C   UNL     1       4.285  10.285   6.777  1.00  0.00     0.093 A 
ATOM      3  C   UNL     1       3.126  10.518   7.533  1.00  0.00     0.129 A 
ATOM      4  C   UNL     1       3.228  11.117   8.808  1.00  0.00     0.056 A 
ATOM      5  C   UNL     1       4.495  11.468   9.297  1.00  0.00     0.019 A 
ATOM      6  C   UNL     1       5.644  11.231   8.538  1.00  0.00     0.047 A 
ENDROOT
BRANCH   1   7
ATOM      7  O   UNL     1       6.669  10.379   6.469  1.00  0.00    -0.497 OA
ATOM      8  C   UNL     1       7.964  10.919   6.704  1.00  0.00     0.278 C 
ENDBRANCH   1   7
BRANCH   3   9
ATOM      9  O   UNL     1       1.882  10.156   7.014  1.00  0.00    -0.507 OA
ATOM     10  H   UNL     1       1.735  10.041   6.018  1.00  0.00     0.293 HD
ENDBRANCH   3   9
BRANCH   4  11
ATOM     11  C   UNL     1       2.045  11.389   9.652  1.00  0.00     0.263 C 
ATOM     12  O   UNL     1       0.939  11.729   9.155  1.00  0.00    -0.298 OA
ENDBRANCH   4  11
TORSDOF 3
ENDMDL
MODEL 5
REMARK VINA RESULT:    -4.585      1.048      4.487
REMARK INTER + INTRA:          -5.524
REMARK INTER:                  -5.287
REMARK INTRA:                  -0.237
REMARK UNBOUND:                -0.270
REMARK SMILES COc1ccc(C=O)c(O)c1
REMARK SMILES IDX 3 1 11 2 9 3 6 4 5 5 4 6 2 7 1 8 10 9 7 11 8 12
REMARK H PARENT 10 10
REMARK Flexibility Score: inf
ROOT
ATOM      1  C   UNL     1       6.180  10.633   6.346  1.00  0.00     0.122 A 
ATOM      2  C   UNL     1       7.566  10.621   6.528  1.00  0.00     0.093 A 
ATOM      3  C   UNL     1       8.420  11.239   5.601  1.00  0.00     0.129 A 
ATOM      4  C   UNL     1       7.877  11.884   4.469  1.00  0.00     0.056 A 
ATOM      5  C   UNL     1       6.485  11.894   4.292  1.00  0.00     0.019 A 
ATOM      6  C   UNL     1       5.643  11.276   5.218  1.00  0.00     0.047 A 
ENDROOT
BRANCH   1   7
ATOM      7  O   UNL     1       5.376   9.999   7.305  1.00  0.00    -0.497 OA
ATOM      8  C   UNL     1       4.029  10.359   7.590  1.00  0.00     0.278 C 
ENDBRANCH   1   7
BRANCH   3   9
ATOM      9  O   UNL     1       9.799  11.208   5.812  1.00  0.00    -0.507 OA
ATOM     10  H   UNL     1      10.250  10.427   6.274  1.00  0.00     0.293 HD
ENDBRANCH   3   9
BRANCH   4  11
ATOM     11  C   UNL     1       8.723  12.553   3.458  1.00  0.00     0.263 C 
ATOM     12  O   UNL     1       9.876  12.979   3.734  1.00  0.00    -0.298 OA
ENDBRANCH   4  11
TORSDOF 3
ENDMDL
MODEL 6
REMARK VINA RESULT:    -4.534      1.090      1.995
REMARK INTER + INTRA:          -5.467
REMARK INTER:                  -5.195
REMARK INTRA:                  -0.271
REMARK UNBOUND:                -0.270
REMARK SMILES COc1ccc(C=O)c(O)c1
REMARK SMILES IDX 3 1 11 2 9 3 6 4 5 5 4 6 2 7 1 8 10 9 7 11 8 12
REMARK H PARENT 10 10
REMARK Flexibility Score: inf
ROOT
ATOM      1  C   UNL     1       7.940  11.721   5.695  1.00  0.00     0.122 A 
ATOM      2  C   UNL     1       6.669  11.384   5.219  1.00  0.00     0.093 A 
ATOM      3  C   UNL     1       5.722  10.779   6.060  1.00  0.00     0.129 A 
ATOM      4  C   UNL     1       6.050  10.506   7.405  1.00  0.00     0.056 A 
ATOM      5  C   UNL     1       7.327  10.847   7.879  1.00  0.00     0.019 A 
ATOM      6  C   UNL     1       8.264  11.448   7.035  1.00  0.00     0.047 A 
ENDROOT
BRANCH   1   7
ATOM      7  O   UNL     1       8.845  12.324   4.809  1.00  0.00    -0.497 OA
ATOM      8  C   UNL     1       8.719  12.301   3.392  1.00  0.00     0.278 C 
ENDBRANCH   1   7
BRANCH   3   9
ATOM      9  O   UNL     1       4.462  10.455   5.554  1.00  0.00    -0.507 OA
ATOM     10  H   UNL     1       4.082  10.918   4.736  1.00  0.00     0.293 HD
ENDBRANCH   3   9
BRANCH   4  11
ATOM     11  C   UNL     1       5.097   9.871   8.340  1.00  0.00     0.263 C 
ATOM     12  O   UNL     1       4.410   8.869   8.008  1.00  0.00    -0.298 OA
ENDBRANCH   4  11
TORSDOF 3
ENDMDL
MODEL 7
REMARK VINA RESULT:    -4.487      2.253      5.295
REMARK INTER + INTRA:          -5.413
REMARK INTER:                  -5.152
REMARK INTRA:                  -0.261
REMARK UNBOUND:                -0.270
REMARK SMILES COc1ccc(C=O)c(O)c1
REMARK SMILES IDX 3 1 11 2 9 3 6 4 5 5 4 6 2 7 1 8 10 9 7 11 8 12
REMARK H PARENT 10 10
REMARK Flexibility Score: inf
ROOT
ATOM      1  C   UNL     1       3.697  10.908   8.761  1.00  0.00     0.122 A 
ATOM      2  C   UNL     1       3.743  10.403   7.459  1.00  0.00     0.093 A 
ATOM      3  C   UNL     1       4.760  10.790   6.571  1.00  0.00     0.129 A 
ATOM      4  C   UNL     1       5.753  11.699   6.995  1.00  0.00     0.056 A 
ATOM      5  C   UNL     1       5.703  12.203   8.304  1.00  0.00     0.019 A 
ATOM      6  C   UNL     1       4.687  11.814   9.180  1.00  0.00     0.047 A 
ENDROOT
BRANCH   1   7
ATOM      7  O   UNL     1       2.658  10.486   9.604  1.00  0.00    -0.497 OA
ATOM      8  C   UNL     1       1.474  11.233   9.857  1.00  0.00     0.278 C 
ENDBRANCH   1   7
BRANCH   3   9
ATOM      9  O   UNL     1       4.777  10.268   5.278  1.00  0.00    -0.507 OA
ATOM     10  H   UNL     1       4.277  10.713   4.517  1.00  0.00     0.293 HD
ENDBRANCH   3   9
BRANCH   4  11
ATOM     11  C   UNL     1       6.849  12.145   6.109  1.00  0.00     0.263 C 
ATOM     12  O   UNL     1       6.626  12.586   4.950  1.00  0.00    -0.298 OA
ENDBRANCH   4  11
TORSDOF 3
ENDMDL
MODEL 8
REMARK VINA RESULT:    -4.369      1.899      2.406
REMARK INTER + INTRA:          -5.277
REMARK INTER:                  -5.030
REMARK INTRA:                  -0.248
REMARK UNBOUND:                -0.270
REMARK SMILES COc1ccc(C=O)c(O)c1
REMARK SMILES IDX 3 1 11 2 9 3 6 4 5 5 4 6 2 7 1 8 10 9 7 11 8 12
REMARK H PARENT 10 10
REMARK Flexibility Score: inf
ROOT
ATOM      1  C   UNL     1       6.505  12.225   6.582  1.00  0.00     0.122 A 
ATOM      2  C   UNL     1       6.100  10.888   6.531  1.00  0.00     0.093 A 
ATOM      3  C   UNL     1       5.308  10.335   7.548  1.00  0.00     0.129 A 
ATOM      4  C   UNL     1       4.909  11.137   8.641  1.00  0.00     0.056 A 
ATOM      5  C   UNL     1       5.317  12.478   8.687  1.00  0.00     0.019 A 
ATOM      6  C   UNL     1       6.106  13.020   7.670  1.00  0.00     0.047 A 
ENDROOT
BRANCH   1   7
ATOM      7  O   UNL     1       7.296  12.723   5.536  1.00  0.00    -0.497 OA
ATOM      8  C   UNL     1       8.192  11.935   4.760  1.00  0.00     0.278 C 
ENDBRANCH   1   7
BRANCH   3   9
ATOM      9  O   UNL     1       4.921   8.997   7.468  1.00  0.00    -0.507 OA
ATOM     10  H   UNL     1       3.977   8.730   7.213  1.00  0.00     0.293 HD
ENDBRANCH   3   9
BRANCH   4  11
ATOM     11  C   UNL     1       4.075  10.613   9.744  1.00  0.00     0.263 C 
ATOM     12  O   UNL     1       2.925  10.142   9.539  1.00  0.00    -0.298 OA
ENDBRANCH   4  11
TORSDOF 3
ENDMDL
MODEL 9
REMARK VINA RESULT:    -4.362      1.303      4.724
REMARK INTER + INTRA:          -5.269
REMARK INTER:                  -5.019
REMARK INTRA:                  -0.250
REMARK UNBOUND:                -0.270
REMARK SMILES COc1ccc(C=O)c(O)c1
REMARK SMILES IDX 3 1 11 2 9 3 6 4 5 5 4 6 2 7 1 8 10 9 7 11 8 12
REMARK H PARENT 10 10
REMARK Flexibility Score: inf
ROOT
ATOM      1  C   UNL     1       6.225  10.554   7.524  1.00  0.00     0.122 A 
ATOM      2  C   UNL     1       5.702  10.968   6.295  1.00  0.00     0.093 A 
ATOM      3  C   UNL     1       6.534  11.515   5.306  1.00  0.00     0.129 A 
ATOM      4  C   UNL     1       7.918  11.651   5.549  1.00  0.00     0.056 A 
ATOM      5  C   UNL     1       8.438  11.233   6.784  1.00  0.00     0.019 A 
ATOM      6  C   UNL     1       7.603  10.690   7.763  1.00  0.00     0.047 A 
ENDROOT
BRANCH   1   7
ATOM      7  O   UNL     1       5.346  10.013   8.474  1.00  0.00    -0.497 OA
ATOM      8  C   UNL     1       4.108   9.386   8.159  1.00  0.00     0.278 C 
ENDBRANCH   1   7
BRANCH   3   9
ATOM      9  O   UNL     1       5.981  11.919   4.090  1.00  0.00    -0.507 OA
ATOM     10  H   UNL     1       4.987  12.087   3.987  1.00  0.00     0.293 HD
ENDBRANCH   3   9
BRANCH   4  11
ATOM     11  C   UNL     1       8.846  12.220   4.548  1.00  0.00     0.263 C 
ATOM     12  O   UNL     1       8.634  12.112   3.311  1.00  0.00    -0.298 OA
ENDBRANCH   4  11
TORSDOF 3
ENDMDL
