MODEL 1
REMARK VINA RESULT:    -3.256      0.000      0.000
REMARK INTER + INTRA:          -4.516
REMARK INTER:                  -4.208
REMARK INTRA:                  -0.308
REMARK UNBOUND:                -0.308
REMARK SMILES CCCCCCC(=O)[O-]
REMARK SMILES IDX 5 1 6 2 7 3 8 4 9 5 4 6 3 7 2 8 1 9
REMARK H PARENT
REMARK Flexibility Score: inf
ROOT
ATOM      1  C   UNL     1      37.712  23.424  30.006  1.00  0.00     0.006 C 
ENDROOT
BRANCH   1   2
ATOM      2  C   UNL     1      37.953  22.442  28.852  1.00  0.00     0.053 C 
BRANCH   2   3
ATOM      3  C   UNL     1      38.946  22.973  27.864  1.00  0.00     0.041 C 
ATOM      4  O   UNL     1      39.988  22.320  27.599  1.00  0.00    -0.550 OA
ATOM      5  O   UNL     1      38.734  24.206  27.258  1.00  0.00    -0.550 OA
ENDBRANCH   2   3
ENDBRANCH   1   2
BRANCH   1   6
ATOM      6  C   UNL     1      38.977  23.643  30.856  1.00  0.00     0.000 C 
BRANCH   6   7
ATOM      7  C   UNL     1      39.013  22.743  32.102  1.00  0.00    -0.000 C 
BRANCH   7   8
ATOM      8  C   UNL     1      37.611  22.343  32.584  1.00  0.00    -0.003 C 
ATOM      9  C   UNL     1      37.508  20.833  32.780  1.00  0.00     0.004 C 
ENDBRANCH   7   8
ENDBRANCH   6   7
ENDBRANCH   1   6
TORSDOF 5
ENDMDL
MODEL 2
REMARK VINA RESULT:    -3.251     16.484     17.661
REMARK INTER + INTRA:          -4.510
REMARK INTER:                  -4.323
REMARK INTRA:                  -0.187
REMARK UNBOUND:                -0.308
REMARK SMILES CCCCCCC(=O)[O-]
REMARK SMILES IDX 5 1 6 2 7 3 8 4 9 5 4 6 3 7 2 8 1 9
REMARK H PARENT
REMARK Flexibility Score: inf
ROOT
ATOM      1  C   UNL     1      27.978  33.129  20.971  1.00  0.00     0.006 C 
ENDROOT
BRANCH   1   2
ATOM      2  C   UNL     1      27.109  34.254  20.395  1.00  0.00     0.053 C 
BRANCH   2   3
ATOM      3  C   UNL     1      25.898  33.720  19.691  1.00  0.00     0.041 C 
ATOM      4  O   UNL     1      25.572  34.169  18.562  1.00  0.00    -0.550 OA
ATOM      5  O   UNL     1      25.114  32.746  20.297  1.00  0.00    -0.550 OA
ENDBRANCH   2   3
ENDBRANCH   1   2
BRANCH   1   6
ATOM      6  C   UNL     1      28.272  33.332  22.468  1.00  0.00     0.000 C 
BRANCH   6   7
ATOM      7  C   UNL     1      29.347  32.367  22.994  1.00  0.00    -0.000 C 
BRANCH   7   8
ATOM      8  C   UNL     1      30.748  32.994  23.012  1.00  0.00    -0.003 C 
ATOM      9  C   UNL     1      30.691  34.451  23.465  1.00  0.00     0.004 C 
ENDBRANCH   7   8
ENDBRANCH   6   7
ENDBRANCH   1   6
TORSDOF 5
ENDMDL
MODEL 3
REMARK VINA RESULT:    -3.211     17.040     18.178
REMARK INTER + INTRA:          -4.458
REMARK INTER:                  -4.235
REMARK INTRA:                  -0.224
REMARK UNBOUND:                -0.308
REMARK SMILES CCCCCCC(=O)[O-]
REMARK SMILES IDX 5 1 6 2 7 3 8 4 9 5 4 6 3 7 2 8 1 9
REMARK H PARENT
REMARK Flexibility Score: inf
ROOT
ATOM      1  C   UNL     1      27.997  33.750  20.284  1.00  0.00     0.006 C 
ENDROOT
BRANCH   1   2
ATOM      2  C   UNL     1      26.493  33.837  20.575  1.00  0.00     0.053 C 
BRANCH   2   3
ATOM      3  C   UNL     1      25.671  33.505  19.367  1.00  0.00     0.041 C 
ATOM      4  O   UNL     1      25.071  32.401  19.292  1.00  0.00    -0.550 OA
ATOM      5  O   UNL     1      25.592  34.403  18.310  1.00  0.00    -0.550 OA
ENDBRANCH   2   3
ENDBRANCH   1   2
BRANCH   1   6
ATOM      6  C   UNL     1      28.727  32.823  21.272  1.00  0.00     0.000 C 
BRANCH   6   7
ATOM      7  C   UNL     1      28.322  33.081  22.732  1.00  0.00    -0.000 C 
BRANCH   7   8
ATOM      8  C   UNL     1      29.220  34.118  23.422  1.00  0.00    -0.003 C 
ATOM      9  C   UNL     1      28.403  35.044  24.318  1.00  0.00     0.004 C 
ENDBRANCH   7   8
ENDBRANCH   6   7
ENDBRANCH   1   6
TORSDOF 5
ENDMDL
MODEL 4
REMARK VINA RESULT:    -3.178     15.008     16.296
REMARK INTER + INTRA:          -4.415
REMARK INTER:                  -4.202
REMARK INTRA:                  -0.213
REMARK UNBOUND:                -0.308
REMARK SMILES CCCCCCC(=O)[O-]
REMARK SMILES IDX 5 1 6 2 7 3 8 4 9 5 4 6 3 7 2 8 1 9
REMARK H PARENT
REMARK Flexibility Score: inf
ROOT
ATOM      1  C   UNL     1      28.490  33.127  23.209  1.00  0.00     0.006 C 
ENDROOT
BRANCH   1   2
ATOM      2  C   UNL     1      28.188  34.121  22.080  1.00  0.00     0.053 C 
BRANCH   2   3
ATOM      3  C   UNL     1      27.919  33.425  20.781  1.00  0.00     0.041 C 
ATOM      4  O   UNL     1      28.870  33.142  20.006  1.00  0.00    -0.550 OA
ATOM      5  O   UNL     1      26.616  33.116  20.412  1.00  0.00    -0.550 OA
ENDBRANCH   2   3
ENDBRANCH   1   2
BRANCH   1   6
ATOM      6  C   UNL     1      29.917  32.558  23.114  1.00  0.00     0.000 C 
BRANCH   6   7
ATOM      7  C   UNL     1      30.991  33.657  23.103  1.00  0.00    -0.000 C 
BRANCH   7   8
ATOM      8  C   UNL     1      31.908  33.576  21.874  1.00  0.00    -0.003 C 
ATOM      9  C   UNL     1      33.224  32.883  22.217  1.00  0.00     0.004 C 
ENDBRANCH   7   8
ENDBRANCH   6   7
ENDBRANCH   1   6
TORSDOF 5
ENDMDL
MODEL 5
REMARK VINA RESULT:    -3.028      1.463      2.746
REMARK INTER + INTRA:          -4.222
REMARK INTER:                  -3.773
REMARK INTRA:                  -0.449
REMARK UNBOUND:                -0.308
REMARK SMILES CCCCCCC(=O)[O-]
REMARK SMILES IDX 5 1 6 2 7 3 8 4 9 5 4 6 3 7 2 8 1 9
REMARK H PARENT
REMARK Flexibility Score: inf
ROOT
ATOM      1  C   UNL     1      38.533  22.148  30.391  1.00  0.00     0.006 C 
ENDROOT
BRANCH   1   2
ATOM      2  C   UNL     1      37.969  22.144  28.964  1.00  0.00     0.053 C 
BRANCH   2   3
ATOM      3  C   UNL     1      38.998  22.560  27.957  1.00  0.00     0.041 C 
ATOM      4  O   UNL     1      40.084  21.930  27.864  1.00  0.00    -0.550 OA
ATOM      5  O   UNL     1      38.770  23.662  27.142  1.00  0.00    -0.550 OA
ENDBRANCH   2   3
ENDBRANCH   1   2
BRANCH   1   6
ATOM      6  C   UNL     1      38.829  23.572  30.895  1.00  0.00     0.000 C 
BRANCH   6   7
ATOM      7  C   UNL     1      40.244  23.708  31.480  1.00  0.00    -0.000 C 
BRANCH   7   8
ATOM      8  C   UNL     1      41.260  24.237  30.458  1.00  0.00    -0.003 C 
ATOM      9  C   UNL     1      40.649  25.341  29.599  1.00  0.00     0.004 C 
ENDBRANCH   7   8
ENDBRANCH   6   7
ENDBRANCH   1   6
TORSDOF 5
ENDMDL
MODEL 6
REMARK VINA RESULT:    -2.979      1.522      2.222
REMARK INTER + INTRA:          -4.159
REMARK INTER:                  -3.747
REMARK INTRA:                  -0.411
REMARK UNBOUND:                -0.308
REMARK SMILES CCCCCCC(=O)[O-]
REMARK SMILES IDX 5 1 6 2 7 3 8 4 9 5 4 6 3 7 2 8 1 9
REMARK H PARENT
REMARK Flexibility Score: inf
ROOT
ATOM      1  C   UNL     1      37.592  22.914  29.106  1.00  0.00     0.006 C 
ENDROOT
BRANCH   1   2
ATOM      2  C   UNL     1      38.725  22.974  28.073  1.00  0.00     0.053 C 
BRANCH   2   3
ATOM      3  C   UNL     1      39.699  21.848  28.247  1.00  0.00     0.041 C 
ATOM      4  O   UNL     1      39.412  20.872  28.988  1.00  0.00    -0.550 OA
ATOM      5  O   UNL     1      40.935  21.892  27.614  1.00  0.00    -0.550 OA
ENDBRANCH   2   3
ENDBRANCH   1   2
BRANCH   1   6
ATOM      6  C   UNL     1      37.918  23.726  30.372  1.00  0.00     0.000 C 
BRANCH   6   7
ATOM      7  C   UNL     1      38.057  22.841  31.621  1.00  0.00    -0.000 C 
BRANCH   7   8
ATOM      8  C   UNL     1      39.453  22.927  32.256  1.00  0.00    -0.003 C 
ATOM      9  C   UNL     1      40.395  23.765  31.396  1.00  0.00     0.004 C 
ENDBRANCH   7   8
ENDBRANCH   6   7
ENDBRANCH   1   6
TORSDOF 5
ENDMDL
MODEL 7
REMARK VINA RESULT:    -2.955     15.046     16.404
REMARK INTER + INTRA:          -4.128
REMARK INTER:                  -3.931
REMARK INTRA:                  -0.197
REMARK UNBOUND:                -0.308
REMARK SMILES CCCCCCC(=O)[O-]
REMARK SMILES IDX 5 1 6 2 7 3 8 4 9 5 4 6 3 7 2 8 1 9
REMARK H PARENT
REMARK Flexibility Score: inf
ROOT
ATOM      1  C   UNL     1      29.985  32.578  23.110  1.00  0.00     0.006 C 
ENDROOT
BRANCH   1   2
ATOM      2  C   UNL     1      31.060  33.671  23.052  1.00  0.00     0.053 C 
BRANCH   2   3
ATOM      3  C   UNL     1      32.035  33.437  21.938  1.00  0.00     0.041 C 
ATOM      4  O   UNL     1      31.745  33.775  20.761  1.00  0.00    -0.550 OA
ATOM      5  O   UNL     1      33.252  32.818  22.196  1.00  0.00    -0.550 OA
ENDBRANCH   2   3
ENDBRANCH   1   2
BRANCH   1   6
ATOM      6  C   UNL     1      28.564  33.154  22.972  1.00  0.00     0.000 C 
BRANCH   6   7
ATOM      7  C   UNL     1      28.100  33.233  21.509  1.00  0.00    -0.000 C 
BRANCH   7   8
ATOM      8  C   UNL     1      27.538  34.614  21.139  1.00  0.00    -0.003 C 
ATOM      9  C   UNL     1      26.408  34.492  20.121  1.00  0.00     0.004 C 
ENDBRANCH   7   8
ENDBRANCH   6   7
ENDBRANCH   1   6
TORSDOF 5
ENDMDL
MODEL 8
REMARK VINA RESULT:    -2.954      9.885     11.025
REMARK INTER + INTRA:          -4.126
REMARK INTER:                  -3.729
REMARK INTRA:                  -0.397
REMARK UNBOUND:                -0.308
REMARK SMILES CCCCCCC(=O)[O-]
REMARK SMILES IDX 5 1 6 2 7 3 8 4 9 5 4 6 3 7 2 8 1 9
REMARK H PARENT
REMARK Flexibility Score: inf
ROOT
ATOM      1  C   UNL     1      38.539  34.411  31.320  1.00  0.00     0.006 C 
ENDROOT
BRANCH   1   2
ATOM      2  C   UNL     1      37.930  34.328  32.726  1.00  0.00     0.053 C 
BRANCH   2   3
ATOM      3  C   UNL     1      36.741  33.417  32.766  1.00  0.00     0.041 C 
ATOM      4  O   UNL     1      36.897  32.176  32.902  1.00  0.00    -0.550 OA
ATOM      5  O   UNL     1      35.460  33.937  32.623  1.00  0.00    -0.550 OA
ENDBRANCH   2   3
ENDBRANCH   1   2
BRANCH   1   6
ATOM      6  C   UNL     1      39.880  33.662  31.224  1.00  0.00     0.000 C 
BRANCH   6   7
ATOM      7  C   UNL     1      39.711  32.208  30.753  1.00  0.00    -0.000 C 
BRANCH   7   8
ATOM      8  C   UNL     1      40.484  31.209  31.626  1.00  0.00    -0.003 C 
ATOM      9  C   UNL     1      40.526  31.670  33.081  1.00  0.00     0.004 C 
ENDBRANCH   7   8
ENDBRANCH   6   7
ENDBRANCH   1   6
TORSDOF 5
ENDMDL
