MODEL 1
REMARK VINA RESULT:    -2.985      0.000      0.000
REMARK INTER + INTRA:          -3.624
REMARK INTER:                  -3.509
REMARK INTRA:                  -0.115
REMARK UNBOUND:                -0.115
REMARK SMILES O=C([O-])CCC(=O)[O-]
REMARK SMILES IDX 4 1 2 2 1 3 3 4 5 5 6 6 7 7 8 8
REMARK H PARENT
REMARK Flexibility Score: inf
ROOT
ATOM      1  C   UNL     1     112.326 106.852 124.307  1.00  0.00     0.059 C 
ENDROOT
BRANCH   1   2
ATOM      2  C   UNL     1     110.907 107.309 124.153  1.00  0.00     0.042 C 
ATOM      3  O   UNL     1     110.654 108.464 123.720  1.00  0.00    -0.550 OA
ATOM      4  O   UNL     1     109.863 106.442 124.450  1.00  0.00    -0.550 OA
ENDBRANCH   1   2
BRANCH   1   5
ATOM      5  C   UNL     1     113.291 107.734 123.508  1.00  0.00     0.059 C 
BRANCH   5   6
ATOM      6  C   UNL     1     113.700 107.082 122.223  1.00  0.00     0.042 C 
ATOM      7  O   UNL     1     114.821 106.517 122.129  1.00  0.00    -0.550 OA
ATOM      8  O   UNL     1     112.861 107.134 121.117  1.00  0.00    -0.550 OA
ENDBRANCH   5   6
ENDBRANCH   1   5
TORSDOF 3
ENDMDL
MODEL 2
REMARK VINA RESULT:    -2.978      0.148      3.765
REMARK INTER + INTRA:          -3.616
REMARK INTER:                  -3.498
REMARK INTRA:                  -0.118
REMARK UNBOUND:                -0.115
REMARK SMILES O=C([O-])CCC(=O)[O-]
REMARK SMILES IDX 4 1 2 2 1 3 3 4 5 5 6 6 7 7 8 8
REMARK H PARENT
REMARK Flexibility Score: inf
ROOT
ATOM      1  C   UNL     1     113.191 107.717 123.567  1.00  0.00     0.059 C 
ENDROOT
BRANCH   1   2
ATOM      2  C   UNL     1     113.560 107.112 122.247  1.00  0.00     0.042 C 
ATOM      3  O   UNL     1     112.823 107.287 121.240  1.00  0.00    -0.550 OA
ATOM      4  O   UNL     1     114.739 106.390 122.119  1.00  0.00    -0.550 OA
ENDBRANCH   1   2
BRANCH   1   5
ATOM      5  C   UNL     1     112.201 106.836 124.334  1.00  0.00     0.059 C 
BRANCH   5   6
ATOM      6  C   UNL     1     110.790 107.303 124.154  1.00  0.00     0.042 C 
ATOM      7  O   UNL     1     109.830 106.514 124.360  1.00  0.00    -0.550 OA
ATOM      8  O   UNL     1     110.534 108.598 123.721  1.00  0.00    -0.550 OA
ENDBRANCH   5   6
ENDBRANCH   1   5
TORSDOF 3
ENDMDL
MODEL 3
REMARK VINA RESULT:    -2.942      2.833      3.908
REMARK INTER + INTRA:          -3.574
REMARK INTER:                  -3.492
REMARK INTRA:                  -0.082
REMARK UNBOUND:                -0.115
REMARK SMILES O=C([O-])CCC(=O)[O-]
REMARK SMILES IDX 4 1 2 2 1 3 3 4 5 5 6 6 7 7 8 8
REMARK H PARENT
REMARK Flexibility Score: inf
ROOT
ATOM      1  C   UNL     1     113.027 107.797 121.226  1.00  0.00     0.059 C 
ENDROOT
BRANCH   1   2
ATOM      2  C   UNL     1     114.006 107.108 122.127  1.00  0.00     0.042 C 
ATOM      3  O   UNL     1     114.644 106.101 121.720  1.00  0.00    -0.550 OA
ATOM      4  O   UNL     1     114.244 107.604 123.402  1.00  0.00    -0.550 OA
ENDBRANCH   1   2
BRANCH   1   5
ATOM      5  C   UNL     1     112.021 106.809 120.626  1.00  0.00     0.059 C 
BRANCH   5   6
ATOM      6  C   UNL     1     112.239 106.621 119.157  1.00  0.00     0.042 C 
ATOM      7  O   UNL     1     112.269 105.463 118.664  1.00  0.00    -0.550 OA
ATOM      8  O   UNL     1     112.448 107.723 118.336  1.00  0.00    -0.550 OA
ENDBRANCH   5   6
ENDBRANCH   1   5
TORSDOF 3
ENDMDL
MODEL 4
REMARK VINA RESULT:    -2.921      2.788      4.131
REMARK INTER + INTRA:          -3.549
REMARK INTER:                  -3.466
REMARK INTRA:                  -0.083
REMARK UNBOUND:                -0.115
REMARK SMILES O=C([O-])CCC(=O)[O-]
REMARK SMILES IDX 4 1 2 2 1 3 3 4 5 5 6 6 7 7 8 8
REMARK H PARENT
REMARK Flexibility Score: inf
ROOT
ATOM      1  C   UNL     1     112.013 106.864 120.637  1.00  0.00     0.059 C 
ENDROOT
BRANCH   1   2
ATOM      2  C   UNL     1     112.341 106.666 119.188  1.00  0.00     0.042 C 
ATOM      3  O   UNL     1     112.499 105.505 118.725  1.00  0.00    -0.550 OA
ATOM      4  O   UNL     1     112.432 107.762 118.341  1.00  0.00    -0.550 OA
ENDBRANCH   1   2
BRANCH   1   5
ATOM      5  C   UNL     1     112.939 107.895 121.289  1.00  0.00     0.059 C 
BRANCH   5   6
ATOM      6  C   UNL     1     113.944 107.244 122.188  1.00  0.00     0.042 C 
ATOM      7  O   UNL     1     114.188 107.731 123.323  1.00  0.00    -0.550 OA
ATOM      8  O   UNL     1     114.642 106.122 121.758  1.00  0.00    -0.550 OA
ENDBRANCH   5   6
ENDBRANCH   1   5
TORSDOF 3
ENDMDL
MODEL 5
REMARK VINA RESULT:    -2.921      2.835      3.956
REMARK INTER + INTRA:          -3.548
REMARK INTER:                  -3.465
REMARK INTRA:                  -0.084
REMARK UNBOUND:                -0.115
REMARK SMILES O=C([O-])CCC(=O)[O-]
REMARK SMILES IDX 4 1 2 2 1 3 3 4 5 5 6 6 7 7 8 8
REMARK H PARENT
REMARK Flexibility Score: inf
ROOT
ATOM      1  C   UNL     1     112.056 106.940 120.667  1.00  0.00     0.059 C 
ENDROOT
BRANCH   1   2
ATOM      2  C   UNL     1     112.263 106.685 119.205  1.00  0.00     0.042 C 
ATOM      3  O   UNL     1     112.416 107.647 118.408  1.00  0.00    -0.550 OA
ATOM      4  O   UNL     1     112.328 105.381 118.731  1.00  0.00    -0.550 OA
ENDBRANCH   1   2
BRANCH   1   5
ATOM      5  C   UNL     1     113.132 107.873 121.234  1.00  0.00     0.059 C 
BRANCH   5   6
ATOM      6  C   UNL     1     114.060 107.148 122.159  1.00  0.00     0.042 C 
ATOM      7  O   UNL     1     114.657 106.109 121.772  1.00  0.00    -0.550 OA
ATOM      8  O   UNL     1     114.236 107.596 123.463  1.00  0.00    -0.550 OA
ENDBRANCH   5   6
ENDBRANCH   1   5
TORSDOF 3
ENDMDL
MODEL 6
REMARK VINA RESULT:    -2.900      2.053      3.975
REMARK INTER + INTRA:          -3.524
REMARK INTER:                  -3.410
REMARK INTRA:                  -0.114
REMARK UNBOUND:                -0.115
REMARK SMILES O=C([O-])CCC(=O)[O-]
REMARK SMILES IDX 4 1 2 2 1 3 3 4 5 5 6 6 7 7 8 8
REMARK H PARENT
REMARK Flexibility Score: inf
ROOT
ATOM      1  C   UNL     1     113.143 106.907 121.046  1.00  0.00     0.059 C 
ENDROOT
BRANCH   1   2
ATOM      2  C   UNL     1     112.323 106.638 119.821  1.00  0.00     0.042 C 
ATOM      3  O   UNL     1     111.311 107.344 119.567  1.00  0.00    -0.550 OA
ATOM      4  O   UNL     1     112.701 105.635 118.939  1.00  0.00    -0.550 OA
ENDBRANCH   1   2
BRANCH   1   5
ATOM      5  C   UNL     1     112.444 107.892 121.988  1.00  0.00     0.059 C 
BRANCH   5   6
ATOM      6  C   UNL     1     111.867 107.199 123.183  1.00  0.00     0.042 C 
ATOM      7  O   UNL     1     110.721 106.681 123.123  1.00  0.00    -0.550 OA
ATOM      8  O   UNL     1     112.577 107.160 124.377  1.00  0.00    -0.550 OA
ENDBRANCH   5   6
ENDBRANCH   1   5
TORSDOF 3
ENDMDL
MODEL 7
REMARK VINA RESULT:    -2.893      3.709      4.970
REMARK INTER + INTRA:          -3.516
REMARK INTER:                  -3.337
REMARK INTRA:                  -0.179
REMARK UNBOUND:                -0.115
REMARK SMILES O=C([O-])CCC(=O)[O-]
REMARK SMILES IDX 4 1 2 2 1 3 3 4 5 5 6 6 7 7 8 8
REMARK H PARENT
REMARK Flexibility Score: inf
ROOT
ATOM      1  C   UNL     1     112.684 107.982 120.051  1.00  0.00     0.059 C 
ENDROOT
BRANCH   1   2
ATOM      2  C   UNL     1     112.168 106.584 119.890  1.00  0.00     0.042 C 
ATOM      3  O   UNL     1     111.165 106.198 120.546  1.00  0.00    -0.550 OA
ATOM      4  O   UNL     1     112.772 105.722 118.985  1.00  0.00    -0.550 OA
ENDBRANCH   1   2
BRANCH   1   5
ATOM      5  C   UNL     1     111.679 109.017 119.534  1.00  0.00     0.059 C 
BRANCH   5   6
ATOM      6  C   UNL     1     111.464 108.890 118.058  1.00  0.00     0.042 C 
ATOM      7  O   UNL     1     112.438 108.980 117.266  1.00  0.00    -0.550 OA
ATOM      8  O   UNL     1     110.182 108.713 117.553  1.00  0.00    -0.550 OA
ENDBRANCH   5   6
ENDBRANCH   1   5
TORSDOF 3
ENDMDL
MODEL 8
REMARK VINA RESULT:    -2.891      2.070      2.708
REMARK INTER + INTRA:          -3.513
REMARK INTER:                  -3.412
REMARK INTRA:                  -0.101
REMARK UNBOUND:                -0.115
REMARK SMILES O=C([O-])CCC(=O)[O-]
REMARK SMILES IDX 4 1 2 2 1 3 3 4 5 5 6 6 7 7 8 8
REMARK H PARENT
REMARK Flexibility Score: inf
ROOT
ATOM      1  C   UNL     1     112.379 107.890 121.930  1.00  0.00     0.059 C 
ENDROOT
BRANCH   1   2
ATOM      2  C   UNL     1     111.846 107.173 123.133  1.00  0.00     0.042 C 
ATOM      3  O   UNL     1     112.516 107.136 124.198  1.00  0.00    -0.550 OA
ATOM      4  O   UNL     1     110.590 106.583 123.089  1.00  0.00    -0.550 OA
ENDBRANCH   1   2
BRANCH   1   5
ATOM      5  C   UNL     1     113.137 106.939 120.998  1.00  0.00     0.059 C 
BRANCH   5   6
ATOM      6  C   UNL     1     112.373 106.674 119.738  1.00  0.00     0.042 C 
ATOM      7  O   UNL     1     111.356 107.361 119.457  1.00  0.00    -0.550 OA
ATOM      8  O   UNL     1     112.759 105.640 118.893  1.00  0.00    -0.550 OA
ENDBRANCH   5   6
ENDBRANCH   1   5
TORSDOF 3
ENDMDL
MODEL 9
REMARK VINA RESULT:    -2.770      2.100      2.780
REMARK INTER + INTRA:          -3.371
REMARK INTER:                  -3.330
REMARK INTRA:                  -0.041
REMARK UNBOUND:                -0.115
REMARK SMILES O=C([O-])CCC(=O)[O-]
REMARK SMILES IDX 4 1 2 2 1 3 3 4 5 5 6 6 7 7 8 8
REMARK H PARENT
REMARK Flexibility Score: inf
ROOT
ATOM      1  C   UNL     1     113.455 107.309 122.143  1.00  0.00     0.059 C 
ENDROOT
BRANCH   1   2
ATOM      2  C   UNL     1     113.342 107.555 123.617  1.00  0.00     0.042 C 
ATOM      3  O   UNL     1     114.076 108.412 124.176  1.00  0.00    -0.550 OA
ATOM      4  O   UNL     1     112.396 106.866 124.365  1.00  0.00    -0.550 OA
ENDBRANCH   1   2
BRANCH   1   5
ATOM      5  C   UNL     1     112.320 107.988 121.370  1.00  0.00     0.059 C 
BRANCH   5   6
ATOM      6  C   UNL     1     111.994 107.252 120.106  1.00  0.00     0.042 C 
ATOM      7  O   UNL     1     112.468 106.104 119.902  1.00  0.00    -0.550 OA
ATOM      8  O   UNL     1     111.200 107.850 119.136  1.00  0.00    -0.550 OA
ENDBRANCH   5   6
ENDBRANCH   1   5
TORSDOF 3
ENDMDL
