MODEL 1
REMARK VINA RESULT:    -3.837      0.000      0.000
REMARK INTER + INTRA:          -9.513
REMARK INTER:                  -7.202
REMARK INTRA:                  -2.311
REMARK UNBOUND:                -2.311
REMARK SMILES CCCCCCCCC=CCCCCCCCC(=O)[O-]
REMARK SMILES IDX 10 1 9 2 11 3 12 4 13 5 14 6 15 7 16 8 17 9 18 10 19 11
REMARK SMILES IDX 20 12 8 13 7 14 6 15 5 16 4 17 3 18 2 19 1 20
REMARK H PARENT
REMARK Flexibility Score: inf
ROOT
ATOM      1  C   UNL     1     148.193  -4.918   9.162  1.00  0.00    -0.031 C 
ATOM      2  C   UNL     1     149.195  -4.886   8.271  1.00  0.00    -0.031 C 
ENDROOT
BRANCH   1   3
ATOM      3  C   UNL     1     148.206  -4.055  10.395  1.00  0.00     0.027 C 
BRANCH   3   4
ATOM      4  C   UNL     1     149.347  -3.026  10.378  1.00  0.00     0.004 C 
BRANCH   4   5
ATOM      5  C   UNL     1     148.835  -1.601  10.101  1.00  0.00     0.000 C 
BRANCH   5   6
ATOM      6  C   UNL     1     149.142  -1.131   8.670  1.00  0.00     0.000 C 
BRANCH   6   7
ATOM      7  C   UNL     1     147.902  -0.584   7.948  1.00  0.00     0.000 C 
BRANCH   7   8
ATOM      8  C   UNL     1     146.667  -1.446   8.248  1.00  0.00     0.006 C 
BRANCH   8   9
ATOM      9  C   UNL     1     145.732  -1.565   7.038  1.00  0.00     0.053 C 
BRANCH   9  10
ATOM     10  C   UNL     1     144.292  -1.606   7.448  1.00  0.00     0.041 C 
ATOM     11  O   UNL     1     143.771  -0.621   8.033  1.00  0.00    -0.550 OA
ATOM     12  O   UNL     1     143.515  -2.720   7.153  1.00  0.00    -0.550 OA
ENDBRANCH   9  10
ENDBRANCH   8   9
ENDBRANCH   7   8
ENDBRANCH   6   7
ENDBRANCH   5   6
ENDBRANCH   4   5
ENDBRANCH   3   4
ENDBRANCH   1   3
BRANCH   2  13
ATOM     13  C   UNL     1     149.164  -5.715   7.015  1.00  0.00     0.027 C 
BRANCH  13  14
ATOM     14  C   UNL     1     149.890  -5.016   5.859  1.00  0.00     0.004 C 
BRANCH  14  15
ATOM     15  C   UNL     1     150.921  -3.988   6.361  1.00  0.00     0.000 C 
BRANCH  15  16
ATOM     16  C   UNL     1     150.782  -2.625   5.665  1.00  0.00     0.000 C 
BRANCH  16  17
ATOM     17  C   UNL     1     149.360  -2.375   5.131  1.00  0.00    -0.000 C 
BRANCH  17  18
ATOM     18  C   UNL     1     149.277  -1.144   4.211  1.00  0.00    -0.000 C 
BRANCH  18  19
ATOM     19  C   UNL     1     150.498  -0.942   3.295  1.00  0.00    -0.003 C 
ATOM     20  C   UNL     1     150.143  -0.273   1.966  1.00  0.00     0.004 C 
ENDBRANCH  18  19
ENDBRANCH  17  18
ENDBRANCH  16  17
ENDBRANCH  15  16
ENDBRANCH  14  15
ENDBRANCH  13  14
ENDBRANCH   2  13
TORSDOF 15
ENDMDL
MODEL 2
REMARK VINA RESULT:    -3.738      1.348      1.928
REMARK INTER + INTRA:          -9.326
REMARK INTER:                  -6.651
REMARK INTRA:                  -2.675
REMARK UNBOUND:                -2.311
REMARK SMILES CCCCCCCCC=CCCCCCCCC(=O)[O-]
REMARK SMILES IDX 10 1 9 2 11 3 12 4 13 5 14 6 15 7 16 8 17 9 18 10 19 11
REMARK SMILES IDX 20 12 8 13 7 14 6 15 5 16 4 17 3 18 2 19 1 20
REMARK H PARENT
REMARK Flexibility Score: inf
ROOT
ATOM      1  C   UNL     1     149.589  -4.942   7.861  1.00  0.00    -0.031 C 
ATOM      2  C   UNL     1     149.703  -4.800   6.532  1.00  0.00    -0.031 C 
ENDROOT
BRANCH   1   3
ATOM      3  C   UNL     1     148.272  -4.750   8.565  1.00  0.00     0.027 C 
BRANCH   3   4
ATOM      4  C   UNL     1     148.331  -3.636   9.621  1.00  0.00     0.004 C 
BRANCH   4   5
ATOM      5  C   UNL     1     149.029  -2.371   9.088  1.00  0.00     0.000 C 
BRANCH   5   6
ATOM      6  C   UNL     1     148.036  -1.246   8.752  1.00  0.00     0.000 C 
BRANCH   6   7
ATOM      7  C   UNL     1     147.534  -1.313   7.302  1.00  0.00     0.000 C 
BRANCH   7   8
ATOM      8  C   UNL     1     146.000  -1.375   7.254  1.00  0.00     0.006 C 
BRANCH   8   9
ATOM      9  C   UNL     1     145.375  -1.392   8.655  1.00  0.00     0.053 C 
BRANCH   9  10
ATOM     10  C   UNL     1     144.336  -2.463   8.788  1.00  0.00     0.041 C 
ATOM     11  O   UNL     1     144.209  -3.091   9.872  1.00  0.00    -0.550 OA
ATOM     12  O   UNL     1     143.486  -2.745   7.727  1.00  0.00    -0.550 OA
ENDBRANCH   9  10
ENDBRANCH   8   9
ENDBRANCH   7   8
ENDBRANCH   6   7
ENDBRANCH   5   6
ENDBRANCH   4   5
ENDBRANCH   3   4
ENDBRANCH   1   3
BRANCH   2  13
ATOM     13  C   UNL     1     151.008  -5.035   5.820  1.00  0.00     0.027 C 
BRANCH  13  14
ATOM     14  C   UNL     1     152.200  -4.531   6.646  1.00  0.00     0.004 C 
BRANCH  14  15
ATOM     15  C   UNL     1     152.684  -3.148   6.176  1.00  0.00     0.000 C 
BRANCH  15  16
ATOM     16  C   UNL     1     152.113  -2.002   7.027  1.00  0.00     0.000 C 
BRANCH  16  17
ATOM     17  C   UNL     1     151.047  -1.183   6.277  1.00  0.00    -0.000 C 
BRANCH  17  18
ATOM     18  C   UNL     1     151.090  -1.400   4.754  1.00  0.00    -0.000 C 
BRANCH  18  19
ATOM     19  C   UNL     1     149.745  -1.192   4.036  1.00  0.00    -0.003 C 
ATOM     20  C   UNL     1     148.810  -2.395   4.159  1.00  0.00     0.004 C 
ENDBRANCH  18  19
ENDBRANCH  17  18
ENDBRANCH  16  17
ENDBRANCH  15  16
ENDBRANCH  14  15
ENDBRANCH  13  14
ENDBRANCH   2  13
TORSDOF 15
ENDMDL
MODEL 3
REMARK VINA RESULT:    -3.737      1.466      2.181
REMARK INTER + INTRA:          -9.325
REMARK INTER:                  -6.752
REMARK INTRA:                  -2.573
REMARK UNBOUND:                -2.311
REMARK SMILES CCCCCCCCC=CCCCCCCCC(=O)[O-]
REMARK SMILES IDX 10 1 9 2 11 3 12 4 13 5 14 6 15 7 16 8 17 9 18 10 19 11
REMARK SMILES IDX 20 12 8 13 7 14 6 15 5 16 4 17 3 18 2 19 1 20
REMARK H PARENT
REMARK Flexibility Score: inf
ROOT
ATOM      1  C   UNL     1     149.495  -3.477   8.844  1.00  0.00    -0.031 C 
ATOM      2  C   UNL     1     148.943  -3.946   7.715  1.00  0.00    -0.031 C 
ENDROOT
BRANCH   1   3
ATOM      3  C   UNL     1     148.944  -2.266   9.548  1.00  0.00     0.027 C 
BRANCH   3   4
ATOM      4  C   UNL     1     149.294  -0.957   8.823  1.00  0.00     0.004 C 
BRANCH   4   5
ATOM      5  C   UNL     1     148.063  -0.050   8.644  1.00  0.00     0.000 C 
BRANCH   5   6
ATOM      6  C   UNL     1     146.749  -0.844   8.571  1.00  0.00     0.000 C 
BRANCH   6   7
ATOM      7  C   UNL     1     146.407  -1.292   7.142  1.00  0.00     0.000 C 
BRANCH   7   8
ATOM      8  C   UNL     1     144.892  -1.478   6.973  1.00  0.00     0.006 C 
BRANCH   8   9
ATOM      9  C   UNL     1     144.145  -1.414   8.312  1.00  0.00     0.053 C 
BRANCH   9  10
ATOM     10  C   UNL     1     143.436  -2.698   8.615  1.00  0.00     0.041 C 
ATOM     11  O   UNL     1     143.463  -3.177   9.779  1.00  0.00    -0.550 OA
ATOM     12  O   UNL     1     142.715  -3.348   7.621  1.00  0.00    -0.550 OA
ENDBRANCH   9  10
ENDBRANCH   8   9
ENDBRANCH   7   8
ENDBRANCH   6   7
ENDBRANCH   5   6
ENDBRANCH   4   5
ENDBRANCH   3   4
ENDBRANCH   1   3
BRANCH   2  13
ATOM     13  C   UNL     1     149.466  -5.181   7.033  1.00  0.00     0.027 C 
BRANCH  13  14
ATOM     14  C   UNL     1     150.367  -4.830   5.841  1.00  0.00     0.004 C 
BRANCH  14  15
ATOM     15  C   UNL     1     151.855  -4.796   6.232  1.00  0.00     0.000 C 
BRANCH  15  16
ATOM     16  C   UNL     1     152.545  -3.489   5.811  1.00  0.00     0.000 C 
BRANCH  16  17
ATOM     17  C   UNL     1     152.331  -2.353   6.826  1.00  0.00    -0.000 C 
BRANCH  17  18
ATOM     18  C   UNL     1     151.692  -1.103   6.195  1.00  0.00    -0.000 C 
BRANCH  18  19
ATOM     19  C   UNL     1     150.962  -1.356   4.863  1.00  0.00    -0.003 C 
ATOM     20  C   UNL     1     149.440  -1.367   5.009  1.00  0.00     0.004 C 
ENDBRANCH  18  19
ENDBRANCH  17  18
ENDBRANCH  16  17
ENDBRANCH  15  16
ENDBRANCH  14  15
ENDBRANCH  13  14
ENDBRANCH   2  13
TORSDOF 15
ENDMDL
MODEL 4
REMARK VINA RESULT:    -3.715      1.592      4.185
REMARK INTER + INTRA:          -9.284
REMARK INTER:                  -6.465
REMARK INTRA:                  -2.818
REMARK UNBOUND:                -2.311
REMARK SMILES CCCCCCCCC=CCCCCCCCC(=O)[O-]
REMARK SMILES IDX 10 1 9 2 11 3 12 4 13 5 14 6 15 7 16 8 17 9 18 10 19 11
REMARK SMILES IDX 20 12 8 13 7 14 6 15 5 16 4 17 3 18 2 19 1 20
REMARK H PARENT
REMARK Flexibility Score: inf
ROOT
ATOM      1  C   UNL     1     152.290  -0.482   5.757  1.00  0.00    -0.031 C 
ATOM      2  C   UNL     1     152.897  -1.332   4.915  1.00  0.00    -0.031 C 
ENDROOT
BRANCH   1   3
ATOM      3  C   UNL     1     152.318  -0.693   7.247  1.00  0.00     0.027 C 
BRANCH   3   4
ATOM      4  C   UNL     1     150.923  -0.574   7.881  1.00  0.00     0.004 C 
BRANCH   4   5
ATOM      5  C   UNL     1     150.054   0.478   7.169  1.00  0.00     0.000 C 
BRANCH   5   6
ATOM      6  C   UNL     1     148.580   0.421   7.605  1.00  0.00     0.000 C 
BRANCH   6   7
ATOM      7  C   UNL     1     148.338  -0.584   8.741  1.00  0.00     0.000 C 
BRANCH   7   8
ATOM      8  C   UNL     1     146.853  -0.962   8.833  1.00  0.00     0.006 C 
BRANCH   8   9
ATOM      9  C   UNL     1     146.274  -1.378   7.474  1.00  0.00     0.053 C 
BRANCH   9  10
ATOM     10  C   UNL     1     144.778  -1.447   7.503  1.00  0.00     0.041 C 
ATOM     11  O   UNL     1     144.168  -2.278   6.781  1.00  0.00    -0.550 OA
ATOM     12  O   UNL     1     144.059  -0.618   8.355  1.00  0.00    -0.550 OA
ENDBRANCH   9  10
ENDBRANCH   8   9
ENDBRANCH   7   8
ENDBRANCH   6   7
ENDBRANCH   5   6
ENDBRANCH   4   5
ENDBRANCH   3   4
ENDBRANCH   1   3
BRANCH   2  13
ATOM     13  C   UNL     1     152.908  -1.100   3.428  1.00  0.00     0.027 C 
BRANCH  13  14
ATOM     14  C   UNL     1     151.837  -0.085   3.007  1.00  0.00     0.004 C 
BRANCH  14  15
ATOM     15  C   UNL     1     150.540  -0.771   2.545  1.00  0.00     0.000 C 
BRANCH  15  16
ATOM     16  C   UNL     1     149.468  -0.809   3.645  1.00  0.00     0.000 C 
BRANCH  16  17
ATOM     17  C   UNL     1     148.981  -2.237   3.949  1.00  0.00    -0.000 C 
BRANCH  17  18
ATOM     18  C   UNL     1     149.034  -2.579   5.448  1.00  0.00    -0.000 C 
BRANCH  18  19
ATOM     19  C   UNL     1     150.106  -3.615   5.835  1.00  0.00    -0.003 C 
ATOM     20  C   UNL     1     149.934  -4.150   7.257  1.00  0.00     0.004 C 
ENDBRANCH  18  19
ENDBRANCH  17  18
ENDBRANCH  16  17
ENDBRANCH  15  16
ENDBRANCH  14  15
ENDBRANCH  13  14
ENDBRANCH   2  13
TORSDOF 15
ENDMDL
MODEL 5
REMARK VINA RESULT:    -3.638      1.154      2.018
REMARK INTER + INTRA:          -9.140
REMARK INTER:                  -6.462
REMARK INTRA:                  -2.678
REMARK UNBOUND:                -2.311
REMARK SMILES CCCCCCCCC=CCCCCCCCC(=O)[O-]
REMARK SMILES IDX 10 1 9 2 11 3 12 4 13 5 14 6 15 7 16 8 17 9 18 10 19 11
REMARK SMILES IDX 20 12 8 13 7 14 6 15 5 16 4 17 3 18 2 19 1 20
REMARK H PARENT
REMARK Flexibility Score: inf
ROOT
ATOM      1  C   UNL     1     150.757  -2.748   9.396  1.00  0.00    -0.031 C 
ATOM      2  C   UNL     1     149.541  -3.260   9.157  1.00  0.00    -0.031 C 
ENDROOT
BRANCH   1   3
ATOM      3  C   UNL     1     150.933  -1.373   9.984  1.00  0.00     0.027 C 
BRANCH   3   4
ATOM      4  C   UNL     1     150.311  -0.277   9.106  1.00  0.00     0.004 C 
BRANCH   4   5
ATOM      5  C   UNL     1     149.089   0.377   9.778  1.00  0.00     0.000 C 
BRANCH   5   6
ATOM      6  C   UNL     1     147.851   0.390   8.867  1.00  0.00     0.000 C 
BRANCH   6   7
ATOM      7  C   UNL     1     148.116  -0.252   7.498  1.00  0.00     0.000 C 
BRANCH   7   8
ATOM      8  C   UNL     1     147.133  -1.401   7.230  1.00  0.00     0.006 C 
BRANCH   8   9
ATOM      9  C   UNL     1     146.055  -1.509   8.316  1.00  0.00     0.053 C 
BRANCH   9  10
ATOM     10  C   UNL     1     144.674  -1.455   7.738  1.00  0.00     0.041 C 
ATOM     11  O   UNL     1     144.315  -2.301   6.878  1.00  0.00    -0.550 OA
ATOM     12  O   UNL     1     143.773  -0.492   8.174  1.00  0.00    -0.550 OA
ENDBRANCH   9  10
ENDBRANCH   8   9
ENDBRANCH   7   8
ENDBRANCH   6   7
ENDBRANCH   5   6
ENDBRANCH   4   5
ENDBRANCH   3   4
ENDBRANCH   1   3
BRANCH   2  13
ATOM     13  C   UNL     1     149.361  -4.650   8.609  1.00  0.00     0.027 C 
BRANCH  13  14
ATOM     14  C   UNL     1     150.364  -4.950   7.488  1.00  0.00     0.004 C 
BRANCH  14  15
ATOM     15  C   UNL     1     149.686  -5.020   6.108  1.00  0.00     0.000 C 
BRANCH  15  16
ATOM     16  C   UNL     1     149.589  -3.646   5.427  1.00  0.00     0.000 C 
BRANCH  16  17
ATOM     17  C   UNL     1     150.811  -2.756   5.713  1.00  0.00    -0.000 C 
BRANCH  17  18
ATOM     18  C   UNL     1     150.703  -1.367   5.060  1.00  0.00    -0.000 C 
BRANCH  18  19
ATOM     19  C   UNL     1     149.559  -1.223   4.039  1.00  0.00    -0.003 C 
ATOM     20  C   UNL     1     150.029  -0.681   2.689  1.00  0.00     0.004 C 
ENDBRANCH  18  19
ENDBRANCH  17  18
ENDBRANCH  16  17
ENDBRANCH  15  16
ENDBRANCH  14  15
ENDBRANCH  13  14
ENDBRANCH   2  13
TORSDOF 15
ENDMDL
MODEL 6
REMARK VINA RESULT:    -3.623      2.283      4.097
REMARK INTER + INTRA:          -9.110
REMARK INTER:                  -7.119
REMARK INTRA:                  -1.992
REMARK UNBOUND:                -2.311
REMARK SMILES CCCCCCCCC=CCCCCCCCC(=O)[O-]
REMARK SMILES IDX 10 1 9 2 11 3 12 4 13 5 14 6 15 7 16 8 17 9 18 10 19 11
REMARK SMILES IDX 20 12 8 13 7 14 6 15 5 16 4 17 3 18 2 19 1 20
REMARK H PARENT
REMARK Flexibility Score: inf
ROOT
ATOM      1  C   UNL     1     149.922  -3.471   6.040  1.00  0.00    -0.031 C 
ATOM      2  C   UNL     1     149.312  -2.833   5.031  1.00  0.00    -0.031 C 
ENDROOT
BRANCH   1   3
ATOM      3  C   UNL     1     149.746  -4.950   6.261  1.00  0.00     0.027 C 
BRANCH   3   4
ATOM      4  C   UNL     1     149.017  -5.262   7.577  1.00  0.00     0.004 C 
BRANCH   4   5
ATOM      5  C   UNL     1     149.066  -4.077   8.559  1.00  0.00     0.000 C 
BRANCH   5   6
ATOM      6  C   UNL     1     147.689  -3.425   8.767  1.00  0.00     0.000 C 
BRANCH   6   7
ATOM      7  C   UNL     1     147.789  -1.966   9.237  1.00  0.00     0.000 C 
BRANCH   7   8
ATOM      8  C   UNL     1     146.578  -1.151   8.761  1.00  0.00     0.006 C 
BRANCH   8   9
ATOM      9  C   UNL     1     145.942  -1.740   7.494  1.00  0.00     0.053 C 
BRANCH   9  10
ATOM     10  C   UNL     1     144.447  -1.669   7.536  1.00  0.00     0.041 C 
ATOM     11  O   UNL     1     143.874  -0.639   7.979  1.00  0.00    -0.550 OA
ATOM     12  O   UNL     1     143.685  -2.726   7.055  1.00  0.00    -0.550 OA
ENDBRANCH   9  10
ENDBRANCH   8   9
ENDBRANCH   7   8
ENDBRANCH   6   7
ENDBRANCH   5   6
ENDBRANCH   4   5
ENDBRANCH   3   4
ENDBRANCH   1   3
BRANCH   2  13
ATOM     13  C   UNL     1     149.521  -1.364   4.782  1.00  0.00     0.027 C 
BRANCH  13  14
ATOM     14  C   UNL     1     148.891  -0.508   5.888  1.00  0.00     0.004 C 
BRANCH  14  15
ATOM     15  C   UNL     1     149.940   0.005   6.891  1.00  0.00     0.000 C 
BRANCH  15  16
ATOM     16  C   UNL     1     149.386   1.101   7.815  1.00  0.00     0.000 C 
BRANCH  16  17
ATOM     17  C   UNL     1     150.370   2.268   8.006  1.00  0.00    -0.000 C 
BRANCH  17  18
ATOM     18  C   UNL     1     149.780   3.623   7.576  1.00  0.00    -0.000 C 
BRANCH  18  19
ATOM     19  C   UNL     1     148.305   3.571   7.138  1.00  0.00    -0.003 C 
ATOM     20  C   UNL     1     147.495   4.772   7.626  1.00  0.00     0.004 C 
ENDBRANCH  18  19
ENDBRANCH  17  18
ENDBRANCH  16  17
ENDBRANCH  15  16
ENDBRANCH  14  15
ENDBRANCH  13  14
ENDBRANCH   2  13
TORSDOF 15
ENDMDL
MODEL 7
REMARK VINA RESULT:    -3.595      1.557      4.049
REMARK INTER + INTRA:          -9.058
REMARK INTER:                  -6.662
REMARK INTRA:                  -2.396
REMARK UNBOUND:                -2.311
REMARK SMILES CCCCCCCCC=CCCCCCCCC(=O)[O-]
REMARK SMILES IDX 10 1 9 2 11 3 12 4 13 5 14 6 15 7 16 8 17 9 18 10 19 11
REMARK SMILES IDX 20 12 8 13 7 14 6 15 5 16 4 17 3 18 2 19 1 20
REMARK H PARENT
REMARK Flexibility Score: inf
ROOT
ATOM      1  C   UNL     1     149.537  -2.773   5.339  1.00  0.00    -0.031 C 
ATOM      2  C   UNL     1     149.298  -2.282   4.115  1.00  0.00    -0.031 C 
ENDROOT
BRANCH   1   3
ATOM      3  C   UNL     1     149.513  -4.253   5.614  1.00  0.00     0.027 C 
BRANCH   3   4
ATOM      4  C   UNL     1     150.152  -4.608   6.966  1.00  0.00     0.004 C 
BRANCH   4   5
ATOM      5  C   UNL     1     149.160  -5.319   7.904  1.00  0.00     0.000 C 
BRANCH   5   6
ATOM      6  C   UNL     1     148.225  -4.337   8.629  1.00  0.00     0.000 C 
BRANCH   6   7
ATOM      7  C   UNL     1     148.901  -2.992   8.934  1.00  0.00     0.000 C 
BRANCH   7   8
ATOM      8  C   UNL     1     147.857  -1.877   9.094  1.00  0.00     0.006 C 
BRANCH   8   9
ATOM      9  C   UNL     1     147.103  -1.594   7.788  1.00  0.00     0.053 C 
BRANCH   9  10
ATOM     10  C   UNL     1     145.623  -1.516   8.005  1.00  0.00     0.041 C 
ATOM     11  O   UNL     1     144.847  -2.262   7.353  1.00  0.00    -0.550 OA
ATOM     12  O   UNL     1     145.103  -0.643   8.952  1.00  0.00    -0.550 OA
ENDBRANCH   9  10
ENDBRANCH   8   9
ENDBRANCH   7   8
ENDBRANCH   6   7
ENDBRANCH   5   6
ENDBRANCH   4   5
ENDBRANCH   3   4
ENDBRANCH   1   3
BRANCH   2  13
ATOM     13  C   UNL     1     149.365  -0.806   3.827  1.00  0.00     0.027 C 
BRANCH  13  14
ATOM     14  C   UNL     1     150.043  -0.523   2.480  1.00  0.00     0.004 C 
BRANCH  14  15
ATOM     15  C   UNL     1     151.540  -0.879   2.500  1.00  0.00     0.000 C 
BRANCH  15  16
ATOM     16  C   UNL     1     152.262  -0.327   3.739  1.00  0.00     0.000 C 
BRANCH  16  17
ATOM     17  C   UNL     1     153.125  -1.388   4.444  1.00  0.00    -0.000 C 
BRANCH  17  18
ATOM     18  C   UNL     1     152.870  -1.452   5.961  1.00  0.00    -0.000 C 
BRANCH  18  19
ATOM     19  C   UNL     1     151.854  -0.421   6.486  1.00  0.00    -0.003 C 
ATOM     20  C   UNL     1     151.602  -0.545   7.989  1.00  0.00     0.004 C 
ENDBRANCH  18  19
ENDBRANCH  17  18
ENDBRANCH  16  17
ENDBRANCH  15  16
ENDBRANCH  14  15
ENDBRANCH  13  14
ENDBRANCH   2  13
TORSDOF 15
ENDMDL
MODEL 8
REMARK VINA RESULT:    -3.506      1.644      3.987
REMARK INTER + INTRA:          -8.890
REMARK INTER:                  -6.094
REMARK INTRA:                  -2.797
REMARK UNBOUND:                -2.311
REMARK SMILES CCCCCCCCC=CCCCCCCCC(=O)[O-]
REMARK SMILES IDX 10 1 9 2 11 3 12 4 13 5 14 6 15 7 16 8 17 9 18 10 19 11
REMARK SMILES IDX 20 12 8 13 7 14 6 15 5 16 4 17 3 18 2 19 1 20
REMARK H PARENT
REMARK Flexibility Score: inf
ROOT
ATOM      1  C   UNL     1     148.518   0.018   6.638  1.00  0.00    -0.031 C 
ATOM      2  C   UNL     1     148.773  -1.285   6.823  1.00  0.00    -0.031 C 
ENDROOT
BRANCH   1   3
ATOM      3  C   UNL     1     148.604   1.007   7.769  1.00  0.00     0.027 C 
BRANCH   3   4
ATOM      4  C   UNL     1     149.224   0.397   9.035  1.00  0.00     0.004 C 
BRANCH   4   5
ATOM      5  C   UNL     1     148.252   0.432  10.228  1.00  0.00     0.000 C 
BRANCH   5   6
ATOM      6  C   UNL     1     146.849  -0.081   9.863  1.00  0.00     0.000 C 
BRANCH   6   7
ATOM      7  C   UNL     1     146.418  -1.284  10.713  1.00  0.00     0.000 C 
BRANCH   7   8
ATOM      8  C   UNL     1     145.435  -2.178   9.943  1.00  0.00     0.006 C 
BRANCH   8   9
ATOM      9  C   UNL     1     145.544  -1.988   8.424  1.00  0.00     0.053 C 
BRANCH   9  10
ATOM     10  C   UNL     1     144.206  -1.756   7.794  1.00  0.00     0.041 C 
ATOM     11  O   UNL     1     143.671  -0.618   7.845  1.00  0.00    -0.550 OA
ATOM     12  O   UNL     1     143.565  -2.787   7.119  1.00  0.00    -0.550 OA
ENDBRANCH   9  10
ENDBRANCH   8   9
ENDBRANCH   7   8
ENDBRANCH   6   7
ENDBRANCH   5   6
ENDBRANCH   4   5
ENDBRANCH   3   4
ENDBRANCH   1   3
BRANCH   2  13
ATOM     13  C   UNL     1     148.731  -2.270   5.685  1.00  0.00     0.027 C 
BRANCH  13  14
ATOM     14  C   UNL     1     150.125  -2.830   5.372  1.00  0.00     0.004 C 
BRANCH  14  15
ATOM     15  C   UNL     1     150.252  -4.314   5.760  1.00  0.00     0.000 C 
BRANCH  15  16
ATOM     16  C   UNL     1     151.354  -4.558   6.803  1.00  0.00     0.000 C 
BRANCH  16  17
ATOM     17  C   UNL     1     150.790  -4.856   8.203  1.00  0.00    -0.000 C 
BRANCH  17  18
ATOM     18  C   UNL     1     150.646  -3.592   9.069  1.00  0.00    -0.000 C 
BRANCH  18  19
ATOM     19  C   UNL     1     149.244  -3.376   9.666  1.00  0.00    -0.003 C 
ATOM     20  C   UNL     1     148.232  -4.427   9.207  1.00  0.00     0.004 C 
ENDBRANCH  18  19
ENDBRANCH  17  18
ENDBRANCH  16  17
ENDBRANCH  15  16
ENDBRANCH  14  15
ENDBRANCH  13  14
ENDBRANCH   2  13
TORSDOF 15
ENDMDL
MODEL 9
REMARK VINA RESULT:    -3.445      8.598     12.042
REMARK INTER + INTRA:          -8.776
REMARK INTER:                  -7.531
REMARK INTRA:                  -1.245
REMARK UNBOUND:                -2.311
REMARK SMILES CCCCCCCCC=CCCCCCCCC(=O)[O-]
REMARK SMILES IDX 10 1 9 2 11 3 12 4 13 5 14 6 15 7 16 8 17 9 18 10 19 11
REMARK SMILES IDX 20 12 8 13 7 14 6 15 5 16 4 17 3 18 2 19 1 20
REMARK H PARENT
REMARK Flexibility Score: inf
ROOT
ATOM      1  C   UNL     1     151.182   8.502   1.157  1.00  0.00    -0.031 C 
ATOM      2  C   UNL     1     151.944   7.735   0.362  1.00  0.00    -0.031 C 
ENDROOT
BRANCH   1   3
ATOM      3  C   UNL     1     151.499   8.684   2.617  1.00  0.00     0.027 C 
BRANCH   3   4
ATOM      4  C   UNL     1     150.326   8.282   3.525  1.00  0.00     0.004 C 
BRANCH   4   5
ATOM      5  C   UNL     1     150.785   7.408   4.706  1.00  0.00     0.000 C 
BRANCH   5   6
ATOM      6  C   UNL     1     149.694   6.433   5.179  1.00  0.00     0.000 C 
BRANCH   6   7
ATOM      7  C   UNL     1     148.844   7.005   6.322  1.00  0.00     0.000 C 
BRANCH   7   8
ATOM      8  C   UNL     1     148.467   5.907   7.329  1.00  0.00     0.006 C 
BRANCH   8   9
ATOM      9  C   UNL     1     149.292   4.629   7.131  1.00  0.00     0.053 C 
BRANCH   9  10
ATOM     10  C   UNL     1     148.516   3.403   7.499  1.00  0.00     0.041 C 
ATOM     11  O   UNL     1     148.672   2.335   6.850  1.00  0.00    -0.550 OA
ATOM     12  O   UNL     1     147.645   3.428   8.581  1.00  0.00    -0.550 OA
ENDBRANCH   9  10
ENDBRANCH   8   9
ENDBRANCH   7   8
ENDBRANCH   6   7
ENDBRANCH   5   6
ENDBRANCH   4   5
ENDBRANCH   3   4
ENDBRANCH   1   3
BRANCH   2  13
ATOM     13  C   UNL     1     151.655   7.587  -1.107  1.00  0.00     0.027 C 
BRANCH  13  14
ATOM     14  C   UNL     1     150.903   8.805  -1.661  1.00  0.00     0.004 C 
BRANCH  14  15
ATOM     15  C   UNL     1     149.870   8.410  -2.731  1.00  0.00     0.000 C 
BRANCH  15  16
ATOM     16  C   UNL     1     148.439   8.816  -2.347  1.00  0.00     0.000 C 
BRANCH  16  17
ATOM     17  C   UNL     1     148.384   9.631  -1.043  1.00  0.00    -0.000 C 
BRANCH  17  18
ATOM     18  C   UNL     1     147.134   9.322  -0.199  1.00  0.00    -0.000 C 
BRANCH  18  19
ATOM     19  C   UNL     1     146.789  10.391   0.854  1.00  0.00    -0.003 C 
ATOM     20  C   UNL     1     147.748  10.388   2.044  1.00  0.00     0.004 C 
ENDBRANCH  18  19
ENDBRANCH  17  18
ENDBRANCH  16  17
ENDBRANCH  15  16
ENDBRANCH  14  15
ENDBRANCH  13  14
ENDBRANCH   2  13
TORSDOF 15
ENDMDL
