MODEL 1
REMARK VINA RESULT:    -4.040      0.000      0.000
REMARK INTER + INTRA:          -4.230
REMARK INTER:                  -4.984
REMARK INTRA:                   0.755
REMARK UNBOUND:                 0.755
REMARK SMILES CC1=CC=CC(C)(C)CC1=O
REMARK SMILES IDX 1 1 2 2 3 3 10 4 11 5 9 6 4 8 5 9 6 10 7 11 8 12
REMARK H PARENT
REMARK Flexibility Score: 80.00
ROOT
ATOM      1  C   UNL     1      27.841  51.921   8.124  1.00  0.00     0.048 C 
ATOM      2  C   UNL     1      26.538  52.678   8.230  1.00  0.00    -0.008 C 
ATOM      3  C   UNL     1      25.862  52.924   7.086  1.00  0.00     0.007 C 
ENDROOT
BRANCH   2   4
ATOM      4  C   UNL     1      26.067  53.026   9.594  1.00  0.00     0.159 C 
ATOM      5  O   UNL     1      26.653  52.516  10.588  1.00  0.00    -0.295 OA
BRANCH   4   6
ATOM      6  C   UNL     1      24.935  53.970   9.861  1.00  0.00     0.091 CG0
ATOM      7  G   UNL     1      23.598  53.506   9.243  1.00  0.00     0.000 G0
ENDBRANCH   4   6
ENDBRANCH   2   4
BRANCH   3   8
ATOM      8  C   UNL     1      24.565  53.608   6.876  1.00  0.00    -0.003 C 
ATOM      9  C   UNL     1      23.589  53.859   7.759  1.00  0.00    -0.020 C 
BRANCH   9  10
ATOM     10  C   UNL     1      23.600  53.513   9.229  1.00  0.00    -0.010 CG0
ATOM     11  C   UNL     1      23.325  52.003   9.419  1.00  0.00     0.016 C 
ATOM     12  C   UNL     1      22.458  54.295   9.918  1.00  0.00     0.016 C 
ATOM     13  G   UNL     1      24.938  53.960   9.860  1.00  0.00     0.000 G0
ENDBRANCH   9  10
ENDBRANCH   3   8
TORSDOF 0
ENDMDL
MODEL 2
REMARK VINA RESULT:    -4.000      9.189     10.382
REMARK INTER + INTRA:          -4.180
REMARK INTER:                  -4.928
REMARK INTRA:                   0.748
REMARK UNBOUND:                 0.755
REMARK SMILES CC1=CC=CC(C)(C)CC1=O
REMARK SMILES IDX 1 1 2 2 3 3 10 4 11 5 9 6 4 8 5 9 6 10 7 11 8 12
REMARK H PARENT
REMARK Flexibility Score: 80.00
ROOT
ATOM      1  C   UNL     1      27.901  55.248  19.658  1.00  0.00     0.048 C 
ATOM      2  C   UNL     1      26.604  54.481  19.548  1.00  0.00    -0.008 C 
ATOM      3  C   UNL     1      25.987  54.127  20.696  1.00  0.00     0.007 C 
ENDROOT
BRANCH   2   4
ATOM      4  C   UNL     1      26.073  54.243  18.182  1.00  0.00     0.159 C 
ATOM      5  O   UNL     1      26.611  54.837  17.208  1.00  0.00    -0.295 OA
BRANCH   4   6
ATOM      6  C   UNL     1      24.933  53.317  17.889  1.00  0.00     0.091 CG0
ATOM      7  G   UNL     1      23.629  53.706  18.623  1.00  0.00     0.000 G0
ENDBRANCH   4   6
ENDBRANCH   2   4
BRANCH   3   8
ATOM      8  C   UNL     1      24.710  53.405  20.907  1.00  0.00    -0.003 C 
ATOM      9  C   UNL     1      23.695  53.218  20.053  1.00  0.00    -0.020 C 
BRANCH   9  10
ATOM     10  C   UNL     1      23.629  53.693  18.621  1.00  0.00    -0.010 CG0
ATOM     11  C   UNL     1      23.321  55.207  18.580  1.00  0.00     0.016 C 
ATOM     12  C   UNL     1      22.468  52.951  17.919  1.00  0.00     0.016 C 
ATOM     13  G   UNL     1      24.942  53.331  17.891  1.00  0.00     0.000 G0
ENDBRANCH   9  10
ENDBRANCH   3   8
TORSDOF 0
ENDMDL
MODEL 3
REMARK VINA RESULT:    -3.996      5.785      6.764
REMARK INTER + INTRA:          -4.176
REMARK INTER:                  -4.922
REMARK INTRA:                   0.746
REMARK UNBOUND:                 0.755
REMARK SMILES CC1=CC=CC(C)(C)CC1=O
REMARK SMILES IDX 1 1 2 2 3 3 10 4 11 5 9 6 4 8 5 9 6 10 7 11 8 12
REMARK H PARENT
REMARK Flexibility Score: 80.00
ROOT
ATOM      1  C   UNL     1      31.999  57.361  10.576  1.00  0.00     0.048 C 
ATOM      2  C   UNL     1      30.750  57.466  11.420  1.00  0.00    -0.008 C 
ATOM      3  C   UNL     1      30.378  58.696  11.837  1.00  0.00     0.007 C 
ENDROOT
BRANCH   2   4
ATOM      4  C   UNL     1      29.988  56.215  11.659  1.00  0.00     0.159 C 
ATOM      5  O   UNL     1      30.285  55.186  10.992  1.00  0.00    -0.295 OA
BRANCH   4   6
ATOM      6  C   UNL     1      28.887  56.098  12.668  1.00  0.00     0.091 CG0
ATOM      7  G   UNL     1      27.714  57.068  12.403  1.00  0.00     0.000 G0
ENDBRANCH   4   6
ENDBRANCH   2   4
BRANCH   3   8
ATOM      8  C   UNL     1      29.206  59.114  12.641  1.00  0.00    -0.003 C 
ATOM      9  C   UNL     1      28.069  58.450  12.885  1.00  0.00    -0.020 C 
BRANCH   9  10
ATOM     10  C   UNL     1      27.719  57.062  12.401  1.00  0.00    -0.010 CG0
ATOM     11  C   UNL     1      27.303  57.111  10.913  1.00  0.00     0.016 C 
ATOM     12  C   UNL     1      26.509  56.556  13.218  1.00  0.00     0.016 C 
ATOM     13  G   UNL     1      28.906  56.107  12.658  1.00  0.00     0.000 G0
ENDBRANCH   9  10
ENDBRANCH   3   8
TORSDOF 0
ENDMDL
MODEL 4
REMARK VINA RESULT:    -3.972      5.621      6.575
REMARK INTER + INTRA:          -4.146
REMARK INTER:                  -4.892
REMARK INTRA:                   0.746
REMARK UNBOUND:                 0.755
REMARK SMILES CC1=CC=CC(C)(C)CC1=O
REMARK SMILES IDX 1 1 2 2 3 3 10 4 11 5 9 6 4 8 5 9 6 10 7 11 8 12
REMARK H PARENT
REMARK Flexibility Score: 80.00
ROOT
ATOM      1  C   UNL     1      30.326  59.610  12.134  1.00  0.00     0.048 C 
ATOM      2  C   UNL     1      29.235  58.579  11.968  1.00  0.00    -0.008 C 
ATOM      3  C   UNL     1      29.413  57.626  11.027  1.00  0.00     0.007 C 
ENDROOT
BRANCH   2   4
ATOM      4  C   UNL     1      28.086  58.652  12.905  1.00  0.00     0.159 C 
ATOM      5  O   UNL     1      28.164  59.418  13.904  1.00  0.00    -0.295 OA
BRANCH   4   6
ATOM      6  C   UNL     1      26.820  57.873  12.722  1.00  0.00     0.091 CG0
ATOM      7  G   UNL     1      27.045  56.344  12.696  1.00  0.00     0.000 G0
ENDBRANCH   4   6
ENDBRANCH   2   4
BRANCH   3   8
ATOM      8  C   UNL     1      28.547  56.483  10.654  1.00  0.00    -0.003 C 
ATOM      9  C   UNL     1      27.550  55.917  11.347  1.00  0.00    -0.020 C 
BRANCH   9  10
ATOM     10  C   UNL     1      27.045  56.348  12.705  1.00  0.00    -0.010 CG0
ATOM     11  C   UNL     1      28.016  55.867  13.807  1.00  0.00     0.016 C 
ATOM     12  C   UNL     1      25.676  55.672  12.947  1.00  0.00     0.016 C 
ATOM     13  G   UNL     1      26.835  57.878  12.721  1.00  0.00     0.000 G0
ENDBRANCH   9  10
ENDBRANCH   3   8
TORSDOF 0
ENDMDL
MODEL 5
REMARK VINA RESULT:    -3.962      7.656      8.728
REMARK INTER + INTRA:          -4.134
REMARK INTER:                  -4.894
REMARK INTRA:                   0.760
REMARK UNBOUND:                 0.755
REMARK SMILES CC1=CC=CC(C)(C)CC1=O
REMARK SMILES IDX 1 1 2 2 3 3 10 4 11 5 9 6 4 8 5 9 6 10 7 11 8 12
REMARK H PARENT
REMARK Flexibility Score: 80.00
ROOT
ATOM      1  C   UNL     1      31.972  49.823  17.012  1.00  0.00     0.048 C 
ATOM      2  C   UNL     1      30.674  49.723  16.247  1.00  0.00    -0.008 C 
ATOM      3  C   UNL     1      30.250  48.490  15.894  1.00  0.00     0.007 C 
ENDROOT
BRANCH   2   4
ATOM      4  C   UNL     1      29.929  50.985  16.009  1.00  0.00     0.159 C 
ATOM      5  O   UNL     1      30.285  52.026  16.626  1.00  0.00    -0.295 OA
BRANCH   4   6
ATOM      6  C   UNL     1      28.779  51.098  15.057  1.00  0.00     0.091 CG0
ATOM      7  G   UNL     1      27.590  50.183  15.429  1.00  0.00     0.000 G0
ENDBRANCH   4   6
ENDBRANCH   2   4
BRANCH   3   8
ATOM      8  C   UNL     1      29.022  48.076  15.174  1.00  0.00    -0.003 C 
ATOM      9  C   UNL     1      27.889  48.761  14.973  1.00  0.00    -0.020 C 
BRANCH   9  10
ATOM     10  C   UNL     1      27.603  50.173  15.427  1.00  0.00    -0.010 CG0
ATOM     11  C   UNL     1      27.286  50.188  16.940  1.00  0.00     0.016 C 
ATOM     12  C   UNL     1      26.352  50.679  14.673  1.00  0.00     0.016 C 
ATOM     13  G   UNL     1      28.790  51.090  15.057  1.00  0.00     0.000 G0
ENDBRANCH   9  10
ENDBRANCH   3   8
TORSDOF 0
ENDMDL
MODEL 6
REMARK VINA RESULT:    -3.927      7.167      8.347
REMARK INTER + INTRA:          -4.091
REMARK INTER:                  -4.832
REMARK INTRA:                   0.741
REMARK UNBOUND:                 0.755
REMARK SMILES CC1=CC=CC(C)(C)CC1=O
REMARK SMILES IDX 1 1 2 2 3 3 10 4 11 5 9 6 4 8 5 9 6 10 7 11 8 12
REMARK H PARENT
REMARK Flexibility Score: 80.00
ROOT
ATOM      1  C   UNL     1      30.529  47.436  15.499  1.00  0.00     0.048 C 
ATOM      2  C   UNL     1      29.409  48.432  15.686  1.00  0.00    -0.008 C 
ATOM      3  C   UNL     1      29.464  49.239  16.768  1.00  0.00     0.007 C 
ENDROOT
BRANCH   2   4
ATOM      4  C   UNL     1      28.374  48.493  14.623  1.00  0.00     0.159 C 
ATOM      5  O   UNL     1      28.572  47.868  13.546  1.00  0.00    -0.295 OA
BRANCH   4   6
ATOM      6  C   UNL     1      27.089  49.250  14.765  1.00  0.00     0.091 CG0
ATOM      7  G   UNL     1      27.297  50.759  15.019  1.00  0.00     0.000 G0
ENDBRANCH   4   6
ENDBRANCH   2   4
BRANCH   3   8
ATOM      8  C   UNL     1      28.541  50.316  17.199  1.00  0.00    -0.003 C 
ATOM      9  C   UNL     1      27.627  50.982  16.482  1.00  0.00    -0.020 C 
BRANCH   9  10
ATOM     10  C   UNL     1      27.296  50.762  15.025  1.00  0.00    -0.010 CG0
ATOM     11  C   UNL     1      28.384  51.403  14.133  1.00  0.00     0.016 C 
ATOM     12  C   UNL     1      25.954  51.469  14.722  1.00  0.00     0.016 C 
ATOM     13  G   UNL     1      27.115  49.252  14.754  1.00  0.00     0.000 G0
ENDBRANCH   9  10
ENDBRANCH   3   8
TORSDOF 0
ENDMDL
MODEL 7
REMARK VINA RESULT:    -3.829      2.058      2.760
REMARK INTER + INTRA:          -3.969
REMARK INTER:                  -4.721
REMARK INTRA:                   0.752
REMARK UNBOUND:                 0.755
REMARK SMILES CC1=CC=CC(C)(C)CC1=O
REMARK SMILES IDX 1 1 2 2 3 3 10 4 11 5 9 6 4 8 5 9 6 10 7 11 8 12
REMARK H PARENT
REMARK Flexibility Score: 80.00
ROOT
ATOM      1  C   UNL     1      25.607  54.952   5.386  1.00  0.00     0.048 C 
ATOM      2  C   UNL     1      25.024  54.386   6.658  1.00  0.00    -0.008 C 
ATOM      3  C   UNL     1      24.861  53.047   6.730  1.00  0.00     0.007 C 
ENDROOT
BRANCH   2   4
ATOM      4  C   UNL     1      24.747  55.342   7.760  1.00  0.00     0.159 C 
ATOM      5  O   UNL     1      25.180  56.522   7.663  1.00  0.00    -0.295 OA
BRANCH   4   6
ATOM      6  C   UNL     1      23.961  54.986   8.984  1.00  0.00     0.091 CG0
ATOM      7  G   UNL     1      24.576  53.813   9.781  1.00  0.00     0.000 G0
ENDBRANCH   4   6
ENDBRANCH   2   4
BRANCH   3   8
ATOM      8  C   UNL     1      24.346  52.209   7.838  1.00  0.00    -0.003 C 
ATOM      9  C   UNL     1      24.231  52.506   9.139  1.00  0.00    -0.020 C 
BRANCH   9  10
ATOM     10  C   UNL     1      24.586  53.822   9.792  1.00  0.00    -0.010 CG0
ATOM     11  C   UNL     1      26.119  53.938   9.947  1.00  0.00     0.016 C 
ATOM     12  C   UNL     1      23.961  53.843  11.206  1.00  0.00     0.016 C 
ATOM     13  G   UNL     1      23.978  54.987   8.981  1.00  0.00     0.000 G0
ENDBRANCH   9  10
ENDBRANCH   3   8
TORSDOF 0
ENDMDL
MODEL 8
REMARK VINA RESULT:    -3.729      1.686      2.656
REMARK INTER + INTRA:          -3.847
REMARK INTER:                  -4.598
REMARK INTRA:                   0.752
REMARK UNBOUND:                 0.755
REMARK SMILES CC1=CC=CC(C)(C)CC1=O
REMARK SMILES IDX 1 1 2 2 3 3 10 4 11 5 9 6 4 8 5 9 6 10 7 11 8 12
REMARK H PARENT
REMARK Flexibility Score: 80.00
ROOT
ATOM      1  C   UNL     1      27.526  52.178   8.047  1.00  0.00     0.048 C 
ATOM      2  C   UNL     1      26.314  52.840   8.659  1.00  0.00    -0.008 C 
ATOM      3  C   UNL     1      26.298  52.998  10.000  1.00  0.00     0.007 C 
ENDROOT
BRANCH   2   4
ATOM      4  C   UNL     1      25.269  53.333   7.726  1.00  0.00     0.159 C 
ATOM      5  O   UNL     1      25.518  53.352   6.490  1.00  0.00    -0.295 OA
BRANCH   4   6
ATOM      6  C   UNL     1      23.917  53.798   8.172  1.00  0.00     0.091 CG0
ATOM      7  G   UNL     1      23.978  54.981   9.165  1.00  0.00     0.000 G0
ENDBRANCH   4   6
ENDBRANCH   2   4
BRANCH   3   8
ATOM      8  C   UNL     1      25.277  53.625  10.872  1.00  0.00    -0.003 C 
ATOM      9  C   UNL     1      24.292  54.473  10.546  1.00  0.00    -0.020 C 
BRANCH   9  10
ATOM     10  C   UNL     1      23.970  54.981   9.160  1.00  0.00    -0.010 CG0
ATOM     11  C   UNL     1      24.983  56.072   8.747  1.00  0.00     0.016 C 
ATOM     12  C   UNL     1      22.564  55.625   9.196  1.00  0.00     0.016 C 
ATOM     13  G   UNL     1      23.930  53.797   8.167  1.00  0.00     0.000 G0
ENDBRANCH   9  10
ENDBRANCH   3   8
TORSDOF 0
ENDMDL
MODEL 9
REMARK VINA RESULT:    -3.690      1.529      2.410
REMARK INTER + INTRA:          -3.798
REMARK INTER:                  -4.552
REMARK INTRA:                   0.754
REMARK UNBOUND:                 0.755
REMARK SMILES CC1=CC=CC(C)(C)CC1=O
REMARK SMILES IDX 1 1 2 2 3 3 10 4 11 5 9 6 4 8 5 9 6 10 7 11 8 12
REMARK H PARENT
REMARK Flexibility Score: 80.00
ROOT
ATOM      1  C   UNL     1      25.591  54.221   5.982  1.00  0.00     0.048 C 
ATOM      2  C   UNL     1      25.342  54.224   7.472  1.00  0.00    -0.008 C 
ATOM      3  C   UNL     1      24.571  55.212   7.975  1.00  0.00     0.007 C 
ENDROOT
BRANCH   2   4
ATOM      4  C   UNL     1      25.905  53.095   8.254  1.00  0.00     0.159 C 
ATOM      5  O   UNL     1      26.384  52.106   7.635  1.00  0.00    -0.295 OA
BRANCH   4   6
ATOM      6  C   UNL     1      25.953  53.070   9.751  1.00  0.00     0.091 CG0
ATOM      7  G   UNL     1      24.557  53.171  10.405  1.00  0.00     0.000 G0
ENDBRANCH   4   6
ENDBRANCH   2   4
BRANCH   3   8
ATOM      8  C   UNL     1      24.134  55.462   9.369  1.00  0.00    -0.003 C 
ATOM      9  C   UNL     1      24.105  54.619  10.409  1.00  0.00    -0.020 C 
BRANCH   9  10
ATOM     10  C   UNL     1      24.552  53.176  10.406  1.00  0.00    -0.010 CG0
ATOM     11  C   UNL     1      23.488  52.293   9.715  1.00  0.00     0.016 C 
ATOM     12  C   UNL     1      24.681  52.706  11.873  1.00  0.00     0.016 C 
ATOM     13  G   UNL     1      25.943  53.063   9.742  1.00  0.00     0.000 G0
ENDBRANCH   9  10
ENDBRANCH   3   8
TORSDOF 0
ENDMDL
