MODEL 1
REMARK VINA RESULT:     0.233      0.000      0.000
REMARK INTER + INTRA:          -0.316
REMARK INTER:                   0.438
REMARK INTRA:                  -0.753
REMARK UNBOUND:                -0.753
REMARK SMILES CCCCCCCCC=CCCCCCCCC(=O)[O-]
REMARK SMILES IDX 10 1 9 2 11 3 12 4 13 5 14 6 15 7 16 8 17 9 18 10 19 11
REMARK SMILES IDX 20 12 8 13 7 14 6 15 5 16 4 17 3 18 2 19 1 20
REMARK H PARENT
REMARK Flexibility Score: inf
ROOT
ATOM      1  C   UNL     1     137.763 127.258 130.654  1.00  0.00    -0.031 C 
ATOM      2  C   UNL     1     136.417 127.302 130.676  1.00  0.00    -0.031 C 
ENDROOT
BRANCH   1   3
ATOM      3  C   UNL     1     138.609 127.565 129.444  1.00  0.00     0.027 C 
BRANCH   3   4
ATOM      4  C   UNL     1     139.611 128.687 129.756  1.00  0.00     0.004 C 
BRANCH   4   5
ATOM      5  C   UNL     1     140.653 128.277 130.810  1.00  0.00     0.000 C 
BRANCH   5   6
ATOM      6  C   UNL     1     142.045 128.034 130.201  1.00  0.00     0.000 C 
BRANCH   6   7
ATOM      7  C   UNL     1     142.220 128.724 128.837  1.00  0.00     0.000 C 
BRANCH   7   8
ATOM      8  C   UNL     1     143.356 128.106 128.002  1.00  0.00     0.006 C 
BRANCH   8   9
ATOM      9  C   UNL     1     144.125 129.165 127.200  1.00  0.00     0.053 C 
BRANCH   9  10
ATOM     10  C   UNL     1     143.780 129.120 125.743  1.00  0.00     0.041 C 
ATOM     11  O   UNL     1     143.708 128.016 125.143  1.00  0.00    -0.550 OA
ATOM     12  O   UNL     1     143.509 130.296 125.055  1.00  0.00    -0.550 OA
ENDBRANCH   9  10
ENDBRANCH   8   9
ENDBRANCH   7   8
ENDBRANCH   6   7
ENDBRANCH   5   6
ENDBRANCH   4   5
ENDBRANCH   3   4
ENDBRANCH   1   3
BRANCH   2  13
ATOM     13  C   UNL     1     135.548 127.577 129.472  1.00  0.00     0.027 C 
BRANCH  13  14
ATOM     14  C   UNL     1     134.391 128.529 129.806  1.00  0.00     0.004 C 
BRANCH  14  15
ATOM     15  C   UNL     1     133.705 129.073 128.543  1.00  0.00     0.000 C 
BRANCH  15  16
ATOM     16  C   UNL     1     132.894 127.972 127.843  1.00  0.00     0.000 C 
BRANCH  16  17
ATOM     17  C   UNL     1     131.752 128.535 126.983  1.00  0.00    -0.000 C 
BRANCH  17  18
ATOM     18  C   UNL     1     132.228 129.619 126.003  1.00  0.00    -0.000 C 
BRANCH  18  19
ATOM     19  C   UNL     1     131.041 130.244 125.260  1.00  0.00    -0.003 C 
ATOM     20  C   UNL     1     131.319 131.702 124.906  1.00  0.00     0.004 C 
ENDBRANCH  18  19
ENDBRANCH  17  18
ENDBRANCH  16  17
ENDBRANCH  15  16
ENDBRANCH  14  15
ENDBRANCH  13  14
ENDBRANCH   2  13
TORSDOF 15
ENDMDL
MODEL 2
REMARK VINA RESULT:     0.279      1.032      1.525
REMARK INTER + INTRA:          -0.229
REMARK INTER:                   0.563
REMARK INTRA:                  -0.792
REMARK UNBOUND:                -0.753
REMARK SMILES CCCCCCCCC=CCCCCCCCC(=O)[O-]
REMARK SMILES IDX 10 1 9 2 11 3 12 4 13 5 14 6 15 7 16 8 17 9 18 10 19 11
REMARK SMILES IDX 20 12 8 13 7 14 6 15 5 16 4 17 3 18 2 19 1 20
REMARK H PARENT
REMARK Flexibility Score: inf
ROOT
ATOM      1  C   UNL     1     137.490 127.368 129.586  1.00  0.00    -0.031 C 
ATOM      2  C   UNL     1     136.205 127.524 129.213  1.00  0.00    -0.031 C 
ENDROOT
BRANCH   1   3
ATOM      3  C   UNL     1     137.975 127.391 131.013  1.00  0.00     0.027 C 
BRANCH   3   4
ATOM      4  C   UNL     1     139.011 128.508 131.214  1.00  0.00     0.004 C 
BRANCH   4   5
ATOM      5  C   UNL     1     140.159 128.444 130.193  1.00  0.00     0.000 C 
BRANCH   5   6
ATOM      6  C   UNL     1     141.452 127.867 130.795  1.00  0.00     0.000 C 
BRANCH   6   7
ATOM      7  C   UNL     1     142.714 128.380 130.082  1.00  0.00     0.000 C 
BRANCH   7   8
ATOM      8  C   UNL     1     142.604 128.300 128.549  1.00  0.00     0.006 C 
BRANCH   8   9
ATOM      9  C   UNL     1     143.967 128.458 127.862  1.00  0.00     0.053 C 
BRANCH   9  10
ATOM     10  C   UNL     1     143.826 128.866 126.428  1.00  0.00     0.041 C 
ATOM     11  O   UNL     1     144.123 130.035 126.069  1.00  0.00    -0.550 OA
ATOM     12  O   UNL     1     143.395 127.944 125.481  1.00  0.00    -0.550 OA
ENDBRANCH   9  10
ENDBRANCH   8   9
ENDBRANCH   7   8
ENDBRANCH   6   7
ENDBRANCH   5   6
ENDBRANCH   4   5
ENDBRANCH   3   4
ENDBRANCH   1   3
BRANCH   2  13
ATOM     13  C   UNL     1     135.070 127.834 130.158  1.00  0.00     0.027 C 
BRANCH  13  14
ATOM     14  C   UNL     1     134.047 128.793 129.529  1.00  0.00     0.004 C 
BRANCH  14  15
ATOM     15  C   UNL     1     134.523 129.341 128.175  1.00  0.00     0.000 C 
BRANCH  15  16
ATOM     16  C   UNL     1     133.573 130.435 127.663  1.00  0.00     0.000 C 
BRANCH  16  17
ATOM     17  C   UNL     1     132.773 129.994 126.428  1.00  0.00    -0.000 C 
BRANCH  17  18
ATOM     18  C   UNL     1     132.160 131.179 125.665  1.00  0.00    -0.000 C 
BRANCH  18  19
ATOM     19  C   UNL     1     130.879 130.758 124.937  1.00  0.00    -0.003 C 
ATOM     20  C   UNL     1     130.190 129.602 125.657  1.00  0.00     0.004 C 
ENDBRANCH  18  19
ENDBRANCH  17  18
ENDBRANCH  16  17
ENDBRANCH  15  16
ENDBRANCH  14  15
ENDBRANCH  13  14
ENDBRANCH   2  13
TORSDOF 15
ENDMDL
MODEL 3
REMARK VINA RESULT:     0.387      3.937      9.372
REMARK INTER + INTRA:          -0.028
REMARK INTER:                   0.757
REMARK INTRA:                  -0.785
REMARK UNBOUND:                -0.753
REMARK SMILES CCCCCCCCC=CCCCCCCCC(=O)[O-]
REMARK SMILES IDX 10 1 9 2 11 3 12 4 13 5 14 6 15 7 16 8 17 9 18 10 19 11
REMARK SMILES IDX 20 12 8 13 7 14 6 15 5 16 4 17 3 18 2 19 1 20
REMARK H PARENT
REMARK Flexibility Score: inf
ROOT
ATOM      1  C   UNL     1     137.671 127.514 130.864  1.00  0.00    -0.031 C 
ATOM      2  C   UNL     1     138.837 128.121 131.151  1.00  0.00    -0.031 C 
ENDROOT
BRANCH   1   3
ATOM      3  C   UNL     1     137.393 126.753 129.592  1.00  0.00     0.027 C 
BRANCH   3   4
ATOM      4  C   UNL     1     136.415 127.533 128.699  1.00  0.00     0.004 C 
BRANCH   4   5
ATOM      5  C   UNL     1     135.238 128.130 129.487  1.00  0.00     0.000 C 
BRANCH   5   6
ATOM      6  C   UNL     1     134.241 128.875 128.583  1.00  0.00     0.000 C 
BRANCH   6   7
ATOM      7  C   UNL     1     132.999 128.030 128.252  1.00  0.00     0.000 C 
BRANCH   7   8
ATOM      8  C   UNL     1     132.209 128.580 127.052  1.00  0.00     0.006 C 
BRANCH   8   9
ATOM      9  C   UNL     1     132.581 130.035 126.733  1.00  0.00     0.053 C 
BRANCH   9  10
ATOM     10  C   UNL     1     131.780 130.579 125.591  1.00  0.00     0.041 C 
ATOM     11  O   UNL     1     131.970 131.756 125.186  1.00  0.00    -0.550 OA
ATOM     12  O   UNL     1     130.844 129.775 124.952  1.00  0.00    -0.550 OA
ENDBRANCH   9  10
ENDBRANCH   8   9
ENDBRANCH   7   8
ENDBRANCH   6   7
ENDBRANCH   5   6
ENDBRANCH   4   5
ENDBRANCH   3   4
ENDBRANCH   1   3
BRANCH   2  13
ATOM     13  C   UNL     1     140.013 128.212 130.208  1.00  0.00     0.027 C 
BRANCH  13  14
ATOM     14  C   UNL     1     141.329 128.470 130.956  1.00  0.00     0.004 C 
BRANCH  14  15
ATOM     15  C   UNL     1     142.556 128.061 130.127  1.00  0.00     0.000 C 
BRANCH  15  16
ATOM     16  C   UNL     1     142.350 128.395 128.642  1.00  0.00     0.000 C 
BRANCH  16  17
ATOM     17  C   UNL     1     143.676 128.579 127.886  1.00  0.00    -0.000 C 
BRANCH  17  18
ATOM     18  C   UNL     1     143.742 127.747 126.595  1.00  0.00    -0.000 C 
BRANCH  18  19
ATOM     19  C   UNL     1     144.125 128.625 125.399  1.00  0.00    -0.003 C 
ATOM     20  C   UNL     1     142.933 129.446 124.913  1.00  0.00     0.004 C 
ENDBRANCH  18  19
ENDBRANCH  17  18
ENDBRANCH  16  17
ENDBRANCH  15  16
ENDBRANCH  14  15
ENDBRANCH  13  14
ENDBRANCH   2  13
TORSDOF 15
ENDMDL
MODEL 4
REMARK VINA RESULT:     1.051      3.996      9.486
REMARK INTER + INTRA:           1.219
REMARK INTER:                   2.023
REMARK INTRA:                  -0.804
REMARK UNBOUND:                -0.753
REMARK SMILES CCCCCCCCC=CCCCCCCCC(=O)[O-]
REMARK SMILES IDX 10 1 9 2 11 3 12 4 13 5 14 6 15 7 16 8 17 9 18 10 19 11
REMARK SMILES IDX 20 12 8 13 7 14 6 15 5 16 4 17 3 18 2 19 1 20
REMARK H PARENT
REMARK Flexibility Score: inf
ROOT
ATOM      1  C   UNL     1     136.848 126.666 130.132  1.00  0.00    -0.031 C 
ATOM      2  C   UNL     1     138.095 126.821 129.649  1.00  0.00    -0.031 C 
ENDROOT
BRANCH   1   3
ATOM      3  C   UNL     1     136.057 127.750 130.820  1.00  0.00     0.027 C 
BRANCH   3   4
ATOM      4  C   UNL     1     134.740 128.014 130.074  1.00  0.00     0.004 C 
BRANCH   4   5
ATOM      5  C   UNL     1     134.940 128.827 128.785  1.00  0.00     0.000 C 
BRANCH   5   6
ATOM      6  C   UNL     1     133.638 129.481 128.292  1.00  0.00     0.000 C 
BRANCH   6   7
ATOM      7  C   UNL     1     132.783 128.526 127.442  1.00  0.00     0.000 C 
BRANCH   7   8
ATOM      8  C   UNL     1     131.549 129.216 126.835  1.00  0.00     0.006 C 
BRANCH   8   9
ATOM      9  C   UNL     1     131.753 129.568 125.355  1.00  0.00     0.053 C 
BRANCH   9  10
ATOM     10  C   UNL     1     131.368 130.985 125.060  1.00  0.00     0.041 C 
ATOM     11  O   UNL     1     130.160 131.289 124.879  1.00  0.00    -0.550 OA
ATOM     12  O   UNL     1     132.340 131.977 125.016  1.00  0.00    -0.550 OA
ENDBRANCH   9  10
ENDBRANCH   8   9
ENDBRANCH   7   8
ENDBRANCH   6   7
ENDBRANCH   5   6
ENDBRANCH   4   5
ENDBRANCH   3   4
ENDBRANCH   1   3
BRANCH   2  13
ATOM     13  C   UNL     1     138.925 128.073 129.801  1.00  0.00     0.027 C 
BRANCH  13  14
ATOM     14  C   UNL     1     139.690 128.095 131.133  1.00  0.00     0.004 C 
BRANCH  14  15
ATOM     15  C   UNL     1     141.197 128.312 130.932  1.00  0.00     0.000 C 
BRANCH  15  16
ATOM     16  C   UNL     1     141.527 128.522 129.446  1.00  0.00     0.000 C 
BRANCH  16  17
ATOM     17  C   UNL     1     142.904 127.958 129.059  1.00  0.00    -0.000 C 
BRANCH  17  18
ATOM     18  C   UNL     1     143.624 128.821 128.011  1.00  0.00    -0.000 C 
BRANCH  18  19
ATOM     19  C   UNL     1     143.905 128.015 126.738  1.00  0.00    -0.003 C 
ATOM     20  C   UNL     1     143.652 128.853 125.488  1.00  0.00     0.004 C 
ENDBRANCH  18  19
ENDBRANCH  17  18
ENDBRANCH  16  17
ENDBRANCH  15  16
ENDBRANCH  14  15
ENDBRANCH  13  14
ENDBRANCH   2  13
TORSDOF 15
ENDMDL
MODEL 5
REMARK VINA RESULT:     2.469      2.204      3.790
REMARK INTER + INTRA:           3.881
REMARK INTER:                   3.893
REMARK INTRA:                  -0.012
REMARK UNBOUND:                -0.753
REMARK SMILES CCCCCCCCC=CCCCCCCCC(=O)[O-]
REMARK SMILES IDX 10 1 9 2 11 3 12 4 13 5 14 6 15 7 16 8 17 9 18 10 19 11
REMARK SMILES IDX 20 12 8 13 7 14 6 15 5 16 4 17 3 18 2 19 1 20
REMARK H PARENT
REMARK Flexibility Score: inf
ROOT
ATOM      1  C   UNL     1     134.797 128.134 130.159  1.00  0.00    -0.031 C 
ATOM      2  C   UNL     1     134.021 129.155 129.748  1.00  0.00    -0.031 C 
ENDROOT
BRANCH   1   3
ATOM      3  C   UNL     1     135.385 127.086 129.248  1.00  0.00     0.027 C 
BRANCH   3   4
ATOM      4  C   UNL     1     136.877 127.361 129.000  1.00  0.00     0.004 C 
BRANCH   4   5
ATOM      5  C   UNL     1     137.776 126.814 130.120  1.00  0.00     0.000 C 
BRANCH   5   6
ATOM      6  C   UNL     1     137.648 127.618 131.426  1.00  0.00     0.000 C 
BRANCH   6   7
ATOM      7  C   UNL     1     139.014 128.043 131.992  1.00  0.00     0.000 C 
BRANCH   7   8
ATOM      8  C   UNL     1     139.713 129.102 131.123  1.00  0.00     0.006 C 
BRANCH   8   9
ATOM      9  C   UNL     1     140.339 128.493 129.861  1.00  0.00     0.053 C 
BRANCH   9  10
ATOM     10  C   UNL     1     141.806 128.243 130.030  1.00  0.00     0.041 C 
ATOM     11  O   UNL     1     142.264 127.895 131.149  1.00  0.00    -0.550 OA
ATOM     12  O   UNL     1     142.663 128.363 128.943  1.00  0.00    -0.550 OA
ENDBRANCH   9  10
ENDBRANCH   8   9
ENDBRANCH   7   8
ENDBRANCH   6   7
ENDBRANCH   5   6
ENDBRANCH   4   5
ENDBRANCH   3   4
ENDBRANCH   1   3
BRANCH   2  13
ATOM     13  C   UNL     1     133.549 129.356 128.328  1.00  0.00     0.027 C 
BRANCH  13  14
ATOM     14  C   UNL     1     134.529 130.213 127.514  1.00  0.00     0.004 C 
BRANCH  14  15
ATOM     15  C   UNL     1     133.807 131.266 126.659  1.00  0.00     0.000 C 
BRANCH  15  16
ATOM     16  C   UNL     1     132.670 130.626 125.847  1.00  0.00     0.000 C 
BRANCH  16  17
ATOM     17  C   UNL     1     131.838 131.662 125.075  1.00  0.00    -0.000 C 
BRANCH  17  18
ATOM     18  C   UNL     1     130.380 131.220 124.876  1.00  0.00    -0.000 C 
BRANCH  18  19
ATOM     19  C   UNL     1     130.241 129.702 125.037  1.00  0.00    -0.003 C 
ATOM     20  C   UNL     1     129.935 129.327 126.485  1.00  0.00     0.004 C 
ENDBRANCH  18  19
ENDBRANCH  17  18
ENDBRANCH  16  17
ENDBRANCH  15  16
ENDBRANCH  14  15
ENDBRANCH  13  14
ENDBRANCH   2  13
TORSDOF 15
ENDMDL
MODEL 6
REMARK VINA RESULT:     2.968      1.097      2.267
REMARK INTER + INTRA:           4.817
REMARK INTER:                   5.496
REMARK INTRA:                  -0.679
REMARK UNBOUND:                -0.753
REMARK SMILES CCCCCCCCC=CCCCCCCCC(=O)[O-]
REMARK SMILES IDX 10 1 9 2 11 3 12 4 13 5 14 6 15 7 16 8 17 9 18 10 19 11
REMARK SMILES IDX 20 12 8 13 7 14 6 15 5 16 4 17 3 18 2 19 1 20
REMARK H PARENT
REMARK Flexibility Score: inf
ROOT
ATOM      1  C   UNL     1     135.552 128.138 130.355  1.00  0.00    -0.031 C 
ATOM      2  C   UNL     1     134.531 128.863 129.861  1.00  0.00    -0.031 C 
ENDROOT
BRANCH   1   3
ATOM      3  C   UNL     1     136.283 127.061 129.595  1.00  0.00     0.027 C 
BRANCH   3   4
ATOM      4  C   UNL     1     137.787 127.367 129.536  1.00  0.00     0.004 C 
BRANCH   4   5
ATOM      5  C   UNL     1     138.358 127.808 130.894  1.00  0.00     0.000 C 
BRANCH   5   6
ATOM      6  C   UNL     1     139.683 128.577 130.755  1.00  0.00     0.000 C 
BRANCH   6   7
ATOM      7  C   UNL     1     140.572 128.021 129.630  1.00  0.00     0.000 C 
BRANCH   7   8
ATOM      8  C   UNL     1     141.839 128.864 129.403  1.00  0.00     0.006 C 
BRANCH   8   9
ATOM      9  C   UNL     1     143.040 128.004 128.986  1.00  0.00     0.053 C 
BRANCH   9  10
ATOM     10  C   UNL     1     143.582 128.411 127.651  1.00  0.00     0.041 C 
ATOM     11  O   UNL     1     143.795 129.626 127.397  1.00  0.00    -0.550 OA
ATOM     12  O   UNL     1     143.881 127.446 126.697  1.00  0.00    -0.550 OA
ENDBRANCH   9  10
ENDBRANCH   8   9
ENDBRANCH   7   8
ENDBRANCH   6   7
ENDBRANCH   5   6
ENDBRANCH   4   5
ENDBRANCH   3   4
ENDBRANCH   1   3
BRANCH   2  13
ATOM     13  C   UNL     1     133.904 128.648 128.504  1.00  0.00     0.027 C 
BRANCH  13  14
ATOM     14  C   UNL     1     132.785 127.597 128.550  1.00  0.00     0.004 C 
BRANCH  14  15
ATOM     15  C   UNL     1     132.193 127.320 127.160  1.00  0.00     0.000 C 
BRANCH  15  16
ATOM     16  C   UNL     1     131.047 128.295 126.848  1.00  0.00     0.000 C 
BRANCH  16  17
ATOM     17  C   UNL     1     131.549 129.656 126.338  1.00  0.00    -0.000 C 
BRANCH  17  18
ATOM     18  C   UNL     1     130.639 130.254 125.254  1.00  0.00    -0.000 C 
BRANCH  18  19
ATOM     19  C   UNL     1     131.096 131.667 124.875  1.00  0.00    -0.003 C 
ATOM     20  C   UNL     1     132.556 131.895 125.257  1.00  0.00     0.004 C 
ENDBRANCH  18  19
ENDBRANCH  17  18
ENDBRANCH  16  17
ENDBRANCH  15  16
ENDBRANCH  14  15
ENDBRANCH  13  14
ENDBRANCH   2  13
TORSDOF 15
ENDMDL
MODEL 7
REMARK VINA RESULT:     2.973      3.675      9.614
REMARK INTER + INTRA:           4.827
REMARK INTER:                   5.765
REMARK INTRA:                  -0.938
REMARK UNBOUND:                -0.753
REMARK SMILES CCCCCCCCC=CCCCCCCCC(=O)[O-]
REMARK SMILES IDX 10 1 9 2 11 3 12 4 13 5 14 6 15 7 16 8 17 9 18 10 19 11
REMARK SMILES IDX 20 12 8 13 7 14 6 15 5 16 4 17 3 18 2 19 1 20
REMARK H PARENT
REMARK Flexibility Score: inf
ROOT
ATOM      1  C   UNL     1     134.443 128.166 130.008  1.00  0.00    -0.031 C 
ATOM      2  C   UNL     1     135.602 127.517 130.228  1.00  0.00    -0.031 C 
ENDROOT
BRANCH   1   3
ATOM      3  C   UNL     1     133.886 128.483 128.644  1.00  0.00     0.027 C 
BRANCH   3   4
ATOM      4  C   UNL     1     133.249 127.234 128.016  1.00  0.00     0.004 C 
BRANCH   4   5
ATOM      5  C   UNL     1     131.951 127.547 127.254  1.00  0.00     0.000 C 
BRANCH   5   6
ATOM      6  C   UNL     1     131.504 129.009 127.427  1.00  0.00     0.000 C 
BRANCH   6   7
ATOM      7  C   UNL     1     130.233 129.336 126.626  1.00  0.00     0.000 C 
BRANCH   7   8
ATOM      8  C   UNL     1     130.529 129.663 125.151  1.00  0.00     0.006 C 
BRANCH   8   9
ATOM      9  C   UNL     1     130.503 131.173 124.877  1.00  0.00     0.053 C 
BRANCH   9  10
ATOM     10  C   UNL     1     131.877 131.768 124.900  1.00  0.00     0.041 C 
ATOM     11  O   UNL     1     132.891 131.023 124.875  1.00  0.00    -0.550 OA
ATOM     12  O   UNL     1     132.038 133.148 124.916  1.00  0.00    -0.550 OA
ENDBRANCH   9  10
ENDBRANCH   8   9
ENDBRANCH   7   8
ENDBRANCH   6   7
ENDBRANCH   5   6
ENDBRANCH   4   5
ENDBRANCH   3   4
ENDBRANCH   1   3
BRANCH   2  13
ATOM     13  C   UNL     1     136.564 127.087 129.146  1.00  0.00     0.027 C 
BRANCH  13  14
ATOM     14  C   UNL     1     138.012 127.036 129.653  1.00  0.00     0.004 C 
BRANCH  14  15
ATOM     15  C   UNL     1     138.445 128.359 130.304  1.00  0.00     0.000 C 
BRANCH  15  16
ATOM     16  C   UNL     1     139.183 128.103 131.627  1.00  0.00     0.000 C 
BRANCH  16  17
ATOM     17  C   UNL     1     140.675 127.796 131.424  1.00  0.00    -0.000 C 
BRANCH  17  18
ATOM     18  C   UNL     1     141.322 128.689 130.353  1.00  0.00    -0.000 C 
BRANCH  18  19
ATOM     19  C   UNL     1     142.727 128.189 130.000  1.00  0.00    -0.003 C 
ATOM     20  C   UNL     1     142.970 128.243 128.495  1.00  0.00     0.004 C 
ENDBRANCH  18  19
ENDBRANCH  17  18
ENDBRANCH  16  17
ENDBRANCH  15  16
ENDBRANCH  14  15
ENDBRANCH  13  14
ENDBRANCH   2  13
TORSDOF 15
ENDMDL
MODEL 8
REMARK VINA RESULT:     2.992      4.552      9.873
REMARK INTER + INTRA:           4.862
REMARK INTER:                   5.114
REMARK INTRA:                  -0.252
REMARK UNBOUND:                -0.753
REMARK SMILES CCCCCCCCC=CCCCCCCCC(=O)[O-]
REMARK SMILES IDX 10 1 9 2 11 3 12 4 13 5 14 6 15 7 16 8 17 9 18 10 19 11
REMARK SMILES IDX 20 12 8 13 7 14 6 15 5 16 4 17 3 18 2 19 1 20
REMARK H PARENT
REMARK Flexibility Score: inf
ROOT
ATOM      1  C   UNL     1     134.579 128.501 130.034  1.00  0.00    -0.031 C 
ATOM      2  C   UNL     1     135.619 127.695 130.320  1.00  0.00    -0.031 C 
ENDROOT
BRANCH   1   3
ATOM      3  C   UNL     1     134.057 128.763 128.645  1.00  0.00     0.027 C 
BRANCH   3   4
ATOM      4  C   UNL     1     133.745 130.256 128.457  1.00  0.00     0.004 C 
BRANCH   4   5
ATOM      5  C   UNL     1     133.908 130.719 127.000  1.00  0.00     0.000 C 
BRANCH   5   6
ATOM      6  C   UNL     1     132.722 130.301 126.113  1.00  0.00     0.000 C 
BRANCH   6   7
ATOM      7  C   UNL     1     132.174 131.468 125.274  1.00  0.00     0.000 C 
BRANCH   7   8
ATOM      8  C   UNL     1     130.672 131.326 124.970  1.00  0.00     0.006 C 
BRANCH   8   9
ATOM      9  C   UNL     1     130.209 129.863 125.012  1.00  0.00     0.053 C 
BRANCH   9  10
ATOM     10  C   UNL     1     129.885 129.420 126.405  1.00  0.00     0.041 C 
ATOM     11  O   UNL     1     130.192 128.261 126.789  1.00  0.00    -0.550 OA
ATOM     12  O   UNL     1     129.270 130.297 127.290  1.00  0.00    -0.550 OA
ENDBRANCH   9  10
ENDBRANCH   8   9
ENDBRANCH   7   8
ENDBRANCH   6   7
ENDBRANCH   5   6
ENDBRANCH   4   5
ENDBRANCH   3   4
ENDBRANCH   1   3
BRANCH   2  13
ATOM     13  C   UNL     1     136.478 127.004 129.288  1.00  0.00     0.027 C 
BRANCH  13  14
ATOM     14  C   UNL     1     137.941 126.891 129.742  1.00  0.00     0.004 C 
BRANCH  14  15
ATOM     15  C   UNL     1     138.469 128.210 130.326  1.00  0.00     0.000 C 
BRANCH  15  16
ATOM     16  C   UNL     1     139.302 127.953 131.592  1.00  0.00     0.000 C 
BRANCH  16  17
ATOM     17  C   UNL     1     140.811 128.110 131.350  1.00  0.00    -0.000 C 
BRANCH  17  18
ATOM     18  C   UNL     1     141.156 128.297 129.864  1.00  0.00    -0.000 C 
BRANCH  18  19
ATOM     19  C   UNL     1     142.673 128.399 129.663  1.00  0.00    -0.003 C 
ATOM     20  C   UNL     1     143.035 128.368 128.181  1.00  0.00     0.004 C 
ENDBRANCH  18  19
ENDBRANCH  17  18
ENDBRANCH  16  17
ENDBRANCH  15  16
ENDBRANCH  14  15
ENDBRANCH  13  14
ENDBRANCH   2  13
TORSDOF 15
ENDMDL
MODEL 9
REMARK VINA RESULT:     3.078      2.647      3.350
REMARK INTER + INTRA:           5.023
REMARK INTER:                   6.330
REMARK INTRA:                  -1.307
REMARK UNBOUND:                -0.753
REMARK SMILES CCCCCCCCC=CCCCCCCCC(=O)[O-]
REMARK SMILES IDX 10 1 9 2 11 3 12 4 13 5 14 6 15 7 16 8 17 9 18 10 19 11
REMARK SMILES IDX 20 12 8 13 7 14 6 15 5 16 4 17 3 18 2 19 1 20
REMARK H PARENT
REMARK Flexibility Score: inf
ROOT
ATOM      1  C   UNL     1     136.915 126.803 130.238  1.00  0.00    -0.031 C 
ATOM      2  C   UNL     1     135.936 127.172 129.390  1.00  0.00    -0.031 C 
ENDROOT
BRANCH   1   3
ATOM      3  C   UNL     1     137.084 127.343 131.636  1.00  0.00     0.027 C 
BRANCH   3   4
ATOM      4  C   UNL     1     138.119 128.477 131.656  1.00  0.00     0.004 C 
BRANCH   4   5
ATOM      5  C   UNL     1     139.564 127.965 131.546  1.00  0.00     0.000 C 
BRANCH   5   6
ATOM      6  C   UNL     1     140.273 128.468 130.276  1.00  0.00     0.000 C 
BRANCH   6   7
ATOM      7  C   UNL     1     139.509 128.105 128.991  1.00  0.00     0.000 C 
BRANCH   7   8
ATOM      8  C   UNL     1     138.857 129.328 128.324  1.00  0.00     0.006 C 
BRANCH   8   9
ATOM      9  C   UNL     1     137.919 128.929 127.176  1.00  0.00     0.053 C 
BRANCH   9  10
ATOM     10  C   UNL     1     138.078 129.828 125.988  1.00  0.00     0.041 C 
ATOM     11  O   UNL     1     137.435 130.908 125.921  1.00  0.00    -0.550 OA
ATOM     12  O   UNL     1     138.958 129.486 124.969  1.00  0.00    -0.550 OA
ENDBRANCH   9  10
ENDBRANCH   8   9
ENDBRANCH   7   8
ENDBRANCH   6   7
ENDBRANCH   5   6
ENDBRANCH   4   5
ENDBRANCH   3   4
ENDBRANCH   1   3
BRANCH   2  13
ATOM     13  C   UNL     1     134.914 128.245 129.674  1.00  0.00     0.027 C 
BRANCH  13  14
ATOM     14  C   UNL     1     134.077 128.584 128.432  1.00  0.00     0.004 C 
BRANCH  14  15
ATOM     15  C   UNL     1     133.697 130.071 128.377  1.00  0.00     0.000 C 
BRANCH  15  16
ATOM     16  C   UNL     1     134.026 130.670 127.001  1.00  0.00     0.000 C 
BRANCH  16  17
ATOM     17  C   UNL     1     132.771 131.104 126.228  1.00  0.00    -0.000 C 
BRANCH  17  18
ATOM     18  C   UNL     1     132.063 129.926 125.539  1.00  0.00    -0.000 C 
BRANCH  18  19
ATOM     19  C   UNL     1     130.560 130.193 125.407  1.00  0.00    -0.003 C 
ATOM     20  C   UNL     1     129.757 129.303 126.351  1.00  0.00     0.004 C 
ENDBRANCH  18  19
ENDBRANCH  17  18
ENDBRANCH  16  17
ENDBRANCH  15  16
ENDBRANCH  14  15
ENDBRANCH  13  14
ENDBRANCH   2  13
TORSDOF 15
ENDMDL
