MODEL 1
REMARK VINA RESULT:    -4.304      0.000      0.000
REMARK INTER + INTRA:          -8.444
REMARK INTER:                  -6.568
REMARK INTRA:                  -1.876
REMARK UNBOUND:                -1.876
REMARK SMILES OC[C@@H]1O[C@](CO)(O[C@@H]2O[C@H](CO)[C@@H](O)[C@H](O)[C@@H]2O)[C@@H](O)[C@H]1O
REMARK SMILES IDX 8 1 9 2 11 3 14 4 10 5 16 6 18 7 12 8 13 9 15 11 17 13 19 15
REMARK SMILES IDX 5 17 20 18 4 19 22 20 3 21 6 22 7 23 21 25 23 27 2 29 1 30
REMARK H PARENT 13 10 15 12 17 14 19 16 7 24 21 26 23 28 1 31
REMARK Flexibility Score: inf
ROOT
ATOM      1  O   UNL     1      43.188   3.068 103.276  1.00  0.00    -0.313 OA
ENDROOT
BRANCH   1   2
ATOM      2  C   UNL     1      42.310   3.884 104.041  1.00  0.00     0.285 C 
ATOM      3  C   UNL     1      42.033   2.323 105.837  1.00  0.00     0.178 C 
ATOM      4  C   UNL     1      40.584   1.989 105.400  1.00  0.00     0.177 C 
ATOM      5  O   UNL     1      42.465   3.619 105.430  1.00  0.00    -0.341 OA
ATOM      6  C   UNL     1      40.344   2.287 103.910  1.00  0.00     0.179 C 
ATOM      7  C   UNL     1      40.856   3.698 103.578  1.00  0.00     0.202 C 
BRANCH   3   8
ATOM      8  C   UNL     1      43.052   1.214 105.511  1.00  0.00     0.191 C 
BRANCH   8   9
ATOM      9  O   UNL     1      44.354   1.687 105.723  1.00  0.00    -0.394 OA
ATOM     10  H   UNL     1      44.962   0.947 105.466  1.00  0.00     0.210 HD
ENDBRANCH   8   9
ENDBRANCH   3   8
BRANCH   4  11
ATOM     11  O   UNL     1      39.693   2.747 106.180  1.00  0.00    -0.387 OA
ATOM     12  H   UNL     1      40.210   3.503 106.562  1.00  0.00     0.211 HD
ENDBRANCH   4  11
BRANCH   6  13
ATOM     13  O   UNL     1      40.981   1.317 103.117  1.00  0.00    -0.387 OA
ATOM     14  H   UNL     1      41.238   0.573 103.721  1.00  0.00     0.211 HD
ENDBRANCH   6  13
BRANCH   7  15
ATOM     15  O   UNL     1      40.768   3.945 102.198  1.00  0.00    -0.385 OA
ATOM     16  H   UNL     1      41.698   4.048 101.864  1.00  0.00     0.211 HD
ENDBRANCH   7  15
ENDBRANCH   1   2
BRANCH   1  17
ATOM     17  C   UNL     1      44.098   3.780 102.441  1.00  0.00     0.224 C 
ATOM     18  C   UNL     1      45.556   3.684 102.988  1.00  0.00     0.208 C 
ATOM     19  O   UNL     1      43.728   5.146 102.356  1.00  0.00    -0.337 OA
ATOM     20  C   UNL     1      45.873   5.116 103.391  1.00  0.00     0.180 C 
ATOM     21  C   UNL     1      44.889   5.924 102.552  1.00  0.00     0.179 C 
BRANCH  17  22
ATOM     22  C   UNL     1      43.936   3.175 101.030  1.00  0.00     0.225 C 
BRANCH  22  23
ATOM     23  O   UNL     1      42.953   2.175 101.035  1.00  0.00    -0.391 OA
ATOM     24  H   UNL     1      42.158   2.567 100.592  1.00  0.00     0.210 HD
ENDBRANCH  22  23
ENDBRANCH  17  22
BRANCH  18  25
ATOM     25  O   UNL     1      46.480   3.173 102.051  1.00  0.00    -0.385 OA
ATOM     26  H   UNL     1      47.198   3.846 101.917  1.00  0.00     0.211 HD
ENDBRANCH  18  25
BRANCH  20  27
ATOM     27  O   UNL     1      47.198   5.483 103.103  1.00  0.00    -0.387 OA
ATOM     28  H   UNL     1      47.321   6.398 103.467  1.00  0.00     0.211 HD
ENDBRANCH  20  27
BRANCH  21  29
ATOM     29  C   UNL     1      44.522   7.251 103.229  1.00  0.00     0.191 C 
BRANCH  29  30
ATOM     30  O   UNL     1      45.593   7.725 103.999  1.00  0.00    -0.394 OA
ATOM     31  H   UNL     1      46.070   6.928 104.349  1.00  0.00     0.210 HD
ENDBRANCH  29  30
ENDBRANCH  21  29
ENDBRANCH   1  17
TORSDOF 13
ENDMDL
MODEL 2
REMARK VINA RESULT:    -4.248      1.649      3.446
REMARK INTER + INTRA:          -8.359
REMARK INTER:                  -6.584
REMARK INTRA:                  -1.775
REMARK UNBOUND:                -1.876
REMARK SMILES OC[C@@H]1O[C@](CO)(O[C@@H]2O[C@H](CO)[C@@H](O)[C@H](O)[C@@H]2O)[C@@H](O)[C@H]1O
REMARK SMILES IDX 8 1 9 2 11 3 14 4 10 5 16 6 18 7 12 8 13 9 15 11 17 13 19 15
REMARK SMILES IDX 5 17 20 18 4 19 22 20 3 21 6 22 7 23 21 25 23 27 2 29 1 30
REMARK H PARENT 13 10 15 12 17 14 19 16 7 24 21 26 23 28 1 31
REMARK Flexibility Score: inf
ROOT
ATOM      1  O   UNL     1      42.865   3.094 103.411  1.00  0.00    -0.313 OA
ENDROOT
BRANCH   1   2
ATOM      2  C   UNL     1      41.706   3.824 103.794  1.00  0.00     0.285 C 
ATOM      3  C   UNL     1      41.938   3.431 106.145  1.00  0.00     0.178 C 
ATOM      4  C   UNL     1      40.745   2.441 106.156  1.00  0.00     0.177 C 
ATOM      5  O   UNL     1      41.875   4.386 105.090  1.00  0.00    -0.341 OA
ATOM      6  C   UNL     1      40.491   1.824 104.771  1.00  0.00     0.179 C 
ATOM      7  C   UNL     1      40.454   2.936 103.710  1.00  0.00     0.202 C 
BRANCH   3   8
ATOM      8  C   UNL     1      43.314   2.746 106.262  1.00  0.00     0.191 C 
BRANCH   8   9
ATOM      9  O   UNL     1      43.159   1.453 106.778  1.00  0.00    -0.394 OA
ATOM     10  H   UNL     1      42.540   1.535 107.549  1.00  0.00     0.210 HD
ENDBRANCH   8   9
ENDBRANCH   3   8
BRANCH   4  11
ATOM     11  O   UNL     1      39.595   3.129 106.583  1.00  0.00    -0.387 OA
ATOM     12  H   UNL     1      39.886   3.792 107.261  1.00  0.00     0.211 HD
ENDBRANCH   4  11
BRANCH   6  13
ATOM     13  O   UNL     1      41.486   0.876 104.477  1.00  0.00    -0.387 OA
ATOM     14  H   UNL     1      41.070   0.194 103.887  1.00  0.00     0.211 HD
ENDBRANCH   6  13
BRANCH   7  15
ATOM     15  O   UNL     1      40.353   2.388 102.420  1.00  0.00    -0.385 OA
ATOM     16  H   UNL     1      40.237   3.149 101.793  1.00  0.00     0.211 HD
ENDBRANCH   7  15
ENDBRANCH   1   2
BRANCH   1  17
ATOM     17  C   UNL     1      43.446   3.492 102.172  1.00  0.00     0.224 C 
ATOM     18  C   UNL     1      42.838   4.840 101.673  1.00  0.00     0.208 C 
ATOM     19  O   UNL     1      43.232   2.499 101.182  1.00  0.00    -0.337 OA
ATOM     20  C   UNL     1      42.090   4.441 100.411  1.00  0.00     0.180 C 
ATOM     21  C   UNL     1      42.780   3.143 100.011  1.00  0.00     0.179 C 
BRANCH  17  22
ATOM     22  C   UNL     1      44.966   3.566 102.423  1.00  0.00     0.225 C 
BRANCH  22  23
ATOM     23  O   UNL     1      45.241   4.366 103.541  1.00  0.00    -0.391 OA
ATOM     24  H   UNL     1      44.879   3.879 104.325  1.00  0.00     0.210 HD
ENDBRANCH  22  23
ENDBRANCH  17  22
BRANCH  18  25
ATOM     25  O   UNL     1      43.804   5.841 101.431  1.00  0.00    -0.385 OA
ATOM     26  H   UNL     1      44.146   5.731 100.505  1.00  0.00     0.211 HD
ENDBRANCH  18  25
BRANCH  20  27
ATOM     27  O   UNL     1      42.193   5.400  99.390  1.00  0.00    -0.387 OA
ATOM     28  H   UNL     1      41.271   5.723  99.215  1.00  0.00     0.211 HD
ENDBRANCH  20  27
BRANCH  21  29
ATOM     29  C   UNL     1      41.836   2.214  99.234  1.00  0.00     0.191 C 
BRANCH  29  30
ATOM     30  O   UNL     1      40.520   2.693  99.287  1.00  0.00    -0.394 OA
ATOM     31  H   UNL     1      40.306   2.839 100.245  1.00  0.00     0.210 HD
ENDBRANCH  29  30
ENDBRANCH  21  29
ENDBRANCH   1  17
TORSDOF 13
ENDMDL
MODEL 3
REMARK VINA RESULT:    -4.095      1.857      5.088
REMARK INTER + INTRA:          -8.126
REMARK INTER:                  -6.609
REMARK INTRA:                  -1.516
REMARK UNBOUND:                -1.876
REMARK SMILES OC[C@@H]1O[C@](CO)(O[C@@H]2O[C@H](CO)[C@@H](O)[C@H](O)[C@@H]2O)[C@@H](O)[C@H]1O
REMARK SMILES IDX 8 1 9 2 11 3 14 4 10 5 16 6 18 7 12 8 13 9 15 11 17 13 19 15
REMARK SMILES IDX 5 17 20 18 4 19 22 20 3 21 6 22 7 23 21 25 23 27 2 29 1 30
REMARK H PARENT 13 10 15 12 17 14 19 16 7 24 21 26 23 28 1 31
REMARK Flexibility Score: inf
ROOT
ATOM      1  O   UNL     1      41.666   2.696 103.053  1.00  0.00    -0.313 OA
ENDROOT
BRANCH   1   2
ATOM      2  C   UNL     1      42.619   2.042 102.224  1.00  0.00     0.285 C 
ATOM      3  C   UNL     1      44.151   3.881 102.118  1.00  0.00     0.178 C 
ATOM      4  C   UNL     1      43.775   4.184 100.646  1.00  0.00     0.177 C 
ATOM      5  O   UNL     1      43.930   2.523 102.493  1.00  0.00    -0.341 OA
ATOM      6  C   UNL     1      42.377   3.656 100.283  1.00  0.00     0.179 C 
ATOM      7  C   UNL     1      42.243   2.195 100.741  1.00  0.00     0.202 C 
BRANCH   3   8
ATOM      8  C   UNL     1      43.571   4.890 103.128  1.00  0.00     0.191 C 
BRANCH   8   9
ATOM      9  O   UNL     1      43.393   6.134 102.508  1.00  0.00    -0.394 OA
ATOM     10  H   UNL     1      43.664   6.012 101.562  1.00  0.00     0.210 HD
ENDBRANCH   8   9
ENDBRANCH   3   8
BRANCH   4  11
ATOM     11  O   UNL     1      44.734   3.590  99.806  1.00  0.00    -0.387 OA
ATOM     12  H   UNL     1      45.590   3.572 100.308  1.00  0.00     0.211 HD
ENDBRANCH   4  11
BRANCH   6  13
ATOM     13  O   UNL     1      41.390   4.464 100.872  1.00  0.00    -0.387 OA
ATOM     14  H   UNL     1      41.442   5.352 100.431  1.00  0.00     0.211 HD
ENDBRANCH   6  13
BRANCH   7  15
ATOM     15  O   UNL     1      40.933   1.730 100.539  1.00  0.00    -0.385 OA
ATOM     16  H   UNL     1      40.359   2.186 101.209  1.00  0.00     0.211 HD
ENDBRANCH   7  15
ENDBRANCH   1   2
BRANCH   1  17
ATOM     17  C   UNL     1      41.490   2.114 104.342  1.00  0.00     0.224 C 
ATOM     18  C   UNL     1      40.976   3.170 105.369  1.00  0.00     0.208 C 
ATOM     19  O   UNL     1      42.712   1.571 104.813  1.00  0.00    -0.337 OA
ATOM     20  C   UNL     1      42.137   3.304 106.343  1.00  0.00     0.180 C 
ATOM     21  C   UNL     1      42.888   1.992 106.149  1.00  0.00     0.179 C 
BRANCH  17  22
ATOM     22  C   UNL     1      40.514   0.935 104.142  1.00  0.00     0.225 C 
BRANCH  22  23
ATOM     23  O   UNL     1      39.538   1.262 103.191  1.00  0.00    -0.391 OA
ATOM     24  H   UNL     1      38.675   1.291 103.679  1.00  0.00     0.210 HD
ENDBRANCH  22  23
ENDBRANCH  17  22
BRANCH  18  25
ATOM     25  O   UNL     1      39.776   2.797 106.013  1.00  0.00    -0.385 OA
ATOM     26  H   UNL     1      39.951   2.723 106.988  1.00  0.00     0.211 HD
ENDBRANCH  18  25
BRANCH  20  27
ATOM     27  O   UNL     1      41.718   3.450 107.675  1.00  0.00    -0.387 OA
ATOM     28  H   UNL     1      42.142   4.281 108.013  1.00  0.00     0.211 HD
ENDBRANCH  20  27
BRANCH  21  29
ATOM     29  C   UNL     1      44.384   2.143 106.457  1.00  0.00     0.191 C 
BRANCH  29  30
ATOM     30  O   UNL     1      45.103   2.419 105.286  1.00  0.00    -0.394 OA
ATOM     31  H   UNL     1      45.201   3.405 105.236  1.00  0.00     0.210 HD
ENDBRANCH  29  30
ENDBRANCH  21  29
ENDBRANCH   1  17
TORSDOF 13
ENDMDL
MODEL 4
REMARK VINA RESULT:    -3.998      2.490      4.612
REMARK INTER + INTRA:          -7.978
REMARK INTER:                  -5.923
REMARK INTRA:                  -2.055
REMARK UNBOUND:                -1.876
REMARK SMILES OC[C@@H]1O[C@](CO)(O[C@@H]2O[C@H](CO)[C@@H](O)[C@H](O)[C@@H]2O)[C@@H](O)[C@H]1O
REMARK SMILES IDX 8 1 9 2 11 3 14 4 10 5 16 6 18 7 12 8 13 9 15 11 17 13 19 15
REMARK SMILES IDX 5 17 20 18 4 19 22 20 3 21 6 22 7 23 21 25 23 27 2 29 1 30
REMARK H PARENT 13 10 15 12 17 14 19 16 7 24 21 26 23 28 1 31
REMARK Flexibility Score: inf
ROOT
ATOM      1  O   UNL     1      43.175   2.455 101.287  1.00  0.00    -0.313 OA
ENDROOT
BRANCH   1   2
ATOM      2  C   UNL     1      42.829   3.826 101.437  1.00  0.00     0.285 C 
ATOM      3  C   UNL     1      43.706   4.057 103.654  1.00  0.00     0.178 C 
ATOM      4  C   UNL     1      42.285   4.116 104.271  1.00  0.00     0.177 C 
ATOM      5  O   UNL     1      43.753   4.484 102.295  1.00  0.00    -0.341 OA
ATOM      6  C   UNL     1      41.233   3.448 103.371  1.00  0.00     0.179 C 
ATOM      7  C   UNL     1      41.381   3.968 101.932  1.00  0.00     0.202 C 
BRANCH   3   8
ATOM      8  C   UNL     1      44.433   2.720 103.894  1.00  0.00     0.191 C 
BRANCH   8   9
ATOM      9  O   UNL     1      45.613   2.679 103.140  1.00  0.00    -0.394 OA
ATOM     10  H   UNL     1      45.928   3.616 103.068  1.00  0.00     0.210 HD
ENDBRANCH   8   9
ENDBRANCH   3   8
BRANCH   4  11
ATOM     11  O   UNL     1      41.940   5.464 104.478  1.00  0.00    -0.387 OA
ATOM     12  H   UNL     1      41.065   5.612 104.034  1.00  0.00     0.211 HD
ENDBRANCH   4  11
BRANCH   6  13
ATOM     13  O   UNL     1      41.374   2.050 103.421  1.00  0.00    -0.387 OA
ATOM     14  H   UNL     1      42.199   1.861 103.939  1.00  0.00     0.211 HD
ENDBRANCH   6  13
BRANCH   7  15
ATOM     15  O   UNL     1      40.518   3.279 101.064  1.00  0.00    -0.385 OA
ATOM     16  H   UNL     1      39.920   2.725 101.632  1.00  0.00     0.211 HD
ENDBRANCH   7  15
ENDBRANCH   1   2
BRANCH   1  17
ATOM     17  C   UNL     1      43.375   2.027  99.942  1.00  0.00     0.224 C 
ATOM     18  C   UNL     1      43.612   3.244  98.995  1.00  0.00     0.208 C 
ATOM     19  O   UNL     1      42.251   1.298  99.480  1.00  0.00    -0.337 OA
ATOM     20  C   UNL     1      42.387   3.230  98.094  1.00  0.00     0.180 C 
ATOM     21  C   UNL     1      41.912   1.785  98.200  1.00  0.00     0.179 C 
BRANCH  17  22
ATOM     22  C   UNL     1      44.567   1.048  99.985  1.00  0.00     0.225 C 
BRANCH  22  23
ATOM     23  O   UNL     1      45.709   1.686 100.490  1.00  0.00    -0.391 OA
ATOM     24  H   UNL     1      46.433   1.009 100.477  1.00  0.00     0.210 HD
ENDBRANCH  22  23
ENDBRANCH  17  22
BRANCH  18  25
ATOM     25  O   UNL     1      44.817   3.166  98.263  1.00  0.00    -0.385 OA
ATOM     26  H   UNL     1      44.760   2.393  97.642  1.00  0.00     0.211 HD
ENDBRANCH  18  25
BRANCH  20  27
ATOM     27  O   UNL     1      42.684   3.564  96.763  1.00  0.00    -0.387 OA
ATOM     28  H   UNL     1      43.611   3.251  96.595  1.00  0.00     0.211 HD
ENDBRANCH  20  27
BRANCH  21  29
ATOM     29  C   UNL     1      40.398   1.668  97.978  1.00  0.00     0.191 C 
BRANCH  29  30
ATOM     30  O   UNL     1      39.789   2.928  98.056  1.00  0.00    -0.394 OA
ATOM     31  H   UNL     1      40.005   3.296  98.952  1.00  0.00     0.210 HD
ENDBRANCH  29  30
ENDBRANCH  21  29
ENDBRANCH   1  17
TORSDOF 13
ENDMDL
MODEL 5
REMARK VINA RESULT:    -3.855      2.309      5.779
REMARK INTER + INTRA:          -7.760
REMARK INTER:                  -5.922
REMARK INTRA:                  -1.838
REMARK UNBOUND:                -1.876
REMARK SMILES OC[C@@H]1O[C@](CO)(O[C@@H]2O[C@H](CO)[C@@H](O)[C@H](O)[C@@H]2O)[C@@H](O)[C@H]1O
REMARK SMILES IDX 8 1 9 2 11 3 14 4 10 5 16 6 18 7 12 8 13 9 15 11 17 13 19 15
REMARK SMILES IDX 5 17 20 18 4 19 22 20 3 21 6 22 7 23 21 25 23 27 2 29 1 30
REMARK H PARENT 13 10 15 12 17 14 19 16 7 24 21 26 23 28 1 31
REMARK Flexibility Score: inf
ROOT
ATOM      1  O   UNL     1      45.382   5.494 102.701  1.00  0.00    -0.313 OA
ENDROOT
BRANCH   1   2
ATOM      2  C   UNL     1      45.672   4.259 103.344  1.00  0.00     0.285 C 
ATOM      3  C   UNL     1      47.771   4.952 104.267  1.00  0.00     0.178 C 
ATOM      4  C   UNL     1      48.566   4.078 103.263  1.00  0.00     0.177 C 
ATOM      5  O   UNL     1      46.451   4.475 104.514  1.00  0.00    -0.341 OA
ATOM      6  C   UNL     1      47.761   3.780 101.988  1.00  0.00     0.179 C 
ATOM      7  C   UNL     1      46.355   3.287 102.368  1.00  0.00     0.202 C 
BRANCH   3   8
ATOM      8  C   UNL     1      47.822   6.460 103.953  1.00  0.00     0.191 C 
BRANCH   8   9
ATOM      9  O   UNL     1      46.968   7.154 104.820  1.00  0.00    -0.394 OA
ATOM     10  H   UNL     1      47.208   8.113 104.736  1.00  0.00     0.210 HD
ENDBRANCH   8   9
ENDBRANCH   3   8
BRANCH   4  11
ATOM     11  O   UNL     1      48.909   2.869 103.895  1.00  0.00    -0.387 OA
ATOM     12  H   UNL     1      48.484   2.877 104.792  1.00  0.00     0.211 HD
ENDBRANCH   4  11
BRANCH   6  13
ATOM     13  O   UNL     1      47.693   4.931 101.183  1.00  0.00    -0.387 OA
ATOM     14  H   UNL     1      47.602   5.707 101.794  1.00  0.00     0.211 HD
ENDBRANCH   6  13
BRANCH   7  15
ATOM     15  O   UNL     1      45.557   3.133 101.223  1.00  0.00    -0.385 OA
ATOM     16  H   UNL     1      46.065   3.522 100.463  1.00  0.00     0.211 HD
ENDBRANCH   7  15
ENDBRANCH   1   2
BRANCH   1  17
ATOM     17  C   UNL     1      43.995   5.781 102.544  1.00  0.00     0.224 C 
ATOM     18  C   UNL     1      43.142   5.035 103.615  1.00  0.00     0.208 C 
ATOM     19  O   UNL     1      43.551   5.396 101.254  1.00  0.00    -0.337 OA
ATOM     20  C   UNL     1      42.330   4.047 102.791  1.00  0.00     0.180 C 
ATOM     21  C   UNL     1      42.344   4.681 101.405  1.00  0.00     0.179 C 
BRANCH  17  22
ATOM     22  C   UNL     1      43.871   7.317 102.629  1.00  0.00     0.225 C 
BRANCH  22  23
ATOM     23  O   UNL     1      44.539   7.801 103.762  1.00  0.00    -0.391 OA
ATOM     24  H   UNL     1      43.834   8.105 104.390  1.00  0.00     0.210 HD
ENDBRANCH  22  23
ENDBRANCH  17  22
BRANCH  18  25
ATOM     25  O   UNL     1      42.324   5.890 104.386  1.00  0.00    -0.385 OA
ATOM     26  H   UNL     1      42.107   5.433 105.241  1.00  0.00     0.211 HD
ENDBRANCH  18  25
BRANCH  20  27
ATOM     27  O   UNL     1      41.015   3.895 103.260  1.00  0.00    -0.387 OA
ATOM     28  H   UNL     1      40.968   2.995 103.676  1.00  0.00     0.211 HD
ENDBRANCH  20  27
BRANCH  21  29
ATOM     29  C   UNL     1      42.218   3.626 100.297  1.00  0.00     0.191 C 
BRANCH  29  30
ATOM     30  O   UNL     1      40.941   3.048 100.309  1.00  0.00    -0.394 OA
ATOM     31  H   UNL     1      41.072   2.064 100.314  1.00  0.00     0.210 HD
ENDBRANCH  29  30
ENDBRANCH  21  29
ENDBRANCH   1  17
TORSDOF 13
ENDMDL
MODEL 6
REMARK VINA RESULT:    -3.854      2.171      5.426
REMARK INTER + INTRA:          -7.758
REMARK INTER:                  -5.916
REMARK INTRA:                  -1.842
REMARK UNBOUND:                -1.876
REMARK SMILES OC[C@@H]1O[C@](CO)(O[C@@H]2O[C@H](CO)[C@@H](O)[C@H](O)[C@@H]2O)[C@@H](O)[C@H]1O
REMARK SMILES IDX 8 1 9 2 11 3 14 4 10 5 16 6 18 7 12 8 13 9 15 11 17 13 19 15
REMARK SMILES IDX 5 17 20 18 4 19 22 20 3 21 6 22 7 23 21 25 23 27 2 29 1 30
REMARK H PARENT 13 10 15 12 17 14 19 16 7 24 21 26 23 28 1 31
REMARK Flexibility Score: inf
ROOT
ATOM      1  O   UNL     1      44.888   3.891 103.009  1.00  0.00    -0.313 OA
ENDROOT
BRANCH   1   2
ATOM      2  C   UNL     1      45.324   2.937 102.048  1.00  0.00     0.285 C 
ATOM      3  C   UNL     1      46.317   1.437 103.629  1.00  0.00     0.178 C 
ATOM      4  C   UNL     1      47.751   1.834 103.193  1.00  0.00     0.177 C 
ATOM      5  O   UNL     1      45.339   1.631 102.612  1.00  0.00    -0.341 OA
ATOM      6  C   UNL     1      47.794   3.228 102.544  1.00  0.00     0.179 C 
ATOM      7  C   UNL     1      46.695   3.333 101.475  1.00  0.00     0.202 C 
BRANCH   3   8
ATOM      8  C   UNL     1      45.898   2.022 104.993  1.00  0.00     0.191 C 
BRANCH   8   9
ATOM      9  O   UNL     1      47.038   2.349 105.739  1.00  0.00    -0.394 OA
ATOM     10  H   UNL     1      47.413   3.169 105.325  1.00  0.00     0.210 HD
ENDBRANCH   8   9
ENDBRANCH   3   8
BRANCH   4  11
ATOM     11  O   UNL     1      48.224   0.875 102.280  1.00  0.00    -0.387 OA
ATOM     12  H   UNL     1      47.813   0.007 102.529  1.00  0.00     0.211 HD
ENDBRANCH   4  11
BRANCH   6  13
ATOM     13  O   UNL     1      47.642   4.221 103.526  1.00  0.00    -0.387 OA
ATOM     14  H   UNL     1      46.695   4.195 103.820  1.00  0.00     0.211 HD
ENDBRANCH   6  13
BRANCH   7  15
ATOM     15  O   UNL     1      46.628   4.638 100.958  1.00  0.00    -0.385 OA
ATOM     16  H   UNL     1      47.453   4.776 100.422  1.00  0.00     0.211 HD
ENDBRANCH   7  15
ENDBRANCH   1   2
BRANCH   1  17
ATOM     17  C   UNL     1      43.752   4.659 102.623  1.00  0.00     0.224 C 
ATOM     18  C   UNL     1      42.446   4.092 103.261  1.00  0.00     0.208 C 
ATOM     19  O   UNL     1      43.610   4.661 101.212  1.00  0.00    -0.337 OA
ATOM     20  C   UNL     1      41.659   3.589 102.061  1.00  0.00     0.180 C 
ATOM     21  C   UNL     1      42.257   4.391 100.911  1.00  0.00     0.179 C 
BRANCH  17  22
ATOM     22  C   UNL     1      44.059   6.110 103.051  1.00  0.00     0.225 C 
BRANCH  22  23
ATOM     23  O   UNL     1      45.439   6.352 103.009  1.00  0.00    -0.391 OA
ATOM     24  H   UNL     1      45.545   7.315 102.800  1.00  0.00     0.210 HD
ENDBRANCH  22  23
ENDBRANCH  17  22
BRANCH  18  25
ATOM     25  O   UNL     1      41.725   5.043 104.016  1.00  0.00    -0.385 OA
ATOM     26  H   UNL     1      41.427   5.768 103.406  1.00  0.00     0.211 HD
ENDBRANCH  18  25
BRANCH  20  27
ATOM     27  O   UNL     1      40.280   3.827 102.174  1.00  0.00    -0.387 OA
ATOM     28  H   UNL     1      39.975   3.333 102.980  1.00  0.00     0.211 HD
ENDBRANCH  20  27
BRANCH  21  29
ATOM     29  C   UNL     1      42.159   3.634  99.579  1.00  0.00     0.191 C 
BRANCH  29  30
ATOM     30  O   UNL     1      40.896   3.041  99.442  1.00  0.00    -0.394 OA
ATOM     31  H   UNL     1      41.049   2.104  99.152  1.00  0.00     0.210 HD
ENDBRANCH  29  30
ENDBRANCH  21  29
ENDBRANCH   1  17
TORSDOF 13
ENDMDL
MODEL 7
REMARK VINA RESULT:    -3.831      1.792      5.660
REMARK INTER + INTRA:          -7.723
REMARK INTER:                  -6.020
REMARK INTRA:                  -1.703
REMARK UNBOUND:                -1.876
REMARK SMILES OC[C@@H]1O[C@](CO)(O[C@@H]2O[C@H](CO)[C@@H](O)[C@H](O)[C@@H]2O)[C@@H](O)[C@H]1O
REMARK SMILES IDX 8 1 9 2 11 3 14 4 10 5 16 6 18 7 12 8 13 9 15 11 17 13 19 15
REMARK SMILES IDX 5 17 20 18 4 19 22 20 3 21 6 22 7 23 21 25 23 27 2 29 1 30
REMARK H PARENT 13 10 15 12 17 14 19 16 7 24 21 26 23 28 1 31
REMARK Flexibility Score: inf
ROOT
ATOM      1  O   UNL     1      43.199   2.801 102.848  1.00  0.00    -0.313 OA
ENDROOT
BRANCH   1   2
ATOM      2  C   UNL     1      44.043   3.941 102.951  1.00  0.00     0.285 C 
ATOM      3  C   UNL     1      44.641   4.011 100.633  1.00  0.00     0.178 C 
ATOM      4  C   UNL     1      46.076   3.505 100.929  1.00  0.00     0.177 C 
ATOM      5  O   UNL     1      44.036   4.680 101.736  1.00  0.00    -0.341 OA
ATOM      6  C   UNL     1      46.155   2.725 102.252  1.00  0.00     0.179 C 
ATOM      7  C   UNL     1      45.464   3.528 103.366  1.00  0.00     0.202 C 
BRANCH   3   8
ATOM      8  C   UNL     1      43.727   2.948  99.993  1.00  0.00     0.191 C 
BRANCH   8   9
ATOM      9  O   UNL     1      42.688   3.574  99.293  1.00  0.00    -0.394 OA
ATOM     10  H   UNL     1      43.023   3.719  98.371  1.00  0.00     0.210 HD
ENDBRANCH   8   9
ENDBRANCH   3   8
BRANCH   4  11
ATOM     11  O   UNL     1      46.941   4.613 100.984  1.00  0.00    -0.387 OA
ATOM     12  H   UNL     1      47.219   4.718 101.931  1.00  0.00     0.211 HD
ENDBRANCH   4  11
BRANCH   6  13
ATOM     13  O   UNL     1      45.565   1.458 102.099  1.00  0.00    -0.387 OA
ATOM     14  H   UNL     1      44.722   1.591 101.593  1.00  0.00     0.211 HD
ENDBRANCH   6  13
BRANCH   7  15
ATOM     15  O   UNL     1      45.408   2.780 104.554  1.00  0.00    -0.385 OA
ATOM     16  H   UNL     1      44.593   2.215 104.500  1.00  0.00     0.211 HD
ENDBRANCH   7  15
ENDBRANCH   1   2
BRANCH   1  17
ATOM     17  C   UNL     1      41.966   2.898 103.557  1.00  0.00     0.224 C 
ATOM     18  C   UNL     1      42.006   4.058 104.599  1.00  0.00     0.208 C 
ATOM     19  O   UNL     1      41.686   1.683 104.233  1.00  0.00    -0.337 OA
ATOM     20  C   UNL     1      41.929   3.332 105.934  1.00  0.00     0.180 C 
ATOM     21  C   UNL     1      41.296   1.999 105.552  1.00  0.00     0.179 C 
BRANCH  17  22
ATOM     22  C   UNL     1      40.875   3.083 102.482  1.00  0.00     0.225 C 
BRANCH  22  23
ATOM     23  O   UNL     1      41.098   4.261 101.754  1.00  0.00    -0.391 OA
ATOM     24  H   UNL     1      40.204   4.594 101.486  1.00  0.00     0.210 HD
ENDBRANCH  22  23
ENDBRANCH  17  22
BRANCH  18  25
ATOM     25  O   UNL     1      40.967   5.000 104.439  1.00  0.00    -0.385 OA
ATOM     26  H   UNL     1      41.126   5.754 105.065  1.00  0.00     0.211 HD
ENDBRANCH  18  25
BRANCH  20  27
ATOM     27  O   UNL     1      41.140   4.009 106.878  1.00  0.00    -0.387 OA
ATOM     28  H   UNL     1      41.192   4.973 106.647  1.00  0.00     0.211 HD
ENDBRANCH  20  27
BRANCH  21  29
ATOM     29  C   UNL     1      41.721   0.875 106.507  1.00  0.00     0.191 C 
BRANCH  29  30
ATOM     30  O   UNL     1      41.240   1.119 107.801  1.00  0.00    -0.394 OA
ATOM     31  H   UNL     1      40.927   0.248 108.159  1.00  0.00     0.210 HD
ENDBRANCH  29  30
ENDBRANCH  21  29
ENDBRANCH   1  17
TORSDOF 13
ENDMDL
MODEL 8
REMARK VINA RESULT:    -3.766      1.957      3.442
REMARK INTER + INTRA:          -7.624
REMARK INTER:                  -5.989
REMARK INTRA:                  -1.635
REMARK UNBOUND:                -1.876
REMARK SMILES OC[C@@H]1O[C@](CO)(O[C@@H]2O[C@H](CO)[C@@H](O)[C@H](O)[C@@H]2O)[C@@H](O)[C@H]1O
REMARK SMILES IDX 8 1 9 2 11 3 14 4 10 5 16 6 18 7 12 8 13 9 15 11 17 13 19 15
REMARK SMILES IDX 5 17 20 18 4 19 22 20 3 21 6 22 7 23 21 25 23 27 2 29 1 30
REMARK H PARENT 13 10 15 12 17 14 19 16 7 24 21 26 23 28 1 31
REMARK Flexibility Score: inf
ROOT
ATOM      1  O   UNL     1      42.735   3.002 101.460  1.00  0.00    -0.313 OA
ENDROOT
BRANCH   1   2
ATOM      2  C   UNL     1      43.400   3.003 102.717  1.00  0.00     0.285 C 
ATOM      3  C   UNL     1      41.957   1.400 103.757  1.00  0.00     0.178 C 
ATOM      4  C   UNL     1      41.289   2.486 104.638  1.00  0.00     0.177 C 
ATOM      5  O   UNL     1      43.280   1.734 103.347  1.00  0.00    -0.341 OA
ATOM      6  C   UNL     1      41.415   3.890 104.023  1.00  0.00     0.179 C 
ATOM      7  C   UNL     1      42.874   4.141 103.607  1.00  0.00     0.202 C 
BRANCH   3   8
ATOM      8  C   UNL     1      41.069   0.908 102.597  1.00  0.00     0.191 C 
BRANCH   8   9
ATOM      9  O   UNL     1      39.719   1.103 102.917  1.00  0.00    -0.394 OA
ATOM     10  H   UNL     1      39.257   1.292 102.060  1.00  0.00     0.210 HD
ENDBRANCH   8   9
ENDBRANCH   3   8
BRANCH   4  11
ATOM     11  O   UNL     1      41.896   2.472 105.906  1.00  0.00    -0.387 OA
ATOM     12  H   UNL     1      41.310   1.939 106.504  1.00  0.00     0.211 HD
ENDBRANCH   4  11
BRANCH   6  13
ATOM     13  O   UNL     1      40.546   4.014 102.925  1.00  0.00    -0.387 OA
ATOM     14  H   UNL     1      40.314   4.976 102.848  1.00  0.00     0.211 HD
ENDBRANCH   6  13
BRANCH   7  15
ATOM     15  O   UNL     1      42.991   5.364 102.925  1.00  0.00    -0.385 OA
ATOM     16  H   UNL     1      42.441   6.024 103.422  1.00  0.00     0.211 HD
ENDBRANCH   7  15
ENDBRANCH   1   2
BRANCH   1  17
ATOM     17  C   UNL     1      43.550   3.357 100.346  1.00  0.00     0.224 C 
ATOM     18  C   UNL     1      43.986   2.093  99.542  1.00  0.00     0.208 C 
ATOM     19  O   UNL     1      44.710   4.047 100.780  1.00  0.00    -0.337 OA
ATOM     20  C   UNL     1      45.490   2.043  99.756  1.00  0.00     0.180 C 
ATOM     21  C   UNL     1      45.823   3.486 100.117  1.00  0.00     0.179 C 
BRANCH  17  22
ATOM     22  C   UNL     1      42.714   4.350  99.512  1.00  0.00     0.225 C 
BRANCH  22  23
ATOM     23  O   UNL     1      41.795   5.024 100.328  1.00  0.00    -0.391 OA
ATOM     24  H   UNL     1      42.098   5.967 100.366  1.00  0.00     0.210 HD
ENDBRANCH  22  23
ENDBRANCH  17  22
BRANCH  18  25
ATOM     25  O   UNL     1      43.639   2.143  98.174  1.00  0.00    -0.385 OA
ATOM     26  H   UNL     1      44.469   2.061  97.636  1.00  0.00     0.211 HD
ENDBRANCH  18  25
BRANCH  20  27
ATOM     27  O   UNL     1      46.192   1.639  98.608  1.00  0.00    -0.387 OA
ATOM     28  H   UNL     1      46.177   0.647  98.605  1.00  0.00     0.211 HD
ENDBRANCH  20  27
BRANCH  21  29
ATOM     29  C   UNL     1      47.065   3.575 101.015  1.00  0.00     0.191 C 
BRANCH  29  30
ATOM     30  O   UNL     1      47.328   4.907 101.363  1.00  0.00    -0.394 OA
ATOM     31  H   UNL     1      47.729   5.338 100.565  1.00  0.00     0.210 HD
ENDBRANCH  29  30
ENDBRANCH  21  29
ENDBRANCH   1  17
TORSDOF 13
ENDMDL
MODEL 9
REMARK VINA RESULT:    -3.682      9.124     11.923
REMARK INTER + INTRA:          -7.495
REMARK INTER:                  -5.447
REMARK INTRA:                  -2.048
REMARK UNBOUND:                -1.876
REMARK SMILES OC[C@@H]1O[C@](CO)(O[C@@H]2O[C@H](CO)[C@@H](O)[C@H](O)[C@@H]2O)[C@@H](O)[C@H]1O
REMARK SMILES IDX 8 1 9 2 11 3 14 4 10 5 16 6 18 7 12 8 13 9 15 11 17 13 19 15
REMARK SMILES IDX 5 17 20 18 4 19 22 20 3 21 6 22 7 23 21 25 23 27 2 29 1 30
REMARK H PARENT 13 10 15 12 17 14 19 16 7 24 21 26 23 28 1 31
REMARK Flexibility Score: inf
ROOT
ATOM      1  O   UNL     1      39.306   2.157  93.029  1.00  0.00    -0.313 OA
ENDROOT
BRANCH   1   2
ATOM      2  C   UNL     1      39.650   3.495  92.690  1.00  0.00     0.285 C 
ATOM      3  C   UNL     1      38.163   3.660  90.819  1.00  0.00     0.178 C 
ATOM      4  C   UNL     1      39.336   3.599  89.808  1.00  0.00     0.177 C 
ATOM      5  O   UNL     1      38.541   4.161  92.099  1.00  0.00    -0.341 OA
ATOM      6  C   UNL     1      40.580   2.917  90.402  1.00  0.00     0.179 C 
ATOM      7  C   UNL     1      40.889   3.522  91.781  1.00  0.00     0.202 C 
BRANCH   3   8
ATOM      8  C   UNL     1      37.341   2.359  90.897  1.00  0.00     0.191 C 
BRANCH   8   9
ATOM      9  O   UNL     1      36.447   2.425  91.974  1.00  0.00    -0.394 OA
ATOM     10  H   UNL     1      36.376   3.385  92.215  1.00  0.00     0.210 HD
ENDBRANCH   8   9
ENDBRANCH   3   8
BRANCH   4  11
ATOM     11  O   UNL     1      39.661   4.910  89.416  1.00  0.00    -0.387 OA
ATOM     12  H   UNL     1      38.845   5.303  89.009  1.00  0.00     0.211 HD
ENDBRANCH   4  11
BRANCH   6  13
ATOM     13  O   UNL     1      40.371   1.530  90.493  1.00  0.00    -0.387 OA
ATOM     14  H   UNL     1      39.440   1.358  90.196  1.00  0.00     0.211 HD
ENDBRANCH   6  13
BRANCH   7  15
ATOM     15  O   UNL     1      41.942   2.828  92.402  1.00  0.00    -0.385 OA
ATOM     16  H   UNL     1      42.195   3.351  93.207  1.00  0.00     0.211 HD
ENDBRANCH   7  15
ENDBRANCH   1   2
BRANCH   1  17
ATOM     17  C   UNL     1      39.500   1.814  94.399  1.00  0.00     0.224 C 
ATOM     18  C   UNL     1      39.569   3.090  95.294  1.00  0.00     0.208 C 
ATOM     19  O   UNL     1      40.699   1.075  94.561  1.00  0.00    -0.337 OA
ATOM     20  C   UNL     1      41.003   3.086  95.799  1.00  0.00     0.180 C 
ATOM     21  C   UNL     1      41.403   1.623  95.654  1.00  0.00     0.179 C 
BRANCH  17  22
ATOM     22  C   UNL     1      38.332   0.875  94.767  1.00  0.00     0.225 C 
BRANCH  22  23
ATOM     23  O   UNL     1      37.103   1.525  94.584  1.00  0.00    -0.391 OA
ATOM     24  H   UNL     1      37.074   2.257  95.251  1.00  0.00     0.210 HD
ENDBRANCH  22  23
ENDBRANCH  17  22
BRANCH  18  25
ATOM     25  O   UNL     1      38.629   3.096  96.347  1.00  0.00    -0.385 OA
ATOM     26  H   UNL     1      37.833   3.614  96.056  1.00  0.00     0.211 HD
ENDBRANCH  18  25
BRANCH  20  27
ATOM     27  O   UNL     1      41.113   3.506  97.135  1.00  0.00    -0.387 OA
ATOM     28  H   UNL     1      40.858   2.728  97.695  1.00  0.00     0.211 HD
ENDBRANCH  20  27
BRANCH  21  29
ATOM     29  C   UNL     1      42.915   1.466  95.434  1.00  0.00     0.191 C 
BRANCH  29  30
ATOM     30  O   UNL     1      43.493   2.697  95.091  1.00  0.00    -0.394 OA
ATOM     31  H   UNL     1      43.885   3.071  95.922  1.00  0.00     0.210 HD
ENDBRANCH  29  30
ENDBRANCH  21  29
ENDBRANCH   1  17
TORSDOF 13
ENDMDL
