MODEL 1
REMARK VINA RESULT:    -4.288      0.000      0.000
REMARK INTER + INTRA:          -9.502
REMARK INTER:                  -7.797
REMARK INTRA:                  -1.706
REMARK UNBOUND:                -1.706
REMARK SMILES CCCCCCCCCCCCCCCC(=O)[O-]
REMARK SMILES IDX 9 1 10 2 11 3 12 4 13 5 14 6 15 7 16 8 17 9 18 10 8 11 7 12
REMARK SMILES IDX 6 13 5 14 4 15 3 16 2 17 1 18
REMARK H PARENT
REMARK Flexibility Score: inf
ROOT
ATOM      1  C   UNL     1      -1.293 -35.428  45.476  1.00  0.00     0.000 C 
ENDROOT
BRANCH   1   2
ATOM      2  C   UNL     1      -2.564 -35.891  46.209  1.00  0.00     0.000 C 
BRANCH   2   3
ATOM      3  C   UNL     1      -3.484 -36.757  45.328  1.00  0.00     0.000 C 
BRANCH   3   4
ATOM      4  C   UNL     1      -4.975 -36.378  45.363  1.00  0.00     0.000 C 
BRANCH   4   5
ATOM      5  C   UNL     1      -5.370 -35.393  44.248  1.00  0.00     0.000 C 
BRANCH   5   6
ATOM      6  C   UNL     1      -6.117 -34.162  44.788  1.00  0.00     0.006 C 
BRANCH   6   7
ATOM      7  C   UNL     1      -6.785 -34.423  46.145  1.00  0.00     0.053 C 
BRANCH   7   8
ATOM      8  C   UNL     1      -6.250 -33.482  47.178  1.00  0.00     0.041 C 
ATOM      9  O   UNL     1      -6.920 -32.473  47.524  1.00  0.00    -0.550 OA
ATOM     10  O   UNL     1      -4.989 -33.691  47.723  1.00  0.00    -0.550 OA
ENDBRANCH   7   8
ENDBRANCH   6   7
ENDBRANCH   5   6
ENDBRANCH   4   5
ENDBRANCH   3   4
ENDBRANCH   2   3
ENDBRANCH   1   2
BRANCH   1  11
ATOM     11  C   UNL     1      -0.625 -36.562  44.683  1.00  0.00     0.000 C 
BRANCH  11  12
ATOM     12  C   UNL     1       0.831 -36.242  44.299  1.00  0.00    -0.000 C 
BRANCH  12  13
ATOM     13  C   UNL     1       1.146 -34.739  44.370  1.00  0.00    -0.000 C 
BRANCH  13  14
ATOM     14  C   UNL     1       2.606 -34.461  44.766  1.00  0.00    -0.000 C 
BRANCH  14  15
ATOM     15  C   UNL     1       2.827 -34.526  46.286  1.00  0.00    -0.000 C 
BRANCH  15  16
ATOM     16  C   UNL     1       1.733 -33.786  47.078  1.00  0.00    -0.000 C 
BRANCH  16  17
ATOM     17  C   UNL     1       1.093 -34.667  48.161  1.00  0.00    -0.003 C 
ATOM     18  C   UNL     1       1.437 -36.147  47.998  1.00  0.00     0.004 C 
ENDBRANCH  16  17
ENDBRANCH  15  16
ENDBRANCH  14  15
ENDBRANCH  13  14
ENDBRANCH  12  13
ENDBRANCH  11  12
ENDBRANCH   1  11
TORSDOF 14
ENDMDL
MODEL 2
REMARK VINA RESULT:    -4.141      3.169      7.388
REMARK INTER + INTRA:          -9.235
REMARK INTER:                  -7.588
REMARK INTRA:                  -1.647
REMARK UNBOUND:                -1.706
REMARK SMILES CCCCCCCCCCCCCCCC(=O)[O-]
REMARK SMILES IDX 9 1 10 2 11 3 12 4 13 5 14 6 15 7 16 8 17 9 18 10 8 11 7 12
REMARK SMILES IDX 6 13 5 14 4 15 3 16 2 17 1 18
REMARK H PARENT
REMARK Flexibility Score: inf
ROOT
ATOM      1  C   UNL     1      -2.675 -33.597  47.061  1.00  0.00     0.000 C 
ENDROOT
BRANCH   1   2
ATOM      2  C   UNL     1      -1.794 -34.683  47.702  1.00  0.00     0.000 C 
BRANCH   2   3
ATOM      3  C   UNL     1      -0.485 -34.928  46.929  1.00  0.00     0.000 C 
BRANCH   3   4
ATOM      4  C   UNL     1      -0.362 -34.178  45.590  1.00  0.00     0.000 C 
BRANCH   4   5
ATOM      5  C   UNL     1       0.598 -34.865  44.603  1.00  0.00     0.000 C 
BRANCH   5   6
ATOM      6  C   UNL     1       1.762 -35.576  45.312  1.00  0.00     0.006 C 
BRANCH   6   7
ATOM      7  C   UNL     1       2.993 -34.674  45.477  1.00  0.00     0.053 C 
BRANCH   7   8
ATOM      8  C   UNL     1       3.228 -34.374  46.924  1.00  0.00     0.041 C 
ATOM      9  O   UNL     1       2.750 -33.329  47.440  1.00  0.00    -0.550 OA
ATOM     10  O   UNL     1       4.016 -35.223  47.691  1.00  0.00    -0.550 OA
ENDBRANCH   7   8
ENDBRANCH   6   7
ENDBRANCH   5   6
ENDBRANCH   4   5
ENDBRANCH   3   4
ENDBRANCH   2   3
ENDBRANCH   1   2
BRANCH   1  11
ATOM     11  C   UNL     1      -3.815 -33.142  47.986  1.00  0.00     0.000 C 
BRANCH  11  12
ATOM     12  C   UNL     1      -5.026 -34.091  47.948  1.00  0.00    -0.000 C 
BRANCH  12  13
ATOM     13  C   UNL     1      -6.212 -33.508  47.162  1.00  0.00    -0.000 C 
BRANCH  13  14
ATOM     14  C   UNL     1      -6.755 -34.484  46.105  1.00  0.00    -0.000 C 
BRANCH  14  15
ATOM     15  C   UNL     1      -6.243 -34.165  44.690  1.00  0.00    -0.000 C 
BRANCH  15  16
ATOM     16  C   UNL     1      -5.227 -35.202  44.178  1.00  0.00    -0.000 C 
BRANCH  16  17
ATOM     17  C   UNL     1      -5.056 -36.384  45.143  1.00  0.00    -0.003 C 
ATOM     18  C   UNL     1      -3.595 -36.792  45.327  1.00  0.00     0.004 C 
ENDBRANCH  16  17
ENDBRANCH  15  16
ENDBRANCH  14  15
ENDBRANCH  13  14
ENDBRANCH  12  13
ENDBRANCH  11  12
ENDBRANCH   1  11
TORSDOF 14
ENDMDL
MODEL 3
REMARK VINA RESULT:    -4.070      1.721      2.532
REMARK INTER + INTRA:          -9.107
REMARK INTER:                  -7.235
REMARK INTRA:                  -1.871
REMARK UNBOUND:                -1.706
REMARK SMILES CCCCCCCCCCCCCCCC(=O)[O-]
REMARK SMILES IDX 9 1 10 2 11 3 12 4 13 5 14 6 15 7 16 8 17 9 18 10 8 11 7 12
REMARK SMILES IDX 6 13 5 14 4 15 3 16 2 17 1 18
REMARK H PARENT
REMARK Flexibility Score: inf
ROOT
ATOM      1  C   UNL     1      -0.853 -34.290  45.709  1.00  0.00     0.000 C 
ENDROOT
BRANCH   1   2
ATOM      2  C   UNL     1      -1.385 -34.389  47.149  1.00  0.00     0.000 C 
BRANCH   2   3
ATOM      3  C   UNL     1      -1.444 -35.837  47.669  1.00  0.00     0.000 C 
BRANCH   3   4
ATOM      4  C   UNL     1      -2.840 -36.326  48.094  1.00  0.00     0.000 C 
BRANCH   4   5
ATOM      5  C   UNL     1      -3.979 -35.468  47.517  1.00  0.00     0.000 C 
BRANCH   5   6
ATOM      6  C   UNL     1      -4.728 -36.173  46.375  1.00  0.00     0.006 C 
BRANCH   6   7
ATOM      7  C   UNL     1      -4.745 -35.347  45.080  1.00  0.00     0.053 C 
BRANCH   7   8
ATOM      8  C   UNL     1      -6.036 -34.600  44.957  1.00  0.00     0.041 C 
ATOM      9  O   UNL     1      -6.945 -34.761  45.813  1.00  0.00    -0.550 OA
ATOM     10  O   UNL     1      -6.254 -33.764  43.869  1.00  0.00    -0.550 OA
ENDBRANCH   7   8
ENDBRANCH   6   7
ENDBRANCH   5   6
ENDBRANCH   4   5
ENDBRANCH   3   4
ENDBRANCH   2   3
ENDBRANCH   1   2
BRANCH   1  11
ATOM     11  C   UNL     1      -0.685 -35.667  45.047  1.00  0.00     0.000 C 
BRANCH  11  12
ATOM     12  C   UNL     1       0.754 -35.922  44.562  1.00  0.00    -0.000 C 
BRANCH  12  13
ATOM     13  C   UNL     1       1.520 -34.622  44.268  1.00  0.00    -0.000 C 
BRANCH  13  14
ATOM     14  C   UNL     1       2.867 -34.552  45.008  1.00  0.00    -0.000 C 
BRANCH  14  15
ATOM     15  C   UNL     1       2.830 -35.268  46.368  1.00  0.00    -0.000 C 
BRANCH  15  16
ATOM     16  C   UNL     1       3.180 -34.333  47.541  1.00  0.00    -0.000 C 
BRANCH  16  17
ATOM     17  C   UNL     1       2.242 -33.120  47.625  1.00  0.00    -0.003 C 
ATOM     18  C   UNL     1       2.897 -31.912  48.293  1.00  0.00     0.004 C 
ENDBRANCH  16  17
ENDBRANCH  15  16
ENDBRANCH  14  15
ENDBRANCH  13  14
ENDBRANCH  12  13
ENDBRANCH  11  12
ENDBRANCH   1  11
TORSDOF 14
ENDMDL
MODEL 4
REMARK VINA RESULT:    -3.978      3.414      7.293
REMARK INTER + INTRA:          -8.939
REMARK INTER:                  -7.068
REMARK INTRA:                  -1.871
REMARK UNBOUND:                -1.706
REMARK SMILES CCCCCCCCCCCCCCCC(=O)[O-]
REMARK SMILES IDX 9 1 10 2 11 3 12 4 13 5 14 6 15 7 16 8 17 9 18 10 8 11 7 12
REMARK SMILES IDX 6 13 5 14 4 15 3 16 2 17 1 18
REMARK H PARENT
REMARK Flexibility Score: inf
ROOT
ATOM      1  C   UNL     1      -1.544 -34.169  45.808  1.00  0.00     0.000 C 
ENDROOT
BRANCH   1   2
ATOM      2  C   UNL     1      -1.152 -35.647  45.977  1.00  0.00     0.000 C 
BRANCH   2   3
ATOM      3  C   UNL     1      -0.553 -36.260  44.697  1.00  0.00     0.000 C 
BRANCH   3   4
ATOM      4  C   UNL     1       0.985 -36.307  44.647  1.00  0.00     0.000 C 
BRANCH   4   5
ATOM      5  C   UNL     1       1.614 -34.957  44.262  1.00  0.00     0.000 C 
BRANCH   5   6
ATOM      6  C   UNL     1       2.705 -34.513  45.249  1.00  0.00     0.006 C 
BRANCH   6   7
ATOM      7  C   UNL     1       2.462 -35.035  46.673  1.00  0.00     0.053 C 
BRANCH   7   8
ATOM      8  C   UNL     1       3.475 -34.465  47.615  1.00  0.00     0.041 C 
ATOM      9  O   UNL     1       3.677 -33.222  47.654  1.00  0.00    -0.550 OA
ATOM     10  O   UNL     1       4.233 -35.311  48.415  1.00  0.00    -0.550 OA
ENDBRANCH   7   8
ENDBRANCH   6   7
ENDBRANCH   5   6
ENDBRANCH   4   5
ENDBRANCH   3   4
ENDBRANCH   2   3
ENDBRANCH   1   2
BRANCH   1  11
ATOM     11  C   UNL     1      -2.610 -33.724  46.822  1.00  0.00     0.000 C 
BRANCH  11  12
ATOM     12  C   UNL     1      -2.702 -34.662  48.039  1.00  0.00    -0.000 C 
BRANCH  12  13
ATOM     13  C   UNL     1      -4.120 -35.214  48.256  1.00  0.00    -0.000 C 
BRANCH  13  14
ATOM     14  C   UNL     1      -4.330 -36.580  47.581  1.00  0.00    -0.000 C 
BRANCH  14  15
ATOM     15  C   UNL     1      -5.394 -36.533  46.473  1.00  0.00    -0.000 C 
BRANCH  15  16
ATOM     16  C   UNL     1      -4.796 -36.218  45.089  1.00  0.00    -0.000 C 
BRANCH  16  17
ATOM     17  C   UNL     1      -5.304 -34.886  44.519  1.00  0.00    -0.003 C 
ATOM     18  C   UNL     1      -6.334 -34.210  45.423  1.00  0.00     0.004 C 
ENDBRANCH  16  17
ENDBRANCH  15  16
ENDBRANCH  14  15
ENDBRANCH  13  14
ENDBRANCH  12  13
ENDBRANCH  11  12
ENDBRANCH   1  11
TORSDOF 14
ENDMDL
MODEL 5
REMARK VINA RESULT:    -3.968      1.535      2.132
REMARK INTER + INTRA:          -8.922
REMARK INTER:                  -7.018
REMARK INTRA:                  -1.904
REMARK UNBOUND:                -1.706
REMARK SMILES CCCCCCCCCCCCCCCC(=O)[O-]
REMARK SMILES IDX 9 1 10 2 11 3 12 4 13 5 14 6 15 7 16 8 17 9 18 10 8 11 7 12
REMARK SMILES IDX 6 13 5 14 4 15 3 16 2 17 1 18
REMARK H PARENT
REMARK Flexibility Score: inf
ROOT
ATOM      1  C   UNL     1      -1.065 -36.016  44.985  1.00  0.00     0.000 C 
ENDROOT
BRANCH   1   2
ATOM      2  C   UNL     1      -2.275 -36.688  45.656  1.00  0.00     0.000 C 
BRANCH   2   3
ATOM      3  C   UNL     1      -2.765 -35.932  46.905  1.00  0.00     0.000 C 
BRANCH   3   4
ATOM      4  C   UNL     1      -2.920 -34.410  46.735  1.00  0.00     0.000 C 
BRANCH   4   5
ATOM      5  C   UNL     1      -4.103 -33.834  47.532  1.00  0.00     0.000 C 
BRANCH   5   6
ATOM      6  C   UNL     1      -5.401 -34.628  47.315  1.00  0.00     0.006 C 
BRANCH   6   7
ATOM      7  C   UNL     1      -6.334 -33.969  46.289  1.00  0.00     0.053 C 
BRANCH   7   8
ATOM      8  C   UNL     1      -6.071 -34.514  44.921  1.00  0.00     0.041 C 
ATOM      9  O   UNL     1      -5.622 -35.683  44.780  1.00  0.00    -0.550 OA
ATOM     10  O   UNL     1      -6.275 -33.715  43.803  1.00  0.00    -0.550 OA
ENDBRANCH   7   8
ENDBRANCH   6   7
ENDBRANCH   5   6
ENDBRANCH   4   5
ENDBRANCH   3   4
ENDBRANCH   2   3
ENDBRANCH   1   2
BRANCH   1  11
ATOM     11  C   UNL     1      -0.101 -37.034  44.353  1.00  0.00     0.000 C 
BRANCH  11  12
ATOM     12  C   UNL     1       1.326 -36.481  44.193  1.00  0.00    -0.000 C 
BRANCH  12  13
ATOM     13  C   UNL     1       1.378 -34.946  44.251  1.00  0.00    -0.000 C 
BRANCH  13  14
ATOM     14  C   UNL     1       2.719 -34.422  44.794  1.00  0.00    -0.000 C 
BRANCH  14  15
ATOM     15  C   UNL     1       2.788 -34.460  46.329  1.00  0.00    -0.000 C 
BRANCH  15  16
ATOM     16  C   UNL     1       1.611 -33.725  46.996  1.00  0.00    -0.000 C 
BRANCH  16  17
ATOM     17  C   UNL     1       0.704 -34.672  47.795  1.00  0.00    -0.003 C 
ATOM     18  C   UNL     1       1.324 -36.054  47.997  1.00  0.00     0.004 C 
ENDBRANCH  16  17
ENDBRANCH  15  16
ENDBRANCH  14  15
ENDBRANCH  13  14
ENDBRANCH  12  13
ENDBRANCH  11  12
ENDBRANCH   1  11
TORSDOF 14
ENDMDL
MODEL 6
REMARK VINA RESULT:    -3.963      1.720      3.052
REMARK INTER + INTRA:          -8.913
REMARK INTER:                  -6.932
REMARK INTRA:                  -1.980
REMARK UNBOUND:                -1.706
REMARK SMILES CCCCCCCCCCCCCCCC(=O)[O-]
REMARK SMILES IDX 9 1 10 2 11 3 12 4 13 5 14 6 15 7 16 8 17 9 18 10 8 11 7 12
REMARK SMILES IDX 6 13 5 14 4 15 3 16 2 17 1 18
REMARK H PARENT
REMARK Flexibility Score: inf
ROOT
ATOM      1  C   UNL     1       0.847 -35.862  44.452  1.00  0.00     0.000 C 
ENDROOT
BRANCH   1   2
ATOM      2  C   UNL     1      -0.540 -35.642  45.080  1.00  0.00     0.000 C 
BRANCH   2   3
ATOM      3  C   UNL     1      -0.717 -34.229  45.666  1.00  0.00     0.000 C 
BRANCH   3   4
ATOM      4  C   UNL     1      -1.474 -34.162  47.005  1.00  0.00     0.000 C 
BRANCH   4   5
ATOM      5  C   UNL     1      -2.702 -35.089  47.046  1.00  0.00     0.000 C 
BRANCH   5   6
ATOM      6  C   UNL     1      -3.992 -34.378  46.607  1.00  0.00     0.006 C 
BRANCH   6   7
ATOM      7  C   UNL     1      -4.604 -34.992  45.340  1.00  0.00     0.053 C 
BRANCH   7   8
ATOM      8  C   UNL     1      -5.960 -34.413  45.085  1.00  0.00     0.041 C 
ATOM      9  O   UNL     1      -6.880 -34.555  45.934  1.00  0.00    -0.550 OA
ATOM     10  O   UNL     1      -6.223 -33.760  43.887  1.00  0.00    -0.550 OA
ENDBRANCH   7   8
ENDBRANCH   6   7
ENDBRANCH   5   6
ENDBRANCH   4   5
ENDBRANCH   3   4
ENDBRANCH   2   3
ENDBRANCH   1   2
BRANCH   1  11
ATOM     11  C   UNL     1       1.663 -34.563  44.356  1.00  0.00     0.000 C 
BRANCH  11  12
ATOM     12  C   UNL     1       2.969 -34.621  45.169  1.00  0.00    -0.000 C 
BRANCH  12  13
ATOM     13  C   UNL     1       3.188 -35.984  45.844  1.00  0.00    -0.000 C 
BRANCH  13  14
ATOM     14  C   UNL     1       3.289 -35.873  47.375  1.00  0.00    -0.000 C 
BRANCH  14  15
ATOM     15  C   UNL     1       1.926 -35.619  48.039  1.00  0.00    -0.000 C 
BRANCH  15  16
ATOM     16  C   UNL     1       1.934 -34.386  48.960  1.00  0.00    -0.000 C 
BRANCH  16  17
ATOM     17  C   UNL     1       1.949 -33.066  48.175  1.00  0.00    -0.003 C 
ATOM     18  C   UNL     1       3.220 -32.252  48.411  1.00  0.00     0.004 C 
ENDBRANCH  16  17
ENDBRANCH  15  16
ENDBRANCH  14  15
ENDBRANCH  13  14
ENDBRANCH  12  13
ENDBRANCH  11  12
ENDBRANCH   1  11
TORSDOF 14
ENDMDL
MODEL 7
REMARK VINA RESULT:    -3.962      1.906      2.702
REMARK INTER + INTRA:          -8.911
REMARK INTER:                  -7.283
REMARK INTRA:                  -1.628
REMARK UNBOUND:                -1.706
REMARK SMILES CCCCCCCCCCCCCCCC(=O)[O-]
REMARK SMILES IDX 9 1 10 2 11 3 12 4 13 5 14 6 15 7 16 8 17 9 18 10 8 11 7 12
REMARK SMILES IDX 6 13 5 14 4 15 3 16 2 17 1 18
REMARK H PARENT
REMARK Flexibility Score: inf
ROOT
ATOM      1  C   UNL     1      -0.841 -35.980  47.607  1.00  0.00     0.000 C 
ENDROOT
BRANCH   1   2
ATOM      2  C   UNL     1      -2.351 -36.267  47.677  1.00  0.00     0.000 C 
BRANCH   2   3
ATOM      3  C   UNL     1      -3.129 -35.201  48.469  1.00  0.00     0.000 C 
BRANCH   3   4
ATOM      4  C   UNL     1      -4.613 -35.051  48.087  1.00  0.00     0.000 C 
BRANCH   4   5
ATOM      5  C   UNL     1      -4.910 -33.743  47.334  1.00  0.00     0.000 C 
BRANCH   5   6
ATOM      6  C   UNL     1      -6.381 -33.632  46.903  1.00  0.00     0.006 C 
BRANCH   6   7
ATOM      7  C   UNL     1      -6.817 -34.783  45.985  1.00  0.00     0.053 C 
BRANCH   7   8
ATOM      8  C   UNL     1      -6.101 -34.703  44.674  1.00  0.00     0.041 C 
ATOM      9  O   UNL     1      -6.382 -33.789  43.854  1.00  0.00    -0.550 OA
ATOM     10  O   UNL     1      -5.159 -35.667  44.336  1.00  0.00    -0.550 OA
ENDBRANCH   7   8
ENDBRANCH   6   7
ENDBRANCH   5   6
ENDBRANCH   4   5
ENDBRANCH   3   4
ENDBRANCH   2   3
ENDBRANCH   1   2
BRANCH   1  11
ATOM     11  C   UNL     1      -0.536 -34.497  47.343  1.00  0.00     0.000 C 
BRANCH  11  12
ATOM     12  C   UNL     1      -0.551 -34.144  45.845  1.00  0.00    -0.000 C 
BRANCH  12  13
ATOM     13  C   UNL     1       0.167 -35.193  44.981  1.00  0.00    -0.000 C 
BRANCH  13  14
ATOM     14  C   UNL     1       1.317 -34.588  44.157  1.00  0.00    -0.000 C 
BRANCH  14  15
ATOM     15  C   UNL     1       2.619 -34.461  44.966  1.00  0.00    -0.000 C 
BRANCH  15  16
ATOM     16  C   UNL     1       2.883 -35.684  45.863  1.00  0.00    -0.000 C 
BRANCH  16  17
ATOM     17  C   UNL     1       3.197 -35.292  47.314  1.00  0.00    -0.003 C 
ATOM     18  C   UNL     1       3.178 -33.780  47.535  1.00  0.00     0.004 C 
ENDBRANCH  16  17
ENDBRANCH  15  16
ENDBRANCH  14  15
ENDBRANCH  13  14
ENDBRANCH  12  13
ENDBRANCH  11  12
ENDBRANCH   1  11
TORSDOF 14
ENDMDL
MODEL 8
REMARK VINA RESULT:    -3.935      3.307      7.472
REMARK INTER + INTRA:          -8.861
REMARK INTER:                  -7.493
REMARK INTRA:                  -1.368
REMARK UNBOUND:                -1.706
REMARK SMILES CCCCCCCCCCCCCCCC(=O)[O-]
REMARK SMILES IDX 9 1 10 2 11 3 12 4 13 5 14 6 15 7 16 8 17 9 18 10 8 11 7 12
REMARK SMILES IDX 6 13 5 14 4 15 3 16 2 17 1 18
REMARK H PARENT
REMARK Flexibility Score: inf
ROOT
ATOM      1  C   UNL     1      -1.434 -35.390  46.786  1.00  0.00     0.000 C 
ENDROOT
BRANCH   1   2
ATOM      2  C   UNL     1      -0.865 -35.200  45.369  1.00  0.00     0.000 C 
BRANCH   2   3
ATOM      3  C   UNL     1       0.311 -36.146  45.063  1.00  0.00     0.000 C 
BRANCH   3   4
ATOM      4  C   UNL     1       1.404 -35.561  44.149  1.00  0.00     0.000 C 
BRANCH   4   5
ATOM      5  C   UNL     1       2.247 -34.476  44.841  1.00  0.00     0.000 C 
BRANCH   5   6
ATOM      6  C   UNL     1       2.764 -34.920  46.219  1.00  0.00     0.006 C 
BRANCH   6   7
ATOM      7  C   UNL     1       2.268 -34.016  47.356  1.00  0.00     0.053 C 
BRANCH   7   8
ATOM      8  C   UNL     1       3.425 -33.379  48.057  1.00  0.00     0.041 C 
ATOM      9  O   UNL     1       3.463 -32.129  48.212  1.00  0.00    -0.550 OA
ATOM     10  O   UNL     1       4.488 -34.159  48.496  1.00  0.00    -0.550 OA
ENDBRANCH   7   8
ENDBRANCH   6   7
ENDBRANCH   5   6
ENDBRANCH   4   5
ENDBRANCH   3   4
ENDBRANCH   2   3
ENDBRANCH   1   2
BRANCH   1  11
ATOM     11  C   UNL     1      -2.970 -35.443  46.801  1.00  0.00     0.000 C 
BRANCH  11  12
ATOM     12  C   UNL     1      -3.527 -36.739  46.184  1.00  0.00    -0.000 C 
BRANCH  12  13
ATOM     13  C   UNL     1      -4.925 -36.552  45.573  1.00  0.00    -0.000 C 
BRANCH  13  14
ATOM     14  C   UNL     1      -4.973 -35.401  44.553  1.00  0.00    -0.000 C 
BRANCH  14  15
ATOM     15  C   UNL     1      -5.989 -34.314  44.938  1.00  0.00    -0.000 C 
BRANCH  15  16
ATOM     16  C   UNL     1      -6.977 -34.782  46.022  1.00  0.00    -0.000 C 
BRANCH  16  17
ATOM     17  C   UNL     1      -7.139 -33.754  47.152  1.00  0.00    -0.003 C 
ATOM     18  C   UNL     1      -5.829 -33.052  47.505  1.00  0.00     0.004 C 
ENDBRANCH  16  17
ENDBRANCH  15  16
ENDBRANCH  14  15
ENDBRANCH  13  14
ENDBRANCH  12  13
ENDBRANCH  11  12
ENDBRANCH   1  11
TORSDOF 14
ENDMDL
MODEL 9
REMARK VINA RESULT:    -3.920      3.364      7.082
REMARK INTER + INTRA:          -8.835
REMARK INTER:                  -7.425
REMARK INTRA:                  -1.410
REMARK UNBOUND:                -1.706
REMARK SMILES CCCCCCCCCCCCCCCC(=O)[O-]
REMARK SMILES IDX 9 1 10 2 11 3 12 4 13 5 14 6 15 7 16 8 17 9 18 10 8 11 7 12
REMARK SMILES IDX 6 13 5 14 4 15 3 16 2 17 1 18
REMARK H PARENT
REMARK Flexibility Score: inf
ROOT
ATOM      1  C   UNL     1      -3.482 -36.538  45.163  1.00  0.00     0.000 C 
ENDROOT
BRANCH   1   2
ATOM      2  C   UNL     1      -2.746 -35.422  45.923  1.00  0.00     0.000 C 
BRANCH   2   3
ATOM      3  C   UNL     1      -1.567 -35.944  46.765  1.00  0.00     0.000 C 
BRANCH   3   4
ATOM      4  C   UNL     1      -0.281 -35.101  46.692  1.00  0.00     0.000 C 
BRANCH   4   5
ATOM      5  C   UNL     1      -0.117 -34.374  45.346  1.00  0.00     0.000 C 
BRANCH   5   6
ATOM      6  C   UNL     1       1.229 -34.681  44.671  1.00  0.00     0.006 C 
BRANCH   6   7
ATOM      7  C   UNL     1       1.923 -35.915  45.268  1.00  0.00     0.053 C 
BRANCH   7   8
ATOM      8  C   UNL     1       3.117 -35.503  46.069  1.00  0.00     0.041 C 
ATOM      9  O   UNL     1       4.045 -36.326  46.291  1.00  0.00    -0.550 OA
ATOM     10  O   UNL     1       3.185 -34.227  46.613  1.00  0.00    -0.550 OA
ENDBRANCH   7   8
ENDBRANCH   6   7
ENDBRANCH   5   6
ENDBRANCH   4   5
ENDBRANCH   3   4
ENDBRANCH   2   3
ENDBRANCH   1   2
BRANCH   1  11
ATOM     11  C   UNL     1      -4.996 -36.291  45.076  1.00  0.00     0.000 C 
BRANCH  11  12
ATOM     12  C   UNL     1      -5.362 -35.191  44.063  1.00  0.00    -0.000 C 
BRANCH  12  13
ATOM     13  C   UNL     1      -6.222 -34.077  44.682  1.00  0.00    -0.000 C 
BRANCH  13  14
ATOM     14  C   UNL     1      -6.788 -34.467  46.059  1.00  0.00    -0.000 C 
BRANCH  14  15
ATOM     15  C   UNL     1      -6.424 -33.453  47.155  1.00  0.00    -0.000 C 
BRANCH  15  16
ATOM     16  C   UNL     1      -5.136 -33.831  47.911  1.00  0.00    -0.000 C 
BRANCH  16  17
ATOM     17  C   UNL     1      -4.402 -32.604  48.470  1.00  0.00    -0.003 C 
ATOM     18  C   UNL     1      -2.894 -32.823  48.595  1.00  0.00     0.004 C 
ENDBRANCH  16  17
ENDBRANCH  15  16
ENDBRANCH  14  15
ENDBRANCH  13  14
ENDBRANCH  12  13
ENDBRANCH  11  12
ENDBRANCH   1  11
TORSDOF 14
ENDMDL
