MODEL 1
REMARK VINA RESULT:    -5.532      0.000      0.000
REMARK INTER + INTRA:         -12.312
REMARK INTER:                 -10.060
REMARK INTRA:                  -2.252
REMARK UNBOUND:                -2.252
REMARK SMILES CCCCCCCCCCCCCC[C@@H](C)C(=O)[O-]
REMARK SMILES IDX 9 1 10 2 11 3 12 4 13 5 14 6 15 7 16 8 17 9 18 10 19 11 8 12
REMARK SMILES IDX 7 13 6 14 5 15 4 16 3 17 2 18 1 19
REMARK H PARENT
REMARK Flexibility Score: inf
ROOT
ATOM      1  C   UNL     1      47.098  53.433  26.052  1.00  0.00     0.000 C 
ENDROOT
BRANCH   1   2
ATOM      2  C   UNL     1      48.544  52.938  26.243  1.00  0.00     0.000 C 
BRANCH   2   3
ATOM      3  C   UNL     1      49.536  53.610  25.278  1.00  0.00     0.000 C 
BRANCH   3   4
ATOM      4  C   UNL     1      50.011  52.662  24.164  1.00  0.00     0.000 C 
BRANCH   4   5
ATOM      5  C   UNL     1      49.756  53.225  22.756  1.00  0.00     0.001 C 
BRANCH   5   6
ATOM      6  C   UNL     1      50.764  52.699  21.714  1.00  0.00     0.009 C 
BRANCH   6   7
ATOM      7  C   UNL     1      52.241  52.832  22.145  1.00  0.00     0.032 C 
ATOM      8  C   UNL     1      53.205  52.157  21.156  1.00  0.00     0.014 C 
BRANCH   7   9
ATOM      9  C   UNL     1      52.610  54.270  22.412  1.00  0.00     0.044 C 
ATOM     10  O   UNL     1      52.530  55.141  21.504  1.00  0.00    -0.550 OA
ATOM     11  O   UNL     1      52.987  54.654  23.693  1.00  0.00    -0.550 OA
ENDBRANCH   7   9
ENDBRANCH   6   7
ENDBRANCH   5   6
ENDBRANCH   4   5
ENDBRANCH   3   4
ENDBRANCH   2   3
ENDBRANCH   1   2
BRANCH   1  12
ATOM     12  C   UNL     1      46.189  52.360  25.428  1.00  0.00     0.000 C 
BRANCH  12  13
ATOM     13  C   UNL     1      46.278  52.328  23.893  1.00  0.00    -0.000 C 
BRANCH  13  14
ATOM     14  C   UNL     1      46.801  50.985  23.363  1.00  0.00    -0.000 C 
BRANCH  14  15
ATOM     15  C   UNL     1      47.332  50.071  24.480  1.00  0.00    -0.000 C 
BRANCH  15  16
ATOM     16  C   UNL     1      48.402  49.081  23.986  1.00  0.00    -0.000 C 
BRANCH  16  17
ATOM     17  C   UNL     1      49.232  49.573  22.785  1.00  0.00    -0.000 C 
BRANCH  17  18
ATOM     18  C   UNL     1      50.581  48.852  22.653  1.00  0.00    -0.003 C 
ATOM     19  C   UNL     1      50.760  47.812  23.756  1.00  0.00     0.004 C 
ENDBRANCH  17  18
ENDBRANCH  16  17
ENDBRANCH  15  16
ENDBRANCH  14  15
ENDBRANCH  13  14
ENDBRANCH  12  13
ENDBRANCH   1  12
TORSDOF 14
ENDMDL
MODEL 2
REMARK VINA RESULT:    -5.437      2.704      5.016
REMARK INTER + INTRA:         -12.139
REMARK INTER:                 -10.149
REMARK INTRA:                  -1.990
REMARK UNBOUND:                -2.252
REMARK SMILES CCCCCCCCCCCCCC[C@@H](C)C(=O)[O-]
REMARK SMILES IDX 9 1 10 2 11 3 12 4 13 5 14 6 15 7 16 8 17 9 18 10 19 11 8 12
REMARK SMILES IDX 7 13 6 14 5 15 4 16 3 17 2 18 1 19
REMARK H PARENT
REMARK Flexibility Score: inf
ROOT
ATOM      1  C   UNL     1      46.722  53.155  25.973  1.00  0.00     0.000 C 
ENDROOT
BRANCH   1   2
ATOM      2  C   UNL     1      45.995  51.818  26.209  1.00  0.00     0.000 C 
BRANCH   2   3
ATOM      3  C   UNL     1      46.186  50.823  25.052  1.00  0.00     0.000 C 
BRANCH   3   4
ATOM      4  C   UNL     1      46.470  51.522  23.711  1.00  0.00     0.000 C 
BRANCH   4   5
ATOM      5  C   UNL     1      47.685  50.930  22.979  1.00  0.00     0.001 C 
BRANCH   5   6
ATOM      6  C   UNL     1      48.544  50.026  23.886  1.00  0.00     0.009 C 
BRANCH   6   7
ATOM      7  C   UNL     1      49.380  48.977  23.121  1.00  0.00     0.032 C 
ATOM      8  C   UNL     1      50.511  49.614  22.297  1.00  0.00     0.014 C 
BRANCH   7   9
ATOM      9  C   UNL     1      49.882  47.894  24.042  1.00  0.00     0.044 C 
ATOM     10  O   UNL     1      49.088  47.237  24.765  1.00  0.00    -0.550 OA
ATOM     11  O   UNL     1      51.235  47.575  24.050  1.00  0.00    -0.550 OA
ENDBRANCH   7   9
ENDBRANCH   6   7
ENDBRANCH   5   6
ENDBRANCH   4   5
ENDBRANCH   3   4
ENDBRANCH   2   3
ENDBRANCH   1   2
BRANCH   1  12
ATOM     12  C   UNL     1      48.016  53.272  26.796  1.00  0.00     0.000 C 
BRANCH  12  13
ATOM     13  C   UNL     1      49.258  52.811  26.015  1.00  0.00    -0.000 C 
BRANCH  13  14
ATOM     14  C   UNL     1      49.543  53.694  24.790  1.00  0.00    -0.000 C 
BRANCH  14  15
ATOM     15  C   UNL     1      50.630  53.106  23.875  1.00  0.00    -0.000 C 
BRANCH  15  16
ATOM     16  C   UNL     1      51.983  53.827  24.014  1.00  0.00    -0.000 C 
BRANCH  16  17
ATOM     17  C   UNL     1      52.616  54.277  22.684  1.00  0.00    -0.000 C 
BRANCH  17  18
ATOM     18  C   UNL     1      52.091  53.491  21.474  1.00  0.00    -0.003 C 
ATOM     19  C   UNL     1      52.972  52.280  21.179  1.00  0.00     0.004 C 
ENDBRANCH  17  18
ENDBRANCH  16  17
ENDBRANCH  15  16
ENDBRANCH  14  15
ENDBRANCH  13  14
ENDBRANCH  12  13
ENDBRANCH   1  12
TORSDOF 14
ENDMDL
MODEL 3
REMARK VINA RESULT:    -5.281      2.805      5.725
REMARK INTER + INTRA:         -11.854
REMARK INTER:                 -10.093
REMARK INTRA:                  -1.761
REMARK UNBOUND:                -2.252
REMARK SMILES CCCCCCCCCCCCCC[C@@H](C)C(=O)[O-]
REMARK SMILES IDX 9 1 10 2 11 3 12 4 13 5 14 6 15 7 16 8 17 9 18 10 19 11 8 12
REMARK SMILES IDX 7 13 6 14 5 15 4 16 3 17 2 18 1 19
REMARK H PARENT
REMARK Flexibility Score: inf
ROOT
ATOM      1  C   UNL     1      53.209  53.789  22.727  1.00  0.00     0.000 C 
ENDROOT
BRANCH   1   2
ATOM      2  C   UNL     1      52.226  54.130  21.592  1.00  0.00     0.000 C 
BRANCH   2   3
ATOM      3  C   UNL     1      51.832  52.901  20.755  1.00  0.00     0.000 C 
BRANCH   3   4
ATOM      4  C   UNL     1      51.800  51.606  21.585  1.00  0.00     0.000 C 
BRANCH   4   5
ATOM      5  C   UNL     1      50.416  50.937  21.588  1.00  0.00     0.001 C 
BRANCH   5   6
ATOM      6  C   UNL     1      50.476  49.448  21.985  1.00  0.00     0.009 C 
BRANCH   6   7
ATOM      7  C   UNL     1      50.099  49.173  23.457  1.00  0.00     0.032 C 
ATOM      8  C   UNL     1      48.615  49.455  23.746  1.00  0.00     0.014 C 
BRANCH   7   9
ATOM      9  C   UNL     1      50.511  47.786  23.882  1.00  0.00     0.044 C 
ATOM     10  O   UNL     1      51.552  47.248  23.420  1.00  0.00    -0.550 OA
ATOM     11  O   UNL     1      49.763  47.113  24.841  1.00  0.00    -0.550 OA
ENDBRANCH   7   9
ENDBRANCH   6   7
ENDBRANCH   5   6
ENDBRANCH   4   5
ENDBRANCH   3   4
ENDBRANCH   2   3
ENDBRANCH   1   2
BRANCH   1  12
ATOM     12  C   UNL     1      52.781  54.393  24.075  1.00  0.00     0.000 C 
BRANCH  12  13
ATOM     13  C   UNL     1      51.256  54.385  24.270  1.00  0.00    -0.000 C 
BRANCH  13  14
ATOM     14  C   UNL     1      50.723  53.002  24.677  1.00  0.00    -0.000 C 
BRANCH  14  15
ATOM     15  C   UNL     1      49.188  52.955  24.748  1.00  0.00    -0.000 C 
BRANCH  15  16
ATOM     16  C   UNL     1      48.654  52.987  26.191  1.00  0.00    -0.000 C 
BRANCH  16  17
ATOM     17  C   UNL     1      47.174  53.391  26.324  1.00  0.00    -0.000 C 
BRANCH  17  18
ATOM     18  C   UNL     1      46.320  52.943  25.129  1.00  0.00    -0.003 C 
ATOM     19  C   UNL     1      45.881  51.489  25.279  1.00  0.00     0.004 C 
ENDBRANCH  17  18
ENDBRANCH  16  17
ENDBRANCH  15  16
ENDBRANCH  14  15
ENDBRANCH  13  14
ENDBRANCH  12  13
ENDBRANCH   1  12
TORSDOF 14
ENDMDL
MODEL 4
REMARK VINA RESULT:    -5.240      2.774      5.454
REMARK INTER + INTRA:         -11.780
REMARK INTER:                 -10.290
REMARK INTRA:                  -1.490
REMARK UNBOUND:                -2.252
REMARK SMILES CCCCCCCCCCCCCC[C@@H](C)C(=O)[O-]
REMARK SMILES IDX 9 1 10 2 11 3 12 4 13 5 14 6 15 7 16 8 17 9 18 10 19 11 8 12
REMARK SMILES IDX 7 13 6 14 5 15 4 16 3 17 2 18 1 19
REMARK H PARENT
REMARK Flexibility Score: inf
ROOT
ATOM      1  C   UNL     1      52.620  54.527  22.286  1.00  0.00     0.000 C 
ENDROOT
BRANCH   1   2
ATOM      2  C   UNL     1      52.739  54.146  23.773  1.00  0.00     0.000 C 
BRANCH   2   3
ATOM      3  C   UNL     1      51.659  53.147  24.221  1.00  0.00     0.000 C 
BRANCH   3   4
ATOM      4  C   UNL     1      50.364  53.840  24.677  1.00  0.00     0.000 C 
BRANCH   4   5
ATOM      5  C   UNL     1      49.131  52.927  24.568  1.00  0.00     0.001 C 
BRANCH   5   6
ATOM      6  C   UNL     1      48.554  52.542  25.946  1.00  0.00     0.009 C 
BRANCH   6   7
ATOM      7  C   UNL     1      47.011  52.516  25.997  1.00  0.00     0.032 C 
ATOM      8  C   UNL     1      46.386  53.856  25.576  1.00  0.00     0.014 C 
BRANCH   7   9
ATOM      9  C   UNL     1      46.454  51.353  25.213  1.00  0.00     0.044 C 
ATOM     10  O   UNL     1      46.438  51.368  23.953  1.00  0.00    -0.550 OA
ATOM     11  O   UNL     1      46.006  50.224  25.888  1.00  0.00    -0.550 OA
ENDBRANCH   7   9
ENDBRANCH   6   7
ENDBRANCH   5   6
ENDBRANCH   4   5
ENDBRANCH   3   4
ENDBRANCH   2   3
ENDBRANCH   1   2
BRANCH   1  12
ATOM     12  C   UNL     1      51.832  53.485  21.475  1.00  0.00     0.000 C 
BRANCH  12  13
ATOM     13  C   UNL     1      52.672  52.245  21.128  1.00  0.00    -0.000 C 
BRANCH  13  14
ATOM     14  C   UNL     1      51.815  50.981  20.964  1.00  0.00    -0.000 C 
BRANCH  14  15
ATOM     15  C   UNL     1      50.347  51.202  21.363  1.00  0.00    -0.000 C 
BRANCH  15  16
ATOM     16  C   UNL     1      49.737  49.992  22.093  1.00  0.00    -0.000 C 
BRANCH  16  17
ATOM     17  C   UNL     1      50.759  49.070  22.783  1.00  0.00    -0.000 C 
BRANCH  17  18
ATOM     18  C   UNL     1      50.112  48.094  23.776  1.00  0.00    -0.003 C 
ATOM     19  C   UNL     1      48.710  48.555  24.168  1.00  0.00     0.004 C 
ENDBRANCH  17  18
ENDBRANCH  16  17
ENDBRANCH  15  16
ENDBRANCH  14  15
ENDBRANCH  13  14
ENDBRANCH  12  13
ENDBRANCH   1  12
TORSDOF 14
ENDMDL
MODEL 5
REMARK VINA RESULT:    -5.240      2.513      5.350
REMARK INTER + INTRA:         -11.780
REMARK INTER:                  -9.930
REMARK INTRA:                  -1.850
REMARK UNBOUND:                -2.252
REMARK SMILES CCCCCCCCCCCCCC[C@@H](C)C(=O)[O-]
REMARK SMILES IDX 9 1 10 2 11 3 12 4 13 5 14 6 15 7 16 8 17 9 18 10 19 11 8 12
REMARK SMILES IDX 7 13 6 14 5 15 4 16 3 17 2 18 1 19
REMARK H PARENT
REMARK Flexibility Score: inf
ROOT
ATOM      1  C   UNL     1      49.972  53.543  24.830  1.00  0.00     0.000 C 
ENDROOT
BRANCH   1   2
ATOM      2  C   UNL     1      48.841  53.113  25.783  1.00  0.00     0.000 C 
BRANCH   2   3
ATOM      3  C   UNL     1      47.582  52.638  25.037  1.00  0.00     0.000 C 
BRANCH   3   4
ATOM      4  C   UNL     1      47.279  51.149  25.276  1.00  0.00     0.000 C 
BRANCH   4   5
ATOM      5  C   UNL     1      46.981  50.387  23.974  1.00  0.00     0.001 C 
BRANCH   5   6
ATOM      6  C   UNL     1      48.259  49.861  23.288  1.00  0.00     0.009 C 
BRANCH   6   7
ATOM      7  C   UNL     1      49.059  48.850  24.138  1.00  0.00     0.032 C 
ATOM      8  C   UNL     1      48.206  47.651  24.582  1.00  0.00     0.014 C 
BRANCH   7   9
ATOM      9  C   UNL     1      50.326  48.424  23.440  1.00  0.00     0.044 C 
ATOM     10  O   UNL     1      50.717  49.004  22.392  1.00  0.00    -0.550 OA
ATOM     11  O   UNL     1      51.107  47.415  23.992  1.00  0.00    -0.550 OA
ENDBRANCH   7   9
ENDBRANCH   6   7
ENDBRANCH   5   6
ENDBRANCH   4   5
ENDBRANCH   3   4
ENDBRANCH   2   3
ENDBRANCH   1   2
BRANCH   1  12
ATOM     12  C   UNL     1      50.267  52.484  23.754  1.00  0.00     0.000 C 
BRANCH  12  13
ATOM     13  C   UNL     1      50.022  53.005  22.328  1.00  0.00    -0.000 C 
BRANCH  13  14
ATOM     14  C   UNL     1      50.921  52.318  21.289  1.00  0.00    -0.000 C 
BRANCH  14  15
ATOM     15  C   UNL     1      52.261  53.046  21.089  1.00  0.00    -0.000 C 
BRANCH  15  16
ATOM     16  C   UNL     1      52.291  54.437  21.748  1.00  0.00    -0.000 C 
BRANCH  16  17
ATOM     17  C   UNL     1      53.207  54.548  22.981  1.00  0.00    -0.000 C 
BRANCH  17  18
ATOM     18  C   UNL     1      53.991  53.259  23.264  1.00  0.00    -0.003 C 
ATOM     19  C   UNL     1      53.707  52.738  24.670  1.00  0.00     0.004 C 
ENDBRANCH  17  18
ENDBRANCH  16  17
ENDBRANCH  15  16
ENDBRANCH  14  15
ENDBRANCH  13  14
ENDBRANCH  12  13
ENDBRANCH   1  12
TORSDOF 14
ENDMDL
MODEL 6
REMARK VINA RESULT:    -5.234      1.536      4.393
REMARK INTER + INTRA:         -11.769
REMARK INTER:                 -10.055
REMARK INTRA:                  -1.714
REMARK UNBOUND:                -2.252
REMARK SMILES CCCCCCCCCCCCCC[C@@H](C)C(=O)[O-]
REMARK SMILES IDX 9 1 10 2 11 3 12 4 13 5 14 6 15 7 16 8 17 9 18 10 19 11 8 12
REMARK SMILES IDX 7 13 6 14 5 15 4 16 3 17 2 18 1 19
REMARK H PARENT
REMARK Flexibility Score: inf
ROOT
ATOM      1  C   UNL     1      50.959  49.810  21.926  1.00  0.00     0.000 C 
ENDROOT
BRANCH   1   2
ATOM      2  C   UNL     1      50.954  51.291  21.504  1.00  0.00     0.000 C 
BRANCH   2   3
ATOM      3  C   UNL     1      52.355  51.813  21.147  1.00  0.00     0.000 C 
BRANCH   3   4
ATOM      4  C   UNL     1      52.331  53.256  20.613  1.00  0.00     0.000 C 
BRANCH   4   5
ATOM      5  C   UNL     1      51.693  54.244  21.603  1.00  0.00     0.001 C 
BRANCH   5   6
ATOM      6  C   UNL     1      52.706  54.800  22.624  1.00  0.00     0.009 C 
BRANCH   6   7
ATOM      7  C   UNL     1      52.570  54.195  24.039  1.00  0.00     0.032 C 
ATOM      8  C   UNL     1      51.163  53.636  24.306  1.00  0.00     0.014 C 
BRANCH   7   9
ATOM      9  C   UNL     1      53.650  53.178  24.309  1.00  0.00     0.044 C 
ATOM     10  O   UNL     1      53.529  52.332  25.235  1.00  0.00    -0.550 OA
ATOM     11  O   UNL     1      54.771  53.134  23.488  1.00  0.00    -0.550 OA
ENDBRANCH   7   9
ENDBRANCH   6   7
ENDBRANCH   5   6
ENDBRANCH   4   5
ENDBRANCH   3   4
ENDBRANCH   2   3
ENDBRANCH   1   2
BRANCH   1  12
ATOM     12  C   UNL     1      49.670  49.404  22.661  1.00  0.00     0.000 C 
BRANCH  12  13
ATOM     13  C   UNL     1      49.119  50.528  23.555  1.00  0.00    -0.000 C 
BRANCH  13  14
ATOM     14  C   UNL     1      47.671  50.270  23.998  1.00  0.00    -0.000 C 
BRANCH  14  15
ATOM     15  C   UNL     1      46.673  51.257  23.370  1.00  0.00    -0.000 C 
BRANCH  15  16
ATOM     16  C   UNL     1      45.879  52.055  24.420  1.00  0.00    -0.000 C 
BRANCH  16  17
ATOM     17  C   UNL     1      46.185  51.681  25.882  1.00  0.00    -0.000 C 
BRANCH  17  18
ATOM     18  C   UNL     1      46.723  52.863  26.703  1.00  0.00    -0.003 C 
ATOM     19  C   UNL     1      48.175  53.166  26.345  1.00  0.00     0.004 C 
ENDBRANCH  17  18
ENDBRANCH  16  17
ENDBRANCH  15  16
ENDBRANCH  14  15
ENDBRANCH  13  14
ENDBRANCH  12  13
ENDBRANCH   1  12
TORSDOF 14
ENDMDL
MODEL 7
REMARK VINA RESULT:    -5.228      1.259      3.853
REMARK INTER + INTRA:         -11.759
REMARK INTER:                 -10.332
REMARK INTRA:                  -1.427
REMARK UNBOUND:                -2.252
REMARK SMILES CCCCCCCCCCCCCC[C@@H](C)C(=O)[O-]
REMARK SMILES IDX 9 1 10 2 11 3 12 4 13 5 14 6 15 7 16 8 17 9 18 10 19 11 8 12
REMARK SMILES IDX 7 13 6 14 5 15 4 16 3 17 2 18 1 19
REMARK H PARENT
REMARK Flexibility Score: inf
ROOT
ATOM      1  C   UNL     1      49.260  48.928  23.786  1.00  0.00     0.000 C 
ENDROOT
BRANCH   1   2
ATOM      2  C   UNL     1      49.425  49.316  22.305  1.00  0.00     0.000 C 
BRANCH   2   3
ATOM      3  C   UNL     1      50.820  49.881  21.989  1.00  0.00     0.000 C 
BRANCH   3   4
ATOM      4  C   UNL     1      50.769  51.076  21.020  1.00  0.00     0.000 C 
BRANCH   4   5
ATOM      5  C   UNL     1      51.991  51.999  21.151  1.00  0.00     0.001 C 
BRANCH   5   6
ATOM      6  C   UNL     1      51.607  53.445  21.526  1.00  0.00     0.009 C 
BRANCH   6   7
ATOM      7  C   UNL     1      52.802  54.321  21.961  1.00  0.00     0.032 C 
ATOM      8  C   UNL     1      52.577  55.812  21.662  1.00  0.00     0.014 C 
BRANCH   7   9
ATOM      9  C   UNL     1      53.168  54.075  23.403  1.00  0.00     0.044 C 
ATOM     10  O   UNL     1      54.090  53.274  23.712  1.00  0.00    -0.550 OA
ATOM     11  O   UNL     1      52.520  54.788  24.406  1.00  0.00    -0.550 OA
ENDBRANCH   7   9
ENDBRANCH   6   7
ENDBRANCH   5   6
ENDBRANCH   4   5
ENDBRANCH   3   4
ENDBRANCH   2   3
ENDBRANCH   1   2
BRANCH   1  12
ATOM     12  C   UNL     1      47.946  49.455  24.387  1.00  0.00     0.000 C 
BRANCH  12  13
ATOM     13  C   UNL     1      47.403  50.683  23.638  1.00  0.00    -0.000 C 
BRANCH  13  14
ATOM     14  C   UNL     1      46.056  51.165  24.198  1.00  0.00    -0.000 C 
BRANCH  14  15
ATOM     15  C   UNL     1      45.973  51.050  25.729  1.00  0.00    -0.000 C 
BRANCH  15  16
ATOM     16  C   UNL     1      46.000  52.418  26.434  1.00  0.00    -0.000 C 
BRANCH  16  17
ATOM     17  C   UNL     1      47.059  53.400  25.899  1.00  0.00    -0.000 C 
BRANCH  17  18
ATOM     18  C   UNL     1      48.491  53.011  26.295  1.00  0.00    -0.003 C 
ATOM     19  C   UNL     1      49.479  53.332  25.177  1.00  0.00     0.004 C 
ENDBRANCH  17  18
ENDBRANCH  16  17
ENDBRANCH  15  16
ENDBRANCH  14  15
ENDBRANCH  13  14
ENDBRANCH  12  13
ENDBRANCH   1  12
TORSDOF 14
ENDMDL
MODEL 8
REMARK VINA RESULT:    -5.093      1.255      2.119
REMARK INTER + INTRA:         -11.513
REMARK INTER:                  -9.438
REMARK INTRA:                  -2.076
REMARK UNBOUND:                -2.252
REMARK SMILES CCCCCCCCCCCCCC[C@@H](C)C(=O)[O-]
REMARK SMILES IDX 9 1 10 2 11 3 12 4 13 5 14 6 15 7 16 8 17 9 18 10 19 11 8 12
REMARK SMILES IDX 7 13 6 14 5 15 4 16 3 17 2 18 1 19
REMARK H PARENT
REMARK Flexibility Score: inf
ROOT
ATOM      1  C   UNL     1      46.528  52.274  25.663  1.00  0.00     0.000 C 
ENDROOT
BRANCH   1   2
ATOM      2  C   UNL     1      47.544  53.289  26.219  1.00  0.00     0.000 C 
BRANCH   2   3
ATOM      3  C   UNL     1      49.002  52.890  25.936  1.00  0.00     0.000 C 
BRANCH   3   4
ATOM      4  C   UNL     1      49.617  53.684  24.771  1.00  0.00     0.000 C 
BRANCH   4   5
ATOM      5  C   UNL     1      51.038  53.214  24.417  1.00  0.00     0.001 C 
BRANCH   5   6
ATOM      6  C   UNL     1      52.018  54.388  24.214  1.00  0.00     0.009 C 
BRANCH   6   7
ATOM      7  C   UNL     1      53.149  54.096  23.203  1.00  0.00     0.032 C 
ATOM      8  C   UNL     1      54.132  53.030  23.713  1.00  0.00     0.014 C 
BRANCH   7   9
ATOM      9  C   UNL     1      52.596  53.760  21.841  1.00  0.00     0.044 C 
ATOM     10  O   UNL     1      51.798  54.538  21.254  1.00  0.00    -0.550 OA
ATOM     11  O   UNL     1      53.018  52.602  21.197  1.00  0.00    -0.550 OA
ENDBRANCH   7   9
ENDBRANCH   6   7
ENDBRANCH   5   6
ENDBRANCH   4   5
ENDBRANCH   3   4
ENDBRANCH   2   3
ENDBRANCH   1   2
BRANCH   1  12
ATOM     12  C   UNL     1      46.438  52.316  24.128  1.00  0.00     0.000 C 
BRANCH  12  13
ATOM     13  C   UNL     1      46.799  50.969  23.477  1.00  0.00    -0.000 C 
BRANCH  13  14
ATOM     14  C   UNL     1      47.170  49.897  24.512  1.00  0.00    -0.000 C 
BRANCH  14  15
ATOM     15  C   UNL     1      48.466  49.150  24.155  1.00  0.00    -0.000 C 
BRANCH  15  16
ATOM     16  C   UNL     1      49.524  50.063  23.512  1.00  0.00    -0.000 C 
BRANCH  16  17
ATOM     17  C   UNL     1      50.166  49.504  22.228  1.00  0.00    -0.000 C 
BRANCH  17  18
ATOM     18  C   UNL     1      50.313  50.560  21.123  1.00  0.00    -0.003 C 
ATOM     19  C   UNL     1      49.539  51.830  21.467  1.00  0.00     0.004 C 
ENDBRANCH  17  18
ENDBRANCH  16  17
ENDBRANCH  15  16
ENDBRANCH  14  15
ENDBRANCH  13  14
ENDBRANCH  12  13
ENDBRANCH   1  12
TORSDOF 14
ENDMDL
MODEL 9
REMARK VINA RESULT:    -5.079      2.929      6.056
REMARK INTER + INTRA:         -11.487
REMARK INTER:                  -9.947
REMARK INTRA:                  -1.539
REMARK UNBOUND:                -2.252
REMARK SMILES CCCCCCCCCCCCCC[C@@H](C)C(=O)[O-]
REMARK SMILES IDX 9 1 10 2 11 3 12 4 13 5 14 6 15 7 16 8 17 9 18 10 19 11 8 12
REMARK SMILES IDX 7 13 6 14 5 15 4 16 3 17 2 18 1 19
REMARK H PARENT
REMARK Flexibility Score: inf
ROOT
ATOM      1  C   UNL     1      50.761  53.672  25.190  1.00  0.00     0.000 C 
ENDROOT
BRANCH   1   2
ATOM      2  C   UNL     1      49.603  53.229  24.277  1.00  0.00     0.000 C 
BRANCH   2   3
ATOM      3  C   UNL     1      48.501  52.471  25.038  1.00  0.00     0.000 C 
BRANCH   3   4
ATOM      4  C   UNL     1      47.302  52.116  24.143  1.00  0.00     0.000 C 
BRANCH   4   5
ATOM      5  C   UNL     1      47.560  50.879  23.267  1.00  0.00     0.001 C 
BRANCH   5   6
ATOM      6  C   UNL     1      48.219  49.724  24.049  1.00  0.00     0.009 C 
BRANCH   6   7
ATOM      7  C   UNL     1      49.346  49.004  23.278  1.00  0.00     0.032 C 
ATOM      8  C   UNL     1      50.419  49.976  22.760  1.00  0.00     0.014 C 
BRANCH   7   9
ATOM      9  C   UNL     1      49.938  47.879  24.089  1.00  0.00     0.044 C 
ATOM     10  O   UNL     1      49.216  47.170  24.840  1.00  0.00    -0.550 OA
ATOM     11  O   UNL     1      51.290  47.580  23.963  1.00  0.00    -0.550 OA
ENDBRANCH   7   9
ENDBRANCH   6   7
ENDBRANCH   5   6
ENDBRANCH   4   5
ENDBRANCH   3   4
ENDBRANCH   2   3
ENDBRANCH   1   2
BRANCH   1  12
ATOM     12  C   UNL     1      51.952  54.235  24.395  1.00  0.00     0.000 C 
BRANCH  12  13
ATOM     13  C   UNL     1      53.104  53.226  24.260  1.00  0.00    -0.000 C 
BRANCH  13  14
ATOM     14  C   UNL     1      53.772  53.278  22.878  1.00  0.00    -0.000 C 
BRANCH  14  15
ATOM     15  C   UNL     1      53.056  52.399  21.839  1.00  0.00    -0.000 C 
BRANCH  15  16
ATOM     16  C   UNL     1      52.371  53.221  20.732  1.00  0.00    -0.000 C 
BRANCH  16  17
ATOM     17  C   UNL     1      51.743  54.546  21.204  1.00  0.00    -0.000 C 
BRANCH  17  18
ATOM     18  C   UNL     1      52.287  55.769  20.452  1.00  0.00    -0.003 C 
ATOM     19  C   UNL     1      52.987  56.735  21.404  1.00  0.00     0.004 C 
ENDBRANCH  17  18
ENDBRANCH  16  17
ENDBRANCH  15  16
ENDBRANCH  14  15
ENDBRANCH  13  14
ENDBRANCH  12  13
ENDBRANCH   1  12
TORSDOF 14
ENDMDL
