MODEL 1
REMARK VINA RESULT:    28.220      0.000      0.000
REMARK INTER + INTRA:          34.648
REMARK INTER:                  34.818
REMARK INTRA:                  -0.171
REMARK UNBOUND:                -0.171
REMARK SMILES O=c1c(O)c(-c2cc(O)c(O)c(O)c2)oc2cc(O)cc(O)c12
REMARK SMILES IDX 5 1 3 2 2 3 1 4 23 5 21 6 20 7 18 8 17 9 16 10 15 11 6 12
REMARK SMILES IDX 7 13 8 14 14 15 10 16 12 17 9 18 11 20 13 22 4 24 22 26
REMARK SMILES IDX 19 28
REMARK H PARENT 9 19 11 21 13 23 4 25 22 27 19 29
REMARK Flexibility Score: inf
ROOT
ATOM      1  C   UNL     1       7.133   3.091  18.879  1.00  0.00     0.180 A 
ATOM      2  C   UNL     1       8.488   2.806  18.636  1.00  0.00     0.208 A 
ATOM      3  C   UNL     1       9.361   3.863  18.329  1.00  0.00     0.238 A 
ATOM      4  O   UNL     1      10.561   3.597  18.058  1.00  0.00    -0.285 OA
ATOM      5  C   UNL     1       8.871   5.191  18.285  1.00  0.00     0.111 A 
ATOM      6  C   UNL     1       9.674   6.343  18.024  1.00  0.00     0.134 A 
ATOM      7  C   UNL     1       9.060   7.593  17.875  1.00  0.00     0.093 A 
ATOM      8  C   UNL     1       7.684   7.744  18.042  1.00  0.00     0.123 A 
ATOM      9  C   UNL     1       6.898   6.635  18.356  1.00  0.00     0.094 A 
ATOM     10  C   UNL     1       7.476   5.369  18.475  1.00  0.00     0.146 A 
ATOM     11  O   UNL     1       6.691   4.337  18.765  1.00  0.00    -0.452 OA
ENDROOT
BRANCH   1  12
ATOM     12  C   UNL     1       6.159   2.033  19.233  1.00  0.00     0.029 A 
ATOM     13  C   UNL     1       5.088   1.710  18.381  1.00  0.00     0.062 A 
ATOM     14  C   UNL     1       4.189   0.689  18.723  1.00  0.00     0.162 A 
ATOM     15  C   UNL     1       6.338   1.298  20.415  1.00  0.00     0.062 A 
ATOM     16  C   UNL     1       4.365  -0.026  19.920  1.00  0.00     0.200 A 
ATOM     17  C   UNL     1       5.441   0.278  20.762  1.00  0.00     0.162 A 
BRANCH  14  18
ATOM     18  O   UNL     1       3.127   0.381  17.875  1.00  0.00    -0.504 OA
ATOM     19  H   UNL     1       3.266   0.227  16.884  1.00  0.00     0.293 HD
ENDBRANCH  14  18
BRANCH  16  20
ATOM     20  O   UNL     1       3.481  -1.043  20.283  1.00  0.00    -0.502 OA
ATOM     21  H   UNL     1       2.480  -0.897  20.328  1.00  0.00     0.293 HD
ENDBRANCH  16  20
BRANCH  17  22
ATOM     22  O   UNL     1       5.616  -0.440  21.944  1.00  0.00    -0.504 OA
ATOM     23  H   UNL     1       4.947  -1.139  22.244  1.00  0.00     0.293 HD
ENDBRANCH  17  22
ENDBRANCH   1  12
BRANCH   2  24
ATOM     24  O   UNL     1       8.946   1.487  18.663  1.00  0.00    -0.502 OA
ATOM     25  H   UNL     1       9.821   1.205  18.237  1.00  0.00     0.293 HD
ENDBRANCH   2  24
BRANCH   6  26
ATOM     26  O   UNL     1      11.068   6.316  17.929  1.00  0.00    -0.507 OA
ATOM     27  H   UNL     1      11.681   5.864  18.590  1.00  0.00     0.293 HD
ENDBRANCH   6  26
BRANCH   8  28
ATOM     28  O   UNL     1       7.110   9.005  17.903  1.00  0.00    -0.508 OA
ATOM     29  H   UNL     1       6.120   9.157  18.061  1.00  0.00     0.293 HD
ENDBRANCH   8  28
TORSDOF 7
ENDMDL
