MODEL 1
REMARK VINA RESULT:    -4.617      0.000      0.000
REMARK INTER + INTRA:         -10.473
REMARK INTER:                  -8.126
REMARK INTRA:                  -2.347
REMARK UNBOUND:                -2.347
REMARK SMILES CCCCCCCCCCCCCCC(=O)[O-]
REMARK SMILES IDX 9 1 10 2 11 3 12 4 13 5 14 6 15 7 16 8 17 9 8 10 7 11 6 12
REMARK SMILES IDX 5 13 4 14 3 15 2 16 1 17
REMARK H PARENT
REMARK Flexibility Score: inf
ROOT
ATOM      1  C   UNL     1      20.692  18.379  49.088  1.00  0.00     0.000 C 
ENDROOT
BRANCH   1   2
ATOM      2  C   UNL     1      21.087  17.938  47.668  1.00  0.00     0.000 C 
BRANCH   2   3
ATOM      3  C   UNL     1      20.392  16.637  47.238  1.00  0.00     0.000 C 
BRANCH   3   4
ATOM      4  C   UNL     1      19.105  16.891  46.440  1.00  0.00     0.000 C 
BRANCH   4   5
ATOM      5  C   UNL     1      17.869  16.785  47.345  1.00  0.00     0.006 C 
BRANCH   5   6
ATOM      6  C   UNL     1      16.602  17.324  46.666  1.00  0.00     0.053 C 
BRANCH   6   7
ATOM      7  C   UNL     1      15.711  16.218  46.194  1.00  0.00     0.041 C 
ATOM      8  O   UNL     1      15.866  15.048  46.633  1.00  0.00    -0.550 OA
ATOM      9  O   UNL     1      14.689  16.484  45.292  1.00  0.00    -0.550 OA
ENDBRANCH   6   7
ENDBRANCH   5   6
ENDBRANCH   4   5
ENDBRANCH   3   4
ENDBRANCH   2   3
ENDBRANCH   1   2
BRANCH   1  10
ATOM     10  C   UNL     1      20.181  19.829  49.141  1.00  0.00     0.000 C 
BRANCH  10  11
ATOM     11  C   UNL     1      19.919  20.442  47.748  1.00  0.00    -0.000 C 
BRANCH  11  12
ATOM     12  C   UNL     1      18.421  20.478  47.402  1.00  0.00    -0.000 C 
BRANCH  12  13
ATOM     13  C   UNL     1      18.164  20.662  45.898  1.00  0.00    -0.000 C 
BRANCH  13  14
ATOM     14  C   UNL     1      19.377  20.277  45.038  1.00  0.00    -0.000 C 
BRANCH  14  15
ATOM     15  C   UNL     1      18.932  19.697  43.690  1.00  0.00    -0.000 C 
BRANCH  15  16
ATOM     16  C   UNL     1      17.484  19.200  43.757  1.00  0.00    -0.003 C 
ATOM     17  C   UNL     1      17.321  17.874  43.020  1.00  0.00     0.004 C 
ENDBRANCH  15  16
ENDBRANCH  14  15
ENDBRANCH  13  14
ENDBRANCH  12  13
ENDBRANCH  11  12
ENDBRANCH  10  11
ENDBRANCH   1  10
TORSDOF 13
ENDMDL
MODEL 2
REMARK VINA RESULT:    -4.474      3.081      5.019
REMARK INTER + INTRA:         -10.221
REMARK INTER:                  -8.330
REMARK INTRA:                  -1.890
REMARK UNBOUND:                -2.347
REMARK SMILES CCCCCCCCCCCCCCC(=O)[O-]
REMARK SMILES IDX 9 1 10 2 11 3 12 4 13 5 14 6 15 7 16 8 17 9 8 10 7 11 6 12
REMARK SMILES IDX 5 13 4 14 3 15 2 16 1 17
REMARK H PARENT
REMARK Flexibility Score: inf
ROOT
ATOM      1  C   UNL     1      17.604  16.825  47.254  1.00  0.00     0.000 C 
ENDROOT
BRANCH   1   2
ATOM      2  C   UNL     1      18.469  15.934  46.347  1.00  0.00     0.000 C 
BRANCH   2   3
ATOM      3  C   UNL     1      19.928  15.848  46.821  1.00  0.00     0.000 C 
BRANCH   3   4
ATOM      4  C   UNL     1      20.472  17.200  47.308  1.00  0.00     0.000 C 
BRANCH   4   5
ATOM      5  C   UNL     1      21.721  17.007  48.180  1.00  0.00     0.006 C 
BRANCH   5   6
ATOM      6  C   UNL     1      21.377  16.881  49.670  1.00  0.00     0.053 C 
BRANCH   6   7
ATOM      7  C   UNL     1      21.930  15.623  50.263  1.00  0.00     0.041 C 
ATOM      8  O   UNL     1      21.503  15.203  51.371  1.00  0.00    -0.550 OA
ATOM      9  O   UNL     1      22.894  14.895  49.578  1.00  0.00    -0.550 OA
ENDBRANCH   6   7
ENDBRANCH   5   6
ENDBRANCH   4   5
ENDBRANCH   3   4
ENDBRANCH   2   3
ENDBRANCH   1   2
BRANCH   1  10
ATOM     10  C   UNL     1      17.045  18.056  46.520  1.00  0.00     0.000 C 
BRANCH  10  11
ATOM     11  C   UNL     1      17.209  17.987  44.987  1.00  0.00    -0.000 C 
BRANCH  11  12
ATOM     12  C   UNL     1      17.817  19.277  44.410  1.00  0.00    -0.000 C 
BRANCH  12  13
ATOM     13  C   UNL     1      19.220  19.570  44.965  1.00  0.00    -0.000 C 
BRANCH  13  14
ATOM     14  C   UNL     1      19.274  20.869  45.783  1.00  0.00    -0.000 C 
BRANCH  14  15
ATOM     15  C   UNL     1      20.127  20.689  47.044  1.00  0.00    -0.000 C 
BRANCH  15  16
ATOM     16  C   UNL     1      19.244  20.525  48.286  1.00  0.00    -0.003 C 
ATOM     17  C   UNL     1      20.090  20.325  49.541  1.00  0.00     0.004 C 
ENDBRANCH  15  16
ENDBRANCH  14  15
ENDBRANCH  13  14
ENDBRANCH  12  13
ENDBRANCH  11  12
ENDBRANCH  10  11
ENDBRANCH   1  10
TORSDOF 13
ENDMDL
MODEL 3
REMARK VINA RESULT:    -4.457      1.652      3.426
REMARK INTER + INTRA:         -10.192
REMARK INTER:                  -8.115
REMARK INTRA:                  -2.077
REMARK UNBOUND:                -2.347
REMARK SMILES CCCCCCCCCCCCCCC(=O)[O-]
REMARK SMILES IDX 9 1 10 2 11 3 12 4 13 5 14 6 15 7 16 8 17 9 8 10 7 11 6 12
REMARK SMILES IDX 5 13 4 14 3 15 2 16 1 17
REMARK H PARENT
REMARK Flexibility Score: inf
ROOT
ATOM      1  C   UNL     1      20.320  15.947  47.125  1.00  0.00     0.000 C 
ENDROOT
BRANCH   1   2
ATOM      2  C   UNL     1      19.330  16.947  46.505  1.00  0.00     0.000 C 
BRANCH   2   3
ATOM      3  C   UNL     1      17.936  16.874  47.146  1.00  0.00     0.000 C 
BRANCH   3   4
ATOM      4  C   UNL     1      16.953  17.888  46.540  1.00  0.00     0.000 C 
BRANCH   4   5
ATOM      5  C   UNL     1      16.285  17.319  45.281  1.00  0.00     0.006 C 
BRANCH   5   6
ATOM      6  C   UNL     1      16.839  17.946  43.994  1.00  0.00     0.053 C 
BRANCH   6   7
ATOM      7  C   UNL     1      16.073  19.169  43.598  1.00  0.00     0.041 C 
ATOM      8  O   UNL     1      16.606  20.042  42.863  1.00  0.00    -0.550 OA
ATOM      9  O   UNL     1      14.757  19.331  44.013  1.00  0.00    -0.550 OA
ENDBRANCH   6   7
ENDBRANCH   5   6
ENDBRANCH   4   5
ENDBRANCH   3   4
ENDBRANCH   2   3
ENDBRANCH   1   2
BRANCH   1  10
ATOM     10  C   UNL     1      21.485  16.636  47.856  1.00  0.00     0.000 C 
BRANCH  10  11
ATOM     11  C   UNL     1      21.360  18.174  47.902  1.00  0.00    -0.000 C 
BRANCH  11  12
ATOM     12  C   UNL     1      20.765  18.668  49.232  1.00  0.00    -0.000 C 
BRANCH  12  13
ATOM     13  C   UNL     1      20.053  20.024  49.096  1.00  0.00    -0.000 C 
BRANCH  13  14
ATOM     14  C   UNL     1      19.989  20.516  47.642  1.00  0.00    -0.000 C 
BRANCH  14  15
ATOM     15  C   UNL     1      18.590  21.044  47.303  1.00  0.00    -0.000 C 
BRANCH  15  16
ATOM     16  C   UNL     1      18.394  21.148  45.787  1.00  0.00    -0.003 C 
ATOM     17  C   UNL     1      19.462  20.357  45.037  1.00  0.00     0.004 C 
ENDBRANCH  15  16
ENDBRANCH  14  15
ENDBRANCH  13  14
ENDBRANCH  12  13
ENDBRANCH  11  12
ENDBRANCH  10  11
ENDBRANCH   1  10
TORSDOF 13
ENDMDL
MODEL 4
REMARK VINA RESULT:    -4.407      1.394      2.565
REMARK INTER + INTRA:         -10.103
REMARK INTER:                  -7.835
REMARK INTRA:                  -2.267
REMARK UNBOUND:                -2.347
REMARK SMILES CCCCCCCCCCCCCCC(=O)[O-]
REMARK SMILES IDX 9 1 10 2 11 3 12 4 13 5 14 6 15 7 16 8 17 9 8 10 7 11 6 12
REMARK SMILES IDX 5 13 4 14 3 15 2 16 1 17
REMARK H PARENT
REMARK Flexibility Score: inf
ROOT
ATOM      1  C   UNL     1      20.561  16.707  47.304  1.00  0.00     0.000 C 
ENDROOT
BRANCH   1   2
ATOM      2  C   UNL     1      19.248  16.809  46.510  1.00  0.00     0.000 C 
BRANCH   2   3
ATOM      3  C   UNL     1      18.013  16.905  47.419  1.00  0.00     0.000 C 
BRANCH   3   4
ATOM      4  C   UNL     1      16.877  17.723  46.788  1.00  0.00     0.000 C 
BRANCH   4   5
ATOM      5  C   UNL     1      16.680  17.342  45.314  1.00  0.00     0.006 C 
BRANCH   5   6
ATOM      6  C   UNL     1      15.742  18.312  44.582  1.00  0.00     0.053 C 
BRANCH   6   7
ATOM      7  C   UNL     1      14.350  17.770  44.483  1.00  0.00     0.041 C 
ATOM      8  O   UNL     1      13.460  18.156  45.286  1.00  0.00    -0.550 OA
ATOM      9  O   UNL     1      14.026  16.862  43.482  1.00  0.00    -0.550 OA
ENDBRANCH   6   7
ENDBRANCH   5   6
ENDBRANCH   4   5
ENDBRANCH   3   4
ENDBRANCH   2   3
ENDBRANCH   1   2
BRANCH   1  10
ATOM     10  C   UNL     1      21.167  18.083  47.631  1.00  0.00     0.000 C 
BRANCH  10  11
ATOM     11  C   UNL     1      20.761  18.621  49.020  1.00  0.00    -0.000 C 
BRANCH  11  12
ATOM     12  C   UNL     1      20.019  19.965  48.927  1.00  0.00    -0.000 C 
BRANCH  12  13
ATOM     13  C   UNL     1      19.839  20.444  47.477  1.00  0.00    -0.000 C 
BRANCH  13  14
ATOM     14  C   UNL     1      18.443  21.030  47.216  1.00  0.00    -0.000 C 
BRANCH  14  15
ATOM     15  C   UNL     1      18.112  21.012  45.718  1.00  0.00    -0.000 C 
BRANCH  15  16
ATOM     16  C   UNL     1      19.123  20.160  44.942  1.00  0.00    -0.003 C 
ATOM     17  C   UNL     1      18.841  20.200  43.443  1.00  0.00     0.004 C 
ENDBRANCH  15  16
ENDBRANCH  14  15
ENDBRANCH  13  14
ENDBRANCH  12  13
ENDBRANCH  11  12
ENDBRANCH  10  11
ENDBRANCH   1  10
TORSDOF 13
ENDMDL
MODEL 5
REMARK VINA RESULT:    -4.394      1.736      4.102
REMARK INTER + INTRA:         -10.080
REMARK INTER:                  -7.800
REMARK INTRA:                  -2.280
REMARK UNBOUND:                -2.347
REMARK SMILES CCCCCCCCCCCCCCC(=O)[O-]
REMARK SMILES IDX 9 1 10 2 11 3 12 4 13 5 14 6 15 7 16 8 17 9 8 10 7 11 6 12
REMARK SMILES IDX 5 13 4 14 3 15 2 16 1 17
REMARK H PARENT
REMARK Flexibility Score: inf
ROOT
ATOM      1  C   UNL     1      18.792  20.600  48.031  1.00  0.00     0.000 C 
ENDROOT
BRANCH   1   2
ATOM      2  C   UNL     1      18.278  20.561  46.583  1.00  0.00     0.000 C 
BRANCH   2   3
ATOM      3  C   UNL     1      19.413  20.636  45.550  1.00  0.00     0.000 C 
BRANCH   3   4
ATOM      4  C   UNL     1      19.122  19.805  44.291  1.00  0.00     0.000 C 
BRANCH   4   5
ATOM      5  C   UNL     1      18.354  20.635  43.252  1.00  0.00     0.006 C 
BRANCH   5   6
ATOM      6  C   UNL     1      17.045  19.959  42.821  1.00  0.00     0.053 C 
BRANCH   6   7
ATOM      7  C   UNL     1      15.909  20.318  43.727  1.00  0.00     0.041 C 
ATOM      8  O   UNL     1      15.818  21.482  44.198  1.00  0.00    -0.550 OA
ATOM      9  O   UNL     1      14.932  19.376  44.026  1.00  0.00    -0.550 OA
ENDBRANCH   6   7
ENDBRANCH   5   6
ENDBRANCH   4   5
ENDBRANCH   3   4
ENDBRANCH   2   3
ENDBRANCH   1   2
BRANCH   1  10
ATOM     10  C   UNL     1      20.292  20.277  48.141  1.00  0.00     0.000 C 
BRANCH  10  11
ATOM     11  C   UNL     1      20.580  18.888  48.752  1.00  0.00    -0.000 C 
BRANCH  11  12
ATOM     12  C   UNL     1      21.290  17.953  47.758  1.00  0.00    -0.000 C 
BRANCH  12  13
ATOM     13  C   UNL     1      20.486  16.676  47.466  1.00  0.00    -0.000 C 
BRANCH  13  14
ATOM     14  C   UNL     1      19.323  16.919  46.492  1.00  0.00    -0.000 C 
BRANCH  14  15
ATOM     15  C   UNL     1      17.979  16.916  47.230  1.00  0.00    -0.000 C 
BRANCH  15  16
ATOM     16  C   UNL     1      16.820  17.175  46.262  1.00  0.00    -0.003 C 
ATOM     17  C   UNL     1      17.191  16.774  44.837  1.00  0.00     0.004 C 
ENDBRANCH  15  16
ENDBRANCH  14  15
ENDBRANCH  13  14
ENDBRANCH  12  13
ENDBRANCH  11  12
ENDBRANCH  10  11
ENDBRANCH   1  10
TORSDOF 13
ENDMDL
MODEL 6
REMARK VINA RESULT:    -4.369      2.357      4.925
REMARK INTER + INTRA:         -10.035
REMARK INTER:                  -7.983
REMARK INTRA:                  -2.052
REMARK UNBOUND:                -2.347
REMARK SMILES CCCCCCCCCCCCCCC(=O)[O-]
REMARK SMILES IDX 9 1 10 2 11 3 12 4 13 5 14 6 15 7 16 8 17 9 8 10 7 11 6 12
REMARK SMILES IDX 5 13 4 14 3 15 2 16 1 17
REMARK H PARENT
REMARK Flexibility Score: inf
ROOT
ATOM      1  C   UNL     1      16.670  16.960  46.615  1.00  0.00     0.000 C 
ENDROOT
BRANCH   1   2
ATOM      2  C   UNL     1      16.521  18.148  45.649  1.00  0.00     0.000 C 
BRANCH   2   3
ATOM      3  C   UNL     1      16.424  17.708  44.180  1.00  0.00     0.000 C 
BRANCH   3   4
ATOM      4  C   UNL     1      17.564  18.273  43.318  1.00  0.00     0.000 C 
BRANCH   4   5
ATOM      5  C   UNL     1      18.323  19.377  44.068  1.00  0.00     0.006 C 
BRANCH   5   6
ATOM      6  C   UNL     1      18.582  20.606  43.186  1.00  0.00     0.053 C 
BRANCH   6   7
ATOM      7  C   UNL     1      17.315  21.338  42.867  1.00  0.00     0.041 C 
ATOM      8  O   UNL     1      17.118  21.788  41.708  1.00  0.00    -0.550 OA
ATOM      9  O   UNL     1      16.338  21.496  43.842  1.00  0.00    -0.550 OA
ENDBRANCH   6   7
ENDBRANCH   5   6
ENDBRANCH   4   5
ENDBRANCH   3   4
ENDBRANCH   2   3
ENDBRANCH   1   2
BRANCH   1  10
ATOM     10  C   UNL     1      17.991  16.994  47.401  1.00  0.00     0.000 C 
BRANCH  10  11
ATOM     11  C   UNL     1      19.241  16.804  46.515  1.00  0.00    -0.000 C 
BRANCH  11  12
ATOM     12  C   UNL     1      20.535  16.738  47.344  1.00  0.00    -0.000 C 
BRANCH  12  13
ATOM     13  C   UNL     1      21.081  18.130  47.703  1.00  0.00    -0.000 C 
BRANCH  13  14
ATOM     14  C   UNL     1      20.717  19.196  46.659  1.00  0.00    -0.000 C 
BRANCH  14  15
ATOM     15  C   UNL     1      20.261  20.494  47.337  1.00  0.00    -0.000 C 
BRANCH  15  16
ATOM     16  C   UNL     1      18.762  20.450  47.656  1.00  0.00    -0.003 C 
ATOM     17  C   UNL     1      18.017  21.586  46.962  1.00  0.00     0.004 C 
ENDBRANCH  15  16
ENDBRANCH  14  15
ENDBRANCH  13  14
ENDBRANCH  12  13
ENDBRANCH  11  12
ENDBRANCH  10  11
ENDBRANCH   1  10
TORSDOF 13
ENDMDL
MODEL 7
REMARK VINA RESULT:    -4.311      2.608      5.244
REMARK INTER + INTRA:          -9.935
REMARK INTER:                  -8.351
REMARK INTRA:                  -1.584
REMARK UNBOUND:                -2.347
REMARK SMILES CCCCCCCCCCCCCCC(=O)[O-]
REMARK SMILES IDX 9 1 10 2 11 3 12 4 13 5 14 6 15 7 16 8 17 9 8 10 7 11 6 12
REMARK SMILES IDX 5 13 4 14 3 15 2 16 1 17
REMARK H PARENT
REMARK Flexibility Score: inf
ROOT
ATOM      1  C   UNL     1      17.666  17.365  47.112  1.00  0.00     0.000 C 
ENDROOT
BRANCH   1   2
ATOM      2  C   UNL     1      17.189  18.509  46.201  1.00  0.00     0.000 C 
BRANCH   2   3
ATOM      3  C   UNL     1      16.744  18.016  44.816  1.00  0.00     0.000 C 
BRANCH   3   4
ATOM      4  C   UNL     1      17.711  18.438  43.700  1.00  0.00     0.000 C 
BRANCH   4   5
ATOM      5  C   UNL     1      18.646  19.558  44.178  1.00  0.00     0.006 C 
BRANCH   5   6
ATOM      6  C   UNL     1      18.603  20.784  43.256  1.00  0.00     0.053 C 
BRANCH   6   7
ATOM      7  C   UNL     1      17.908  21.942  43.903  1.00  0.00     0.041 C 
ATOM      8  O   UNL     1      17.644  21.916  45.134  1.00  0.00    -0.550 OA
ATOM      9  O   UNL     1      17.580  23.065  43.153  1.00  0.00    -0.550 OA
ENDBRANCH   6   7
ENDBRANCH   5   6
ENDBRANCH   4   5
ENDBRANCH   3   4
ENDBRANCH   2   3
ENDBRANCH   1   2
BRANCH   1  10
ATOM     10  C   UNL     1      18.442  16.279  46.348  1.00  0.00     0.000 C 
BRANCH  10  11
ATOM     11  C   UNL     1      19.909  16.131  46.807  1.00  0.00    -0.000 C 
BRANCH  11  12
ATOM     12  C   UNL     1      20.229  17.018  48.022  1.00  0.00    -0.000 C 
BRANCH  12  13
ATOM     13  C   UNL     1      21.392  17.988  47.758  1.00  0.00    -0.000 C 
BRANCH  13  14
ATOM     14  C   UNL     1      20.984  19.174  46.871  1.00  0.00    -0.000 C 
BRANCH  14  15
ATOM     15  C   UNL     1      20.083  20.149  47.639  1.00  0.00    -0.000 C 
BRANCH  15  16
ATOM     16  C   UNL     1      20.386  20.112  49.140  1.00  0.00    -0.003 C 
ATOM     17  C   UNL     1      19.576  21.164  49.893  1.00  0.00     0.004 C 
ENDBRANCH  15  16
ENDBRANCH  14  15
ENDBRANCH  13  14
ENDBRANCH  12  13
ENDBRANCH  11  12
ENDBRANCH  10  11
ENDBRANCH   1  10
TORSDOF 13
ENDMDL
MODEL 8
REMARK VINA RESULT:    -4.278      3.110      4.793
REMARK INTER + INTRA:          -9.876
REMARK INTER:                  -8.219
REMARK INTRA:                  -1.657
REMARK UNBOUND:                -2.347
REMARK SMILES CCCCCCCCCCCCCCC(=O)[O-]
REMARK SMILES IDX 9 1 10 2 11 3 12 4 13 5 14 6 15 7 16 8 17 9 8 10 7 11 6 12
REMARK SMILES IDX 5 13 4 14 3 15 2 16 1 17
REMARK H PARENT
REMARK Flexibility Score: inf
ROOT
ATOM      1  C   UNL     1      19.993  20.480  47.602  1.00  0.00     0.000 C 
ENDROOT
BRANCH   1   2
ATOM      2  C   UNL     1      20.190  20.003  49.051  1.00  0.00     0.000 C 
BRANCH   2   3
ATOM      3  C   UNL     1      20.610  18.527  49.136  1.00  0.00     0.000 C 
BRANCH   3   4
ATOM      4  C   UNL     1      21.415  18.072  47.909  1.00  0.00     0.000 C 
BRANCH   4   5
ATOM      5  C   UNL     1      21.639  16.553  47.933  1.00  0.00     0.006 C 
BRANCH   5   6
ATOM      6  C   UNL     1      23.045  16.180  48.422  1.00  0.00     0.053 C 
BRANCH   6   7
ATOM      7  C   UNL     1      23.038  14.912  49.218  1.00  0.00     0.041 C 
ATOM      8  O   UNL     1      23.274  13.810  48.657  1.00  0.00    -0.550 OA
ATOM      9  O   UNL     1      22.804  14.950  50.587  1.00  0.00    -0.550 OA
ENDBRANCH   6   7
ENDBRANCH   5   6
ENDBRANCH   4   5
ENDBRANCH   3   4
ENDBRANCH   2   3
ENDBRANCH   1   2
BRANCH   1  10
ATOM     10  C   UNL     1      18.536  20.864  47.294  1.00  0.00     0.000 C 
BRANCH  10  11
ATOM     11  C   UNL     1      18.269  21.119  45.795  1.00  0.00    -0.000 C 
BRANCH  11  12
ATOM     12  C   UNL     1      19.182  20.272  44.891  1.00  0.00    -0.000 C 
BRANCH  12  13
ATOM     13  C   UNL     1      18.403  19.236  44.065  1.00  0.00    -0.000 C 
BRANCH  13  14
ATOM     14  C   UNL     1      17.585  18.275  44.940  1.00  0.00    -0.000 C 
BRANCH  14  15
ATOM     15  C   UNL     1      18.501  17.449  45.852  1.00  0.00    -0.000 C 
BRANCH  15  16
ATOM     16  C   UNL     1      17.825  17.166  47.199  1.00  0.00    -0.003 C 
ATOM     17  C   UNL     1      16.514  16.409  47.008  1.00  0.00     0.004 C 
ENDBRANCH  15  16
ENDBRANCH  14  15
ENDBRANCH  13  14
ENDBRANCH  12  13
ENDBRANCH  11  12
ENDBRANCH  10  11
ENDBRANCH   1  10
TORSDOF 13
ENDMDL
MODEL 9
REMARK VINA RESULT:    -4.238      1.957      4.352
REMARK INTER + INTRA:          -9.806
REMARK INTER:                  -8.172
REMARK INTRA:                  -1.634
REMARK UNBOUND:                -2.347
REMARK SMILES CCCCCCCCCCCCCCC(=O)[O-]
REMARK SMILES IDX 9 1 10 2 11 3 12 4 13 5 14 6 15 7 16 8 17 9 8 10 7 11 6 12
REMARK SMILES IDX 5 13 4 14 3 15 2 16 1 17
REMARK H PARENT
REMARK Flexibility Score: inf
ROOT
ATOM      1  C   UNL     1      21.242  18.371  47.917  1.00  0.00     0.000 C 
ENDROOT
BRANCH   1   2
ATOM      2  C   UNL     1      20.616  19.081  49.129  1.00  0.00     0.000 C 
BRANCH   2   3
ATOM      3  C   UNL     1      19.962  20.421  48.757  1.00  0.00     0.000 C 
BRANCH   3   4
ATOM      4  C   UNL     1      18.871  20.267  47.686  1.00  0.00     0.000 C 
BRANCH   4   5
ATOM      5  C   UNL     1      19.205  21.099  46.439  1.00  0.00     0.006 C 
BRANCH   5   6
ATOM      6  C   UNL     1      19.474  20.222  45.209  1.00  0.00     0.053 C 
BRANCH   6   7
ATOM      7  C   UNL     1      18.210  19.886  44.480  1.00  0.00     0.041 C 
ATOM      8  O   UNL     1      18.180  18.917  43.677  1.00  0.00    -0.550 OA
ATOM      9  O   UNL     1      17.055  20.624  44.712  1.00  0.00    -0.550 OA
ENDBRANCH   6   7
ENDBRANCH   5   6
ENDBRANCH   4   5
ENDBRANCH   3   4
ENDBRANCH   2   3
ENDBRANCH   1   2
BRANCH   1  10
ATOM     10  C   UNL     1      21.421  16.859  48.139  1.00  0.00     0.000 C 
BRANCH  10  11
ATOM     11  C   UNL     1      20.517  15.993  47.236  1.00  0.00    -0.000 C 
BRANCH  11  12
ATOM     12  C   UNL     1      19.434  16.825  46.528  1.00  0.00    -0.000 C 
BRANCH  12  13
ATOM     13  C   UNL     1      18.103  16.843  47.297  1.00  0.00    -0.000 C 
BRANCH  13  14
ATOM     14  C   UNL     1      16.883  16.913  46.367  1.00  0.00    -0.000 C 
BRANCH  14  15
ATOM     15  C   UNL     1      15.861  15.825  46.719  1.00  0.00    -0.000 C 
BRANCH  15  16
ATOM     16  C   UNL     1      15.923  14.667  45.717  1.00  0.00    -0.003 C 
ATOM     17  C   UNL     1      16.866  13.569  46.201  1.00  0.00     0.004 C 
ENDBRANCH  15  16
ENDBRANCH  14  15
ENDBRANCH  13  14
ENDBRANCH  12  13
ENDBRANCH  11  12
ENDBRANCH  10  11
ENDBRANCH   1  10
TORSDOF 13
ENDMDL
