MODEL 1
REMARK VINA RESULT:    -4.920      0.000      0.000
REMARK INTER + INTRA:         -10.191
REMARK INTER:                  -9.235
REMARK INTRA:                  -0.957
REMARK UNBOUND:                -0.957
REMARK SMILES CCCCCCCCC=CCCCCCCCC(=O)[O-]
REMARK SMILES IDX 10 1 9 2 11 3 12 4 13 5 14 6 15 7 16 8 17 9 18 10 19 11
REMARK SMILES IDX 20 12 8 13 7 14 6 15 5 16 4 17 3 18 2 19 1 20
REMARK H PARENT
REMARK Flexibility Score: inf
ROOT
ATOM      1  C   UNL     1     -11.594  -4.987  20.612  1.00  0.00    -0.031 C 
ATOM      2  C   UNL     1     -11.627  -4.696  19.297  1.00  0.00    -0.031 C 
ENDROOT
BRANCH   1   3
ATOM      3  C   UNL     1     -11.720  -3.969  21.716  1.00  0.00     0.027 C 
BRANCH   3   4
ATOM      4  C   UNL     1     -11.275  -4.569  23.058  1.00  0.00     0.004 C 
BRANCH   4   5
ATOM      5  C   UNL     1     -11.451  -3.588  24.228  1.00  0.00     0.000 C 
BRANCH   5   6
ATOM      6  C   UNL     1     -11.621  -2.135  23.759  1.00  0.00     0.000 C 
BRANCH   6   7
ATOM      7  C   UNL     1     -11.261  -1.152  24.884  1.00  0.00     0.000 C 
BRANCH   7   8
ATOM      8  C   UNL     1      -9.746  -1.040  25.115  1.00  0.00     0.006 C 
BRANCH   8   9
ATOM      9  C   UNL     1      -9.371   0.122  26.046  1.00  0.00     0.053 C 
BRANCH   9  10
ATOM     10  C   UNL     1      -8.192   0.865  25.502  1.00  0.00     0.041 C 
ATOM     11  O   UNL     1      -7.482   1.573  26.263  1.00  0.00    -0.550 OA
ATOM     12  O   UNL     1      -7.901   0.807  24.143  1.00  0.00    -0.550 OA
ENDBRANCH   9  10
ENDBRANCH   8   9
ENDBRANCH   7   8
ENDBRANCH   6   7
ENDBRANCH   5   6
ENDBRANCH   4   5
ENDBRANCH   3   4
ENDBRANCH   1   3
BRANCH   2  13
ATOM     13  C   UNL     1     -11.705  -3.300  18.727  1.00  0.00     0.027 C 
BRANCH  13  14
ATOM     14  C   UNL     1     -11.440  -3.273  17.213  1.00  0.00     0.004 C 
BRANCH  14  15
ATOM     15  C   UNL     1      -9.950  -3.244  16.827  1.00  0.00     0.000 C 
BRANCH  15  16
ATOM     16  C   UNL     1      -9.596  -4.260  15.727  1.00  0.00     0.000 C 
BRANCH  16  17
ATOM     17  C   UNL     1     -10.072  -5.681  16.070  1.00  0.00    -0.000 C 
BRANCH  17  18
ATOM     18  C   UNL     1     -10.169  -6.581  14.829  1.00  0.00    -0.000 C 
BRANCH  18  19
ATOM     19  C   UNL     1      -9.386  -5.982  13.655  1.00  0.00    -0.003 C 
ATOM     20  C   UNL     1     -10.208  -6.020  12.370  1.00  0.00     0.004 C 
ENDBRANCH  18  19
ENDBRANCH  17  18
ENDBRANCH  16  17
ENDBRANCH  15  16
ENDBRANCH  14  15
ENDBRANCH  13  14
ENDBRANCH   2  13
TORSDOF 15
ENDMDL
MODEL 2
REMARK VINA RESULT:    -4.835      1.705      2.802
REMARK INTER + INTRA:         -10.032
REMARK INTER:                  -8.473
REMARK INTRA:                  -1.559
REMARK UNBOUND:                -0.957
REMARK SMILES CCCCCCCCC=CCCCCCCCC(=O)[O-]
REMARK SMILES IDX 10 1 9 2 11 3 12 4 13 5 14 6 15 7 16 8 17 9 18 10 19 11
REMARK SMILES IDX 20 12 8 13 7 14 6 15 5 16 4 17 3 18 2 19 1 20
REMARK H PARENT
REMARK Flexibility Score: inf
ROOT
ATOM      1  C   UNL     1     -11.529  -3.906  22.027  1.00  0.00    -0.031 C 
ATOM      2  C   UNL     1     -11.901  -4.608  20.939  1.00  0.00    -0.031 C 
ENDROOT
BRANCH   1   3
ATOM      3  C   UNL     1     -11.060  -4.519  23.321  1.00  0.00     0.027 C 
BRANCH   3   4
ATOM      4  C   UNL     1     -11.301  -3.557  24.494  1.00  0.00     0.004 C 
BRANCH   4   5
ATOM      5  C   UNL     1     -11.487  -2.103  24.033  1.00  0.00     0.000 C 
BRANCH   5   6
ATOM      6  C   UNL     1     -11.025  -1.086  25.089  1.00  0.00     0.000 C 
BRANCH   6   7
ATOM      7  C   UNL     1      -9.966  -1.703  26.015  1.00  0.00     0.000 C 
BRANCH   7   8
ATOM      8  C   UNL     1      -9.303  -0.666  26.935  1.00  0.00     0.006 C 
BRANCH   8   9
ATOM      9  C   UNL     1      -9.387   0.762  26.378  1.00  0.00     0.053 C 
BRANCH   9  10
ATOM     10  C   UNL     1      -8.069   1.173  25.800  1.00  0.00     0.041 C 
ATOM     11  O   UNL     1      -7.160   1.620  26.548  1.00  0.00    -0.550 OA
ATOM     12  O   UNL     1      -7.859   1.099  24.428  1.00  0.00    -0.550 OA
ENDBRANCH   9  10
ENDBRANCH   8   9
ENDBRANCH   7   8
ENDBRANCH   6   7
ENDBRANCH   5   6
ENDBRANCH   4   5
ENDBRANCH   3   4
ENDBRANCH   1   3
BRANCH   2  13
ATOM     13  C   UNL     1     -11.992  -6.114  20.878  1.00  0.00     0.027 C 
BRANCH  13  14
ATOM     14  C   UNL     1     -11.070  -6.710  19.801  1.00  0.00     0.004 C 
BRANCH  14  15
ATOM     15  C   UNL     1      -9.570  -6.443  20.027  1.00  0.00     0.000 C 
BRANCH  15  16
ATOM     16  C   UNL     1      -8.866  -5.887  18.777  1.00  0.00     0.000 C 
BRANCH  16  17
ATOM     17  C   UNL     1      -9.863  -5.433  17.699  1.00  0.00    -0.000 C 
BRANCH  17  18
ATOM     18  C   UNL     1      -9.307  -4.296  16.829  1.00  0.00    -0.000 C 
BRANCH  18  19
ATOM     19  C   UNL     1     -10.239  -3.078  16.857  1.00  0.00    -0.003 C 
ATOM     20  C   UNL     1     -11.587  -3.433  17.476  1.00  0.00     0.004 C 
ENDBRANCH  18  19
ENDBRANCH  17  18
ENDBRANCH  16  17
ENDBRANCH  15  16
ENDBRANCH  14  15
ENDBRANCH  13  14
ENDBRANCH   2  13
TORSDOF 15
ENDMDL
MODEL 3
REMARK VINA RESULT:    -4.668      3.649      8.849
REMARK INTER + INTRA:          -9.718
REMARK INTER:                  -8.473
REMARK INTRA:                  -1.245
REMARK UNBOUND:                -0.957
REMARK SMILES CCCCCCCCC=CCCCCCCCC(=O)[O-]
REMARK SMILES IDX 10 1 9 2 11 3 12 4 13 5 14 6 15 7 16 8 17 9 18 10 19 11
REMARK SMILES IDX 20 12 8 13 7 14 6 15 5 16 4 17 3 18 2 19 1 20
REMARK H PARENT
REMARK Flexibility Score: inf
ROOT
ATOM      1  C   UNL     1     -11.870  -1.926  23.883  1.00  0.00    -0.031 C 
ATOM      2  C   UNL     1     -11.425  -1.503  25.082  1.00  0.00    -0.031 C 
ENDROOT
BRANCH   1   3
ATOM      3  C   UNL     1     -11.530  -3.258  23.266  1.00  0.00     0.027 C 
BRANCH   3   4
ATOM      4  C   UNL     1     -11.817  -3.244  21.757  1.00  0.00     0.004 C 
BRANCH   4   5
ATOM      5  C   UNL     1     -11.890  -4.658  21.159  1.00  0.00     0.000 C 
BRANCH   5   6
ATOM      6  C   UNL     1     -10.743  -5.561  21.639  1.00  0.00     0.000 C 
BRANCH   6   7
ATOM      7  C   UNL     1      -9.878  -6.021  20.455  1.00  0.00     0.000 C 
BRANCH   7   8
ATOM      8  C   UNL     1     -10.425  -5.547  19.099  1.00  0.00     0.006 C 
BRANCH   8   9
ATOM      9  C   UNL     1      -9.319  -5.326  18.058  1.00  0.00     0.053 C 
BRANCH   9  10
ATOM     10  C   UNL     1      -9.884  -4.692  16.826  1.00  0.00     0.041 C 
ATOM     11  O   UNL     1     -10.166  -3.464  16.815  1.00  0.00    -0.550 OA
ATOM     12  O   UNL     1     -10.139  -5.467  15.700  1.00  0.00    -0.550 OA
ENDBRANCH   9  10
ENDBRANCH   8   9
ENDBRANCH   7   8
ENDBRANCH   6   7
ENDBRANCH   5   6
ENDBRANCH   4   5
ENDBRANCH   3   4
ENDBRANCH   1   3
BRANCH   2  13
ATOM     13  C   UNL     1     -10.446  -2.257  25.950  1.00  0.00     0.027 C 
BRANCH  13  14
ATOM     14  C   UNL     1      -9.508  -1.316  26.724  1.00  0.00     0.004 C 
BRANCH  14  15
ATOM     15  C   UNL     1      -9.568   0.155  26.273  1.00  0.00     0.000 C 
BRANCH  15  16
ATOM     16  C   UNL     1      -8.176   0.764  26.030  1.00  0.00     0.000 C 
BRANCH  16  17
ATOM     17  C   UNL     1      -8.032   1.341  24.612  1.00  0.00    -0.000 C 
BRANCH  17  18
ATOM     18  C   UNL     1      -8.831   0.544  23.571  1.00  0.00    -0.000 C 
BRANCH  18  19
ATOM     19  C   UNL     1      -8.448   0.964  22.147  1.00  0.00    -0.003 C 
ATOM     20  C   UNL     1      -8.934   2.377  21.842  1.00  0.00     0.004 C 
ENDBRANCH  18  19
ENDBRANCH  17  18
ENDBRANCH  16  17
ENDBRANCH  15  16
ENDBRANCH  14  15
ENDBRANCH  13  14
ENDBRANCH   2  13
TORSDOF 15
ENDMDL
MODEL 4
REMARK VINA RESULT:    -4.648      1.643      3.644
REMARK INTER + INTRA:          -9.679
REMARK INTER:                  -8.546
REMARK INTRA:                  -1.133
REMARK UNBOUND:                -0.957
REMARK SMILES CCCCCCCCC=CCCCCCCCC(=O)[O-]
REMARK SMILES IDX 10 1 9 2 11 3 12 4 13 5 14 6 15 7 16 8 17 9 18 10 19 11
REMARK SMILES IDX 20 12 8 13 7 14 6 15 5 16 4 17 3 18 2 19 1 20
REMARK H PARENT
REMARK Flexibility Score: inf
ROOT
ATOM      1  C   UNL     1     -11.570  -3.603  24.540  1.00  0.00    -0.031 C 
ATOM      2  C   UNL     1     -11.329  -4.513  23.576  1.00  0.00    -0.031 C 
ENDROOT
BRANCH   1   3
ATOM      3  C   UNL     1     -12.050  -2.197  24.288  1.00  0.00     0.027 C 
BRANCH   3   4
ATOM      4  C   UNL     1     -10.957  -1.180  24.646  1.00  0.00     0.004 C 
BRANCH   4   5
ATOM      5  C   UNL     1     -10.075  -1.650  25.813  1.00  0.00     0.000 C 
BRANCH   5   6
ATOM      6  C   UNL     1      -9.280  -0.501  26.452  1.00  0.00     0.000 C 
BRANCH   6   7
ATOM      7  C   UNL     1      -9.325   0.753  25.566  1.00  0.00     0.000 C 
BRANCH   7   8
ATOM      8  C   UNL     1      -7.983   1.042  24.875  1.00  0.00     0.006 C 
BRANCH   8   9
ATOM      9  C   UNL     1      -8.066   2.207  23.879  1.00  0.00     0.053 C 
BRANCH   9  10
ATOM     10  C   UNL     1      -8.631   1.737  22.576  1.00  0.00     0.041 C 
ATOM     11  O   UNL     1      -9.080   2.567  21.742  1.00  0.00    -0.550 OA
ATOM     12  O   UNL     1      -8.698   0.377  22.298  1.00  0.00    -0.550 OA
ENDBRANCH   9  10
ENDBRANCH   8   9
ENDBRANCH   7   8
ENDBRANCH   6   7
ENDBRANCH   5   6
ENDBRANCH   4   5
ENDBRANCH   3   4
ENDBRANCH   1   3
BRANCH   2  13
ATOM     13  C   UNL     1     -11.416  -4.238  22.094  1.00  0.00     0.027 C 
BRANCH  13  14
ATOM     14  C   UNL     1     -10.789  -5.364  21.255  1.00  0.00     0.004 C 
BRANCH  14  15
ATOM     15  C   UNL     1     -11.100  -5.285  19.749  1.00  0.00     0.000 C 
BRANCH  15  16
ATOM     16  C   UNL     1     -11.625  -3.905  19.317  1.00  0.00     0.000 C 
BRANCH  16  17
ATOM     17  C   UNL     1     -11.665  -3.748  17.788  1.00  0.00    -0.000 C 
BRANCH  17  18
ATOM     18  C   UNL     1     -10.442  -2.996  17.245  1.00  0.00    -0.000 C 
BRANCH  18  19
ATOM     19  C   UNL     1      -9.461  -3.960  16.568  1.00  0.00    -0.003 C 
ATOM     20  C   UNL     1     -10.199  -5.122  15.910  1.00  0.00     0.004 C 
ENDBRANCH  18  19
ENDBRANCH  17  18
ENDBRANCH  16  17
ENDBRANCH  15  16
ENDBRANCH  14  15
ENDBRANCH  13  14
ENDBRANCH   2  13
TORSDOF 15
ENDMDL
MODEL 5
REMARK VINA RESULT:    -4.536      3.542      9.657
REMARK INTER + INTRA:          -9.470
REMARK INTER:                  -8.106
REMARK INTRA:                  -1.363
REMARK UNBOUND:                -0.957
REMARK SMILES CCCCCCCCC=CCCCCCCCC(=O)[O-]
REMARK SMILES IDX 10 1 9 2 11 3 12 4 13 5 14 6 15 7 16 8 17 9 18 10 19 11
REMARK SMILES IDX 20 12 8 13 7 14 6 15 5 16 4 17 3 18 2 19 1 20
REMARK H PARENT
REMARK Flexibility Score: inf
ROOT
ATOM      1  C   UNL     1     -11.474  -1.936  23.714  1.00  0.00    -0.031 C 
ATOM      2  C   UNL     1     -11.602  -1.528  24.991  1.00  0.00    -0.031 C 
ENDROOT
BRANCH   1   3
ATOM      3  C   UNL     1     -11.590  -3.368  23.257  1.00  0.00     0.027 C 
BRANCH   3   4
ATOM      4  C   UNL     1     -12.125  -3.435  21.819  1.00  0.00     0.004 C 
BRANCH   4   5
ATOM      5  C   UNL     1     -11.535  -4.612  21.027  1.00  0.00     0.000 C 
BRANCH   5   6
ATOM      6  C   UNL     1     -11.811  -4.505  19.519  1.00  0.00     0.000 C 
BRANCH   6   7
ATOM      7  C   UNL     1     -11.787  -3.039  19.061  1.00  0.00     0.000 C 
BRANCH   7   8
ATOM      8  C   UNL     1     -11.030  -2.840  17.739  1.00  0.00     0.006 C 
BRANCH   8   9
ATOM      9  C   UNL     1     -11.300  -3.961  16.725  1.00  0.00     0.053 C 
BRANCH   9  10
ATOM     10  C   UNL     1     -10.014  -4.591  16.293  1.00  0.00     0.041 C 
ATOM     11  O   UNL     1      -8.942  -4.327  16.899  1.00  0.00    -0.550 OA
ATOM     12  O   UNL     1      -9.991  -5.440  15.192  1.00  0.00    -0.550 OA
ENDBRANCH   9  10
ENDBRANCH   8   9
ENDBRANCH   7   8
ENDBRANCH   6   7
ENDBRANCH   5   6
ENDBRANCH   4   5
ENDBRANCH   3   4
ENDBRANCH   1   3
BRANCH   2  13
ATOM     13  C   UNL     1     -11.792  -2.450  26.173  1.00  0.00     0.027 C 
BRANCH  13  14
ATOM     14  C   UNL     1     -10.454  -2.870  26.804  1.00  0.00     0.004 C 
BRANCH  14  15
ATOM     15  C   UNL     1     -10.082  -2.095  28.083  1.00  0.00     0.000 C 
BRANCH  15  16
ATOM     16  C   UNL     1      -9.084  -0.954  27.823  1.00  0.00     0.000 C 
BRANCH  16  17
ATOM     17  C   UNL     1      -9.773   0.418  27.751  1.00  0.00    -0.000 C 
BRANCH  17  18
ATOM     18  C   UNL     1      -9.613   1.082  26.375  1.00  0.00    -0.000 C 
BRANCH  18  19
ATOM     19  C   UNL     1      -8.240   0.766  25.771  1.00  0.00    -0.003 C 
ATOM     20  C   UNL     1      -8.191   1.140  24.293  1.00  0.00     0.004 C 
ENDBRANCH  18  19
ENDBRANCH  17  18
ENDBRANCH  16  17
ENDBRANCH  15  16
ENDBRANCH  14  15
ENDBRANCH  13  14
ENDBRANCH   2  13
TORSDOF 15
ENDMDL
MODEL 6
REMARK VINA RESULT:    -4.463      3.689      9.645
REMARK INTER + INTRA:          -9.333
REMARK INTER:                  -8.104
REMARK INTRA:                  -1.228
REMARK UNBOUND:                -0.957
REMARK SMILES CCCCCCCCC=CCCCCCCCC(=O)[O-]
REMARK SMILES IDX 10 1 9 2 11 3 12 4 13 5 14 6 15 7 16 8 17 9 18 10 19 11
REMARK SMILES IDX 20 12 8 13 7 14 6 15 5 16 4 17 3 18 2 19 1 20
REMARK H PARENT
REMARK Flexibility Score: inf
ROOT
ATOM      1  C   UNL     1     -11.419  -2.223  23.508  1.00  0.00    -0.031 C 
ATOM      2  C   UNL     1     -11.352  -1.519  24.654  1.00  0.00    -0.031 C 
ENDROOT
BRANCH   1   3
ATOM      3  C   UNL     1     -11.607  -3.716  23.431  1.00  0.00     0.027 C 
BRANCH   3   4
ATOM      4  C   UNL     1     -11.417  -4.211  21.990  1.00  0.00     0.004 C 
BRANCH   4   5
ATOM      5  C   UNL     1     -11.085  -5.710  21.921  1.00  0.00     0.000 C 
BRANCH   5   6
ATOM      6  C   UNL     1      -9.885  -6.008  21.009  1.00  0.00     0.000 C 
BRANCH   6   7
ATOM      7  C   UNL     1     -10.356  -6.434  19.609  1.00  0.00     0.000 C 
BRANCH   7   8
ATOM      8  C   UNL     1      -9.641  -5.670  18.483  1.00  0.00     0.006 C 
BRANCH   8   9
ATOM      9  C   UNL     1     -10.540  -4.621  17.814  1.00  0.00     0.053 C 
BRANCH   9  10
ATOM     10  C   UNL     1     -10.016  -4.279  16.455  1.00  0.00     0.041 C 
ATOM     11  O   UNL     1      -9.605  -3.115  16.207  1.00  0.00    -0.550 OA
ATOM     12  O   UNL     1     -10.019  -5.238  15.447  1.00  0.00    -0.550 OA
ENDBRANCH   9  10
ENDBRANCH   8   9
ENDBRANCH   7   8
ENDBRANCH   6   7
ENDBRANCH   5   6
ENDBRANCH   4   5
ENDBRANCH   3   4
ENDBRANCH   1   3
BRANCH   2  13
ATOM     13  C   UNL     1     -11.363  -2.126  26.037  1.00  0.00     0.027 C 
BRANCH  13  14
ATOM     14  C   UNL     1     -10.059  -1.851  26.805  1.00  0.00     0.004 C 
BRANCH  14  15
ATOM     15  C   UNL     1     -10.234  -0.991  28.070  1.00  0.00     0.000 C 
BRANCH  15  16
ATOM     16  C   UNL     1      -9.611   0.409  27.934  1.00  0.00     0.000 C 
BRANCH  16  17
ATOM     17  C   UNL     1      -8.119   0.351  27.569  1.00  0.00    -0.000 C 
BRANCH  17  18
ATOM     18  C   UNL     1      -7.768   1.277  26.395  1.00  0.00    -0.000 C 
BRANCH  18  19
ATOM     19  C   UNL     1      -8.772   1.112  25.248  1.00  0.00    -0.003 C 
ATOM     20  C   UNL     1      -8.069   0.704  23.957  1.00  0.00     0.004 C 
ENDBRANCH  18  19
ENDBRANCH  17  18
ENDBRANCH  16  17
ENDBRANCH  15  16
ENDBRANCH  14  15
ENDBRANCH  13  14
ENDBRANCH   2  13
TORSDOF 15
ENDMDL
MODEL 7
REMARK VINA RESULT:    -4.077      2.088      3.939
REMARK INTER + INTRA:          -8.609
REMARK INTER:                  -7.326
REMARK INTRA:                  -1.283
REMARK UNBOUND:                -0.957
REMARK SMILES CCCCCCCCC=CCCCCCCCC(=O)[O-]
REMARK SMILES IDX 10 1 9 2 11 3 12 4 13 5 14 6 15 7 16 8 17 9 18 10 19 11
REMARK SMILES IDX 20 12 8 13 7 14 6 15 5 16 4 17 3 18 2 19 1 20
REMARK H PARENT
REMARK Flexibility Score: inf
ROOT
ATOM      1  C   UNL     1     -10.679  -4.000  24.953  1.00  0.00    -0.031 C 
ATOM      2  C   UNL     1     -10.734  -4.879  23.934  1.00  0.00    -0.031 C 
ENDROOT
BRANCH   1   3
ATOM      3  C   UNL     1     -11.838  -3.668  25.859  1.00  0.00     0.027 C 
BRANCH   3   4
ATOM      4  C   UNL     1     -11.551  -2.388  26.657  1.00  0.00     0.004 C 
BRANCH   4   5
ATOM      5  C   UNL     1     -10.335  -2.533  27.586  1.00  0.00     0.000 C 
BRANCH   5   6
ATOM      6  C   UNL     1      -9.326  -1.386  27.421  1.00  0.00     0.000 C 
BRANCH   6   7
ATOM      7  C   UNL     1     -10.040  -0.026  27.421  1.00  0.00     0.000 C 
BRANCH   7   8
ATOM      8  C   UNL     1      -9.631   0.861  26.235  1.00  0.00     0.006 C 
BRANCH   8   9
ATOM      9  C   UNL     1      -9.116   0.051  25.037  1.00  0.00     0.053 C 
BRANCH   9  10
ATOM     10  C   UNL     1      -8.375   0.940  24.088  1.00  0.00     0.041 C 
ATOM     11  O   UNL     1      -7.570   1.804  24.525  1.00  0.00    -0.550 OA
ATOM     12  O   UNL     1      -8.605   0.841  22.720  1.00  0.00    -0.550 OA
ENDBRANCH   9  10
ENDBRANCH   8   9
ENDBRANCH   7   8
ENDBRANCH   6   7
ENDBRANCH   5   6
ENDBRANCH   4   5
ENDBRANCH   3   4
ENDBRANCH   1   3
BRANCH   2  13
ATOM     13  C   UNL     1     -11.983  -5.600  23.486  1.00  0.00     0.027 C 
BRANCH  13  14
ATOM     14  C   UNL     1     -12.060  -5.737  21.957  1.00  0.00     0.004 C 
BRANCH  14  15
ATOM     15  C   UNL     1     -11.021  -4.898  21.188  1.00  0.00     0.000 C 
BRANCH  15  16
ATOM     16  C   UNL     1     -10.125  -5.748  20.272  1.00  0.00     0.000 C 
BRANCH  16  17
ATOM     17  C   UNL     1     -10.572  -5.690  18.802  1.00  0.00    -0.000 C 
BRANCH  17  18
ATOM     18  C   UNL     1      -9.483  -5.121  17.881  1.00  0.00    -0.000 C 
BRANCH  18  19
ATOM     19  C   UNL     1     -10.036  -3.979  17.019  1.00  0.00    -0.003 C 
ATOM     20  C   UNL     1     -11.075  -3.167  17.785  1.00  0.00     0.004 C 
ENDBRANCH  18  19
ENDBRANCH  17  18
ENDBRANCH  16  17
ENDBRANCH  15  16
ENDBRANCH  14  15
ENDBRANCH  13  14
ENDBRANCH   2  13
TORSDOF 15
ENDMDL
MODEL 8
REMARK VINA RESULT:    -4.046     20.948     22.792
REMARK INTER + INTRA:          -8.551
REMARK INTER:                  -6.486
REMARK INTRA:                  -2.065
REMARK UNBOUND:                -0.957
REMARK SMILES CCCCCCCCC=CCCCCCCCC(=O)[O-]
REMARK SMILES IDX 10 1 9 2 11 3 12 4 13 5 14 6 15 7 16 8 17 9 18 10 19 11
REMARK SMILES IDX 20 12 8 13 7 14 6 15 5 16 4 17 3 18 2 19 1 20
REMARK H PARENT
REMARK Flexibility Score: inf
ROOT
ATOM      1  C   UNL     1       5.685   8.257  12.667  1.00  0.00    -0.031 C 
ATOM      2  C   UNL     1       6.821   8.255  11.942  1.00  0.00    -0.031 C 
ENDROOT
BRANCH   1   3
ATOM      3  C   UNL     1       4.620   9.320  12.586  1.00  0.00     0.027 C 
BRANCH   3   4
ATOM      4  C   UNL     1       4.609  10.173  13.862  1.00  0.00     0.004 C 
BRANCH   4   5
ATOM      5  C   UNL     1       5.524   9.604  14.959  1.00  0.00     0.000 C 
BRANCH   5   6
ATOM      6  C   UNL     1       6.710  10.528  15.276  1.00  0.00     0.000 C 
BRANCH   6   7
ATOM      7  C   UNL     1       7.901   9.723  15.817  1.00  0.00     0.000 C 
BRANCH   7   8
ATOM      8  C   UNL     1       7.727   8.207  15.633  1.00  0.00     0.006 C 
BRANCH   8   9
ATOM      9  C   UNL     1       7.608   7.456  16.967  1.00  0.00     0.053 C 
BRANCH   9  10
ATOM     10  C   UNL     1       6.860   6.175  16.777  1.00  0.00     0.041 C 
ATOM     11  O   UNL     1       6.921   5.269  17.650  1.00  0.00    -0.550 OA
ATOM     12  O   UNL     1       6.126   5.964  15.616  1.00  0.00    -0.550 OA
ENDBRANCH   9  10
ENDBRANCH   8   9
ENDBRANCH   7   8
ENDBRANCH   6   7
ENDBRANCH   5   6
ENDBRANCH   4   5
ENDBRANCH   3   4
ENDBRANCH   1   3
BRANCH   2  13
ATOM     13  C   UNL     1       7.243   9.361  11.004  1.00  0.00     0.027 C 
BRANCH  13  14
ATOM     14  C   UNL     1       6.827   9.082   9.550  1.00  0.00     0.004 C 
BRANCH  14  15
ATOM     15  C   UNL     1       7.720   9.756   8.492  1.00  0.00     0.000 C 
BRANCH  15  16
ATOM     16  C   UNL     1       7.206  11.143   8.068  1.00  0.00     0.000 C 
BRANCH  16  17
ATOM     17  C   UNL     1       5.672  11.235   8.115  1.00  0.00    -0.000 C 
BRANCH  17  18
ATOM     18  C   UNL     1       5.184  12.560   8.721  1.00  0.00    -0.000 C 
BRANCH  18  19
ATOM     19  C   UNL     1       6.082  12.993   9.887  1.00  0.00    -0.003 C 
ATOM     20  C   UNL     1       5.452  12.631  11.228  1.00  0.00     0.004 C 
ENDBRANCH  18  19
ENDBRANCH  17  18
ENDBRANCH  16  17
ENDBRANCH  15  16
ENDBRANCH  14  15
ENDBRANCH  13  14
ENDBRANCH   2  13
TORSDOF 15
ENDMDL
MODEL 9
REMARK VINA RESULT:    -3.946     20.744     22.924
REMARK INTER + INTRA:          -8.363
REMARK INTER:                  -5.863
REMARK INTRA:                  -2.500
REMARK UNBOUND:                -0.957
REMARK SMILES CCCCCCCCC=CCCCCCCCC(=O)[O-]
REMARK SMILES IDX 10 1 9 2 11 3 12 4 13 5 14 6 15 7 16 8 17 9 18 10 19 11
REMARK SMILES IDX 20 12 8 13 7 14 6 15 5 16 4 17 3 18 2 19 1 20
REMARK H PARENT
REMARK Flexibility Score: inf
ROOT
ATOM      1  C   UNL     1       5.234   8.377  12.445  1.00  0.00    -0.031 C 
ATOM      2  C   UNL     1       6.557   8.426  12.198  1.00  0.00    -0.031 C 
ENDROOT
BRANCH   1   3
ATOM      3  C   UNL     1       4.379   9.576  12.767  1.00  0.00     0.027 C 
BRANCH   3   4
ATOM      4  C   UNL     1       4.398   9.865  14.275  1.00  0.00     0.004 C 
BRANCH   4   5
ATOM      5  C   UNL     1       3.615  11.135  14.641  1.00  0.00     0.000 C 
BRANCH   5   6
ATOM      6  C   UNL     1       3.859  12.284  13.650  1.00  0.00     0.000 C 
BRANCH   6   7
ATOM      7  C   UNL     1       5.264  12.876  13.836  1.00  0.00     0.000 C 
BRANCH   7   8
ATOM      8  C   UNL     1       5.991  13.113  12.502  1.00  0.00     0.006 C 
BRANCH   8   9
ATOM      9  C   UNL     1       5.110  12.809  11.283  1.00  0.00     0.053 C 
BRANCH   9  10
ATOM     10  C   UNL     1       5.940  12.259  10.166  1.00  0.00     0.041 C 
ATOM     11  O   UNL     1       6.941  12.897   9.745  1.00  0.00    -0.550 OA
ATOM     12  O   UNL     1       5.585  11.058   9.562  1.00  0.00    -0.550 OA
ENDBRANCH   9  10
ENDBRANCH   8   9
ENDBRANCH   7   8
ENDBRANCH   6   7
ENDBRANCH   5   6
ENDBRANCH   4   5
ENDBRANCH   3   4
ENDBRANCH   1   3
BRANCH   2  13
ATOM     13  C   UNL     1       7.403   9.674  12.293  1.00  0.00     0.027 C 
BRANCH  13  14
ATOM     14  C   UNL     1       7.730  10.046  13.749  1.00  0.00     0.004 C 
BRANCH  14  15
ATOM     15  C   UNL     1       8.125   8.853  14.639  1.00  0.00     0.000 C 
BRANCH  15  16
ATOM     16  C   UNL     1       7.590   8.974  16.076  1.00  0.00     0.000 C 
BRANCH  16  17
ATOM     17  C   UNL     1       7.123   7.623  16.641  1.00  0.00    -0.000 C 
BRANCH  17  18
ATOM     18  C   UNL     1       6.339   6.797  15.610  1.00  0.00    -0.000 C 
BRANCH  18  19
ATOM     19  C   UNL     1       6.269   5.323  16.027  1.00  0.00    -0.003 C 
ATOM     20  C   UNL     1       6.999   5.090  17.346  1.00  0.00     0.004 C 
ENDBRANCH  18  19
ENDBRANCH  17  18
ENDBRANCH  16  17
ENDBRANCH  15  16
ENDBRANCH  14  15
ENDBRANCH  13  14
ENDBRANCH   2  13
TORSDOF 15
ENDMDL
