MODEL 1
REMARK VINA RESULT:    -4.600      0.000      0.000
REMARK INTER + INTRA:          -8.927
REMARK INTER:                  -7.827
REMARK INTRA:                  -1.099
REMARK UNBOUND:                -1.099
REMARK SMILES CCCCCCCCCCCCCC(=O)[O-]
REMARK SMILES IDX 8 1 9 2 10 3 11 4 12 5 13 6 14 7 15 8 16 9 7 10 6 11 5 12
REMARK SMILES IDX 4 13 3 14 2 15 1 16
REMARK H PARENT
REMARK Flexibility Score: inf
ROOT
ATOM      1  C   UNL     1      -2.974   0.656  29.718  1.00  0.00     0.000 C 
ENDROOT
BRANCH   1   2
ATOM      2  C   UNL     1      -1.940   1.725  29.326  1.00  0.00     0.000 C 
BRANCH   2   3
ATOM      3  C   UNL     1      -0.831   1.167  28.419  1.00  0.00     0.000 C 
BRANCH   3   4
ATOM      4  C   UNL     1      -1.386   0.405  27.202  1.00  0.00     0.000 C 
BRANCH   4   5
ATOM      5  C   UNL     1      -0.719  -0.967  27.012  1.00  0.00     0.006 C 
BRANCH   5   6
ATOM      6  C   UNL     1      -0.870  -1.872  28.242  1.00  0.00     0.053 C 
BRANCH   6   7
ATOM      7  C   UNL     1       0.457  -2.431  28.644  1.00  0.00     0.041 C 
ATOM      8  O   UNL     1       0.552  -3.169  29.661  1.00  0.00    -0.550 OA
ATOM      9  O   UNL     1       1.583  -2.177  27.870  1.00  0.00    -0.550 OA
ENDBRANCH   6   7
ENDBRANCH   5   6
ENDBRANCH   4   5
ENDBRANCH   3   4
ENDBRANCH   2   3
ENDBRANCH   1   2
BRANCH   1  10
ATOM     10  C   UNL     1      -4.419   1.177  29.649  1.00  0.00     0.000 C 
BRANCH  10  11
ATOM     11  C   UNL     1      -5.396   0.136  29.075  1.00  0.00    -0.000 C 
BRANCH  11  12
ATOM     12  C   UNL     1      -4.679  -1.085  28.474  1.00  0.00    -0.000 C 
BRANCH  12  13
ATOM     13  C   UNL     1      -4.779  -2.376  29.309  1.00  0.00    -0.000 C 
BRANCH  13  14
ATOM     14  C   UNL     1      -5.733  -3.432  28.712  1.00  0.00    -0.000 C 
BRANCH  14  15
ATOM     15  C   UNL     1      -5.374  -4.858  29.154  1.00  0.00    -0.003 C 
ATOM     16  C   UNL     1      -5.665  -5.869  28.049  1.00  0.00     0.004 C 
ENDBRANCH  14  15
ENDBRANCH  13  14
ENDBRANCH  12  13
ENDBRANCH  11  12
ENDBRANCH  10  11
ENDBRANCH   1  10
TORSDOF 12
ENDMDL
MODEL 2
REMARK VINA RESULT:    -4.561      2.817      5.387
REMARK INTER + INTRA:          -8.861
REMARK INTER:                  -7.555
REMARK INTRA:                  -1.306
REMARK UNBOUND:                -1.099
REMARK SMILES CCCCCCCCCCCCCC(=O)[O-]
REMARK SMILES IDX 8 1 9 2 10 3 11 4 12 5 13 6 14 7 15 8 16 9 7 10 6 11 5 12
REMARK SMILES IDX 4 13 3 14 2 15 1 16
REMARK H PARENT
REMARK Flexibility Score: inf
ROOT
ATOM      1  C   UNL     1      -1.647  -0.179  27.140  1.00  0.00     0.000 C 
ENDROOT
BRANCH   1   2
ATOM      2  C   UNL     1      -2.760  -0.122  28.200  1.00  0.00     0.000 C 
BRANCH   2   3
ATOM      3  C   UNL     1      -3.967  -1.002  27.835  1.00  0.00     0.000 C 
BRANCH   3   4
ATOM      4  C   UNL     1      -5.003  -1.091  28.970  1.00  0.00     0.000 C 
BRANCH   4   5
ATOM      5  C   UNL     1      -5.301  -2.541  29.384  1.00  0.00     0.006 C 
BRANCH   5   6
ATOM      6  C   UNL     1      -5.751  -3.410  28.203  1.00  0.00     0.053 C 
BRANCH   6   7
ATOM      7  C   UNL     1      -5.638  -4.861  28.550  1.00  0.00     0.041 C 
ATOM      8  O   UNL     1      -5.705  -5.736  27.646  1.00  0.00    -0.550 OA
ATOM      9  O   UNL     1      -5.411  -5.246  29.866  1.00  0.00    -0.550 OA
ENDBRANCH   6   7
ENDBRANCH   5   6
ENDBRANCH   4   5
ENDBRANCH   3   4
ENDBRANCH   2   3
ENDBRANCH   1   2
BRANCH   1  10
ATOM     10  C   UNL     1      -0.578   0.906  27.346  1.00  0.00     0.000 C 
BRANCH  10  11
ATOM     11  C   UNL     1       0.740   0.338  27.906  1.00  0.00    -0.000 C 
BRANCH  11  12
ATOM     12  C   UNL     1       0.838  -1.190  27.759  1.00  0.00    -0.000 C 
BRANCH  12  13
ATOM     13  C   UNL     1       1.249  -1.943  29.038  1.00  0.00    -0.000 C 
BRANCH  13  14
ATOM     14  C   UNL     1       0.388  -3.190  29.332  1.00  0.00    -0.000 C 
BRANCH  14  15
ATOM     15  C   UNL     1      -0.873  -3.247  28.457  1.00  0.00    -0.003 C 
ATOM     16  C   UNL     1      -1.957  -4.101  29.107  1.00  0.00     0.004 C 
ENDBRANCH  14  15
ENDBRANCH  13  14
ENDBRANCH  12  13
ENDBRANCH  11  12
ENDBRANCH  10  11
ENDBRANCH   1  10
TORSDOF 12
ENDMDL
MODEL 3
REMARK VINA RESULT:    -4.495      2.088      4.996
REMARK INTER + INTRA:          -8.748
REMARK INTER:                  -7.612
REMARK INTRA:                  -1.136
REMARK UNBOUND:                -1.099
REMARK SMILES CCCCCCCCCCCCCC(=O)[O-]
REMARK SMILES IDX 8 1 9 2 10 3 11 4 12 5 13 6 14 7 15 8 16 9 7 10 6 11 5 12
REMARK SMILES IDX 4 13 3 14 2 15 1 16
REMARK H PARENT
REMARK Flexibility Score: inf
ROOT
ATOM      1  C   UNL     1      -3.451   1.351  29.907  1.00  0.00     0.000 C 
ENDROOT
BRANCH   1   2
ATOM      2  C   UNL     1      -4.956   1.639  30.040  1.00  0.00     0.000 C 
BRANCH   2   3
ATOM      3  C   UNL     1      -5.823   0.576  29.346  1.00  0.00     0.000 C 
BRANCH   3   4
ATOM      4  C   UNL     1      -4.989  -0.567  28.741  1.00  0.00     0.000 C 
BRANCH   4   5
ATOM      5  C   UNL     1      -5.369  -1.942  29.314  1.00  0.00     0.006 C 
BRANCH   5   6
ATOM      6  C   UNL     1      -5.463  -3.026  28.232  1.00  0.00     0.053 C 
BRANCH   6   7
ATOM      7  C   UNL     1      -4.764  -4.271  28.678  1.00  0.00     0.041 C 
ATOM      8  O   UNL     1      -5.418  -5.330  28.871  1.00  0.00    -0.550 OA
ATOM      9  O   UNL     1      -3.384  -4.275  28.838  1.00  0.00    -0.550 OA
ENDBRANCH   6   7
ENDBRANCH   5   6
ENDBRANCH   4   5
ENDBRANCH   3   4
ENDBRANCH   2   3
ENDBRANCH   1   2
BRANCH   1  10
ATOM     10  C   UNL     1      -2.588   2.605  30.121  1.00  0.00     0.000 C 
BRANCH  10  11
ATOM     11  C   UNL     1      -1.639   2.879  28.940  1.00  0.00    -0.000 C 
BRANCH  11  12
ATOM     12  C   UNL     1      -0.781   1.656  28.572  1.00  0.00    -0.000 C 
BRANCH  12  13
ATOM     13  C   UNL     1      -0.983   1.125  27.140  1.00  0.00    -0.000 C 
BRANCH  13  14
ATOM     14  C   UNL     1      -1.658  -0.261  27.078  1.00  0.00    -0.000 C 
BRANCH  14  15
ATOM     15  C   UNL     1      -0.928  -1.304  27.937  1.00  0.00    -0.003 C 
ATOM     16  C   UNL     1       0.187  -1.985  27.149  1.00  0.00     0.004 C 
ENDBRANCH  14  15
ENDBRANCH  13  14
ENDBRANCH  12  13
ENDBRANCH  11  12
ENDBRANCH  10  11
ENDBRANCH   1  10
TORSDOF 12
ENDMDL
MODEL 4
REMARK VINA RESULT:    -4.465      1.169      2.052
REMARK INTER + INTRA:          -8.697
REMARK INTER:                  -7.607
REMARK INTRA:                  -1.090
REMARK UNBOUND:                -1.099
REMARK SMILES CCCCCCCCCCCCCC(=O)[O-]
REMARK SMILES IDX 8 1 9 2 10 3 11 4 12 5 13 6 14 7 15 8 16 9 7 10 6 11 5 12
REMARK SMILES IDX 4 13 3 14 2 15 1 16
REMARK H PARENT
REMARK Flexibility Score: inf
ROOT
ATOM      1  C   UNL     1      -1.895  -0.615  27.175  1.00  0.00     0.000 C 
ENDROOT
BRANCH   1   2
ATOM      2  C   UNL     1      -1.217   0.700  27.595  1.00  0.00     0.000 C 
BRANCH   2   3
ATOM      3  C   UNL     1      -1.318   0.957  29.108  1.00  0.00     0.000 C 
BRANCH   3   4
ATOM      4  C   UNL     1       0.060   1.092  29.780  1.00  0.00     0.000 C 
BRANCH   4   5
ATOM      5  C   UNL     1       1.143   0.255  29.081  1.00  0.00     0.006 C 
BRANCH   5   6
ATOM      6  C   UNL     1       1.361  -1.107  29.753  1.00  0.00     0.053 C 
BRANCH   6   7
ATOM      7  C   UNL     1       0.935  -2.213  28.841  1.00  0.00     0.041 C 
ATOM      8  O   UNL     1       1.259  -2.190  27.624  1.00  0.00    -0.550 OA
ATOM      9  O   UNL     1       0.220  -3.293  29.344  1.00  0.00    -0.550 OA
ENDBRANCH   6   7
ENDBRANCH   5   6
ENDBRANCH   4   5
ENDBRANCH   3   4
ENDBRANCH   2   3
ENDBRANCH   1   2
BRANCH   1  10
ATOM     10  C   UNL     1      -2.872  -1.144  28.239  1.00  0.00     0.000 C 
BRANCH  10  11
ATOM     11  C   UNL     1      -4.330  -0.744  27.953  1.00  0.00    -0.000 C 
BRANCH  11  12
ATOM     12  C   UNL     1      -5.307  -1.251  29.028  1.00  0.00    -0.000 C 
BRANCH  12  13
ATOM     13  C   UNL     1      -5.129  -2.729  29.425  1.00  0.00    -0.000 C 
BRANCH  13  14
ATOM     14  C   UNL     1      -5.803  -3.721  28.454  1.00  0.00    -0.000 C 
BRANCH  14  15
ATOM     15  C   UNL     1      -4.960  -4.986  28.235  1.00  0.00    -0.003 C 
ATOM     16  C   UNL     1      -5.837  -6.234  28.199  1.00  0.00     0.004 C 
ENDBRANCH  14  15
ENDBRANCH  13  14
ENDBRANCH  12  13
ENDBRANCH  11  12
ENDBRANCH  10  11
ENDBRANCH   1  10
TORSDOF 12
ENDMDL
MODEL 5
REMARK VINA RESULT:    -4.449      2.488      4.496
REMARK INTER + INTRA:          -8.670
REMARK INTER:                  -7.230
REMARK INTRA:                  -1.440
REMARK UNBOUND:                -1.099
REMARK SMILES CCCCCCCCCCCCCC(=O)[O-]
REMARK SMILES IDX 8 1 9 2 10 3 11 4 12 5 13 6 14 7 15 8 16 9 7 10 6 11 5 12
REMARK SMILES IDX 4 13 3 14 2 15 1 16
REMARK H PARENT
REMARK Flexibility Score: inf
ROOT
ATOM      1  C   UNL     1      -4.432  -1.256  27.887  1.00  0.00     0.000 C 
ENDROOT
BRANCH   1   2
ATOM      2  C   UNL     1      -3.802  -0.577  29.115  1.00  0.00     0.000 C 
BRANCH   2   3
ATOM      3  C   UNL     1      -2.448   0.079  28.795  1.00  0.00     0.000 C 
BRANCH   3   4
ATOM      4  C   UNL     1      -1.967  -0.218  27.364  1.00  0.00     0.000 C 
BRANCH   4   5
ATOM      5  C   UNL     1      -0.642   0.483  27.029  1.00  0.00     0.006 C 
BRANCH   5   6
ATOM      6  C   UNL     1      -0.729   2.008  27.174  1.00  0.00     0.053 C 
BRANCH   6   7
ATOM      7  C   UNL     1       0.275   2.675  26.289  1.00  0.00     0.041 C 
ATOM      8  O   UNL     1       1.505   2.455  26.448  1.00  0.00    -0.550 OA
ATOM      9  O   UNL     1      -0.149   3.505  25.257  1.00  0.00    -0.550 OA
ENDBRANCH   6   7
ENDBRANCH   5   6
ENDBRANCH   4   5
ENDBRANCH   3   4
ENDBRANCH   2   3
ENDBRANCH   1   2
BRANCH   1  10
ATOM     10  C   UNL     1      -5.354  -2.427  28.268  1.00  0.00     0.000 C 
BRANCH  10  11
ATOM     11  C   UNL     1      -4.681  -3.420  29.232  1.00  0.00    -0.000 C 
BRANCH  11  12
ATOM     12  C   UNL     1      -3.521  -4.190  28.578  1.00  0.00    -0.000 C 
BRANCH  12  13
ATOM     13  C   UNL     1      -2.166  -4.064  29.299  1.00  0.00    -0.000 C 
BRANCH  13  14
ATOM     14  C   UNL     1      -1.065  -3.398  28.447  1.00  0.00    -0.000 C 
BRANCH  14  15
ATOM     15  C   UNL     1       0.228  -3.166  29.243  1.00  0.00    -0.003 C 
ATOM     16  C   UNL     1       1.246  -2.378  28.424  1.00  0.00     0.004 C 
ENDBRANCH  14  15
ENDBRANCH  13  14
ENDBRANCH  12  13
ENDBRANCH  11  12
ENDBRANCH  10  11
ENDBRANCH   1  10
TORSDOF 12
ENDMDL
MODEL 6
REMARK VINA RESULT:    -4.395      2.535      4.027
REMARK INTER + INTRA:          -8.577
REMARK INTER:                  -7.137
REMARK INTRA:                  -1.441
REMARK UNBOUND:                -1.099
REMARK SMILES CCCCCCCCCCCCCC(=O)[O-]
REMARK SMILES IDX 8 1 9 2 10 3 11 4 12 5 13 6 14 7 15 8 16 9 7 10 6 11 5 12
REMARK SMILES IDX 4 13 3 14 2 15 1 16
REMARK H PARENT
REMARK Flexibility Score: inf
ROOT
ATOM      1  C   UNL     1       0.440  -2.487  28.661  1.00  0.00     0.000 C 
ENDROOT
BRANCH   1   2
ATOM      2  C   UNL     1      -0.099  -2.012  27.301  1.00  0.00     0.000 C 
BRANCH   2   3
ATOM      3  C   UNL     1      -0.462  -0.518  27.301  1.00  0.00     0.000 C 
BRANCH   3   4
ATOM      4  C   UNL     1      -1.979  -0.275  27.386  1.00  0.00     0.000 C 
BRANCH   4   5
ATOM      5  C   UNL     1      -2.423   0.202  28.778  1.00  0.00     0.006 C 
BRANCH   5   6
ATOM      6  C   UNL     1      -1.411   1.158  29.424  1.00  0.00     0.053 C 
BRANCH   6   7
ATOM      7  C   UNL     1      -1.623   2.554  28.930  1.00  0.00     0.041 C 
ATOM      8  O   UNL     1      -2.521   3.276  29.439  1.00  0.00    -0.550 OA
ATOM      9  O   UNL     1      -0.800   3.075  27.940  1.00  0.00    -0.550 OA
ENDBRANCH   6   7
ENDBRANCH   5   6
ENDBRANCH   4   5
ENDBRANCH   3   4
ENDBRANCH   2   3
ENDBRANCH   1   2
BRANCH   1  10
ATOM     10  C   UNL     1      -0.497  -3.494  29.350  1.00  0.00     0.000 C 
BRANCH  10  11
ATOM     11  C   UNL     1      -1.741  -3.817  28.504  1.00  0.00    -0.000 C 
BRANCH  11  12
ATOM     12  C   UNL     1      -3.045  -3.753  29.317  1.00  0.00    -0.000 C 
BRANCH  12  13
ATOM     13  C   UNL     1      -4.186  -2.955  28.658  1.00  0.00    -0.000 C 
BRANCH  13  14
ATOM     14  C   UNL     1      -5.563  -3.646  28.745  1.00  0.00    -0.000 C 
BRANCH  14  15
ATOM     15  C   UNL     1      -5.449  -5.125  29.143  1.00  0.00    -0.003 C 
ATOM     16  C   UNL     1      -5.819  -6.040  27.979  1.00  0.00     0.004 C 
ENDBRANCH  14  15
ENDBRANCH  13  14
ENDBRANCH  12  13
ENDBRANCH  11  12
ENDBRANCH  10  11
ENDBRANCH   1  10
TORSDOF 12
ENDMDL
MODEL 7
REMARK VINA RESULT:    -4.352      2.493      6.135
REMARK INTER + INTRA:          -8.505
REMARK INTER:                  -7.056
REMARK INTRA:                  -1.449
REMARK UNBOUND:                -1.099
REMARK SMILES CCCCCCCCCCCCCC(=O)[O-]
REMARK SMILES IDX 8 1 9 2 10 3 11 4 12 5 13 6 14 7 15 8 16 9 7 10 6 11 5 12
REMARK SMILES IDX 4 13 3 14 2 15 1 16
REMARK H PARENT
REMARK Flexibility Score: inf
ROOT
ATOM      1  C   UNL     1      -2.001  -0.517  27.184  1.00  0.00     0.000 C 
ENDROOT
BRANCH   1   2
ATOM      2  C   UNL     1      -2.812  -1.243  28.270  1.00  0.00     0.000 C 
BRANCH   2   3
ATOM      3  C   UNL     1      -3.846  -0.327  28.945  1.00  0.00     0.000 C 
BRANCH   3   4
ATOM      4  C   UNL     1      -5.260  -0.934  28.959  1.00  0.00     0.000 C 
BRANCH   4   5
ATOM      5  C   UNL     1      -5.329  -2.285  28.230  1.00  0.00     0.006 C 
BRANCH   5   6
ATOM      6  C   UNL     1      -5.691  -3.444  29.169  1.00  0.00     0.053 C 
BRANCH   6   7
ATOM      7  C   UNL     1      -4.989  -4.696  28.748  1.00  0.00     0.041 C 
ATOM      8  O   UNL     1      -3.752  -4.679  28.512  1.00  0.00    -0.550 OA
ATOM      9  O   UNL     1      -5.691  -5.892  28.661  1.00  0.00    -0.550 OA
ENDBRANCH   6   7
ENDBRANCH   5   6
ENDBRANCH   4   5
ENDBRANCH   3   4
ENDBRANCH   2   3
ENDBRANCH   1   2
BRANCH   1  10
ATOM     10  C   UNL     1      -0.483  -0.645  27.395  1.00  0.00     0.000 C 
BRANCH  10  11
ATOM     11  C   UNL     1      -0.095  -0.694  28.884  1.00  0.00    -0.000 C 
BRANCH  11  12
ATOM     12  C   UNL     1       0.360   0.672  29.424  1.00  0.00    -0.000 C 
BRANCH  12  13
ATOM     13  C   UNL     1      -0.780   1.626  29.830  1.00  0.00    -0.000 C 
BRANCH  13  14
ATOM     14  C   UNL     1      -1.080   2.721  28.785  1.00  0.00    -0.000 C 
BRANCH  14  15
ATOM     15  C   UNL     1       0.111   2.976  27.849  1.00  0.00    -0.003 C 
ATOM     16  C   UNL     1      -0.319   2.941  26.386  1.00  0.00     0.004 C 
ENDBRANCH  14  15
ENDBRANCH  13  14
ENDBRANCH  12  13
ENDBRANCH  11  12
ENDBRANCH  10  11
ENDBRANCH   1  10
TORSDOF 12
ENDMDL
MODEL 8
REMARK VINA RESULT:    -4.259      2.278      6.093
REMARK INTER + INTRA:          -8.347
REMARK INTER:                  -6.762
REMARK INTRA:                  -1.585
REMARK UNBOUND:                -1.099
REMARK SMILES CCCCCCCCCCCCCC(=O)[O-]
REMARK SMILES IDX 8 1 9 2 10 3 11 4 12 5 13 6 14 7 15 8 16 9 7 10 6 11 5 12
REMARK SMILES IDX 4 13 3 14 2 15 1 16
REMARK H PARENT
REMARK Flexibility Score: inf
ROOT
ATOM      1  C   UNL     1      -1.770  -0.481  27.114  1.00  0.00     0.000 C 
ENDROOT
BRANCH   1   2
ATOM      2  C   UNL     1      -2.020  -0.410  28.630  1.00  0.00     0.000 C 
BRANCH   2   3
ATOM      3  C   UNL     1      -3.516  -0.346  28.977  1.00  0.00     0.000 C 
BRANCH   3   4
ATOM      4  C   UNL     1      -4.388  -1.156  28.001  1.00  0.00     0.000 C 
BRANCH   4   5
ATOM      5  C   UNL     1      -5.294  -2.169  28.720  1.00  0.00     0.006 C 
BRANCH   5   6
ATOM      6  C   UNL     1      -4.513  -3.090  29.667  1.00  0.00     0.053 C 
BRANCH   6   7
ATOM      7  C   UNL     1      -3.698  -4.071  28.886  1.00  0.00     0.041 C 
ATOM      8  O   UNL     1      -2.441  -4.055  28.963  1.00  0.00    -0.550 OA
ATOM      9  O   UNL     1      -4.327  -5.035  28.107  1.00  0.00    -0.550 OA
ENDBRANCH   6   7
ENDBRANCH   5   6
ENDBRANCH   4   5
ENDBRANCH   3   4
ENDBRANCH   2   3
ENDBRANCH   1   2
BRANCH   1  10
ATOM     10  C   UNL     1      -0.525  -1.310  26.758  1.00  0.00     0.000 C 
BRANCH  10  11
ATOM     11  C   UNL     1       0.403  -1.532  27.967  1.00  0.00    -0.000 C 
BRANCH  11  12
ATOM     12  C   UNL     1       1.744  -0.792  27.829  1.00  0.00    -0.000 C 
BRANCH  12  13
ATOM     13  C   UNL     1       1.822   0.560  28.564  1.00  0.00    -0.000 C 
BRANCH  13  14
ATOM     14  C   UNL     1       1.704   1.784  27.632  1.00  0.00    -0.000 C 
BRANCH  14  15
ATOM     15  C   UNL     1       0.355   2.502  27.780  1.00  0.00    -0.003 C 
ATOM     16  C   UNL     1      -0.249   2.827  26.417  1.00  0.00     0.004 C 
ENDBRANCH  14  15
ENDBRANCH  13  14
ENDBRANCH  12  13
ENDBRANCH  11  12
ENDBRANCH  10  11
ENDBRANCH   1  10
TORSDOF 12
ENDMDL
MODEL 9
REMARK VINA RESULT:    -4.255      2.492      3.556
REMARK INTER + INTRA:          -8.340
REMARK INTER:                  -7.099
REMARK INTRA:                  -1.241
REMARK UNBOUND:                -1.099
REMARK SMILES CCCCCCCCCCCCCC(=O)[O-]
REMARK SMILES IDX 8 1 9 2 10 3 11 4 12 5 13 6 14 7 15 8 16 9 7 10 6 11 5 12
REMARK SMILES IDX 4 13 3 14 2 15 1 16
REMARK H PARENT
REMARK Flexibility Score: inf
ROOT
ATOM      1  C   UNL     1      -1.794  -0.855  27.410  1.00  0.00     0.000 C 
ENDROOT
BRANCH   1   2
ATOM      2  C   UNL     1      -0.535  -1.388  28.114  1.00  0.00     0.000 C 
BRANCH   2   3
ATOM      3  C   UNL     1       0.677  -1.470  27.172  1.00  0.00     0.000 C 
BRANCH   3   4
ATOM      4  C   UNL     1       1.871  -0.634  27.665  1.00  0.00     0.000 C 
BRANCH   4   5
ATOM      5  C   UNL     1       1.445   0.736  28.217  1.00  0.00     0.006 C 
BRANCH   5   6
ATOM      6  C   UNL     1       1.388   1.818  27.131  1.00  0.00     0.053 C 
BRANCH   6   7
ATOM      7  C   UNL     1       0.040   2.466  27.110  1.00  0.00     0.041 C 
ATOM      8  O   UNL     1      -0.370   3.040  26.066  1.00  0.00    -0.550 OA
ATOM      9  O   UNL     1      -0.783   2.397  28.227  1.00  0.00    -0.550 OA
ENDBRANCH   6   7
ENDBRANCH   5   6
ENDBRANCH   4   5
ENDBRANCH   3   4
ENDBRANCH   2   3
ENDBRANCH   1   2
BRANCH   1  10
ATOM     10  C   UNL     1      -2.921  -0.505  28.396  1.00  0.00     0.000 C 
BRANCH  10  11
ATOM     11  C   UNL     1      -4.312  -0.896  27.867  1.00  0.00    -0.000 C 
BRANCH  11  12
ATOM     12  C   UNL     1      -5.319  -1.179  28.995  1.00  0.00    -0.000 C 
BRANCH  12  13
ATOM     13  C   UNL     1      -5.366  -2.642  29.475  1.00  0.00    -0.000 C 
BRANCH  13  14
ATOM     14  C   UNL     1      -5.546  -3.668  28.336  1.00  0.00    -0.000 C 
BRANCH  14  15
ATOM     15  C   UNL     1      -4.447  -4.740  28.337  1.00  0.00    -0.003 C 
ATOM     16  C   UNL     1      -3.180  -4.231  29.017  1.00  0.00     0.004 C 
ENDBRANCH  14  15
ENDBRANCH  13  14
ENDBRANCH  12  13
ENDBRANCH  11  12
ENDBRANCH  10  11
ENDBRANCH   1  10
TORSDOF 12
ENDMDL
