MODEL 1
REMARK VINA RESULT:    -5.860      0.000      0.000
REMARK INTER + INTRA:          -6.202
REMARK INTER:                  -6.202
REMARK INTRA:                   0.000
REMARK UNBOUND:                 0.000
REMARK SMILES O=c1ccc2cc(O)c(O)cc2o1
REMARK SMILES IDX 4 1 3 2 2 3 1 4 13 5 12 6 11 7 9 8 7 9 6 10 5 11 8 12 10 14
REMARK H PARENT 8 13 10 15
REMARK Flexibility Score: inf
ROOT
ATOM      1  C   UNL     1       8.183   5.308  11.561  1.00  0.00     0.019 A 
ATOM      2  C   UNL     1       7.537   6.465  11.127  1.00  0.00     0.094 A 
ATOM      3  C   UNL     1       6.470   6.350  10.231  1.00  0.00     0.336 A 
ATOM      4  O   UNL     1       5.875   7.383   9.827  1.00  0.00    -0.246 OA
ATOM      5  O   UNL     1       6.078   5.154   9.800  1.00  0.00    -0.423 OA
ATOM      6  C   UNL     1       6.667   4.026  10.189  1.00  0.00     0.142 A 
ATOM      7  C   UNL     1       6.210   2.796   9.703  1.00  0.00     0.098 A 
ATOM      8  C   UNL     1       6.827   1.603  10.109  1.00  0.00     0.161 A 
ATOM      9  C   UNL     1       7.904   1.642  11.008  1.00  0.00     0.158 A 
ATOM     10  C   UNL     1       8.365   2.871  11.498  1.00  0.00     0.062 A 
ATOM     11  C   UNL     1       7.750   4.064  11.093  1.00  0.00     0.022 A 
ENDROOT
BRANCH   9  12
ATOM     12  O   UNL     1       8.510   0.452  11.407  1.00  0.00    -0.504 OA
ATOM     13  H   UNL     1       9.314   0.447  12.024  1.00  0.00     0.293 HD
ENDBRANCH   9  12
BRANCH   8  14
ATOM     14  O   UNL     1       6.375   0.377   9.627  1.00  0.00    -0.504 OA
ATOM     15  H   UNL     1       5.684  -0.169  10.129  1.00  0.00     0.293 HD
ENDBRANCH   8  14
TORSDOF 2
ENDMDL
MODEL 2
REMARK VINA RESULT:    -5.616      1.081      2.234
REMARK INTER + INTRA:          -5.945
REMARK INTER:                  -5.945
REMARK INTRA:                   0.000
REMARK UNBOUND:                 0.000
REMARK SMILES O=c1ccc2cc(O)c(O)cc2o1
REMARK SMILES IDX 4 1 3 2 2 3 1 4 13 5 12 6 11 7 9 8 7 9 6 10 5 11 8 12 10 14
REMARK H PARENT 8 13 10 15
REMARK Flexibility Score: inf
ROOT
ATOM      1  C   UNL     1       5.911   5.177   9.679  1.00  0.00     0.019 A 
ATOM      2  C   UNL     1       6.347   6.425  10.123  1.00  0.00     0.094 A 
ATOM      3  C   UNL     1       7.414   6.487  11.025  1.00  0.00     0.336 A 
ATOM      4  O   UNL     1       7.822   7.604  11.438  1.00  0.00    -0.246 OA
ATOM      5  O   UNL     1       8.002   5.373  11.452  1.00  0.00    -0.423 OA
ATOM      6  C   UNL     1       7.617   4.163  11.053  1.00  0.00     0.142 A 
ATOM      7  C   UNL     1       8.274   3.026  11.536  1.00  0.00     0.098 A 
ATOM      8  C   UNL     1       7.872   1.748  11.119  1.00  0.00     0.161 A 
ATOM      9  C   UNL     1       6.809   1.608  10.214  1.00  0.00     0.158 A 
ATOM     10  C   UNL     1       6.147   2.744   9.728  1.00  0.00     0.062 A 
ATOM     11  C   UNL     1       6.547   4.022  10.143  1.00  0.00     0.022 A 
ENDROOT
BRANCH   9  12
ATOM     12  O   UNL     1       6.416   0.335   9.805  1.00  0.00    -0.504 OA
ATOM     13  H   UNL     1       6.796  -0.095   8.970  1.00  0.00     0.293 HD
ENDBRANCH   9  12
BRANCH   8  14
ATOM     14  O   UNL     1       8.524   0.614  11.598  1.00  0.00    -0.504 OA
ATOM     15  H   UNL     1       9.413   0.312  11.216  1.00  0.00     0.293 HD
ENDBRANCH   8  14
TORSDOF 2
ENDMDL
MODEL 3
REMARK VINA RESULT:    -5.470      1.100      4.527
REMARK INTER + INTRA:          -5.790
REMARK INTER:                  -5.790
REMARK INTRA:                   0.000
REMARK UNBOUND:                 0.000
REMARK SMILES O=c1ccc2cc(O)c(O)cc2o1
REMARK SMILES IDX 4 1 3 2 2 3 1 4 13 5 12 6 11 7 9 8 7 9 6 10 5 11 8 12 10 14
REMARK H PARENT 8 13 10 15
REMARK Flexibility Score: inf
ROOT
ATOM      1  C   UNL     1       8.391   2.805  11.385  1.00  0.00     0.019 A 
ATOM      2  C   UNL     1       7.867   1.608  10.899  1.00  0.00     0.094 A 
ATOM      3  C   UNL     1       6.741   1.647  10.072  1.00  0.00     0.336 A 
ATOM      4  O   UNL     1       6.253   0.577   9.623  1.00  0.00    -0.246 OA
ATOM      5  O   UNL     1       6.179   2.811   9.754  1.00  0.00    -0.423 OA
ATOM      6  C   UNL     1       6.647   3.975  10.196  1.00  0.00     0.142 A 
ATOM      7  C   UNL     1       6.014   5.168   9.828  1.00  0.00     0.098 A 
ATOM      8  C   UNL     1       6.503   6.399  10.292  1.00  0.00     0.161 A 
ATOM      9  C   UNL     1       7.630   6.436  11.126  1.00  0.00     0.158 A 
ATOM     10  C   UNL     1       8.268   5.244  11.498  1.00  0.00     0.062 A 
ATOM     11  C   UNL     1       7.781   4.013  11.036  1.00  0.00     0.022 A 
ENDROOT
BRANCH   9  12
ATOM     12  O   UNL     1       8.109   7.663  11.581  1.00  0.00    -0.504 OA
ATOM     13  H   UNL     1       7.514   8.313  12.081  1.00  0.00     0.293 HD
ENDBRANCH   9  12
BRANCH   8  14
ATOM     14  O   UNL     1       5.875   7.588   9.927  1.00  0.00    -0.504 OA
ATOM     15  H   UNL     1       4.866   7.685   9.955  1.00  0.00     0.293 HD
ENDBRANCH   8  14
TORSDOF 2
ENDMDL
MODEL 4
REMARK VINA RESULT:    -5.462      1.146      5.066
REMARK INTER + INTRA:          -5.782
REMARK INTER:                  -5.782
REMARK INTRA:                   0.000
REMARK UNBOUND:                 0.000
REMARK SMILES O=c1ccc2cc(O)c(O)cc2o1
REMARK SMILES IDX 4 1 3 2 2 3 1 4 13 5 12 6 11 7 9 8 7 9 6 10 5 11 8 12 10 14
REMARK H PARENT 8 13 10 15
REMARK Flexibility Score: inf
ROOT
ATOM      1  C   UNL     1       6.303   2.680   9.875  1.00  0.00     0.019 A 
ATOM      2  C   UNL     1       7.002   1.550  10.297  1.00  0.00     0.094 A 
ATOM      3  C   UNL     1       8.124   1.714  11.116  1.00  0.00     0.336 A 
ATOM      4  O   UNL     1       8.769   0.706  11.507  1.00  0.00    -0.246 OA
ATOM      5  O   UNL     1       8.516   2.930  11.485  1.00  0.00    -0.423 OA
ATOM      6  C   UNL     1       7.878   4.034  11.104  1.00  0.00     0.142 A 
ATOM      7  C   UNL     1       8.337   5.287  11.524  1.00  0.00     0.098 A 
ATOM      8  C   UNL     1       7.669   6.454  11.125  1.00  0.00     0.161 A 
ATOM      9  C   UNL     1       6.535   6.366  10.304  1.00  0.00     0.158 A 
ATOM     10  C   UNL     1       6.070   5.113   9.880  1.00  0.00     0.062 A 
ATOM     11  C   UNL     1       6.737   3.946  10.277  1.00  0.00     0.022 A 
ENDROOT
BRANCH   9  12
ATOM     12  O   UNL     1       5.876   7.531   9.913  1.00  0.00    -0.504 OA
ATOM     13  H   UNL     1       5.569   8.220  10.590  1.00  0.00     0.293 HD
ENDBRANCH   9  12
BRANCH   8  14
ATOM     14  O   UNL     1       8.124   7.703  11.541  1.00  0.00    -0.504 OA
ATOM     15  H   UNL     1       9.113   7.905  11.631  1.00  0.00     0.293 HD
ENDBRANCH   8  14
TORSDOF 2
ENDMDL
MODEL 5
REMARK VINA RESULT:    -5.356      9.095     11.810
REMARK INTER + INTRA:          -5.669
REMARK INTER:                  -5.669
REMARK INTRA:                   0.000
REMARK UNBOUND:                 0.000
REMARK SMILES O=c1ccc2cc(O)c(O)cc2o1
REMARK SMILES IDX 4 1 3 2 2 3 1 4 13 5 12 6 11 7 9 8 7 9 6 10 5 11 8 12 10 14
REMARK H PARENT 8 13 10 15
REMARK Flexibility Score: inf
ROOT
ATOM      1  C   UNL     1       7.753  -4.506  19.231  1.00  0.00     0.019 A 
ATOM      2  C   UNL     1       8.479  -5.591  19.720  1.00  0.00     0.094 A 
ATOM      3  C   UNL     1       9.876  -5.552  19.662  1.00  0.00     0.336 A 
ATOM      4  O   UNL     1      10.550  -6.522  20.098  1.00  0.00    -0.246 OA
ATOM      5  O   UNL     1      10.500  -4.496  19.147  1.00  0.00    -0.423 OA
ATOM      6  C   UNL     1       9.845  -3.441  18.670  1.00  0.00     0.142 A 
ATOM      7  C   UNL     1      10.556  -2.358  18.141  1.00  0.00     0.098 A 
ATOM      8  C   UNL     1       9.870  -1.243  17.635  1.00  0.00     0.161 A 
ATOM      9  C   UNL     1       8.469  -1.211  17.662  1.00  0.00     0.158 A 
ATOM     10  C   UNL     1       7.751  -2.294  18.191  1.00  0.00     0.062 A 
ATOM     11  C   UNL     1       8.434  -3.409  18.696  1.00  0.00     0.022 A 
ENDROOT
BRANCH   9  12
ATOM     12  O   UNL     1       7.795  -0.099  17.158  1.00  0.00    -0.504 OA
ATOM     13  H   UNL     1       7.084   0.380  17.698  1.00  0.00     0.293 HD
ENDBRANCH   9  12
BRANCH   8  14
ATOM     14  O   UNL     1      10.575  -0.163  17.107  1.00  0.00    -0.504 OA
ATOM     15  H   UNL     1      11.299   0.308  17.638  1.00  0.00     0.293 HD
ENDBRANCH   8  14
TORSDOF 2
ENDMDL
MODEL 6
REMARK VINA RESULT:    -5.146      9.102     11.596
REMARK INTER + INTRA:          -5.447
REMARK INTER:                  -5.447
REMARK INTRA:                   0.000
REMARK UNBOUND:                 0.000
REMARK SMILES O=c1ccc2cc(O)c(O)cc2o1
REMARK SMILES IDX 4 1 3 2 2 3 1 4 13 5 12 6 11 7 9 8 7 9 6 10 5 11 8 12 10 14
REMARK H PARENT 8 13 10 15
REMARK Flexibility Score: inf
ROOT
ATOM      1  C   UNL     1      10.392  -4.568  19.292  1.00  0.00     0.019 A 
ATOM      2  C   UNL     1       9.595  -5.631  19.714  1.00  0.00     0.094 A 
ATOM      3  C   UNL     1       8.206  -5.527  19.592  1.00  0.00     0.336 A 
ATOM      4  O   UNL     1       7.469  -6.476  19.969  1.00  0.00    -0.246 OA
ATOM      5  O   UNL     1       7.655  -4.429  19.081  1.00  0.00    -0.423 OA
ATOM      6  C   UNL     1       8.378  -3.392  18.667  1.00  0.00     0.142 A 
ATOM      7  C   UNL     1       7.743  -2.264  18.137  1.00  0.00     0.098 A 
ATOM      8  C   UNL     1       8.501  -1.168  17.699  1.00  0.00     0.161 A 
ATOM      9  C   UNL     1       9.900  -1.202  17.789  1.00  0.00     0.158 A 
ATOM     10  C   UNL     1      10.542  -2.330  18.320  1.00  0.00     0.062 A 
ATOM     11  C   UNL     1       9.786  -3.426  18.758  1.00  0.00     0.022 A 
ENDROOT
BRANCH   9  12
ATOM     12  O   UNL     1      10.646  -0.108  17.351  1.00  0.00    -0.504 OA
ATOM     13  H   UNL     1      10.588   0.792  17.812  1.00  0.00     0.293 HD
ENDBRANCH   9  12
BRANCH   8  14
ATOM     14  O   UNL     1       7.871  -0.042  17.171  1.00  0.00    -0.504 OA
ATOM     15  H   UNL     1       8.381   0.646  16.629  1.00  0.00     0.293 HD
ENDBRANCH   8  14
TORSDOF 2
ENDMDL
MODEL 7
REMARK VINA RESULT:    -5.108      9.784     12.294
REMARK INTER + INTRA:          -5.407
REMARK INTER:                  -5.407
REMARK INTRA:                   0.000
REMARK UNBOUND:                 0.000
REMARK SMILES O=c1ccc2cc(O)c(O)cc2o1
REMARK SMILES IDX 4 1 3 2 2 3 1 4 13 5 12 6 11 7 9 8 7 9 6 10 5 11 8 12 10 14
REMARK H PARENT 8 13 10 15
REMARK Flexibility Score: inf
ROOT
ATOM      1  C   UNL     1       8.310  -3.867  18.624  1.00  0.00     0.019 A 
ATOM      2  C   UNL     1       8.205  -5.144  19.174  1.00  0.00     0.094 A 
ATOM      3  C   UNL     1       9.363  -5.785  19.625  1.00  0.00     0.336 A 
ATOM      4  O   UNL     1       9.288  -6.939  20.124  1.00  0.00    -0.246 OA
ATOM      5  O   UNL     1      10.546  -5.184  19.530  1.00  0.00    -0.423 OA
ATOM      6  C   UNL     1      10.691  -3.968  19.012  1.00  0.00     0.142 A 
ATOM      7  C   UNL     1      11.961  -3.386  18.938  1.00  0.00     0.098 A 
ATOM      8  C   UNL     1      12.119  -2.103  18.393  1.00  0.00     0.161 A 
ATOM      9  C   UNL     1      11.002  -1.400  17.920  1.00  0.00     0.158 A 
ATOM     10  C   UNL     1       9.726  -1.978  17.991  1.00  0.00     0.062 A 
ATOM     11  C   UNL     1       9.566  -3.260  18.536  1.00  0.00     0.022 A 
ENDROOT
BRANCH   9  12
ATOM     12  O   UNL     1      11.168  -0.125  17.380  1.00  0.00    -0.504 OA
ATOM     13  H   UNL     1      10.377   0.481  17.196  1.00  0.00     0.293 HD
ENDBRANCH   9  12
BRANCH   8  14
ATOM     14  O   UNL     1      13.383  -1.521  18.318  1.00  0.00    -0.504 OA
ATOM     15  H   UNL     1      13.660  -0.953  17.525  1.00  0.00     0.293 HD
ENDBRANCH   8  14
TORSDOF 2
ENDMDL
MODEL 8
REMARK VINA RESULT:    -4.968      9.943     12.329
REMARK INTER + INTRA:          -5.259
REMARK INTER:                  -5.259
REMARK INTRA:                   0.000
REMARK UNBOUND:                 0.000
REMARK SMILES O=c1ccc2cc(O)c(O)cc2o1
REMARK SMILES IDX 4 1 3 2 2 3 1 4 13 5 12 6 11 7 9 8 7 9 6 10 5 11 8 12 10 14
REMARK H PARENT 8 13 10 15
REMARK Flexibility Score: inf
ROOT
ATOM      1  C   UNL     1      10.963  -5.330  20.095  1.00  0.00     0.019 A 
ATOM      2  C   UNL     1       9.770  -6.051  20.124  1.00  0.00     0.094 A 
ATOM      3  C   UNL     1       8.667  -5.565  19.416  1.00  0.00     0.336 A 
ATOM      4  O   UNL     1       7.580  -6.201  19.431  1.00  0.00    -0.246 OA
ATOM      5  O   UNL     1       8.756  -4.431  18.725  1.00  0.00    -0.423 OA
ATOM      6  C   UNL     1       9.875  -3.713  18.671  1.00  0.00     0.142 A 
ATOM      7  C   UNL     1       9.910  -2.529  17.927  1.00  0.00     0.098 A 
ATOM      8  C   UNL     1      11.087  -1.767  17.867  1.00  0.00     0.161 A 
ATOM      9  C   UNL     1      12.234  -2.195  18.552  1.00  0.00     0.158 A 
ATOM     10  C   UNL     1      12.205  -3.381  19.299  1.00  0.00     0.062 A 
ATOM     11  C   UNL     1      11.029  -4.143  19.361  1.00  0.00     0.022 A 
ENDROOT
BRANCH   9  12
ATOM     12  O   UNL     1      13.400  -1.433  18.486  1.00  0.00    -0.504 OA
ATOM     13  H   UNL     1      14.297  -1.810  18.769  1.00  0.00     0.293 HD
ENDBRANCH   9  12
BRANCH   8  14
ATOM     14  O   UNL     1      11.125  -0.587  17.127  1.00  0.00    -0.504 OA
ATOM     15  H   UNL     1      11.999  -0.111  16.932  1.00  0.00     0.293 HD
ENDBRANCH   8  14
TORSDOF 2
ENDMDL
MODEL 9
REMARK VINA RESULT:    -4.877     10.935     12.752
REMARK INTER + INTRA:          -5.162
REMARK INTER:                  -5.162
REMARK INTRA:                   0.000
REMARK UNBOUND:                 0.000
REMARK SMILES O=c1ccc2cc(O)c(O)cc2o1
REMARK SMILES IDX 4 1 3 2 2 3 1 4 13 5 12 6 11 7 9 8 7 9 6 10 5 11 8 12 10 14
REMARK H PARENT 8 13 10 15
REMARK Flexibility Score: inf
ROOT
ATOM      1  C   UNL     1       7.939  -2.939  19.286  1.00  0.00     0.019 A 
ATOM      2  C   UNL     1       8.906  -1.937  19.202  1.00  0.00     0.094 A 
ATOM      3  C   UNL     1      10.254  -2.285  19.329  1.00  0.00     0.336 A 
ATOM      4  O   UNL     1      11.142  -1.396  19.257  1.00  0.00    -0.246 OA
ATOM      5  O   UNL     1      10.607  -3.553  19.528  1.00  0.00    -0.423 OA
ATOM      6  C   UNL     1       9.717  -4.538  19.615  1.00  0.00     0.142 A 
ATOM      7  C   UNL     1      10.147  -5.853  19.824  1.00  0.00     0.098 A 
ATOM      8  C   UNL     1       9.213  -6.895  19.916  1.00  0.00     0.161 A 
ATOM      9  C   UNL     1       7.843  -6.621  19.797  1.00  0.00     0.158 A 
ATOM     10  C   UNL     1       7.405  -5.305  19.587  1.00  0.00     0.062 A 
ATOM     11  C   UNL     1       8.338  -4.262  19.495  1.00  0.00     0.022 A 
ENDROOT
BRANCH   9  12
ATOM     12  O   UNL     1       6.921  -7.663  19.890  1.00  0.00    -0.504 OA
ATOM     13  H   UNL     1       5.969  -7.560  19.557  1.00  0.00     0.293 HD
ENDBRANCH   9  12
BRANCH   8  14
ATOM     14  O   UNL     1       9.638  -8.205  20.125  1.00  0.00    -0.504 OA
ATOM     15  H   UNL     1      10.573  -8.506  19.873  1.00  0.00     0.293 HD
ENDBRANCH   8  14
TORSDOF 2
ENDMDL
