MODEL 1
REMARK VINA RESULT:    -3.898      0.000      0.000
REMARK INTER + INTRA:          -4.933
REMARK INTER:                  -4.581
REMARK INTRA:                  -0.351
REMARK UNBOUND:                -0.351
REMARK SMILES [NH3+][C@H](CO)C(=O)[O-]
REMARK SMILES IDX 3 1 2 2 1 3 5 7 6 8 7 9 4 10
REMARK H PARENT 1 4 1 5 1 6 4 11
REMARK Flexibility Score: inf
ROOT
ATOM      1  C   UNL     1     -19.117  12.609 -11.262  1.00  0.00     0.227 C 
ENDROOT
BRANCH   1   2
ATOM      2  C   UNL     1     -19.597  12.176 -12.658  1.00  0.00     0.253 C 
BRANCH   2   3
ATOM      3  N   UNL     1     -21.003  11.751 -12.629  1.00  0.00    -0.348 N 
ATOM      4  H   UNL     1     -21.095  10.740 -12.877  1.00  0.00     0.345 HD
ATOM      5  H   UNL     1     -21.558  12.321 -13.309  1.00  0.00     0.345 HD
ATOM      6  H   UNL     1     -21.398  11.907 -11.673  1.00  0.00     0.345 HD
ENDBRANCH   2   3
BRANCH   2   7
ATOM      7  C   UNL     1     -19.387  13.280 -13.662  1.00  0.00     0.102 C 
ATOM      8  O   UNL     1     -20.366  13.928 -14.118  1.00  0.00    -0.544 OA
ATOM      9  O   UNL     1     -18.099  13.614 -14.061  1.00  0.00    -0.544 OA
ENDBRANCH   2   7
ENDBRANCH   1   2
BRANCH   1  10
ATOM     10  O   UNL     1     -18.799  13.974 -11.247  1.00  0.00    -0.390 OA
ATOM     11  H   UNL     1     -17.951  14.065 -11.757  1.00  0.00     0.210 HD
ENDBRANCH   1  10
TORSDOF 4
ENDMDL
MODEL 2
REMARK VINA RESULT:    -3.855      1.782      2.040
REMARK INTER + INTRA:          -4.882
REMARK INTER:                  -4.659
REMARK INTRA:                  -0.223
REMARK UNBOUND:                -0.351
REMARK SMILES [NH3+][C@H](CO)C(=O)[O-]
REMARK SMILES IDX 3 1 2 2 1 3 5 7 6 8 7 9 4 10
REMARK H PARENT 1 4 1 5 1 6 4 11
REMARK Flexibility Score: inf
ROOT
ATOM      1  C   UNL     1     -18.269  13.877 -12.533  1.00  0.00     0.227 C 
ENDROOT
BRANCH   1   2
ATOM      2  C   UNL     1     -18.916  12.877 -13.506  1.00  0.00     0.253 C 
BRANCH   2   3
ATOM      3  N   UNL     1     -18.419  11.514 -13.278  1.00  0.00    -0.348 N 
ATOM      4  H   UNL     1     -19.153  10.804 -13.499  1.00  0.00     0.345 HD
ATOM      5  H   UNL     1     -18.130  11.407 -12.278  1.00  0.00     0.345 HD
ATOM      6  H   UNL     1     -17.582  11.340 -13.881  1.00  0.00     0.345 HD
ENDBRANCH   2   3
BRANCH   2   7
ATOM      7  C   UNL     1     -20.419  12.929 -13.405  1.00  0.00     0.102 C 
ATOM      8  O   UNL     1     -21.044  12.094 -12.698  1.00  0.00    -0.544 OA
ATOM      9  O   UNL     1     -21.121  13.928 -14.066  1.00  0.00    -0.544 OA
ENDBRANCH   2   7
ENDBRANCH   1   2
BRANCH   1  10
ATOM     10  O   UNL     1     -18.828  13.757 -11.253  1.00  0.00    -0.390 OA
ATOM     11  H   UNL     1     -19.150  14.664 -11.007  1.00  0.00     0.210 HD
ENDBRANCH   1  10
TORSDOF 4
ENDMDL
MODEL 3
REMARK VINA RESULT:    -3.764     20.066     20.725
REMARK INTER + INTRA:          -4.775
REMARK INTER:                  -4.545
REMARK INTRA:                  -0.230
REMARK UNBOUND:                -0.351
REMARK SMILES [NH3+][C@H](CO)C(=O)[O-]
REMARK SMILES IDX 3 1 2 2 1 3 5 7 6 8 7 9 4 10
REMARK H PARENT 1 4 1 5 1 6 4 11
REMARK Flexibility Score: inf
ROOT
ATOM      1  C   UNL     1     -13.213  -4.689 -22.813  1.00  0.00     0.227 C 
ENDROOT
BRANCH   1   2
ATOM      2  C   UNL     1     -12.901  -3.583 -21.790  1.00  0.00     0.253 C 
BRANCH   2   3
ATOM      3  N   UNL     1     -14.085  -3.251 -20.987  1.00  0.00    -0.348 N 
ATOM      4  H   UNL     1     -13.831  -3.105 -19.984  1.00  0.00     0.345 HD
ATOM      5  H   UNL     1     -14.785  -4.027 -21.053  1.00  0.00     0.345 HD
ATOM      6  H   UNL     1     -14.529  -2.379 -21.358  1.00  0.00     0.345 HD
ENDBRANCH   2   3
BRANCH   2   7
ATOM      7  C   UNL     1     -11.745  -3.979 -20.910  1.00  0.00     0.102 C 
ATOM      8  O   UNL     1     -11.395  -5.185 -20.813  1.00  0.00    -0.544 OA
ATOM      9  O   UNL     1     -11.030  -3.002 -20.227  1.00  0.00    -0.544 OA
ENDBRANCH   2   7
ENDBRANCH   1   2
BRANCH   1  10
ATOM     10  O   UNL     1     -12.092  -4.958 -23.610  1.00  0.00    -0.390 OA
ATOM     11  H   UNL     1     -12.279  -5.819 -24.067  1.00  0.00     0.210 HD
ENDBRANCH   1  10
TORSDOF 4
ENDMDL
MODEL 4
REMARK VINA RESULT:    -3.744      1.928      2.394
REMARK INTER + INTRA:          -4.752
REMARK INTER:                  -4.530
REMARK INTRA:                  -0.222
REMARK UNBOUND:                -0.351
REMARK SMILES [NH3+][C@H](CO)C(=O)[O-]
REMARK SMILES IDX 3 1 2 2 1 3 5 7 6 8 7 9 4 10
REMARK H PARENT 1 4 1 5 1 6 4 11
REMARK Flexibility Score: inf
ROOT
ATOM      1  C   UNL     1     -18.616  12.690 -12.143  1.00  0.00     0.227 C 
ENDROOT
BRANCH   1   2
ATOM      2  C   UNL     1     -18.415  12.778 -13.666  1.00  0.00     0.253 C 
BRANCH   2   3
ATOM      3  N   UNL     1     -19.389  13.690 -14.280  1.00  0.00    -0.348 N 
ATOM      4  H   UNL     1     -19.084  14.685 -14.186  1.00  0.00     0.345 HD
ATOM      5  H   UNL     1     -20.321  13.573 -13.818  1.00  0.00     0.345 HD
ATOM      6  H   UNL     1     -19.496  13.459 -15.294  1.00  0.00     0.345 HD
ENDBRANCH   2   3
BRANCH   2   7
ATOM      7  C   UNL     1     -17.005  13.191 -13.997  1.00  0.00     0.102 C 
ATOM      8  O   UNL     1     -16.443  14.122 -13.361  1.00  0.00    -0.544 OA
ATOM      9  O   UNL     1     -16.301  12.516 -14.985  1.00  0.00    -0.544 OA
ENDBRANCH   2   7
ENDBRANCH   1   2
BRANCH   1  10
ATOM     10  O   UNL     1     -18.673  13.970 -11.575  1.00  0.00    -0.390 OA
ATOM     11  H   UNL     1     -17.814  14.096 -11.094  1.00  0.00     0.210 HD
ENDBRANCH   1  10
TORSDOF 4
ENDMDL
MODEL 5
REMARK VINA RESULT:    -3.681      1.990      2.467
REMARK INTER + INTRA:          -4.678
REMARK INTER:                  -4.430
REMARK INTRA:                  -0.248
REMARK UNBOUND:                -0.351
REMARK SMILES [NH3+][C@H](CO)C(=O)[O-]
REMARK SMILES IDX 3 1 2 2 1 3 5 7 6 8 7 9 4 10
REMARK H PARENT 1 4 1 5 1 6 4 11
REMARK Flexibility Score: inf
ROOT
ATOM      1  C   UNL     1     -17.582  12.734 -13.208  1.00  0.00     0.227 C 
ENDROOT
BRANCH   1   2
ATOM      2  C   UNL     1     -18.849  12.678 -12.337  1.00  0.00     0.253 C 
BRANCH   2   3
ATOM      3  N   UNL     1     -18.822  13.708 -11.291  1.00  0.00    -0.348 N 
ATOM      4  H   UNL     1     -19.129  14.634 -11.666  1.00  0.00     0.345 HD
ATOM      5  H   UNL     1     -17.851  13.799 -10.910  1.00  0.00     0.345 HD
ATOM      6  H   UNL     1     -19.456  13.429 -10.506  1.00  0.00     0.345 HD
ENDBRANCH   2   3
BRANCH   2   7
ATOM      7  C   UNL     1     -20.087  12.802 -13.186  1.00  0.00     0.102 C 
ATOM      8  O   UNL     1     -21.131  12.159 -12.897  1.00  0.00    -0.544 OA
ATOM      9  O   UNL     1     -20.093  13.663 -14.276  1.00  0.00    -0.544 OA
ENDBRANCH   2   7
ENDBRANCH   1   2
BRANCH   1  10
ATOM     10  O   UNL     1     -17.712  11.903 -14.329  1.00  0.00    -0.390 OA
ATOM     11  H   UNL     1     -17.448  10.994 -14.029  1.00  0.00     0.210 HD
ENDBRANCH   1  10
TORSDOF 4
ENDMDL
MODEL 6
REMARK VINA RESULT:    -3.680     19.635     20.131
REMARK INTER + INTRA:          -4.676
REMARK INTER:                  -4.444
REMARK INTRA:                  -0.232
REMARK UNBOUND:                -0.351
REMARK SMILES [NH3+][C@H](CO)C(=O)[O-]
REMARK SMILES IDX 3 1 2 2 1 3 5 7 6 8 7 9 4 10
REMARK H PARENT 1 4 1 5 1 6 4 11
REMARK Flexibility Score: inf
ROOT
ATOM      1  C   UNL     1     -12.672  -3.090 -19.540  1.00  0.00     0.227 C 
ENDROOT
BRANCH   1   2
ATOM      2  C   UNL     1     -11.882  -3.865 -20.609  1.00  0.00     0.253 C 
BRANCH   2   3
ATOM      3  N   UNL     1     -11.458  -5.179 -20.109  1.00  0.00    -0.348 N 
ATOM      4  H   UNL     1     -12.215  -5.889 -20.228  1.00  0.00     0.345 HD
ATOM      5  H   UNL     1     -11.213  -5.108 -19.094  1.00  0.00     0.345 HD
ATOM      6  H   UNL     1     -10.607  -5.495 -20.629  1.00  0.00     0.345 HD
ENDBRANCH   2   3
BRANCH   2   7
ATOM      7  C   UNL     1     -12.688  -4.002 -21.874  1.00  0.00     0.102 C 
ATOM      8  O   UNL     1     -13.429  -3.063 -22.268  1.00  0.00    -0.544 OA
ATOM      9  O   UNL     1     -12.585  -5.159 -22.637  1.00  0.00    -0.544 OA
ENDBRANCH   2   7
ENDBRANCH   1   2
BRANCH   1  10
ATOM     10  O   UNL     1     -14.021  -3.469 -19.547  1.00  0.00    -0.390 OA
ATOM     11  H   UNL     1     -14.038  -4.433 -19.310  1.00  0.00     0.210 HD
ENDBRANCH   1  10
TORSDOF 4
ENDMDL
MODEL 7
REMARK VINA RESULT:    -3.673      2.743      3.052
REMARK INTER + INTRA:          -4.668
REMARK INTER:                  -4.412
REMARK INTRA:                  -0.256
REMARK UNBOUND:                -0.351
REMARK SMILES [NH3+][C@H](CO)C(=O)[O-]
REMARK SMILES IDX 3 1 2 2 1 3 5 7 6 8 7 9 4 10
REMARK H PARENT 1 4 1 5 1 6 4 11
REMARK Flexibility Score: inf
ROOT
ATOM      1  C   UNL     1     -16.089  13.092 -13.425  1.00  0.00     0.227 C 
ENDROOT
BRANCH   1   2
ATOM      2  C   UNL     1     -17.198  12.970 -14.485  1.00  0.00     0.253 C 
BRANCH   2   3
ATOM      3  N   UNL     1     -16.929  11.864 -15.413  1.00  0.00    -0.348 N 
ATOM      4  H   UNL     1     -17.672  11.132 -15.351  1.00  0.00     0.345 HD
ATOM      5  H   UNL     1     -16.003  11.431 -15.186  1.00  0.00     0.345 HD
ATOM      6  H   UNL     1     -16.888  12.229 -16.392  1.00  0.00     0.345 HD
ENDBRANCH   2   3
BRANCH   2   7
ATOM      7  C   UNL     1     -18.546  12.812 -13.832  1.00  0.00     0.102 C 
ATOM      8  O   UNL     1     -18.757  11.879 -13.012  1.00  0.00    -0.544 OA
ATOM      9  O   UNL     1     -19.557  13.725 -14.104  1.00  0.00    -0.544 OA
ENDBRANCH   2   7
ENDBRANCH   1   2
BRANCH   1  10
ATOM     10  O   UNL     1     -16.599  13.618 -12.230  1.00  0.00    -0.390 OA
ATOM     11  H   UNL     1     -16.586  14.605 -12.336  1.00  0.00     0.210 HD
ENDBRANCH   1  10
TORSDOF 4
ENDMDL
MODEL 8
REMARK VINA RESULT:    -3.665      2.138      2.463
REMARK INTER + INTRA:          -4.659
REMARK INTER:                  -4.268
REMARK INTRA:                  -0.392
REMARK UNBOUND:                -0.351
REMARK SMILES [NH3+][C@H](CO)C(=O)[O-]
REMARK SMILES IDX 3 1 2 2 1 3 5 7 6 8 7 9 4 10
REMARK H PARENT 1 4 1 5 1 6 4 11
REMARK Flexibility Score: inf
ROOT
ATOM      1  C   UNL     1     -18.901  12.911 -11.295  1.00  0.00     0.227 C 
ENDROOT
BRANCH   1   2
ATOM      2  C   UNL     1     -18.386  13.729 -12.492  1.00  0.00     0.253 C 
BRANCH   2   3
ATOM      3  N   UNL     1     -16.920  13.819 -12.484  1.00  0.00    -0.348 N 
ATOM      4  H   UNL     1     -16.564  14.075 -11.536  1.00  0.00     0.345 HD
ATOM      5  H   UNL     1     -16.607  14.541 -13.174  1.00  0.00     0.345 HD
ATOM      6  H   UNL     1     -16.510  12.899 -12.767  1.00  0.00     0.345 HD
ENDBRANCH   2   3
BRANCH   2   7
ATOM      7  C   UNL     1     -18.885  13.149 -13.790  1.00  0.00     0.102 C 
ATOM      8  O   UNL     1     -18.230  12.255 -14.388  1.00  0.00    -0.544 OA
ATOM      9  O   UNL     1     -20.099  13.575 -14.315  1.00  0.00    -0.544 OA
ENDBRANCH   2   7
ENDBRANCH   1   2
BRANCH   1  10
ATOM     10  O   UNL     1     -19.623  11.792 -11.732  1.00  0.00    -0.390 OA
ATOM     11  H   UNL     1     -20.457  11.775 -11.193  1.00  0.00     0.210 HD
ENDBRANCH   1  10
TORSDOF 4
ENDMDL
MODEL 9
REMARK VINA RESULT:    -3.659      2.047      2.692
REMARK INTER + INTRA:          -4.652
REMARK INTER:                  -4.429
REMARK INTRA:                  -0.223
REMARK UNBOUND:                -0.351
REMARK SMILES [NH3+][C@H](CO)C(=O)[O-]
REMARK SMILES IDX 3 1 2 2 1 3 5 7 6 8 7 9 4 10
REMARK H PARENT 1 4 1 5 1 6 4 11
REMARK Flexibility Score: inf
ROOT
ATOM      1  C   UNL     1     -19.957  13.277 -13.242  1.00  0.00     0.227 C 
ENDROOT
BRANCH   1   2
ATOM      2  C   UNL     1     -18.656  13.779 -12.593  1.00  0.00     0.253 C 
BRANCH   2   3
ATOM      3  N   UNL     1     -18.578  13.383 -11.180  1.00  0.00    -0.348 N 
ATOM      4  H   UNL     1     -18.229  12.404 -11.083  1.00  0.00     0.345 HD
ATOM      5  H   UNL     1     -19.526  13.453 -10.742  1.00  0.00     0.345 HD
ATOM      6  H   UNL     1     -17.934  14.029 -10.669  1.00  0.00     0.345 HD
ENDBRANCH   2   3
BRANCH   2   7
ATOM      7  C   UNL     1     -17.454  13.291 -13.358  1.00  0.00     0.102 C 
ATOM      8  O   UNL     1     -17.537  12.285 -14.111  1.00  0.00    -0.544 OA
ATOM      9  O   UNL     1     -16.250  13.979 -13.265  1.00  0.00    -0.544 OA
ENDBRANCH   2   7
ENDBRANCH   1   2
BRANCH   1  10
ATOM     10  O   UNL     1     -19.981  13.586 -14.609  1.00  0.00    -0.390 OA
ATOM     11  H   UNL     1     -19.105  13.293 -14.973  1.00  0.00     0.210 HD
ENDBRANCH   1  10
TORSDOF 4
ENDMDL
