MODEL 1
REMARK VINA RESULT:    -4.872      0.000      0.000
REMARK INTER + INTRA:          -5.255
REMARK INTER:                  -5.157
REMARK INTRA:                  -0.098
REMARK UNBOUND:                -0.098
REMARK SMILES C=C(C)[C@@H]1CC=C(C)C(=O)C1
REMARK SMILES IDX 8 1 7 2 6 3 5 4 4 5 11 6 9 7 10 8 2 9 1 10 3 11
REMARK H PARENT
REMARK Flexibility Score: inf
ROOT
ATOM      1  C   UNL     1     -19.243  -5.175   8.800  1.00  0.00     0.048 C 
ATOM      2  C   UNL     1     -18.987  -3.814   9.385  1.00  0.00    -0.012 C 
ATOM      3  C   UNL     1     -17.753  -3.284   9.332  1.00  0.00    -0.019 C 
ATOM      4  C   UNL     1     -17.446  -1.918   9.885  1.00  0.00     0.036 C 
ATOM      5  C   UNL     1     -18.327  -1.605  11.109  1.00  0.00     0.025 C 
ATOM      6  C   UNL     1     -19.815  -1.767  10.752  1.00  0.00     0.089 C 
ATOM      7  C   UNL     1     -20.065  -3.113  10.128  1.00  0.00     0.158 C 
ATOM      8  O   UNL     1     -21.214  -3.624  10.209  1.00  0.00    -0.295 OA
ENDROOT
BRANCH   5   9
ATOM      9  C   UNL     1     -18.036  -0.217  11.664  1.00  0.00    -0.077 C 
ATOM     10  C   UNL     1     -18.766   0.836  11.259  1.00  0.00     0.008 C 
ATOM     11  C   UNL     1     -16.935   0.014  12.669  1.00  0.00     0.039 C 
ENDBRANCH   5   9
TORSDOF 1
ENDMDL
MODEL 2
REMARK VINA RESULT:    -4.613      1.859      4.782
REMARK INTER + INTRA:          -4.981
REMARK INTER:                  -4.884
REMARK INTRA:                  -0.097
REMARK UNBOUND:                -0.098
REMARK SMILES C=C(C)[C@@H]1CC=C(C)C(=O)C1
REMARK SMILES IDX 8 1 7 2 6 3 5 4 4 5 11 6 9 7 10 8 2 9 1 10 3 11
REMARK H PARENT
REMARK Flexibility Score: inf
ROOT
ATOM      1  C   UNL     1     -18.943   0.302  11.287  1.00  0.00     0.048 C 
ATOM      2  C   UNL     1     -18.933  -0.952  10.458  1.00  0.00    -0.012 C 
ATOM      3  C   UNL     1     -20.070  -1.389   9.891  1.00  0.00    -0.019 C 
ATOM      4  C   UNL     1     -20.112  -2.628   9.037  1.00  0.00     0.036 C 
ATOM      5  C   UNL     1     -19.086  -3.670   9.522  1.00  0.00     0.025 C 
ATOM      6  C   UNL     1     -17.679  -3.049   9.577  1.00  0.00     0.089 C 
ATOM      7  C   UNL     1     -17.697  -1.770  10.370  1.00  0.00     0.158 C 
ATOM      8  O   UNL     1     -16.637  -1.380  10.931  1.00  0.00    -0.295 OA
ENDROOT
BRANCH   5   9
ATOM      9  C   UNL     1     -19.108  -4.919   8.651  1.00  0.00    -0.077 C 
ATOM     10  C   UNL     1     -18.484  -4.922   7.461  1.00  0.00     0.008 C 
ATOM     11  C   UNL     1     -19.821  -6.173   9.093  1.00  0.00     0.039 C 
ENDBRANCH   5   9
TORSDOF 1
ENDMDL
MODEL 3
REMARK VINA RESULT:    -4.589      1.058      4.364
REMARK INTER + INTRA:          -4.955
REMARK INTER:                  -4.864
REMARK INTRA:                  -0.091
REMARK UNBOUND:                -0.098
REMARK SMILES C=C(C)[C@@H]1CC=C(C)C(=O)C1
REMARK SMILES IDX 8 1 7 2 6 3 5 4 4 5 11 6 9 7 10 8 2 9 1 10 3 11
REMARK H PARENT
REMARK Flexibility Score: inf
ROOT
ATOM      1  C   UNL     1     -18.281   0.088  11.500  1.00  0.00     0.048 C 
ATOM      2  C   UNL     1     -18.446  -1.256  10.845  1.00  0.00    -0.012 C 
ATOM      3  C   UNL     1     -17.466  -1.745  10.066  1.00  0.00    -0.019 C 
ATOM      4  C   UNL     1     -17.572  -3.092   9.403  1.00  0.00     0.036 C 
ATOM      5  C   UNL     1     -19.032  -3.417   9.036  1.00  0.00     0.025 C 
ATOM      6  C   UNL     1     -19.932  -3.309  10.281  1.00  0.00     0.089 C 
ATOM      7  C   UNL     1     -19.736  -1.982  10.960  1.00  0.00     0.158 C 
ATOM      8  O   UNL     1     -20.669  -1.508  11.663  1.00  0.00    -0.295 OA
ENDROOT
BRANCH   5   9
ATOM      9  C   UNL     1     -19.151  -4.787   8.382  1.00  0.00    -0.077 C 
ATOM     10  C   UNL     1     -18.657  -4.988   7.149  1.00  0.00     0.008 C 
ATOM     11  C   UNL     1     -19.818  -5.940   9.088  1.00  0.00     0.039 C 
ENDBRANCH   5   9
TORSDOF 1
ENDMDL
MODEL 4
REMARK VINA RESULT:    -4.545      1.401      2.275
REMARK INTER + INTRA:          -4.908
REMARK INTER:                  -4.811
REMARK INTRA:                  -0.097
REMARK UNBOUND:                -0.098
REMARK SMILES C=C(C)[C@@H]1CC=C(C)C(=O)C1
REMARK SMILES IDX 8 1 7 2 6 3 5 4 4 5 11 6 9 7 10 8 2 9 1 10 3 11
REMARK H PARENT
REMARK Flexibility Score: inf
ROOT
ATOM      1  C   UNL     1     -20.074  -4.812   8.473  1.00  0.00     0.048 C 
ATOM      2  C   UNL     1     -19.484  -3.764   9.375  1.00  0.00    -0.012 C 
ATOM      3  C   UNL     1     -20.265  -3.137  10.272  1.00  0.00    -0.019 C 
ATOM      4  C   UNL     1     -19.721  -2.094  11.212  1.00  0.00     0.036 C 
ATOM      5  C   UNL     1     -18.573  -1.303  10.557  1.00  0.00     0.025 C 
ATOM      6  C   UNL     1     -17.478  -2.264  10.059  1.00  0.00     0.089 C 
ATOM      7  C   UNL     1     -18.074  -3.338   9.190  1.00  0.00     0.158 C 
ATOM      8  O   UNL     1     -17.350  -3.901   8.326  1.00  0.00    -0.295 OA
ENDROOT
BRANCH   5   9
ATOM      9  C   UNL     1     -18.004  -0.258  11.508  1.00  0.00    -0.077 C 
ATOM     10  C   UNL     1     -16.984  -0.574  12.323  1.00  0.00     0.008 C 
ATOM     11  C   UNL     1     -18.562   1.142  11.563  1.00  0.00     0.039 C 
ENDBRANCH   5   9
TORSDOF 1
ENDMDL
MODEL 5
REMARK VINA RESULT:    -4.347     17.556     18.476
REMARK INTER + INTRA:          -4.699
REMARK INTER:                  -4.600
REMARK INTRA:                  -0.099
REMARK UNBOUND:                -0.098
REMARK SMILES C=C(C)[C@@H]1CC=C(C)C(=O)C1
REMARK SMILES IDX 8 1 7 2 6 3 5 4 4 5 11 6 9 7 10 8 2 9 1 10 3 11
REMARK H PARENT
REMARK Flexibility Score: inf
ROOT
ATOM      1  C   UNL     1      -4.557 -12.835  20.358  1.00  0.00     0.048 C 
ATOM      2  C   UNL     1      -4.495 -12.246  18.976  1.00  0.00    -0.012 C 
ATOM      3  C   UNL     1      -4.208 -10.944  18.816  1.00  0.00    -0.019 C 
ATOM      4  C   UNL     1      -4.115 -10.308  17.454  1.00  0.00     0.036 C 
ATOM      5  C   UNL     1      -5.092 -10.971  16.465  1.00  0.00     0.025 C 
ATOM      6  C   UNL     1      -4.852 -12.491  16.415  1.00  0.00     0.089 C 
ATOM      7  C   UNL     1      -4.871 -13.074  17.802  1.00  0.00     0.158 C 
ATOM      8  O   UNL     1      -5.175 -14.288  17.953  1.00  0.00    -0.295 OA
ENDROOT
BRANCH   5   9
ATOM      9  C   UNL     1      -4.990 -10.347  15.079  1.00  0.00    -0.077 C 
ATOM     10  C   UNL     1      -4.561 -11.082  14.040  1.00  0.00     0.008 C 
ATOM     11  C   UNL     1      -5.363  -8.905  14.837  1.00  0.00     0.039 C 
ENDBRANCH   5   9
TORSDOF 1
ENDMDL
MODEL 6
REMARK VINA RESULT:    -4.201     12.184     12.801
REMARK INTER + INTRA:          -4.545
REMARK INTER:                  -4.446
REMARK INTRA:                  -0.099
REMARK UNBOUND:                -0.098
REMARK SMILES C=C(C)[C@@H]1CC=C(C)C(=O)C1
REMARK SMILES IDX 8 1 7 2 6 3 5 4 4 5 11 6 9 7 10 8 2 9 1 10 3 11
REMARK H PARENT
REMARK Flexibility Score: inf
ROOT
ATOM      1  C   UNL     1      -7.272  -4.255   8.387  1.00  0.00     0.048 C 
ATOM      2  C   UNL     1      -6.713  -3.445   9.524  1.00  0.00    -0.012 C 
ATOM      3  C   UNL     1      -6.886  -3.861  10.790  1.00  0.00    -0.019 C 
ATOM      4  C   UNL     1      -6.330  -3.098  11.963  1.00  0.00     0.036 C 
ATOM      5  C   UNL     1      -6.316  -1.584  11.683  1.00  0.00     0.025 C 
ATOM      6  C   UNL     1      -5.549  -1.288  10.382  1.00  0.00     0.089 C 
ATOM      7  C   UNL     1      -6.080  -2.130   9.254  1.00  0.00     0.158 C 
ATOM      8  O   UNL     1      -5.948  -1.721   8.068  1.00  0.00    -0.295 OA
ENDROOT
BRANCH   5   9
ATOM      9  C   UNL     1      -5.738  -0.806  12.858  1.00  0.00    -0.077 C 
ATOM     10  C   UNL     1      -4.588  -0.127  12.715  1.00  0.00     0.008 C 
ATOM     11  C   UNL     1      -6.429  -0.777  14.198  1.00  0.00     0.039 C 
ENDBRANCH   5   9
TORSDOF 1
ENDMDL
MODEL 7
REMARK VINA RESULT:    -4.173     17.590     18.542
REMARK INTER + INTRA:          -4.514
REMARK INTER:                  -4.416
REMARK INTRA:                  -0.098
REMARK UNBOUND:                -0.098
REMARK SMILES C=C(C)[C@@H]1CC=C(C)C(=O)C1
REMARK SMILES IDX 8 1 7 2 6 3 5 4 4 5 11 6 9 7 10 8 2 9 1 10 3 11
REMARK H PARENT
REMARK Flexibility Score: inf
ROOT
ATOM      1  C   UNL     1      -4.314  -8.836  15.019  1.00  0.00     0.048 C 
ATOM      2  C   UNL     1      -4.639  -9.993  15.923  1.00  0.00    -0.012 C 
ATOM      3  C   UNL     1      -4.725  -9.801  17.250  1.00  0.00    -0.019 C 
ATOM      4  C   UNL     1      -5.066 -10.920  18.198  1.00  0.00     0.036 C 
ATOM      5  C   UNL     1      -4.521 -12.266  17.684  1.00  0.00     0.025 C 
ATOM      6  C   UNL     1      -5.028 -12.538  16.256  1.00  0.00     0.089 C 
ATOM      7  C   UNL     1      -4.741 -11.363  15.362  1.00  0.00     0.158 C 
ATOM      8  O   UNL     1      -4.626 -11.551  14.120  1.00  0.00    -0.295 OA
ENDROOT
BRANCH   5   9
ATOM      9  C   UNL     1      -4.878 -13.408  18.627  1.00  0.00    -0.077 C 
ATOM     10  C   UNL     1      -5.442 -13.146  19.818  1.00  0.00     0.008 C 
ATOM     11  C   UNL     1      -4.611 -14.846  18.258  1.00  0.00     0.039 C 
ENDBRANCH   5   9
TORSDOF 1
ENDMDL
MODEL 8
REMARK VINA RESULT:    -4.095      1.750      4.254
REMARK INTER + INTRA:          -4.433
REMARK INTER:                  -4.334
REMARK INTRA:                  -0.098
REMARK UNBOUND:                -0.098
REMARK SMILES C=C(C)[C@@H]1CC=C(C)C(=O)C1
REMARK SMILES IDX 8 1 7 2 6 3 5 4 4 5 11 6 9 7 10 8 2 9 1 10 3 11
REMARK H PARENT
REMARK Flexibility Score: inf
ROOT
ATOM      1  C   UNL     1     -21.585   1.188  12.164  1.00  0.00     0.048 C 
ATOM      2  C   UNL     1     -20.764   0.048  11.627  1.00  0.00    -0.012 C 
ATOM      3  C   UNL     1     -19.715   0.299  10.826  1.00  0.00    -0.019 C 
ATOM      4  C   UNL     1     -18.849  -0.803  10.276  1.00  0.00     0.036 C 
ATOM      5  C   UNL     1     -19.670  -2.083  10.032  1.00  0.00     0.025 C 
ATOM      6  C   UNL     1     -20.399  -2.504  11.320  1.00  0.00     0.089 C 
ATOM      7  C   UNL     1     -21.187  -1.352  11.881  1.00  0.00     0.158 C 
ATOM      8  O   UNL     1     -22.192  -1.590  12.604  1.00  0.00    -0.295 OA
ENDROOT
BRANCH   5   9
ATOM      9  C   UNL     1     -18.797  -3.210   9.493  1.00  0.00    -0.077 C 
ATOM     10  C   UNL     1     -17.480  -3.014   9.315  1.00  0.00     0.008 C 
ATOM     11  C   UNL     1     -19.379  -4.558   9.149  1.00  0.00     0.039 C 
ENDBRANCH   5   9
TORSDOF 1
ENDMDL
MODEL 9
REMARK VINA RESULT:    -4.068      2.529      4.402
REMARK INTER + INTRA:          -4.404
REMARK INTER:                  -4.307
REMARK INTRA:                  -0.097
REMARK UNBOUND:                -0.098
REMARK SMILES C=C(C)[C@@H]1CC=C(C)C(=O)C1
REMARK SMILES IDX 8 1 7 2 6 3 5 4 4 5 11 6 9 7 10 8 2 9 1 10 3 11
REMARK H PARENT
REMARK Flexibility Score: inf
ROOT
ATOM      1  C   UNL     1     -22.852   0.270  12.865  1.00  0.00     0.048 C 
ATOM      2  C   UNL     1     -21.742  -0.361  12.071  1.00  0.00    -0.012 C 
ATOM      3  C   UNL     1     -21.707  -1.694  11.913  1.00  0.00    -0.019 C 
ATOM      4  C   UNL     1     -20.629  -2.375  11.111  1.00  0.00     0.036 C 
ATOM      5  C   UNL     1     -19.295  -1.613  11.218  1.00  0.00     0.025 C 
ATOM      6  C   UNL     1     -19.485  -0.142  10.805  1.00  0.00     0.089 C 
ATOM      7  C   UNL     1     -20.623   0.477  11.569  1.00  0.00     0.158 C 
ATOM      8  O   UNL     1     -20.637   1.725  11.746  1.00  0.00    -0.295 OA
ENDROOT
BRANCH   5   9
ATOM      9  C   UNL     1     -18.203  -2.284  10.394  1.00  0.00    -0.077 C 
ATOM     10  C   UNL     1     -17.026  -1.666  10.206  1.00  0.00     0.008 C 
ATOM     11  C   UNL     1     -18.410  -3.644   9.774  1.00  0.00     0.039 C 
ENDBRANCH   5   9
TORSDOF 1
ENDMDL
