MODEL 1
REMARK VINA RESULT:    -5.581      0.000      0.000
REMARK INTER + INTRA:          -8.271
REMARK INTER:                  -7.539
REMARK INTRA:                  -0.732
REMARK UNBOUND:                -0.732
REMARK SMILES CC(=O)CCC=C(C)CCC=C(C)C
REMARK SMILES IDX 7 1 6 2 8 3 9 4 10 5 11 6 13 7 12 8 14 9 5 10 4 11 2 12 3 13
REMARK SMILES IDX 1 14
REMARK H PARENT
REMARK Flexibility Score: inf
ROOT
ATOM      1  C   UNL     1      26.471  56.181  10.401  1.00  0.00    -0.077 C 
ATOM      2  C   UNL     1      27.531  57.001  10.589  1.00  0.00    -0.028 C 
ATOM      3  C   UNL     1      26.541  54.704  10.708  1.00  0.00     0.039 C 
ENDROOT
BRANCH   1   4
ATOM      4  C   UNL     1      25.174  56.766   9.887  1.00  0.00     0.034 C 
BRANCH   4   5
ATOM      5  C   UNL     1      24.441  55.760   8.992  1.00  0.00     0.032 C 
BRANCH   5   6
ATOM      6  C   UNL     1      24.893  55.892   7.559  1.00  0.00    -0.028 C 
ATOM      7  C   UNL     1      25.795  55.156   5.395  1.00  0.00     0.039 C 
ATOM      8  C   UNL     1      25.338  54.865   6.801  1.00  0.00    -0.080 C 
ATOM      9  C   UNL     1      25.372  53.445   7.316  1.00  0.00     0.039 C 
ENDBRANCH   5   6
ENDBRANCH   4   5
ENDBRANCH   1   4
BRANCH   2  10
ATOM     10  C   UNL     1      28.890  56.544  11.061  1.00  0.00     0.035 C 
BRANCH  10  11
ATOM     11  C   UNL     1      29.994  57.430  10.477  1.00  0.00     0.079 C 
BRANCH  11  12
ATOM     12  C   UNL     1      30.637  58.259  11.558  1.00  0.00     0.130 C 
ATOM     13  O   UNL     1      31.794  58.032  11.881  1.00  0.00    -0.300 OA
ATOM     14  C   UNL     1      29.886  59.354  12.255  1.00  0.00     0.087 C 
ENDBRANCH  11  12
ENDBRANCH  10  11
ENDBRANCH   2  10
TORSDOF 6
ENDMDL
MODEL 2
REMARK VINA RESULT:    -5.567      2.559      3.814
REMARK INTER + INTRA:          -8.252
REMARK INTER:                  -7.383
REMARK INTRA:                  -0.869
REMARK UNBOUND:                -0.732
REMARK SMILES CC(=O)CCC=C(C)CCC=C(C)C
REMARK SMILES IDX 7 1 6 2 8 3 9 4 10 5 11 6 13 7 12 8 14 9 5 10 4 11 2 12 3 13
REMARK SMILES IDX 1 14
REMARK H PARENT
REMARK Flexibility Score: inf
ROOT
ATOM      1  C   UNL     1      29.970  55.625  10.984  1.00  0.00    -0.077 C 
ATOM      2  C   UNL     1      28.720  56.128  11.097  1.00  0.00    -0.028 C 
ATOM      3  C   UNL     1      31.178  56.517  10.825  1.00  0.00     0.039 C 
ENDROOT
BRANCH   1   4
ATOM      4  C   UNL     1      30.165  54.125  11.037  1.00  0.00     0.034 C 
BRANCH   4   5
ATOM      5  C   UNL     1      28.818  53.405  11.152  1.00  0.00     0.032 C 
BRANCH   5   6
ATOM      6  C   UNL     1      28.538  52.593   9.911  1.00  0.00    -0.028 C 
ATOM      7  C   UNL     1      27.283  51.834   7.940  1.00  0.00     0.039 C 
ATOM      8  C   UNL     1      27.447  52.746   9.128  1.00  0.00    -0.080 C 
ATOM      9  C   UNL     1      26.410  53.810   9.399  1.00  0.00     0.039 C 
ENDBRANCH   5   6
ENDBRANCH   4   5
ENDBRANCH   1   4
BRANCH   2  10
ATOM     10  C   UNL     1      28.381  57.596  11.025  1.00  0.00     0.035 C 
BRANCH  10  11
ATOM     11  C   UNL     1      27.918  58.115  12.389  1.00  0.00     0.079 C 
BRANCH  11  12
ATOM     12  C   UNL     1      28.921  59.084  12.958  1.00  0.00     0.130 C 
ATOM     13  O   UNL     1      28.789  59.481  14.106  1.00  0.00    -0.300 OA
ATOM     14  C   UNL     1      30.078  59.579  12.142  1.00  0.00     0.087 C 
ENDBRANCH  11  12
ENDBRANCH  10  11
ENDBRANCH   2  10
TORSDOF 6
ENDMDL
MODEL 3
REMARK VINA RESULT:    -5.539      9.171     10.201
REMARK INTER + INTRA:          -8.214
REMARK INTER:                  -7.614
REMARK INTRA:                  -0.601
REMARK UNBOUND:                -0.732
REMARK SMILES CC(=O)CCC=C(C)CCC=C(C)C
REMARK SMILES IDX 7 1 6 2 8 3 9 4 10 5 11 6 13 7 12 8 14 9 5 10 4 11 2 12 3 13
REMARK SMILES IDX 1 14
REMARK H PARENT
REMARK Flexibility Score: inf
ROOT
ATOM      1  C   UNL     1      27.408  52.262  17.344  1.00  0.00    -0.077 C 
ATOM      2  C   UNL     1      27.603  53.576  17.603  1.00  0.00    -0.028 C 
ATOM      3  C   UNL     1      26.086  51.583  17.618  1.00  0.00     0.039 C 
ENDROOT
BRANCH   1   4
ATOM      4  C   UNL     1      28.540  51.455  16.746  1.00  0.00     0.034 C 
BRANCH   4   5
ATOM      5  C   UNL     1      28.337  49.959  17.006  1.00  0.00     0.032 C 
BRANCH   5   6
ATOM      6  C   UNL     1      28.108  49.218  15.712  1.00  0.00    -0.028 C 
ATOM      7  C   UNL     1      28.627  47.694  13.855  1.00  0.00     0.039 C 
ATOM      8  C   UNL     1      28.974  48.328  15.177  1.00  0.00    -0.080 C 
ATOM      9  C   UNL     1      30.258  47.943  15.874  1.00  0.00     0.039 C 
ENDBRANCH   5   6
ENDBRANCH   4   5
ENDBRANCH   1   4
BRANCH   2  10
ATOM     10  C   UNL     1      26.575  54.484  18.230  1.00  0.00     0.035 C 
BRANCH  10  11
ATOM     11  C   UNL     1      26.832  54.640  19.732  1.00  0.00     0.079 C 
BRANCH  11  12
ATOM     12  C   UNL     1      25.629  54.202  20.525  1.00  0.00     0.130 C 
ATOM     13  O   UNL     1      24.586  54.832  20.433  1.00  0.00    -0.300 OA
ATOM     14  C   UNL     1      25.685  53.012  21.436  1.00  0.00     0.087 C 
ENDBRANCH  11  12
ENDBRANCH  10  11
ENDBRANCH   2  10
TORSDOF 6
ENDMDL
MODEL 4
REMARK VINA RESULT:    -5.526      2.690      6.610
REMARK INTER + INTRA:          -8.197
REMARK INTER:                  -7.505
REMARK INTRA:                  -0.692
REMARK UNBOUND:                -0.732
REMARK SMILES CC(=O)CCC=C(C)CCC=C(C)C
REMARK SMILES IDX 7 1 6 2 8 3 9 4 10 5 11 6 13 7 12 8 14 9 5 10 4 11 2 12 3 13
REMARK SMILES IDX 1 14
REMARK H PARENT
REMARK Flexibility Score: inf
ROOT
ATOM      1  C   UNL     1      27.023  55.252  10.288  1.00  0.00    -0.077 C 
ATOM      2  C   UNL     1      26.163  56.084   9.656  1.00  0.00    -0.028 C 
ATOM      3  C   UNL     1      26.863  53.751  10.237  1.00  0.00     0.039 C 
ENDROOT
BRANCH   1   4
ATOM      4  C   UNL     1      28.188  55.843  11.052  1.00  0.00     0.034 C 
BRANCH   4   5
ATOM      5  C   UNL     1      28.261  57.360  10.845  1.00  0.00     0.032 C 
BRANCH   5   6
ATOM      6  C   UNL     1      28.067  58.087  12.152  1.00  0.00    -0.028 C 
ATOM      7  C   UNL     1      28.642  59.582  14.016  1.00  0.00     0.039 C 
ATOM      8  C   UNL     1      28.954  58.960  12.680  1.00  0.00    -0.080 C 
ATOM      9  C   UNL     1      30.229  59.337  11.962  1.00  0.00     0.039 C 
ENDBRANCH   5   6
ENDBRANCH   4   5
ENDBRANCH   1   4
BRANCH   2  10
ATOM     10  C   UNL     1      24.943  55.630   8.892  1.00  0.00     0.035 C 
BRANCH  10  11
ATOM     11  C   UNL     1      25.001  56.114   7.441  1.00  0.00     0.079 C 
BRANCH  11  12
ATOM     12  C   UNL     1      25.350  54.978   6.515  1.00  0.00     0.130 C 
ATOM     13  O   UNL     1      25.765  55.223   5.392  1.00  0.00    -0.300 OA
ATOM     14  C   UNL     1      25.190  53.548   6.939  1.00  0.00     0.087 C 
ENDBRANCH  11  12
ENDBRANCH  10  11
ENDBRANCH   2  10
TORSDOF 6
ENDMDL
MODEL 5
REMARK VINA RESULT:    -5.462      2.974      6.462
REMARK INTER + INTRA:          -8.111
REMARK INTER:                  -7.388
REMARK INTRA:                  -0.723
REMARK UNBOUND:                -0.732
REMARK SMILES CC(=O)CCC=C(C)CCC=C(C)C
REMARK SMILES IDX 7 1 6 2 8 3 9 4 10 5 11 6 13 7 12 8 14 9 5 10 4 11 2 12 3 13
REMARK SMILES IDX 1 14
REMARK H PARENT
REMARK Flexibility Score: inf
ROOT
ATOM      1  C   UNL     1      25.841  55.375   9.879  1.00  0.00    -0.077 C 
ATOM      2  C   UNL     1      26.643  54.335   9.556  1.00  0.00    -0.028 C 
ATOM      3  C   UNL     1      24.338  55.233   9.946  1.00  0.00     0.039 C 
ENDROOT
BRANCH   1   4
ATOM      4  C   UNL     1      26.468  56.715  10.199  1.00  0.00     0.034 C 
BRANCH   4   5
ATOM      5  C   UNL     1      27.918  56.539  10.664  1.00  0.00     0.032 C 
BRANCH   5   6
ATOM      6  C   UNL     1      28.424  57.798  11.322  1.00  0.00    -0.028 C 
ATOM      7  C   UNL     1      30.083  59.451  12.067  1.00  0.00     0.039 C 
ATOM      8  C   UNL     1      29.720  58.185  11.335  1.00  0.00    -0.080 C 
ATOM      9  C   UNL     1      30.797  57.399  10.626  1.00  0.00     0.039 C 
ENDBRANCH   5   6
ENDBRANCH   4   5
ENDBRANCH   1   4
BRANCH   2  10
ATOM     10  C   UNL     1      26.148  52.960   9.181  1.00  0.00     0.035 C 
BRANCH  10  11
ATOM     11  C   UNL     1      26.370  52.692   7.690  1.00  0.00     0.079 C 
BRANCH  11  12
ATOM     12  C   UNL     1      25.293  53.346   6.865  1.00  0.00     0.130 C 
ATOM     13  O   UNL     1      24.140  52.952   6.961  1.00  0.00    -0.300 OA
ATOM     14  C   UNL     1      25.605  54.468   5.921  1.00  0.00     0.087 C 
ENDBRANCH  11  12
ENDBRANCH  10  11
ENDBRANCH   2  10
TORSDOF 6
ENDMDL
MODEL 6
REMARK VINA RESULT:    -5.440      9.252     10.778
REMARK INTER + INTRA:          -8.080
REMARK INTER:                  -7.471
REMARK INTRA:                  -0.610
REMARK UNBOUND:                -0.732
REMARK SMILES CC(=O)CCC=C(C)CCC=C(C)C
REMARK SMILES IDX 7 1 6 2 8 3 9 4 10 5 11 6 13 7 12 8 14 9 5 10 4 11 2 12 3 13
REMARK SMILES IDX 1 14
REMARK H PARENT
REMARK Flexibility Score: inf
ROOT
ATOM      1  C   UNL     1      25.726  51.223  17.748  1.00  0.00    -0.077 C 
ATOM      2  C   UNL     1      25.207  51.129  18.994  1.00  0.00    -0.028 C 
ATOM      3  C   UNL     1      25.639  52.497  16.941  1.00  0.00     0.039 C 
ENDROOT
BRANCH   1   4
ATOM      4  C   UNL     1      26.430  50.023  17.154  1.00  0.00     0.034 C 
BRANCH   4   5
ATOM      5  C   UNL     1      27.932  50.290  17.006  1.00  0.00     0.032 C 
BRANCH   5   6
ATOM      6  C   UNL     1      28.608  49.155  16.279  1.00  0.00    -0.028 C 
ATOM      7  C   UNL     1      30.478  47.771  15.487  1.00  0.00     0.039 C 
ATOM      8  C   UNL     1      29.940  48.923  16.295  1.00  0.00    -0.080 C 
ATOM      9  C   UNL     1      30.890  49.769  17.110  1.00  0.00     0.039 C 
ENDBRANCH   5   6
ENDBRANCH   4   5
ENDBRANCH   1   4
BRANCH   2  10
ATOM     10  C   UNL     1      24.451  52.234  19.689  1.00  0.00     0.035 C 
BRANCH  10  11
ATOM     11  C   UNL     1      25.356  52.971  20.681  1.00  0.00     0.079 C 
BRANCH  11  12
ATOM     12  C   UNL     1      25.629  54.376  20.210  1.00  0.00     0.130 C 
ATOM     13  O   UNL     1      24.711  55.181  20.157  1.00  0.00    -0.300 OA
ATOM     14  C   UNL     1      27.004  54.807  19.795  1.00  0.00     0.087 C 
ENDBRANCH  11  12
ENDBRANCH  10  11
ENDBRANCH   2  10
TORSDOF 6
ENDMDL
MODEL 7
REMARK VINA RESULT:    -5.429      3.246      6.609
REMARK INTER + INTRA:          -8.066
REMARK INTER:                  -7.374
REMARK INTRA:                  -0.691
REMARK UNBOUND:                -0.732
REMARK SMILES CC(=O)CCC=C(C)CCC=C(C)C
REMARK SMILES IDX 7 1 6 2 8 3 9 4 10 5 11 6 13 7 12 8 14 9 5 10 4 11 2 12 3 13
REMARK SMILES IDX 1 14
REMARK H PARENT
REMARK Flexibility Score: inf
ROOT
ATOM      1  C   UNL     1      27.435  53.124   9.633  1.00  0.00    -0.077 C 
ATOM      2  C   UNL     1      26.275  53.750   9.940  1.00  0.00    -0.028 C 
ATOM      3  C   UNL     1      27.537  52.155   8.479  1.00  0.00     0.039 C 
ENDROOT
BRANCH   1   4
ATOM      4  C   UNL     1      28.668  53.420  10.458  1.00  0.00     0.034 C 
BRANCH   4   5
ATOM      5  C   UNL     1      28.615  54.842  11.026  1.00  0.00     0.032 C 
BRANCH   5   6
ATOM      6  C   UNL     1      29.967  55.505  10.935  1.00  0.00    -0.028 C 
ATOM      7  C   UNL     1      31.569  57.351  10.678  1.00  0.00     0.039 C 
ATOM      8  C   UNL     1      30.158  56.836  10.797  1.00  0.00    -0.080 C 
ATOM      9  C   UNL     1      29.005  57.812  10.777  1.00  0.00     0.039 C 
ENDBRANCH   5   6
ENDBRANCH   4   5
ENDBRANCH   1   4
BRANCH   2  10
ATOM     10  C   UNL     1      24.967  53.520   9.224  1.00  0.00     0.035 C 
BRANCH  10  11
ATOM     11  C   UNL     1      24.737  54.593   8.155  1.00  0.00     0.079 C 
BRANCH  11  12
ATOM     12  C   UNL     1      24.820  53.994   6.776  1.00  0.00     0.130 C 
ATOM     13  O   UNL     1      24.277  52.922   6.551  1.00  0.00    -0.300 OA
ATOM     14  C   UNL     1      25.562  54.683   5.669  1.00  0.00     0.087 C 
ENDBRANCH  11  12
ENDBRANCH  10  11
ENDBRANCH   2  10
TORSDOF 6
ENDMDL
MODEL 8
REMARK VINA RESULT:    -5.419      8.683     10.585
REMARK INTER + INTRA:          -8.052
REMARK INTER:                  -7.211
REMARK INTRA:                  -0.841
REMARK UNBOUND:                -0.732
REMARK SMILES CC(=O)CCC=C(C)CCC=C(C)C
REMARK SMILES IDX 7 1 6 2 8 3 9 4 10 5 11 6 13 7 12 8 14 9 5 10 4 11 2 12 3 13
REMARK SMILES IDX 1 14
REMARK H PARENT
REMARK Flexibility Score: inf
ROOT
ATOM      1  C   UNL     1      27.369  54.359  17.962  1.00  0.00    -0.077 C 
ATOM      2  C   UNL     1      27.278  54.658  19.278  1.00  0.00    -0.028 C 
ATOM      3  C   UNL     1      26.152  54.311  17.069  1.00  0.00     0.039 C 
ENDROOT
BRANCH   1   4
ATOM      4  C   UNL     1      28.732  54.083  17.365  1.00  0.00     0.034 C 
BRANCH   4   5
ATOM      5  C   UNL     1      28.664  52.918  16.371  1.00  0.00     0.032 C 
BRANCH   5   6
ATOM      6  C   UNL     1      29.822  51.973  16.576  1.00  0.00    -0.028 C 
ATOM      7  C   UNL     1      30.944  49.854  17.114  1.00  0.00     0.039 C 
ATOM      8  C   UNL     1      29.694  50.667  16.902  1.00  0.00    -0.080 C 
ATOM      9  C   UNL     1      28.343  50.006  17.039  1.00  0.00     0.039 C 
ENDBRANCH   5   6
ENDBRANCH   4   5
ENDBRANCH   1   4
BRANCH   2  10
ATOM     10  C   UNL     1      25.982  54.917  20.007  1.00  0.00     0.035 C 
BRANCH  10  11
ATOM     11  C   UNL     1      25.578  53.702  20.847  1.00  0.00     0.079 C 
BRANCH  11  12
ATOM     12  C   UNL     1      24.708  52.769  20.047  1.00  0.00     0.130 C 
ATOM     13  O   UNL     1      23.603  53.142  19.680  1.00  0.00    -0.300 OA
ATOM     14  C   UNL     1      25.164  51.383  19.697  1.00  0.00     0.087 C 
ENDBRANCH  11  12
ENDBRANCH  10  11
ENDBRANCH   2  10
TORSDOF 6
ENDMDL
MODEL 9
REMARK VINA RESULT:    -5.337      1.599      2.554
REMARK INTER + INTRA:          -7.941
REMARK INTER:                  -6.984
REMARK INTRA:                  -0.956
REMARK UNBOUND:                -0.732
REMARK SMILES CC(=O)CCC=C(C)CCC=C(C)C
REMARK SMILES IDX 7 1 6 2 8 3 9 4 10 5 11 6 13 7 12 8 14 9 5 10 4 11 2 12 3 13
REMARK SMILES IDX 1 14
REMARK H PARENT
REMARK Flexibility Score: inf
ROOT
ATOM      1  C   UNL     1      28.125  53.822  10.533  1.00  0.00    -0.077 C 
ATOM      2  C   UNL     1      27.344  54.881  10.849  1.00  0.00    -0.028 C 
ATOM      3  C   UNL     1      29.569  53.738  10.969  1.00  0.00     0.039 C 
ENDROOT
BRANCH   1   4
ATOM      4  C   UNL     1      27.529  52.682   9.737  1.00  0.00     0.034 C 
BRANCH   4   5
ATOM      5  C   UNL     1      26.093  53.008   9.311  1.00  0.00     0.032 C 
BRANCH   5   6
ATOM      6  C   UNL     1      26.019  53.252   7.825  1.00  0.00    -0.028 C 
ATOM      7  C   UNL     1      25.476  54.461   5.755  1.00  0.00     0.039 C 
ATOM      8  C   UNL     1      25.522  54.375   7.259  1.00  0.00    -0.080 C 
ATOM      9  C   UNL     1      25.035  55.540   8.087  1.00  0.00     0.039 C 
ENDBRANCH   5   6
ENDBRANCH   4   5
ENDBRANCH   1   4
BRANCH   2  10
ATOM     10  C   UNL     1      27.820  56.097  11.604  1.00  0.00     0.035 C 
BRANCH  10  11
ATOM     11  C   UNL     1      28.147  57.242  10.640  1.00  0.00     0.079 C 
BRANCH  11  12
ATOM     12  C   UNL     1      29.423  57.932  11.046  1.00  0.00     0.130 C 
ATOM     13  O   UNL     1      29.367  58.966  11.694  1.00  0.00    -0.300 OA
ATOM     14  C   UNL     1      30.764  57.380  10.664  1.00  0.00     0.087 C 
ENDBRANCH  11  12
ENDBRANCH  10  11
ENDBRANCH   2  10
TORSDOF 6
ENDMDL
