MODEL 1
REMARK VINA RESULT:    -3.841      0.000      0.000
REMARK INTER + INTRA:          -5.852
REMARK INTER:                  -5.188
REMARK INTRA:                  -0.664
REMARK UNBOUND:                -0.664
REMARK SMILES CCCCCCC=CC(=O)[O-]
REMARK SMILES IDX 5 1 6 2 7 3 8 4 9 5 10 6 11 7 4 8 3 9 2 10 1 11
REMARK H PARENT
REMARK Flexibility Score: inf
ROOT
ATOM      1  C   UNL     1      32.692   9.270  29.425  1.00  0.00     0.004 C 
ENDROOT
BRANCH   1   2
ATOM      2  C   UNL     1      32.126   8.691  28.122  1.00  0.00     0.027 C 
BRANCH   2   3
ATOM      3  C   UNL     1      30.835   9.358  27.744  1.00  0.00    -0.025 C 
ATOM      4  C   UNL     1      30.392  10.439  28.393  1.00  0.00     0.020 C 
BRANCH   4   5
ATOM      5  C   UNL     1      29.137  11.111  28.027  1.00  0.00     0.064 C 
ATOM      6  O   UNL     1      28.726  11.056  26.839  1.00  0.00    -0.545 OA
ATOM      7  O   UNL     1      28.395  11.808  28.975  1.00  0.00    -0.545 OA
ENDBRANCH   4   5
ENDBRANCH   2   3
ENDBRANCH   1   2
BRANCH   1   8
ATOM      8  C   UNL     1      32.705   8.213  30.536  1.00  0.00     0.000 C 
BRANCH   8   9
ATOM      9  C   UNL     1      31.306   8.041  31.147  1.00  0.00    -0.000 C 
BRANCH   9  10
ATOM     10  C   UNL     1      30.784   6.600  31.031  1.00  0.00    -0.003 C 
ATOM     11  C   UNL     1      29.779   6.426  29.892  1.00  0.00     0.004 C 
ENDBRANCH   9  10
ENDBRANCH   8   9
ENDBRANCH   1   8
TORSDOF 6
ENDMDL
MODEL 2
REMARK VINA RESULT:    -3.715      9.952     11.650
REMARK INTER + INTRA:          -5.682
REMARK INTER:                  -4.976
REMARK INTRA:                  -0.706
REMARK UNBOUND:                -0.664
REMARK SMILES CCCCCCC=CC(=O)[O-]
REMARK SMILES IDX 5 1 6 2 7 3 8 4 9 5 10 6 11 7 4 8 3 9 2 10 1 11
REMARK H PARENT
REMARK Flexibility Score: inf
ROOT
ATOM      1  C   UNL     1      31.040  16.819  23.586  1.00  0.00     0.004 C 
ENDROOT
BRANCH   1   2
ATOM      2  C   UNL     1      30.423  15.835  22.585  1.00  0.00     0.027 C 
BRANCH   2   3
ATOM      3  C   UNL     1      29.108  16.341  22.064  1.00  0.00    -0.025 C 
ATOM      4  C   UNL     1      28.881  16.475  20.754  1.00  0.00     0.020 C 
BRANCH   4   5
ATOM      5  C   UNL     1      27.595  16.957  20.229  1.00  0.00     0.064 C 
ATOM      6  O   UNL     1      26.528  16.389  20.580  1.00  0.00    -0.545 OA
ATOM      7  O   UNL     1      27.539  18.033  19.349  1.00  0.00    -0.545 OA
ENDBRANCH   4   5
ENDBRANCH   2   3
ENDBRANCH   1   2
BRANCH   1   8
ATOM      8  C   UNL     1      30.067  17.960  23.907  1.00  0.00     0.000 C 
BRANCH   8   9
ATOM      9  C   UNL     1      30.742  19.326  23.718  1.00  0.00    -0.000 C 
BRANCH   9  10
ATOM     10  C   UNL     1      30.690  19.814  22.262  1.00  0.00    -0.003 C 
ATOM     11  C   UNL     1      29.262  20.019  21.757  1.00  0.00     0.004 C 
ENDBRANCH   9  10
ENDBRANCH   8   9
ENDBRANCH   1   8
TORSDOF 6
ENDMDL
MODEL 3
REMARK VINA RESULT:    -3.669      1.660      2.326
REMARK INTER + INTRA:          -5.619
REMARK INTER:                  -5.152
REMARK INTRA:                  -0.467
REMARK UNBOUND:                -0.664
REMARK SMILES CCCCCCC=CC(=O)[O-]
REMARK SMILES IDX 5 1 6 2 7 3 8 4 9 5 10 6 11 7 4 8 3 9 2 10 1 11
REMARK H PARENT
REMARK Flexibility Score: inf
ROOT
ATOM      1  C   UNL     1      31.506   9.235  27.862  1.00  0.00     0.004 C 
ENDROOT
BRANCH   1   2
ATOM      2  C   UNL     1      30.106   9.778  27.549  1.00  0.00     0.027 C 
BRANCH   2   3
ATOM      3  C   UNL     1      29.761  10.938  28.439  1.00  0.00    -0.025 C 
ATOM      4  C   UNL     1      28.724  10.887  29.281  1.00  0.00     0.020 C 
BRANCH   4   5
ATOM      5  C   UNL     1      28.382  12.009  30.167  1.00  0.00     0.064 C 
ATOM      6  O   UNL     1      29.197  12.956  30.315  1.00  0.00    -0.545 OA
ATOM      7  O   UNL     1      27.167  12.040  30.846  1.00  0.00    -0.545 OA
ENDBRANCH   4   5
ENDBRANCH   2   3
ENDBRANCH   1   2
BRANCH   1   8
ATOM      8  C   UNL     1      31.472   8.291  29.071  1.00  0.00     0.000 C 
BRANCH   8   9
ATOM      9  C   UNL     1      30.340   7.262  28.933  1.00  0.00    -0.000 C 
BRANCH   9  10
ATOM     10  C   UNL     1      30.025   6.549  30.256  1.00  0.00    -0.003 C 
ATOM     11  C   UNL     1      31.033   6.875  31.358  1.00  0.00     0.004 C 
ENDBRANCH   9  10
ENDBRANCH   8   9
ENDBRANCH   1   8
TORSDOF 6
ENDMDL
MODEL 4
REMARK VINA RESULT:    -3.665      3.067      4.660
REMARK INTER + INTRA:          -5.614
REMARK INTER:                  -5.116
REMARK INTRA:                  -0.498
REMARK UNBOUND:                -0.664
REMARK SMILES CCCCCCC=CC(=O)[O-]
REMARK SMILES IDX 5 1 6 2 7 3 8 4 9 5 10 6 11 7 4 8 3 9 2 10 1 11
REMARK H PARENT
REMARK Flexibility Score: inf
ROOT
ATOM      1  C   UNL     1      29.985   9.806  27.652  1.00  0.00     0.004 C 
ENDROOT
BRANCH   1   2
ATOM      2  C   UNL     1      31.413   9.273  27.821  1.00  0.00     0.027 C 
BRANCH   2   3
ATOM      3  C   UNL     1      31.448   8.098  28.756  1.00  0.00    -0.025 C 
ATOM      4  C   UNL     1      30.356   7.695  29.413  1.00  0.00     0.020 C 
BRANCH   4   5
ATOM      5  C   UNL     1      30.372   6.539  30.320  1.00  0.00     0.064 C 
ATOM      6  O   UNL     1      29.793   5.474  29.982  1.00  0.00    -0.545 OA
ATOM      7  O   UNL     1      31.019   6.603  31.550  1.00  0.00    -0.545 OA
ENDBRANCH   4   5
ENDBRANCH   2   3
ENDBRANCH   1   2
BRANCH   1   8
ATOM      8  C   UNL     1      29.837  11.194  28.288  1.00  0.00     0.000 C 
BRANCH   8   9
ATOM      9  C   UNL     1      28.364  11.506  28.589  1.00  0.00    -0.000 C 
BRANCH   9  10
ATOM     10  C   UNL     1      28.052  11.485  30.094  1.00  0.00    -0.003 C 
ATOM     11  C   UNL     1      29.273  11.138  30.946  1.00  0.00     0.004 C 
ENDBRANCH   9  10
ENDBRANCH   8   9
ENDBRANCH   1   8
TORSDOF 6
ENDMDL
MODEL 5
REMARK VINA RESULT:    -3.617      9.764     11.779
REMARK INTER + INTRA:          -5.550
REMARK INTER:                  -4.876
REMARK INTRA:                  -0.674
REMARK UNBOUND:                -0.664
REMARK SMILES CCCCCCC=CC(=O)[O-]
REMARK SMILES IDX 5 1 6 2 7 3 8 4 9 5 10 6 11 7 4 8 3 9 2 10 1 11
REMARK H PARENT
REMARK Flexibility Score: inf
ROOT
ATOM      1  C   UNL     1      22.866   0.360  24.545  1.00  0.00     0.004 C 
ENDROOT
BRANCH   1   2
ATOM      2  C   UNL     1      22.453   0.273  26.019  1.00  0.00     0.027 C 
BRANCH   2   3
ATOM      3  C   UNL     1      22.691   1.575  26.729  1.00  0.00    -0.025 C 
ATOM      4  C   UNL     1      23.927   2.025  26.967  1.00  0.00     0.020 C 
BRANCH   4   5
ATOM      5  C   UNL     1      24.175   3.303  27.648  1.00  0.00     0.064 C 
ATOM      6  O   UNL     1      23.663   4.360  27.196  1.00  0.00    -0.545 OA
ATOM      7  O   UNL     1      24.969   3.364  28.789  1.00  0.00    -0.545 OA
ENDBRANCH   4   5
ENDBRANCH   2   3
ENDBRANCH   1   2
BRANCH   1   8
ATOM      8  C   UNL     1      21.645   0.584  23.644  1.00  0.00     0.000 C 
BRANCH   8   9
ATOM      9  C   UNL     1      21.779   1.894  22.853  1.00  0.00    -0.000 C 
BRANCH   9  10
ATOM     10  C   UNL     1      21.351   3.123  23.669  1.00  0.00    -0.003 C 
ATOM     11  C   UNL     1      22.479   4.140  23.842  1.00  0.00     0.004 C 
ENDBRANCH   9  10
ENDBRANCH   8   9
ENDBRANCH   1   8
TORSDOF 6
ENDMDL
MODEL 6
REMARK VINA RESULT:    -3.592      9.235     10.527
REMARK INTER + INTRA:          -5.515
REMARK INTER:                  -4.847
REMARK INTRA:                  -0.668
REMARK UNBOUND:                -0.664
REMARK SMILES CCCCCCC=CC(=O)[O-]
REMARK SMILES IDX 5 1 6 2 7 3 8 4 9 5 10 6 11 7 4 8 3 9 2 10 1 11
REMARK H PARENT
REMARK Flexibility Score: inf
ROOT
ATOM      1  C   UNL     1      23.929   3.640  28.529  1.00  0.00     0.004 C 
ENDROOT
BRANCH   1   2
ATOM      2  C   UNL     1      23.254   4.761  27.728  1.00  0.00     0.027 C 
BRANCH   2   3
ATOM      3  C   UNL     1      23.134   4.396  26.276  1.00  0.00    -0.025 C 
ATOM      4  C   UNL     1      21.946   4.339  25.667  1.00  0.00     0.020 C 
BRANCH   4   5
ATOM      5  C   UNL     1      21.813   3.997  24.244  1.00  0.00     0.064 C 
ATOM      6  O   UNL     1      20.845   3.288  23.861  1.00  0.00    -0.545 OA
ATOM      7  O   UNL     1      22.742   4.445  23.310  1.00  0.00    -0.545 OA
ENDBRANCH   4   5
ENDBRANCH   2   3
ENDBRANCH   1   2
BRANCH   1   8
ATOM      8  C   UNL     1      24.251   2.439  27.630  1.00  0.00     0.000 C 
BRANCH   8   9
ATOM      9  C   UNL     1      23.509   1.183  28.108  1.00  0.00    -0.000 C 
BRANCH   9  10
ATOM     10  C   UNL     1      22.522   0.646  27.060  1.00  0.00    -0.003 C 
ATOM     11  C   UNL     1      23.058   0.754  25.632  1.00  0.00     0.004 C 
ENDBRANCH   9  10
ENDBRANCH   8   9
ENDBRANCH   1   8
TORSDOF 6
ENDMDL
MODEL 7
REMARK VINA RESULT:    -3.524      1.343      2.430
REMARK INTER + INTRA:          -5.424
REMARK INTER:                  -4.764
REMARK INTRA:                  -0.660
REMARK UNBOUND:                -0.664
REMARK SMILES CCCCCCC=CC(=O)[O-]
REMARK SMILES IDX 5 1 6 2 7 3 8 4 9 5 10 6 11 7 4 8 3 9 2 10 1 11
REMARK H PARENT
REMARK Flexibility Score: inf
ROOT
ATOM      1  C   UNL     1      32.682   8.406  28.206  1.00  0.00     0.004 C 
ENDROOT
BRANCH   1   2
ATOM      2  C   UNL     1      31.279   8.061  28.722  1.00  0.00     0.027 C 
BRANCH   2   3
ATOM      3  C   UNL     1      30.246   8.989  28.151  1.00  0.00    -0.025 C 
ATOM      4  C   UNL     1      30.040  10.206  28.665  1.00  0.00     0.020 C 
BRANCH   4   5
ATOM      5  C   UNL     1      29.042  11.130  28.110  1.00  0.00     0.064 C 
ATOM      6  O   UNL     1      28.468  11.955  28.868  1.00  0.00    -0.545 OA
ATOM      7  O   UNL     1      28.721  11.109  26.756  1.00  0.00    -0.545 OA
ENDBRANCH   4   5
ENDBRANCH   2   3
ENDBRANCH   1   2
BRANCH   1   8
ATOM      8  C   UNL     1      33.646   8.670  29.370  1.00  0.00     0.000 C 
BRANCH   8   9
ATOM      9  C   UNL     1      32.977   8.363  30.718  1.00  0.00    -0.000 C 
BRANCH   9  10
ATOM     10  C   UNL     1      33.114   9.518  31.722  1.00  0.00    -0.003 C 
ATOM     11  C   UNL     1      32.713  10.869  31.128  1.00  0.00     0.004 C 
ENDBRANCH   9  10
ENDBRANCH   8   9
ENDBRANCH   1   8
TORSDOF 6
ENDMDL
MODEL 8
REMARK VINA RESULT:    -3.494      1.260      2.572
REMARK INTER + INTRA:          -5.383
REMARK INTER:                  -4.674
REMARK INTRA:                  -0.709
REMARK UNBOUND:                -0.664
REMARK SMILES CCCCCCC=CC(=O)[O-]
REMARK SMILES IDX 5 1 6 2 7 3 8 4 9 5 10 6 11 7 4 8 3 9 2 10 1 11
REMARK H PARENT
REMARK Flexibility Score: inf
ROOT
ATOM      1  C   UNL     1      30.599   6.757  30.484  1.00  0.00     0.004 C 
ENDROOT
BRANCH   1   2
ATOM      2  C   UNL     1      30.482   7.406  29.100  1.00  0.00     0.027 C 
BRANCH   2   3
ATOM      3  C   UNL     1      29.984   8.819  29.201  1.00  0.00    -0.025 C 
ATOM      4  C   UNL     1      30.391   9.766  28.349  1.00  0.00     0.020 C 
BRANCH   4   5
ATOM      5  C   UNL     1      29.902  11.149  28.427  1.00  0.00     0.064 C 
ATOM      6  O   UNL     1      30.634  12.041  28.932  1.00  0.00    -0.545 OA
ATOM      7  O   UNL     1      28.641  11.491  27.951  1.00  0.00    -0.545 OA
ENDBRANCH   4   5
ENDBRANCH   2   3
ENDBRANCH   1   2
BRANCH   1   8
ATOM      8  C   UNL     1      31.169   7.746  31.509  1.00  0.00     0.000 C 
BRANCH   8   9
ATOM      9  C   UNL     1      32.704   7.720  31.501  1.00  0.00    -0.000 C 
BRANCH   9  10
ATOM     10  C   UNL     1      33.314   9.007  30.925  1.00  0.00    -0.003 C 
ATOM     11  C   UNL     1      33.957   8.796  29.555  1.00  0.00     0.004 C 
ENDBRANCH   9  10
ENDBRANCH   8   9
ENDBRANCH   1   8
TORSDOF 6
ENDMDL
MODEL 9
REMARK VINA RESULT:    -3.468      1.985      2.957
REMARK INTER + INTRA:          -5.347
REMARK INTER:                  -4.652
REMARK INTRA:                  -0.696
REMARK UNBOUND:                -0.664
REMARK SMILES CCCCCCC=CC(=O)[O-]
REMARK SMILES IDX 5 1 6 2 7 3 8 4 9 5 10 6 11 7 4 8 3 9 2 10 1 11
REMARK H PARENT
REMARK Flexibility Score: inf
ROOT
ATOM      1  C   UNL     1      30.649   8.503  28.487  1.00  0.00     0.004 C 
ENDROOT
BRANCH   1   2
ATOM      2  C   UNL     1      30.121   9.617  27.575  1.00  0.00     0.027 C 
BRANCH   2   3
ATOM      3  C   UNL     1      29.717  10.826  28.369  1.00  0.00    -0.025 C 
ATOM      4  C   UNL     1      28.820  10.744  29.357  1.00  0.00     0.020 C 
BRANCH   4   5
ATOM      5  C   UNL     1      28.424  11.915  30.152  1.00  0.00     0.064 C 
ATOM      6  O   UNL     1      27.309  11.922  30.738  1.00  0.00    -0.545 OA
ATOM      7  O   UNL     1      29.263  13.018  30.269  1.00  0.00    -0.545 OA
ENDBRANCH   4   5
ENDBRANCH   2   3
ENDBRANCH   1   2
BRANCH   1   8
ATOM      8  C   UNL     1      32.116   8.184  28.174  1.00  0.00     0.000 C 
BRANCH   8   9
ATOM      9  C   UNL     1      33.057   8.959  29.107  1.00  0.00    -0.000 C 
BRANCH   9  10
ATOM     10  C   UNL     1      32.433   9.228  30.485  1.00  0.00    -0.003 C 
ATOM     11  C   UNL     1      32.496  10.703  30.885  1.00  0.00     0.004 C 
ENDBRANCH   9  10
ENDBRANCH   8   9
ENDBRANCH   1   8
TORSDOF 6
ENDMDL
