MODEL 1
REMARK VINA RESULT:    -4.109      0.000      0.000
REMARK INTER + INTRA:          -5.686
REMARK INTER:                  -5.311
REMARK INTRA:                  -0.376
REMARK UNBOUND:                -0.376
REMARK SMILES CCCCCCC(=O)[O-]
REMARK SMILES IDX 5 1 6 2 7 3 8 4 9 5 4 6 3 7 2 8 1 9
REMARK H PARENT
REMARK Flexibility Score: inf
ROOT
ATOM      1  C   UNL     1      -0.631   1.461   4.872  1.00  0.00     0.006 C 
ENDROOT
BRANCH   1   2
ATOM      2  C   UNL     1       0.758   1.173   5.459  1.00  0.00     0.053 C 
BRANCH   2   3
ATOM      3  C   UNL     1       0.982   1.987   6.694  1.00  0.00     0.041 C 
ATOM      4  O   UNL     1       1.260   3.212   6.604  1.00  0.00    -0.550 OA
ATOM      5  O   UNL     1       0.932   1.383   7.944  1.00  0.00    -0.550 OA
ENDBRANCH   2   3
ENDBRANCH   1   2
BRANCH   1   6
ATOM      6  C   UNL     1      -1.732   1.496   5.944  1.00  0.00     0.000 C 
BRANCH   6   7
ATOM      7  C   UNL     1      -2.389   0.122   6.161  1.00  0.00    -0.000 C 
BRANCH   7   8
ATOM      8  C   UNL     1      -2.090  -0.460   7.552  1.00  0.00    -0.003 C 
ATOM      9  C   UNL     1      -0.951  -1.480   7.535  1.00  0.00     0.004 C 
ENDBRANCH   7   8
ENDBRANCH   6   7
ENDBRANCH   1   6
TORSDOF 5
ENDMDL
MODEL 2
REMARK VINA RESULT:    -4.033      0.840      1.465
REMARK INTER + INTRA:          -5.588
REMARK INTER:                  -5.216
REMARK INTRA:                  -0.372
REMARK UNBOUND:                -0.376
REMARK SMILES CCCCCCC(=O)[O-]
REMARK SMILES IDX 5 1 6 2 7 3 8 4 9 5 4 6 3 7 2 8 1 9
REMARK H PARENT
REMARK Flexibility Score: inf
ROOT
ATOM      1  C   UNL     1      -0.013   0.603   5.368  1.00  0.00     0.006 C 
ENDROOT
BRANCH   1   2
ATOM      2  C   UNL     1       1.075   1.686   5.394  1.00  0.00     0.053 C 
BRANCH   2   3
ATOM      3  C   UNL     1       1.170   2.297   6.756  1.00  0.00     0.041 C 
ATOM      4  O   UNL     1       0.930   1.605   7.780  1.00  0.00    -0.550 OA
ATOM      5  O   UNL     1       1.474   3.646   6.894  1.00  0.00    -0.550 OA
ENDBRANCH   2   3
ENDBRANCH   1   2
BRANCH   1   6
ATOM      6  C   UNL     1      -1.416   1.178   5.115  1.00  0.00     0.000 C 
BRANCH   6   7
ATOM      7  C   UNL     1      -2.343   1.029   6.334  1.00  0.00    -0.000 C 
BRANCH   7   8
ATOM      8  C   UNL     1      -2.046  -0.240   7.148  1.00  0.00    -0.003 C 
ATOM      9  C   UNL     1      -2.188  -0.024   8.655  1.00  0.00     0.004 C 
ENDBRANCH   7   8
ENDBRANCH   6   7
ENDBRANCH   1   6
TORSDOF 5
ENDMDL
MODEL 3
REMARK VINA RESULT:    -4.009      1.443      3.326
REMARK INTER + INTRA:          -5.556
REMARK INTER:                  -5.228
REMARK INTRA:                  -0.328
REMARK UNBOUND:                -0.376
REMARK SMILES CCCCCCC(=O)[O-]
REMARK SMILES IDX 5 1 6 2 7 3 8 4 9 5 4 6 3 7 2 8 1 9
REMARK H PARENT
REMARK Flexibility Score: inf
ROOT
ATOM      1  C   UNL     1      -1.922  -0.259   7.543  1.00  0.00     0.006 C 
ENDROOT
BRANCH   1   2
ATOM      2  C   UNL     1      -0.926  -1.422   7.431  1.00  0.00     0.053 C 
BRANCH   2   3
ATOM      3  C   UNL     1       0.364  -1.070   8.101  1.00  0.00     0.041 C 
ATOM      4  O   UNL     1       0.894   0.055   7.905  1.00  0.00    -0.550 OA
ATOM      5  O   UNL     1       1.010  -2.003   8.903  1.00  0.00    -0.550 OA
ENDBRANCH   2   3
ENDBRANCH   1   2
BRANCH   1   6
ATOM      6  C   UNL     1      -2.304   0.328   6.175  1.00  0.00     0.000 C 
BRANCH   6   7
ATOM      7  C   UNL     1      -1.372   1.473   5.744  1.00  0.00    -0.000 C 
BRANCH   7   8
ATOM      8  C   UNL     1      -0.494   1.096   4.540  1.00  0.00    -0.003 C 
ATOM      9  C   UNL     1       0.988   1.392   4.772  1.00  0.00     0.004 C 
ENDBRANCH   7   8
ENDBRANCH   6   7
ENDBRANCH   1   6
TORSDOF 5
ENDMDL
MODEL 4
REMARK VINA RESULT:    -3.954      1.958      2.736
REMARK INTER + INTRA:          -5.486
REMARK INTER:                  -5.216
REMARK INTRA:                  -0.270
REMARK UNBOUND:                -0.376
REMARK SMILES CCCCCCC(=O)[O-]
REMARK SMILES IDX 5 1 6 2 7 3 8 4 9 5 4 6 3 7 2 8 1 9
REMARK H PARENT
REMARK Flexibility Score: inf
ROOT
ATOM      1  C   UNL     1       0.619   0.335   6.719  1.00  0.00     0.006 C 
ENDROOT
BRANCH   1   2
ATOM      2  C   UNL     1       0.661   0.372   5.185  1.00  0.00     0.053 C 
BRANCH   2   3
ATOM      3  C   UNL     1      -0.051   1.584   4.673  1.00  0.00     0.041 C 
ATOM      4  O   UNL     1      -1.180   1.899   5.133  1.00  0.00    -0.550 OA
ATOM      5  O   UNL     1       0.511   2.341   3.651  1.00  0.00    -0.550 OA
ENDBRANCH   2   3
ENDBRANCH   1   2
BRANCH   1   6
ATOM      6  C   UNL     1       0.375  -1.078   7.272  1.00  0.00     0.000 C 
BRANCH   6   7
ATOM      7  C   UNL     1      -1.119  -1.380   7.482  1.00  0.00    -0.000 C 
BRANCH   7   8
ATOM      8  C   UNL     1      -1.919  -0.135   7.895  1.00  0.00    -0.003 C 
ATOM      9  C   UNL     1      -2.465  -0.227   9.320  1.00  0.00     0.004 C 
ENDBRANCH   7   8
ENDBRANCH   6   7
ENDBRANCH   1   6
TORSDOF 5
ENDMDL
MODEL 5
REMARK VINA RESULT:    -3.925      1.810      2.435
REMARK INTER + INTRA:          -5.448
REMARK INTER:                  -5.033
REMARK INTRA:                  -0.415
REMARK UNBOUND:                -0.376
REMARK SMILES CCCCCCC(=O)[O-]
REMARK SMILES IDX 5 1 6 2 7 3 8 4 9 5 4 6 3 7 2 8 1 9
REMARK H PARENT
REMARK Flexibility Score: inf
ROOT
ATOM      1  C   UNL     1       0.443   1.444   7.441  1.00  0.00     0.006 C 
ENDROOT
BRANCH   1   2
ATOM      2  C   UNL     1       1.142   2.188   6.294  1.00  0.00     0.053 C 
BRANCH   2   3
ATOM      3  C   UNL     1       0.801   1.559   4.980  1.00  0.00     0.041 C 
ATOM      4  O   UNL     1       0.320   2.257   4.049  1.00  0.00    -0.550 OA
ATOM      5  O   UNL     1       0.968   0.191   4.800  1.00  0.00    -0.550 OA
ENDBRANCH   2   3
ENDBRANCH   1   2
BRANCH   1   6
ATOM      6  C   UNL     1      -0.943   2.024   7.766  1.00  0.00     0.000 C 
BRANCH   6   7
ATOM      7  C   UNL     1      -2.011   0.932   7.953  1.00  0.00    -0.000 C 
BRANCH   7   8
ATOM      8  C   UNL     1      -2.114  -0.004   6.738  1.00  0.00    -0.003 C 
ATOM      9  C   UNL     1      -2.668   0.695   5.496  1.00  0.00     0.004 C 
ENDBRANCH   7   8
ENDBRANCH   6   7
ENDBRANCH   1   6
TORSDOF 5
ENDMDL
MODEL 6
REMARK VINA RESULT:    -3.906      1.964      2.652
REMARK INTER + INTRA:          -5.423
REMARK INTER:                  -5.026
REMARK INTRA:                  -0.398
REMARK UNBOUND:                -0.376
REMARK SMILES CCCCCCC(=O)[O-]
REMARK SMILES IDX 5 1 6 2 7 3 8 4 9 5 4 6 3 7 2 8 1 9
REMARK H PARENT
REMARK Flexibility Score: inf
ROOT
ATOM      1  C   UNL     1       0.140   1.119   5.775  1.00  0.00     0.006 C 
ENDROOT
BRANCH   1   2
ATOM      2  C   UNL     1       0.694  -0.308   5.897  1.00  0.00     0.053 C 
BRANCH   2   3
ATOM      3  C   UNL     1       0.317  -0.903   7.217  1.00  0.00     0.041 C 
ATOM      4  O   UNL     1       1.042  -0.714   8.228  1.00  0.00    -0.550 OA
ATOM      5  O   UNL     1      -0.810  -1.709   7.319  1.00  0.00    -0.550 OA
ENDBRANCH   2   3
ENDBRANCH   1   2
BRANCH   1   6
ATOM      6  C   UNL     1      -1.286   1.154   5.201  1.00  0.00     0.000 C 
BRANCH   6   7
ATOM      7  C   UNL     1      -2.357   1.329   6.292  1.00  0.00    -0.000 C 
BRANCH   7   8
ATOM      8  C   UNL     1      -1.797   1.977   7.568  1.00  0.00    -0.003 C 
ATOM      9  C   UNL     1      -2.242   1.259   8.842  1.00  0.00     0.004 C 
ENDBRANCH   7   8
ENDBRANCH   6   7
ENDBRANCH   1   6
TORSDOF 5
ENDMDL
MODEL 7
REMARK VINA RESULT:    -3.893      1.844      2.435
REMARK INTER + INTRA:          -5.407
REMARK INTER:                  -5.078
REMARK INTRA:                  -0.329
REMARK UNBOUND:                -0.376
REMARK SMILES CCCCCCC(=O)[O-]
REMARK SMILES IDX 5 1 6 2 7 3 8 4 9 5 4 6 3 7 2 8 1 9
REMARK H PARENT
REMARK Flexibility Score: inf
ROOT
ATOM      1  C   UNL     1      -1.243   1.854   6.653  1.00  0.00     0.006 C 
ENDROOT
BRANCH   1   2
ATOM      2  C   UNL     1      -1.287   1.244   5.245  1.00  0.00     0.053 C 
BRANCH   2   3
ATOM      3  C   UNL     1       0.002   1.495   4.527  1.00  0.00     0.041 C 
ATOM      4  O   UNL     1       0.967   0.697   4.658  1.00  0.00    -0.550 OA
ATOM      5  O   UNL     1       0.155   2.639   3.753  1.00  0.00    -0.550 OA
ENDBRANCH   2   3
ENDBRANCH   1   2
BRANCH   1   6
ATOM      6  C   UNL     1      -1.744   0.884   7.735  1.00  0.00     0.000 C 
BRANCH   6   7
ATOM      7  C   UNL     1      -1.993  -0.532   7.189  1.00  0.00    -0.000 C 
BRANCH   7   8
ATOM      8  C   UNL     1      -1.039  -1.573   7.796  1.00  0.00    -0.003 C 
ATOM      9  C   UNL     1       0.434  -1.238   7.558  1.00  0.00     0.004 C 
ENDBRANCH   7   8
ENDBRANCH   6   7
ENDBRANCH   1   6
TORSDOF 5
ENDMDL
MODEL 8
REMARK VINA RESULT:    -3.762      2.832      4.428
REMARK INTER + INTRA:          -5.237
REMARK INTER:                  -5.057
REMARK INTRA:                  -0.180
REMARK UNBOUND:                -0.376
REMARK SMILES CCCCCCC(=O)[O-]
REMARK SMILES IDX 5 1 6 2 7 3 8 4 9 5 4 6 3 7 2 8 1 9
REMARK H PARENT
REMARK Flexibility Score: inf
ROOT
ATOM      1  C   UNL     1       0.546  -1.245   7.384  1.00  0.00     0.006 C 
ENDROOT
BRANCH   1   2
ATOM      2  C   UNL     1      -0.113  -1.631   8.716  1.00  0.00     0.053 C 
BRANCH   2   3
ATOM      3  C   UNL     1       0.758  -2.586   9.470  1.00  0.00     0.041 C 
ATOM      4  O   UNL     1       0.296  -3.688   9.867  1.00  0.00    -0.550 OA
ATOM      5  O   UNL     1       2.067  -2.237   9.780  1.00  0.00    -0.550 OA
ENDBRANCH   2   3
ENDBRANCH   1   2
BRANCH   1   6
ATOM      6  C   UNL     1       0.374   0.245   7.047  1.00  0.00     0.000 C 
BRANCH   6   7
ATOM      7  C   UNL     1       0.271   0.500   5.534  1.00  0.00    -0.000 C 
BRANCH   7   8
ATOM      8  C   UNL     1      -0.892   1.438   5.173  1.00  0.00    -0.003 C 
ATOM      9  C   UNL     1      -2.256   0.870   5.568  1.00  0.00     0.004 C 
ENDBRANCH   7   8
ENDBRANCH   6   7
ENDBRANCH   1   6
TORSDOF 5
ENDMDL
MODEL 9
REMARK VINA RESULT:    -3.752      2.042      3.019
REMARK INTER + INTRA:          -5.224
REMARK INTER:                  -4.905
REMARK INTRA:                  -0.318
REMARK UNBOUND:                -0.376
REMARK SMILES CCCCCCC(=O)[O-]
REMARK SMILES IDX 5 1 6 2 7 3 8 4 9 5 4 6 3 7 2 8 1 9
REMARK H PARENT
REMARK Flexibility Score: inf
ROOT
ATOM      1  C   UNL     1       0.540   0.787   7.115  1.00  0.00     0.006 C 
ENDROOT
BRANCH   1   2
ATOM      2  C   UNL     1      -0.727   1.644   6.984  1.00  0.00     0.053 C 
BRANCH   2   3
ATOM      3  C   UNL     1      -1.281   1.547   5.598  1.00  0.00     0.041 C 
ATOM      4  O   UNL     1      -2.392   0.989   5.397  1.00  0.00    -0.550 OA
ATOM      5  O   UNL     1      -0.548   2.029   4.520  1.00  0.00    -0.550 OA
ENDBRANCH   2   3
ENDBRANCH   1   2
BRANCH   1   6
ATOM      6  C   UNL     1       0.273  -0.707   6.874  1.00  0.00     0.000 C 
BRANCH   6   7
ATOM      7  C   UNL     1       0.109  -1.497   8.184  1.00  0.00    -0.000 C 
BRANCH   7   8
ATOM      8  C   UNL     1      -1.263  -2.182   8.290  1.00  0.00    -0.003 C 
ATOM      9  C   UNL     1      -2.417  -1.184   8.391  1.00  0.00     0.004 C 
ENDBRANCH   7   8
ENDBRANCH   6   7
ENDBRANCH   1   6
TORSDOF 5
ENDMDL
